# generated using pymatgen
data_H2O
_symmetry_space_group_name_H-M   'P 1'
_cell_length_a   17.99299061
_cell_length_b   18.00053929
_cell_length_c   22.00087756
_cell_angle_alpha   89.98883096
_cell_angle_beta   90.01835018
_cell_angle_gamma   120.01680281
_symmetry_Int_Tables_number   1
_chemical_formula_structural   H2O
_chemical_formula_sum   'H384 O192'
_cell_volume   6170.01081373
_cell_formula_units_Z   192
loop_
 _symmetry_equiv_pos_site_id
 _symmetry_equiv_pos_as_xyz
  1  'x, y, z'
loop_
 _atom_type_symbol
 _atom_type_oxidation_number
  H+  1.0
  O2-  -2.0
loop_
 _atom_site_type_symbol
 _atom_site_label
 _atom_site_symmetry_multiplicity
 _atom_site_fract_x
 _atom_site_fract_y
 _atom_site_fract_z
 _atom_site_occupancy
  H+  H0  1  0.86193027  0.97470754  0.16302891  1
  H+  H1  1  0.23031422  0.84039010  0.67780008  1
  H+  H2  1  0.22652677  0.11541971  0.84110770  1
  H+  H3  1  0.33545465  0.90810433  0.74826479  1
  H+  H4  1  0.41864961  0.83867693  0.56921448  1
  H+  H5  1  0.63289597  0.87047693  0.77921217  1
  H+  H6  1  0.22173016  0.87223371  0.50655047  1
  H+  H7  1  0.58343952  0.16614176  0.06450896  1
  H+  H8  1  0.09719000  0.13508037  0.67256783  1
  H+  H9  1  0.88087942  0.04123063  0.68235647  1
  H+  H10  1  0.82947423  0.06722566  0.52692762  1
  H+  H11  1  0.32695596  0.91096300  0.43447803  1
  H+  H12  1  0.08975036  0.33453542  0.00694037  1
  H+  H13  1  0.60768094  0.37817444  0.81685096  1
  H+  H14  1  0.25403415  0.36090915  0.15911218  1
  H+  H15  1  0.03792704  0.86669449  0.67557908  1
  H+  H16  1  0.86413958  0.74104295  0.49785583  1
  H+  H17  1  0.84154260  0.66062438  0.08708889  1
  H+  H18  1  0.09113407  0.91629820  0.10431949  1
  H+  H19  1  0.88808503  0.84120292  0.99513031  1
  H+  H20  1  0.90864256  0.57809730  0.60671718  1
  H+  H21  1  0.43928526  0.38865028  0.51915648  1
  H+  H22  1  0.02963445  0.64392570  0.15516649  1
  H+  H23  1  0.72891326  0.86991557  0.16338765  1
  H+  H24  1  0.40930205  0.34288731  0.61191771  1
  H+  H25  1  0.13722053  0.11486754  0.84137528  1
  H+  H26  1  0.11626767  0.23053689  0.83146520  1
  H+  H27  1  0.91380212  0.80874564  0.55868562  1
  H+  H28  1  0.12331354  0.35081354  0.16843960  1
  H+  H29  1  0.73243756  0.11094410  0.85045321  1
  H+  H30  1  0.34951472  0.88795393  0.33363152  1
  H+  H31  1  0.97369457  0.13597068  0.47609127  1
  H+  H32  1  0.11056445  0.89698706  0.32912154  1
  H+  H33  1  0.26656789  0.13263528  0.32652890  1
  H+  H34  1  0.77936501  0.89456390  0.30450685  1
  H+  H35  1  0.36407974  0.48211442  0.67946700  1
  H+  H36  1  0.13155726  0.78727633  0.51131426  1
  H+  H37  1  0.98739694  0.11290111  0.85256119  1
  H+  H38  1  0.50537331  0.64433161  0.99053729  1
  H+  H39  1  0.39340589  0.85811980  0.66850605  1
  H+  H40  1  0.62250280  0.60172529  0.50579583  1
  H+  H41  1  0.39211809  0.60603418  0.31466273  1
  H+  H42  1  0.36326820  0.89026243  0.49506938  1
  H+  H43  1  -0.03302174  0.09186425  0.17904136  1
  H+  H44  1  0.65292387  0.36571574  0.50141930  1
  H+  H45  1  0.47569021  0.36286560  0.32586122  1
  H+  H46  1  0.87218908  0.64190301  0.82555920  1
  H+  H47  1  0.25474477  0.63652711  0.51854790  1
  H+  H48  1  0.89445093  0.36633250  0.65775865  1
  H+  H49  1  0.30716035  0.84613334  0.17550773  1
  H+  H50  1  0.13727616  0.76337638  -0.00451677  1
  H+  H51  1  -0.00154992  0.64043647  0.34175632  1
  H+  H52  1  0.85945811  0.95908205  0.26406649  1
  H+  H53  1  0.78358597  0.39284863  0.49277412  1
  H+  H54  1  0.62082587  0.14332518  0.00681368  1
  H+  H55  1  0.61332044  0.87412733  0.15255136  1
  H+  H56  1  1.02826503  0.38409153  0.67056598  1
  H+  H57  1  0.29670273  0.15603747  0.50020598  1
  H+  H58  1  1.02072073  0.86983362  1.01290794  1
  H+  H59  1  0.22064776  0.35712296  0.31662244  1
  H+  H60  1  0.73244230  0.11216617  0.99928338  1
  H+  H61  1  1.01832386  0.42781839  0.18322747  1
  H+  H62  1  0.10021973  0.64251383  0.50494997  1
  H+  H63  1  0.35833081  0.00883808  0.86266133  1
  H+  H64  1  0.15004466  0.60584207  0.84187725  1
  H+  H65  1  0.12582009  0.02610007  0.31441311  1
  H+  H66  1  0.97479450  0.36228983  0.83624641  1
  H+  H67  1  1.01203716  0.35380248  1.00190787  1
  H+  H68  1  0.62334327  -0.02060927  1.00761240  1
  H+  H69  1  0.87149971  0.47249020  0.33332227  1
  H+  H70  1  0.37892372  0.28356870  0.51726979  1
  H+  H71  1  0.26158597  0.62633609  0.29814416  1
  H+  H72  1  0.40850981  0.62665174  0.17102723  1
  H+  H73  1  0.57943151  0.93527798  0.72227492  1
  H+  H74  1  0.64104405  0.37048839  0.16424701  1
  H+  H75  1  0.01511110  0.13605453  0.33829217  1
  H+  H76  1  0.13239251  0.60550451  0.67021317  1
  H+  H77  1  0.63164575  0.52340521  0.99301407  1
  H+  H78  1  0.90618994  0.19086659  0.03480691  1
  H+  H79  1  0.61259810  0.88152777  0.80514138  1
  H+  H80  1  0.61235015  1.00055472  0.49926517  1
  H+  H81  1  -0.01223753  0.16124914  0.50536013  1
  H+  H82  1  0.85737384  0.46818855  0.67623601  1
  H+  H83  1  0.82941616  0.18927225  0.51769902  1
  H+  H84  1  1.01894607  0.15089599  0.67745715  1
  H+  H85  1  0.84559547  0.09281816  0.02525551  1
  H+  H86  1  0.51228885  0.86941060  0.48979727  1
  H+  H87  1  0.87033274  0.39103093  0.99834474  1
  H+  H88  1  0.64088290  0.77010475  0.31997543  1
  H+  H89  1  0.88904855  0.53513368  0.83793375  1
  H+  H90  1  0.15677189  0.08464315  0.25219561  1
  H+  H91  1  0.52331437  0.19415217  0.84179611  1
  H+  H92  1  0.10783421  0.71180603  0.68037495  1
  H+  H93  1  0.13633673  0.77636881  0.84405519  1
  H+  H94  1  0.96613529  0.62076017  0.51433697  1
  H+  H95  1  0.38938090  0.37830614  0.67326061  1
  H+  H96  1  0.35814485  0.22908720  0.84858627  1
  H+  H97  1  0.36293431  0.26450874  -0.01110156  1
  H+  H98  1  0.51765746  0.87618281  0.14959858  1
  H+  H99  1  0.89673675  0.53537598  0.16329003  1
  H+  H100  1  0.09130064  0.20743532  0.06185317  1
  H+  H101  1  0.89719034  0.86388862  0.84722112  1
  H+  H102  1  0.87271580  0.84197479  0.50162527  1
  H+  H103  1  0.74021014  0.10990164  0.49802152  1
  H+  H104  1  0.49615189  0.91257445  0.81628399  1
  H+  H105  1  0.13873630  0.02364628  0.16702817  1
  H+  H106  1  0.11494571  0.37533258  0.34522324  1
  H+  H107  1  0.31913321  0.09028636  1.00160179  1
  H+  H108  1  0.86652462  0.84699752  0.17126788  1
  H+  H109  1  0.26649127  0.08946329  0.64349155  1
  H+  H110  1  0.87973910  0.40849218  0.48900185  1
  H+  H111  1  0.31868836  0.37391282  0.51504273  1
  H+  H112  1  0.62996064  0.64127169  0.15539880  1
  H+  H113  1  0.85161763  0.62732336  0.49579263  1
  H+  H114  1  0.76831851  0.12026097  0.17368150  1
  H+  H115  1  0.10826734  0.45970508  0.34138049  1
  H+  H116  1  0.63141560  0.04276029  0.84036078  1
  H+  H117  1  0.63940350  0.86449086  0.65601184  1
  H+  H118  1  0.34397128  0.37423345  0.00889555  1
  H+  H119  1  0.48400821  0.86358373  0.65762785  1
  H+  H120  1  0.38058519  0.11554579  0.33125289  1
  H+  H121  1  0.61952601  0.50455062  0.66718870  1
  H+  H122  1  0.30907462  0.90326599  0.08193978  1
  H+  H123  1  0.49515165  0.62285800  0.17171063  1
  H+  H124  1  0.78573538  0.40027980  0.15378516  1
  H+  H125  1  1.00404537  0.39045675  0.50183573  1
  H+  H126  1  0.78816723  0.63422752  1.00684443  1
  H+  H127  1  0.85693971  0.71430888  0.15220473  1
  H+  H128  1  0.22568690  0.61223075  0.66646212  1
  H+  H129  1  0.89083025  0.35669991  0.34119127  1
  H+  H130  1  0.11117244  0.87611150  1.01428468  1
  H+  H131  1  0.53615695  0.88806796  0.33037082  1
  H+  H132  1  0.11731708  0.47169295  0.67589123  1
  H+  H133  1  0.61129682  0.13410176  0.48508292  1
  H+  H134  1  0.71383312  0.60576162  0.50707807  1
  H+  H135  1  0.63911412  0.02845709  0.32883642  1
  H+  H136  1  0.53208446  0.89081203  0.00303163  1
  H+  H137  1  0.89005629  0.86702065  0.31729559  1
  H+  H138  1  0.12705739  -0.00920349  0.47788715  1
  H+  H139  1  0.46963000  0.36191669  0.83948543  1
  H+  H140  1  0.64575044  0.52996738  0.31892091  1
  H+  H141  1  0.72720779  0.86639659  0.66093048  1
  H+  H142  1  0.28082554  0.63154102  0.83091353  1
  H+  H143  1  0.10084518  0.66699691  0.76810660  1
  H+  H144  1  0.11586195  0.89847956  0.48089261  1
  H+  H145  1  0.83250351  0.54493698  0.29237194  1
  H+  H146  1  0.54174462  0.37734273  0.47623647  1
  H+  H147  1  0.51095282  0.13277730  0.66367924  1
  H+  H148  1  0.47439389  0.36241761  0.17235965  1
  H+  H149  1  0.27523234  0.39162567  0.67718179  1
  H+  H150  1  0.11036471  0.25395981  0.16998400  1
  H+  H151  1  0.38744214  0.77429653  0.84485322  1
  H+  H152  1  0.38969125  0.17163216  0.48261612  1
  H+  H153  1  0.50498237  0.16553735  0.81467119  1
  H+  H154  1  0.35959433  0.47389654  0.33499237  1
  H+  H155  1  0.74343016  0.61603276  0.83934557  1
  H+  H156  1  0.41783033  0.83825352  0.36939863  1
  H+  H157  1  0.73993084  0.41366041  0.84629871  1
  H+  H158  1  0.63946819  0.11682770  0.17325005  1
  H+  H159  1  0.47582064  0.11997949  0.33115565  1
  H+  H160  1  0.63692394  0.26940014  0.00809641  1
  H+  H161  1  0.11543328  0.97869805  0.83005665  1
  H+  H162  1  0.62040793  0.39154977  0.32569303  1
  H+  H163  1  0.89382618  0.74869137  0.65391874  1
  H+  H164  1  0.87366402  0.97861596  0.83987003  1
  H+  H165  1  0.97884115  0.86650981  0.32706482  1
  H+  H166  1  0.16937848  0.83180514  0.94075237  1
  H+  H167  1  0.78335244  0.39323252  0.00364787  1
  H+  H168  1  0.33153748  0.42135169  0.77498109  1
  H+  H169  1  0.67616726  0.51957022  0.85332081  1
  H+  H170  1  0.42126039  0.18274522  0.69975541  1
  H+  H171  1  0.36399116  0.63544739  0.67594824  1
  H+  H172  1  0.86956040  0.26729754  0.97956445  1
  H+  H173  1  0.89347295  0.62336657  0.99359119  1
  H+  H174  1  0.97680422  0.35110779  0.34918213  1
  H+  H175  1  0.33670856  1.00384338  0.01766407  1
  H+  H176  1  0.11374953  0.22846372  0.32347044  1
  H+  H177  1  0.39044557  0.11334593  0.17193765  1
  H+  H178  1  0.41596274  0.09109168  0.41669736  1
  H+  H179  1  0.14208006  0.51320780  0.84114941  1
  H+  H180  1  0.10516746  0.00261608  0.65558338  1
  H+  H181  1  0.37463798  0.60993386  0.51818905  1
  H+  H182  1  0.14029331  0.90177443  0.15827369  1
  H+  H183  1  0.64219804  0.85983517  0.32065767  1
  H+  H184  1  0.36099213  -0.04041311  0.68456239  1
  H+  H185  1  0.26235497  0.87421055  0.01764214  1
  H+  H186  1  0.62160875  0.62031948  0.82345500  1
  H+  H187  1  0.67552314  0.35067172  1.05065096  1
  H+  H188  1  0.48614054  0.61398002  0.83523371  1
  H+  H189  1  0.87117509  0.13353457  0.84550405  1
  H+  H190  1  0.62081387  0.72972698  0.67336925  1
  H+  H191  1  0.38571469  0.36082718  0.32900188  1
  H+  H192  1  0.01571232  0.62262222  0.68005413  1
  H+  H193  1  0.63371686  0.61776602  0.66144215  1
  H+  H194  1  0.22054359  0.33332667  0.99994424  1
  H+  H195  1  0.69218983  0.82575500  0.91552439  1
  H+  H196  1  0.39995700  0.62066380  0.83789006  1
  H+  H197  1  0.85501893  0.39019931  0.83100826  1
  H+  H198  1  0.91878284  0.31215641  0.47941629  1
  H+  H199  1  0.12869567  0.10843054  0.16215402  1
  H+  H200  1  0.53029938  0.14586739  0.47337414  1
  H+  H201  1  0.14890362  0.85177304  0.67282126  1
  H+  H202  1  0.29714502  0.65464827  0.00269863  1
  H+  H203  1  0.39617974  0.87190399  1.00120079  1
  H+  H204  1  0.63197005  0.71195989  0.83274439  1
  H+  H205  1  0.88083797  0.52876792  0.50894800  1
  H+  H206  1  0.64909663  0.27510483  0.50314715  1
  H+  H207  1  0.50661584  0.38008606  0.00762515  1
  H+  H208  1  0.62743768  0.72991320  0.15570645  1
  H+  H209  1  0.71816257  0.13727050  0.63932359  1
  H+  H210  1  0.36260578  0.51675845  0.51702230  1
  H+  H211  1  0.19321793  0.11102575  0.93397899  1
  H+  H212  1  0.15765489  0.49371143  0.25505441  1
  H+  H213  1  0.36600965  0.48239111  0.83328166  1
  H+  H214  1  0.37684008  0.77239319  0.51569933  1
  H+  H215  1  0.36452881  0.22021279  0.15814580  1
  H+  H216  1  0.86879473  0.65054973  0.33986986  1
  H+  H217  1  0.63802865  0.06439669  0.55810732  1
  H+  H218  1  0.75467377  0.10256069  0.71255110  1
  H+  H219  1  0.88206228  0.60467725  0.66832454  1
  H+  H220  1  0.29427733  0.65057778  0.14312537  1
  H+  H221  1  0.20227386  0.35672297  0.56714627  1
  H+  H222  1  0.62630478  0.75733035  0.50285652  1
  H+  H223  1  0.28227387  0.13571639  0.63509045  1
  H+  H224  1  0.73254027  0.62112970  0.32491805  1
  H+  H225  1  0.89150225  0.03485215  0.33407700  1
  H+  H226  1  0.61591746  0.47401746  0.49032128  1
  H+  H227  1  0.87009156  0.92097579  0.68861163  1
  H+  H228  1  0.84885134  -0.00956324  0.52841219  1
  H+  H229  1  0.88923635  0.12188899  0.34946237  1
  H+  H230  1  0.84923023  0.13772595  0.68887275  1
  H+  H231  1  0.73744059  0.60988935  0.16223392  1
  H+  H232  1  0.73192119  0.36541785  0.31954407  1
  H+  H233  1  0.36666084  0.72519423  0.67397728  1
  H+  H234  1  0.78730777  0.88441981  0.84118840  1
  H+  H235  1  0.91990876  0.59646886  0.89604284  1
  H+  H236  1  0.94355496  0.44700278  0.19728922  1
  H+  H237  1  0.35217907  0.88084942  0.84038327  1
  H+  H238  1  0.34954598  0.06515489  0.62887293  1
  H+  H239  1  0.61350935  0.22815876  0.15456679  1
  H+  H240  1  0.39963802  0.78440224  0.99610607  1
  H+  H241  1  0.80351336  0.94625087  0.00280057  1
  H+  H242  1  0.76081643  0.86206135  0.48789336  1
  H+  H243  1  0.59809942  0.22503807  0.66357545  1
  H+  H244  1  0.41449800  0.26710757  0.69759883  1
  H+  H245  1  0.52634518  0.63259598  0.33455064  1
  H+  H246  1  0.08247122  0.63640836  0.34543020  1
  H+  H247  1  0.89643739  0.53431125  -0.01306547  1
  H+  H248  1  0.39153523  0.66000283  -0.00022022  1
  H+  H249  1  0.02584210  0.63640334  -0.00177620  1
  H+  H250  1  0.87114229  0.73199676  0.82636569  1
  H+  H251  1  0.77457682  0.63619388  0.67926909  1
  H+  H252  1  0.19371637  0.72013287  0.79285601  1
  H+  H253  1  0.14249440  0.41083611  0.50092408  1
  H+  H254  1  0.15809191  0.62452632  0.99287929  1
  H+  H255  1  0.09359415  0.17886502  0.46206504  1
  H+  H256  1  0.91227932  0.58684780  0.24845899  1
  H+  H257  1  0.51036939  0.62333740  0.48939318  1
  H+  H258  1  0.59688465  0.38230800  0.00753358  1
  H+  H259  1  0.02692432  0.88805177  0.83136953  1
  H+  H260  1  0.37873840  0.77015849  0.31824099  1
  H+  H261  1  0.63630357  0.65242296  1.00360492  1
  H+  H262  1  0.61826579  0.98581574  0.66128224  1
  H+  H263  1  0.66909525  0.18842488  0.82558889  1
  H+  H264  1  0.13364795  0.48176934  0.13639143  1
  H+  H265  1  0.87715377  0.08930817  0.18752098  1
  H+  H266  1  0.15049841  0.62550491  0.14446944  1
  H+  H267  1  0.14435569  0.27936883  0.65640705  1
  H+  H268  1  0.63548514  0.36723207  0.65274193  1
  H+  H269  1  0.14348906  0.36726823  0.65724047  1
  H+  H270  1  0.07792208  0.50598583  0.25511048  1
  H+  H271  1  0.65812321  0.87260320  0.99627630  1
  H+  H272  1  0.77036543  0.37849437  0.67539150  1
  H+  H273  1  0.51950226  0.40415282  0.66848189  1
  H+  H274  1  0.13206338  0.86436963  0.84464014  1
  H+  H275  1  0.22753361  0.36549401  0.84795497  1
  H+  H276  1  0.12640997  0.77956956  0.32205017  1
  H+  H277  1  0.39458288  0.77270327  0.16132740  1
  H+  H278  1  0.86712100  0.73807911  0.34495298  1
  H+  H279  1  0.21845469  0.86499706  0.32550363  1
  H+  H280  1  0.61490308  0.47859950  0.15689544  1
  H+  H281  1  0.91462023  0.84423372  0.64763581  1
  H+  H282  1  0.26216038  0.88145681  0.83689746  1
  H+  H283  1  0.85900898  0.22334681  0.35512308  1
  H+  H284  1  0.17472927  0.13416223  0.49871288  1
  H+  H285  1  0.61427212  0.14284048  0.33301153  1
  H+  H286  1  0.52417243  0.13890179  0.15963975  1
  H+  H287  1  0.35434173  0.97809847  0.34222321  1
  H+  H288  1  0.39118946  0.03161919  0.47386502  1
  H+  H289  1  0.11161996  0.13068955  0.31912999  1
  H+  H290  1  0.59429086  0.18167276  0.39098333  1
  H+  H291  1  0.06755419  0.67043971  0.44593142  1
  H+  H292  1  0.83513561  0.93177459  0.09780360  1
  H+  H293  1  0.30634792  0.39380056  0.06854745  1
  H+  H294  1  0.36647468  0.05849680  0.94935985  1
  H+  H295  1  0.16169981  0.23596248  0.97441656  1
  H+  H296  1  0.68132222  0.58968225  0.22394526  1
  H+  H297  1  0.66440357  0.08974497  0.23521909  1
  H+  H298  1  0.48124231  0.61548120  0.66304212  1
  H+  H299  1  0.64141607  0.27870653  0.31667552  1
  H+  H300  1  0.30457607  0.63766468  0.36060039  1
  H+  H301  1  0.08852936  0.91404991  0.73682754  1
  H+  H302  1  0.61731304  0.63698268  0.33611294  1
  H+  H303  1  0.60215983  0.86941581  0.48840777  1
  H+  H304  1  0.12291770  0.72984616  0.15258296  1
  H+  H305  1  0.17512497  0.08458770  0.55883965  1
  H+  H306  1  0.83804145  0.42463189  0.39716050  1
  H+  H307  1  0.60748719  0.68069580  0.06405053  1
  H+  H308  1  0.41943140  0.08479839  0.23133487  1
  H+  H309  1  0.05278203  0.02273305  0.60752299  1
  H+  H310  1  0.92953146  0.35013628  0.59599886  1
  H+  H311  1  0.08344139  0.66366951  0.05888074  1
  H+  H312  1  0.13471707  0.53440444  0.51597579  1
  H+  H313  1  0.42762575  0.83728186  0.21922004  1
  H+  H314  1  0.52651974  0.30841560  0.77634673  1
  H+  H315  1  0.57302772  0.65379611  0.43043329  1
  H+  H316  1  0.44122776  0.60578267  0.93400261  1
  H+  H317  1  0.08437662  0.40837635  0.76816502  1
  H+  H318  1  0.63387701  0.20393519  0.76571031  1
  H+  H319  1  0.81848342  0.15533176  0.41010547  1
  H+  H320  1  0.93360429  0.07026302  0.91374009  1
  H+  H321  1  0.15587629  0.58656691  0.57927144  1
  H+  H322  1  0.42940074  0.58114870  0.25861157  1
  H+  H323  1  0.51154267  0.99309714  0.77867651  1
  H+  H324  1  0.15405673  0.32454037  0.25871068  1
  H+  H325  1  0.89095857  0.07880603  0.61739609  1
  H+  H326  1  0.27651950  0.13376474  0.15607061  1
  H+  H327  1  0.97165742  0.06304409  1.02405052  1
  H+  H328  1  0.82679581  0.41669734  0.77087814  1
  H+  H329  1  0.89325171  0.62324265  0.16146796  1
  H+  H330  1  0.89879776  0.81732869  0.22945231  1
  H+  H331  1  0.82515613  0.65905266  0.43270059  1
  H+  H332  1  0.35512727  0.21979621  0.33378657  1
  H+  H333  1  0.18838643  0.58864549  0.93859468  1
  H+  H334  1  0.58251153  0.41905802  0.72732742  1
  H+  H335  1  0.66731324  0.83543879  0.22326507  1
  H+  H336  1  0.66729276  0.33377813  0.59686718  1
  H+  H337  1  0.82942593  0.92625996  0.75032930  1
  H+  H338  1  0.10731330  0.43015051  0.44001616  1
  H+  H339  1  0.59866013  0.42436872  0.38638655  1
  H+  H340  1  0.34597026  0.36859648  0.15699209  1
  H+  H341  1  0.67326880  0.58301163  0.93481196  1
  H+  H342  1  0.36142671  0.10020384  0.86611286  1
  H+  H343  1  0.31698054  0.41692909  0.39468466  1
  H+  H344  1  0.11030153  0.37933646  0.83018949  1
  H+  H345  1  0.83626238  0.15931496  0.78566378  1
  H+  H346  1  0.67506688  0.34094487  0.22086899  1
  H+  H347  1  0.16462962  0.32296624  0.90523073  1
  H+  H348  1  0.88710255  0.27221140  0.84107873  1
  H+  H349  1  0.91278306  0.33159916  0.92387518  1
  H+  H350  1  0.83123995  0.14555656  0.11817258  1
  H+  H351  1  0.59576924  0.66874242  0.73331228  1
  H+  H352  1  0.41021055  0.33589888  0.93857766  1
  H+  H353  1  0.08667940  0.92891544  0.39125189  1
  H+  H354  1  0.92212069  0.82417115  0.90473132  1
  H+  H355  1  0.35642605  0.18228685  0.78897976  1
  H+  H356  1  0.65383707  0.83877381  0.85463117  1
  H+  H357  1  0.84858104  0.42875791  0.09651528  1
  H+  H358  1  0.38532753  0.37138241  0.84422945  1
  H+  H359  1  0.83291104  0.90819277  0.43586673  1
  H+  H360  1  0.67281591  0.79242864  1.00351413  1
  H+  H361  1  0.72578241  0.11793921  0.33319872  1
  H+  H362  1  0.65864613  0.58112483  0.59996745  1
  H+  H363  1  0.17428003  0.26017573  0.48663658  1
  H+  H364  1  0.18887782  0.83917621  0.22870513  1
  H+  H365  1  0.57598641  0.41804627  0.09860897  1
  H+  H366  1  0.33807199  0.66876646  0.77076633  1
  H+  H367  1  0.58418023  0.90702354  0.08613292  1
  H+  H368  1  0.31048269  0.66023952  0.45945198  1
  H+  H369  1  0.36217930  0.68399994  0.08931776  1
  H+  H370  1  0.66320619  0.82266852  0.55975528  1
  H+  H371  1  0.67770630  0.38934782  0.90345812  1
  H+  H372  1  0.41458113  0.32962495  0.23116672  1
  H+  H373  1  0.41958527  0.83780605  0.90353232  1
  H+  H374  1  0.58493188  0.90847770  0.39365787  1
  H+  H375  1  0.17924899  0.59336586  0.20052477  1
  H+  H376  1  0.08234765  0.17167557  0.77176567  1
  H+  H377  1  0.88481221  0.74705640  0.99705054  1
  H+  H378  1  0.07874150  0.39948724  0.09433283  1
  H+  H379  1  0.67310458  0.08410416  0.93992037  1
  H+  H380  1  0.83776087  0.66977246  0.73853621  1
  H+  H381  1  0.62352903  0.12056638  0.65019629  1
  H+  H382  1  0.40431717  0.03539547  0.59291824  1
  H+  H383  1  0.41841086  0.58307796  0.60494418  1
  O2-  O384  1  0.06278103  0.15400957  0.14338996  1
  O2-  O385  1  0.15565036  0.20476074  0.46605271  1
  O2-  O386  1  0.08422300  0.16930619  0.81692578  1
  O2-  O387  1  0.09236393  0.41946540  0.13810567  1
  O2-  O388  1  0.10848058  0.43675095  0.48546076  1
  O2-  O389  1  0.08115764  0.40996164  0.81351563  1
  O2-  O390  1  0.08896450  0.67007542  0.13749717  1
  O2-  O391  1  0.06781777  0.67099818  0.49080692  1
  O2-  O392  1  0.13465473  0.68728598  0.80723556  1
  O2-  O393  1  0.10281983  0.92528587  0.14933837  1
  O2-  O394  1  0.09083075  0.93189632  0.46196176  1
  O2-  O395  1  0.08666742  0.91841492  0.81395602  1
  O2-  O396  1  0.33769789  0.15965234  0.14468174  1
  O2-  O397  1  0.35753445  0.20144713  0.49176198  1
  O2-  O398  1  0.33306045  0.17020558  0.83086523  1
  O2-  O399  1  0.31184594  0.39375530  0.14113737  1
  O2-  O400  1  0.29203411  0.40835271  0.49955365  1
  O2-  O401  1  0.33264867  0.42060334  0.82026187  1
  O2-  O402  1  0.35757065  0.68170512  0.13561927  1
  O2-  O403  1  0.31714987  0.66314671  0.50341811  1
  O2-  O404  1  0.34131001  0.66980583  0.81609177  1
  O2-  O405  1  0.28289886  0.88343751  0.16633730  1
  O2-  O406  1  0.33490953  0.92184825  0.47911285  1
  O2-  O407  1  0.32407943  0.91208047  0.82283682  1
  O2-  O408  1  0.58392659  0.16732522  0.14151415  1
  O2-  O409  1  0.59468908  0.17658674  0.47128897  1
  O2-  O410  1  0.67223475  0.23437384  0.79953254  1
  O2-  O411  1  0.58209489  0.41712386  0.14380428  1
  O2-  O412  1  0.60213036  0.41888160  0.46929790  1
  O2-  O413  1  0.55920394  0.36917245  0.78851310  1
  O2-  O414  1  0.59810301  0.67009213  0.14002898  1
  O2-  O415  1  0.57143640  0.65168647  0.47624789  1
  O2-  O416  1  0.59794767  0.65733868  0.80990428  1
  O2-  O417  1  0.57912889  0.90087220  0.13358162  1
  O2-  O418  1  0.57167214  0.89870547  0.47204123  1
  O2-  O419  1  0.53994642  0.96138253  0.79079415  1
  O2-  O420  1  0.83005358  0.14108804  0.16254045  1
  O2-  O421  1  0.80464750  0.13978323  0.49067716  1
  O2-  O422  1  0.83879040  0.16162542  0.83115941  1
  O2-  O423  1  0.84738209  0.43377792  0.14164185  1
  O2-  O424  1  0.84226963  0.43174219  0.47569766  1
  O2-  O425  1  0.83072375  0.42548215  0.81583713  1
  O2-  O426  1  0.83601806  0.65516576  0.13540869  1
  O2-  O427  1  0.81944300  0.65645932  0.47877167  1
  O2-  O428  1  0.84019623  0.67255184  0.80871121  1
  O2-  O429  1  0.82699313  0.91602343  0.14111315  1
  O2-  O430  1  0.82451135  0.89125985  0.47860554  1
  O2-  O431  1  0.84421384  0.91999316  0.82074597  1
  O2-  O432  1  0.16318848  0.08534020  0.18150158  1
  O2-  O433  1  0.19218013  0.09308297  0.51570706  1
  O2-  O434  1  0.16583793  0.08301039  0.85627094  1
  O2-  O435  1  0.14401803  0.31419614  0.18775411  1
  O2-  O436  1  0.20194017  0.36036872  0.52067558  1
  O2-  O437  1  0.16578319  0.33181778  0.86012221  1
  O2-  O438  1  0.18703738  0.59993083  0.15626084  1
  O2-  O439  1  0.15691977  0.59313684  0.53334544  1
  O2-  O440  1  0.17804598  0.57351172  0.85622572  1
  O2-  O441  1  0.19162374  0.83237087  0.18316805  1
  O2-  O442  1  0.16116953  0.84979759  0.51789069  1
  O2-  O443  1  0.16292380  0.83515633  0.86138691  1
  O2-  O444  1  0.42586535  0.08791459  0.18718867  1
  O2-  O445  1  0.42337513  0.09360856  0.46148735  1
  O2-  O446  1  0.38003316  0.06272064  0.88640937  1
  O2-  O447  1  0.41366030  0.32926375  0.18610730  1
  O2-  O448  1  0.38794725  0.34131391  0.53712577  1
  O2-  O449  1  0.41398710  0.33960801  0.86032353  1
  O2-  O450  1  0.43841932  0.60034537  0.19187458  1
  O2-  O451  1  0.40510077  0.57763015  0.52668280  1
  O2-  O452  1  0.42732880  0.58729507  0.85235697  1
  O2-  O453  1  0.42247477  0.83604672  0.17510885  1
  O2-  O454  1  0.41401152  0.83506684  0.52359525  1
  O2-  O455  1  0.41312449  0.83553879  0.85815442  1
  O2-  O456  1  0.66669289  0.08520701  0.19057204  1
  O2-  O457  1  0.64000871  0.06195800  0.51283349  1
  O2-  O458  1  0.67279440  0.09277562  0.86448643  1
  O2-  O459  1  0.67559498  0.34261975  0.17560279  1
  O2-  O460  1  0.68056187  0.33517623  0.51995925  1
  O2-  O461  1  0.68860426  0.41562948  0.86320306  1
  O2-  O462  1  0.67694727  0.58459616  0.17899562  1
  O2-  O463  1  0.65412302  0.57361834  0.52360131  1
  O2-  O464  1  0.68291107  0.57734130  0.85448872  1
  O2-  O465  1  0.66661385  0.83731040  0.17782881  1
  O2-  O466  1  0.66050927  0.81944436  0.51450650  1
  O2-  O467  1  0.68861467  0.81487516  0.86993081  1
  O2-  O468  1  0.90827597  0.05701194  0.19821963  1
  O2-  O469  1  0.83843504  0.02866458  0.55435303  1
  O2-  O470  1  0.92781773  0.07912765  0.86999011  1
  O2-  O471  1  0.99367659  0.44774776  0.21575799  1
  O2-  O472  1  0.93984310  0.36028955  0.50762340  1
  O2-  O473  1  0.91436061  0.33432189  0.85170558  1
  O2-  O474  1  0.92694069  0.59567333  0.18016782  1
  O2-  O475  1  0.90381171  0.58769745  0.52683118  1
  O2-  O476  1  0.91675920  0.59621787  0.85047218  1
  O2-  O477  1  0.87984445  0.80366059  0.18698553  1
  O2-  O478  1  0.90074159  0.80680283  0.51360028  1
  O2-  O479  1  0.92576713  0.83087460  0.85851784  1
  O2-  O480  1  0.15509689  0.08679852  0.29893980  1
  O2-  O481  1  0.10529712  0.05042330  0.63155943  1
  O2-  O482  1  0.20418386  0.13554548  0.97617253  1
  O2-  O483  1  0.15864942  0.32681192  0.30529762  1
  O2-  O484  1  0.17747938  0.34010862  0.64179688  1
  O2-  O485  1  0.15909161  0.28852747  0.98080303  1
  O2-  O486  1  0.13840517  0.53052578  0.27391036  1
  O2-  O487  1  0.16497962  0.57874635  0.65202412  1
  O2-  O488  1  0.19727599  0.60265382  0.98237260  1
  O2-  O489  1  0.16195326  0.83683194  0.30367966  1
  O2-  O490  1  0.16986605  0.81163679  0.66408332  1
  O2-  O491  1  0.17085447  0.82706407  0.98567752  1
  O2-  O492  1  0.41226048  0.08145827  0.32968864  1
  O2-  O493  1  0.39806762  0.05493581  0.63300703  1
  O2-  O494  1  0.35642602  0.06182359  0.99717750  1
  O2-  O495  1  0.41447014  0.32994020  0.31357246  1
  O2-  O496  1  0.42465014  0.35291191  0.65624473  1
  O2-  O497  1  0.40525626  0.32778670  0.98338945  1
  O2-  O498  1  0.42218641  0.57449128  0.30578196  1
  O2-  O499  1  0.41993859  0.58431931  0.65042648  1
  O2-  O500  1  0.44436621  0.61717036  0.97813880  1
  O2-  O501  1  0.41428574  0.83321877  0.32509529  1
  O2-  O502  1  0.42202703  0.83074444  0.64609208  1
  O2-  O503  1  0.42877267  0.84723482  0.98198324  1
  O2-  O504  1  0.66540599  0.08953348  0.31709271  1
  O2-  O505  1  0.65759710  0.09375703  0.63348880  1
  O2-  O506  1  0.67241052  0.08057278  0.98565934  1
  O2-  O507  1  0.67317573  0.33979478  0.30198564  1
  O2-  O508  1  0.65950997  0.33043559  0.64219714  1
  O2-  O509  1  0.66744675  0.33672963  1.00738256  1
  O2-  O510  1  0.67435225  0.59162655  0.30625097  1
  O2-  O511  1  0.66040074  0.58207564  0.64602182  1
  O2-  O512  1  0.66909497  0.58396162  0.97980146  1
  O2-  O513  1  0.66980294  0.82906879  0.30203506  1
  O2-  O514  1  0.66901830  0.83300689  0.64275485  1
  O2-  O515  1  0.69982345  0.85320352  0.98657486  1
  O2-  O516  1  0.92623022  0.09466016  0.34884939  1
  O2-  O517  1  0.90917185  0.09728646  0.66072514  1
  O2-  O518  1  0.92978420  0.02431388  0.99281121  1
  O2-  O519  1  0.91566015  0.31872146  0.33757355  1
  O2-  O520  1  0.93120982  0.34500377  0.64030280  1
  O2-  O521  1  0.90901492  0.32756928  0.97013973  1
  O2-  O522  1  0.89521253  0.57655033  0.29452618  1
  O2-  O523  1  0.91085216  0.57395255  0.65179979  1
  O2-  O524  1  0.92628537  0.59491044  0.97335440  1
  O2-  O525  1  0.91613355  0.82970734  0.31545257  1
  O2-  O526  1  0.93201596  0.80511455  0.63111242  1
  O2-  O527  1  0.91657445  0.81240141  0.97763454  1
  O2-  O528  1  0.04432651  0.15254609  0.07719532  1
  O2-  O529  1  0.08346337  0.16589330  0.33693891  1
  O2-  O530  1  0.08056072  0.17585236  0.68940363  1
  O2-  O531  1  0.06419737  0.36647661  0.02495202  1
  O2-  O532  1  0.09041591  0.40795322  0.36647374  1
  O2-  O533  1  0.08835576  0.40996777  0.68787215  1
  O2-  O534  1  0.08694050  0.66370582  0.01377855  1
  O2-  O535  1  0.05672612  0.66988253  0.35939542  1
  O2-  O536  1  0.07615495  0.64995254  0.69484173  1
  O2-  O537  1  0.07951646  0.90400040  0.02973746  1
  O2-  O538  1  0.08015393  0.92630018  0.34461855  1
  O2-  O539  1  0.09327516  0.91287769  0.69115014  1
  O2-  O540  1  0.29155043  0.15958829  -0.01121668  1
  O2-  O541  1  0.32479640  0.15790683  0.34429388  1
  O2-  O542  1  0.42370472  0.22820780  0.72504085  1
  O2-  O543  1  0.30360146  0.39336886  0.02242073  1
  O2-  O544  1  0.32367755  0.41350962  0.35074772  1
  O2-  O545  1  0.33448692  0.42182295  0.69534238  1
  O2-  O546  1  0.35929157  0.68892721  0.01681290  1
  O2-  O547  1  0.31760152  0.65756968  0.31867382  1
  O2-  O548  1  0.33347649  0.66560671  0.69044158  1
  O2-  O549  1  0.32063064  0.91126125  0.03776101  1
  O2-  O550  1  0.32037956  0.91530605  0.35377823  1
  O2-  O551  1  0.34045310  0.90264008  0.70292672  1
  O2-  O552  1  0.59049559  0.17389553  0.01927785  1
  O2-  O553  1  0.58667174  0.17721754  0.34600503  1
  O2-  O554  1  0.57111679  0.16381006  0.67720861  1
  O2-  O555  1  0.56881654  0.41522272  0.02006154  1
  O2-  O556  1  0.59170741  0.42329920  0.34177915  1
  O2-  O557  1  0.58393066  0.43437288  0.68171917  1
  O2-  O558  1  0.61477019  0.69085370  0.01896639  1
  O2-  O559  1  0.58539406  0.66511397  0.35261923  1
  O2-  O560  1  0.59203449  0.66861708  0.68760321  1
  O2-  O561  1  0.59248406  0.91654959  0.01941641  1
  O2-  O562  1  0.59390420  0.91552580  0.34861600  1
  O2-  O563  1  0.59158212  0.92742120  0.67931867  1
  O2-  O564  1  0.84586173  0.14824621  0.02841028  1
  O2-  O565  1  0.82336173  0.15950799  0.36527572  1
  O2-  O566  1  0.81047362  0.15468577  0.71008524  1
  O2-  O567  1  0.84485398  0.42477729  0.01540981  1
  O2-  O568  1  0.83695068  0.41554548  0.35218223  1
  O2-  O569  1  0.82961586  0.40786768  0.69150790  1
  O2-  O570  1  0.84795815  0.66521296  0.02120357  1
  O2-  O571  1  0.83694514  0.67545284  0.35953918  1
  O2-  O572  1  0.83539431  0.66473767  0.69155183  1
  O2-  O573  1  0.84837835  0.99668908  0.02615583  1
  O2-  O574  1  0.84343887  0.93182078  0.30447131  1
  O2-  O575  1  0.82576336  0.93165246  0.70418324  1
