# generated using pymatgen
data_H2O
_symmetry_space_group_name_H-M   'P 1'
_cell_length_a   17.99949002
_cell_length_b   17.99657758
_cell_length_c   22.01304593
_cell_angle_alpha   89.99227050
_cell_angle_beta   90.01783876
_cell_angle_gamma   119.97165501
_symmetry_Int_Tables_number   1
_chemical_formula_structural   H2O
_chemical_formula_sum   'H384 O192'
_cell_volume   6177.10305915
_cell_formula_units_Z   192
loop_
 _symmetry_equiv_pos_site_id
 _symmetry_equiv_pos_as_xyz
  1  'x, y, z'
loop_
 _atom_type_symbol
 _atom_type_oxidation_number
  H+  1.0
  O2-  -2.0
loop_
 _atom_site_type_symbol
 _atom_site_label
 _atom_site_symmetry_multiplicity
 _atom_site_fract_x
 _atom_site_fract_y
 _atom_site_fract_z
 _atom_site_occupancy
  H+  H0  1  0.61482699  0.75375910  0.50045680  1
  H+  H1  1  0.10409579  0.45607142  0.15122578  1
  H+  H2  1  0.02894238  0.63798885  0.68224323  1
  H+  H3  1  0.25079695  0.13389960  0.68662502  1
  H+  H4  1  0.84980020  0.12667690  0.83319511  1
  H+  H5  1  0.76131792  0.11713327  0.33125470  1
  H+  H6  1  0.65153267  0.50505898  0.83408350  1
  H+  H7  1  0.14209568  0.77549054  0.98733845  1
  H+  H8  1  0.84601697  0.41523516  0.73351379  1
  H+  H9  1  0.64125582  0.11641279  0.99723414  1
  H+  H10  1  0.87768369  0.38815085  0.67230652  1
  H+  H11  1  0.73024294  0.36248071  0.83950639  1
  H+  H12  1  0.86422305  0.47447026  0.82273302  1
  H+  H13  1  0.38313788  0.70680726  0.66370188  1
  H+  H14  1  0.40633916  0.81918655  0.94998263  1
  H+  H15  1  0.59745224  0.42751658  0.10045465  1
  H+  H16  1  0.73591120  0.35808438  0.50852523  1
  H+  H17  1  0.38494769  0.57926693  0.16886849  1
  H+  H18  1  0.08563587  0.45136888  0.34718316  1
  H+  H19  1  0.33900971  0.67684975  0.16883032  1
  H+  H20  1  0.16438027  0.11098553  0.61364812  1
  H+  H21  1  0.55111220  0.91849167  0.20216441  1
  H+  H22  1  0.89648810  0.52110190  0.66595473  1
  H+  H23  1  0.62316920  0.83234683  0.66166903  1
  H+  H24  1  0.53328686  0.40703578  0.35033648  1
  H+  H25  1  0.28068983  0.89867974  0.82907209  1
  H+  H26  1  0.53300336  0.39747430  0.00737312  1
  H+  H27  1  0.65089738  0.87060292  0.18889273  1
  H+  H28  1  0.62545830  0.10028485  0.48946791  1
  H+  H29  1  0.82232545  0.52701174  0.54367259  1
  H+  H30  1  0.13926971  0.26338554  -0.01323854  1
  H+  H31  1  0.24648219  0.16979621  0.52983380  1
  H+  H32  1  0.51882041  0.14207353  0.15229816  1
  H+  H33  1  0.55253340  0.22525872  0.44801785  1
  H+  H34  1  0.85101393  0.31921461  0.32665439  1
  H+  H35  1  0.40276283  0.87289067  0.51557088  1
  H+  H36  1  0.35978112  0.15214020  0.33605441  1
  H+  H37  1  0.77160106  0.20094541  0.70482140  1
  H+  H38  1  0.69089576  0.56117975  0.89396799  1
  H+  H39  1  0.88524821  0.87455195  0.17139830  1
  H+  H40  1  0.28504578  0.40126705  0.67204207  1
  H+  H41  1  0.27602415  0.64423810  0.81779443  1
  H+  H42  1  0.02614856  0.80007334  0.78322345  1
  H+  H43  1  0.10865211  0.22570524  0.33478892  1
  H+  H44  1  0.60060101  0.21525740  0.33151049  1
  H+  H45  1  0.71550360  0.85579835  0.84579457  1
  H+  H46  1  0.98643179  0.35748206  0.65521441  1
  H+  H47  1  0.39876868  0.12739621  0.50357509  1
  H+  H48  1  0.61991527  0.48547961  1.00323142  1
  H+  H49  1  0.39836144  0.57312136  0.56255205  1
  H+  H50  1  0.88915948  0.56476209  0.32971281  1
  H+  H51  1  0.10666908  0.96245037  0.01238726  1
  H+  H52  1  0.76087359  0.11659919  0.47976528  1
  H+  H53  1  0.74961824  0.85760071  0.50129716  1
  H+  H54  1  0.38810188  0.85661726  0.00906981  1
  H+  H55  1  0.23642318  0.36421571  0.83335364  1
  H+  H56  1  0.20967048  0.57791710  0.16626098  1
  H+  H57  1  0.88987317  1.10588938  0.32035938  1
  H+  H58  1  0.87036917  0.72677512  0.15666288  1
  H+  H59  1  0.88708066  0.10908963  0.65691139  1
  H+  H60  1  0.72052301  0.11392857  0.84277058  1
  H+  H61  1  0.85830285  0.46300730  0.15357250  1
  H+  H62  1  0.65570931  0.52327378  0.52783292  1
  H+  H63  1  0.65218324  0.04702423  0.18040558  1
  H+  H64  1  0.57887440  0.89547363  0.38755075  1
  H+  H65  1  0.37853050  0.63789290  0.01475304  1
  H+  H66  1  0.90970426  0.82933773  0.93564624  1
  H+  H67  1  0.48121717  0.59590277  0.16917808  1
  H+  H68  1  0.39192766  0.14614217  0.64899890  1
  H+  H69  1  0.85365469  0.11649979  1.01251608  1
  H+  H70  1  0.95049589  0.85986437  0.50387899  1
  H+  H71  1  0.85519425  0.88699841  0.32352488  1
  H+  H72  1  0.39160092  0.12084275  0.84161925  1
  H+  H73  1  0.13583820  1.01142170  0.32328896  1
  H+  H74  1  0.13495122  0.86465961  0.17267883  1
  H+  H75  1  0.86800404  0.38676793  0.82568565  1
  H+  H76  1  0.12779950  0.24693947  0.48532006  1
  H+  H77  1  0.36980941  0.74279559  0.50618332  1
  H+  H78  1  0.75946597  0.12173750  1.00974027  1
  H+  H79  1  0.18254168  0.58245360  0.31730650  1
  H+  H80  1  0.60944544  0.94608174  0.66998508  1
  H+  H81  1  0.94813775  0.09822375  0.86078354  1
  H+  H82  1  0.85172938  0.20150459  0.48582803  1
  H+  H83  1  0.64072402  0.36666150  0.17332443  1
  H+  H84  1  0.89056852  0.34897557  0.49502401  1
  H+  H85  1  0.47659192  0.83384983  0.66857077  1
  H+  H86  1  0.10153655  0.63888874  0.29697879  1
  H+  H87  1  0.86649353  0.97650668  0.16690538  1
  H+  H88  1  0.40351114  0.09849932  0.21335072  1
  H+  H89  1  0.52457713  0.63829893  0.01383822  1
  H+  H90  1  0.16220370  0.07411605  0.23108318  1
  H+  H91  1  0.53392782  0.42741519  0.67760489  1
  H+  H92  1  0.51377709  0.14659167  0.49172674  1
  H+  H93  1  0.51011121  0.62103345  0.49160098  1
  H+  H94  1  0.61305969  0.72472130  0.16569567  1
  H+  H95  1  -0.01478355  0.36704331  -0.01064237  1
  H+  H96  1  0.59792091  0.15817133  0.68582219  1
  H+  H97  1  0.39695868  0.28636286  0.99748978  1
  H+  H98  1  0.37260153  -0.00384273  0.82585611  1
  H+  H99  1  0.31055198  0.27685453  0.14310555  1
  H+  H100  1  0.74182538  0.36805431  0.66566074  1
  H+  H101  1  0.48227072  0.15304584  0.65894657  1
  H+  H102  1  0.13544305  0.47277204  1.00449508  1
  H+  H103  1  0.12626686  0.72916381  0.83392902  1
  H+  H104  1  0.65316172  0.32668110  0.26592074  1
  H+  H105  1  0.14927691  0.78411474  0.31103864  1
  H+  H106  1  0.76774267  0.37736458  0.16400883  1
  H+  H107  1  0.86124115  0.23122715  0.32425600  1
  H+  H108  1  0.51297164  0.61320515  0.32201583  1
  H+  H109  1  0.96499803  0.65878236  0.96742688  1
  H+  H110  1  0.89145725  0.85094482  0.66884491  1
  H+  H111  1  0.86827731  0.60871664  0.50407600  1
  H+  H112  1  0.35735696  0.29823268  0.49341989  1
  H+  H113  1  0.84974469  0.63756799  0.00260567  1
  H+  H114  1  0.27502537  0.38300031  0.00074943  1
  H+  H115  1  0.52680540  0.88162966  0.01436368  1
  H+  H116  1  0.62091841  0.95513251  0.25364117  1
  H+  H117  1  0.25148341  0.60951575  -0.00468911  1
  H+  H118  1  0.38253189  0.77677345  0.32397960  1
  H+  H119  1  0.83998678  0.94871506  0.50313234  1
  H+  H120  1  0.61733836  0.22905968  0.00188851  1
  H+  H121  1  0.38230074  1.03025530  0.16178668  1
  H+  H122  1  -0.02662019  0.10800346  0.17013806  1
  H+  H123  1  0.36178295  0.36412515  0.38855955  1
  H+  H124  1  0.97780160  0.11598040  0.66361676  1
  H+  H125  1  0.52726829  0.38398963  0.82908683  1
  H+  H126  1  0.63755520  0.86445530  0.00060643  1
  H+  H127  1  0.32192316  0.62883943  0.36936717  1
  H+  H128  1  0.17649302  0.38872569  0.50505036  1
  H+  H129  1  0.06149867  0.40537373  0.52029442  1
  H+  H130  1  0.64611586  0.52118619  0.32936431  1
  H+  H131  1  0.86591185  0.13412383  0.15953375  1
  H+  H132  1  0.87791619  0.77900535  0.31816683  1
  H+  H133  1  0.98325293  0.87435616  0.16981766  1
  H+  H134  1  0.03196079  0.63660282  0.15206597  1
  H+  H135  1  0.87584956  0.35266652  0.18214318  1
  H+  H136  1  0.83014639  0.60565220  0.66968437  1
  H+  H137  1  0.64349453  0.50481594  0.68811488  1
  H+  H138  1  0.28804348  0.61607111  0.67204789  1
  H+  H139  1  0.27842235  0.89034675  0.00650675  1
  H+  H140  1  0.86947968  0.08281879  0.50433183  1
  H+  H141  1  0.76676375  0.65031066  0.34179051  1
  H+  H142  1  0.36002406  0.43759921  0.15864656  1
  H+  H143  1  0.98159384  0.36132431  0.83297930  1
  H+  H144  1  0.89052230  0.27484409  0.83748559  1
  H+  H145  1  0.29232893  0.37333537  0.48296026  1
  H+  H146  1  0.12224998  0.12719401  0.67194601  1
  H+  H147  1  0.77701813  0.88340450  0.16996372  1
  H+  H148  1  0.41193625  0.41502226  0.66589217  1
  H+  H149  1  0.51789365  0.87025592  0.33050808  1
  H+  H150  1  0.39113306  0.52318068  1.00097905  1
  H+  H151  1  0.95979490  0.32347814  0.47671805  1
  H+  H152  1  0.16158903  0.60595046  0.98819598  1
  H+  H153  1  0.98296568  0.11308987  0.32313214  1
  H+  H154  1  0.09215071  0.40166384  0.08585082  1
  H+  H155  1  0.14302864  0.85788895  0.83555449  1
  H+  H156  1  0.85590823  0.85120682  0.51360401  1
  H+  H157  1  0.35738921  0.50071842  0.67429661  1
  H+  H158  1  0.48428074  0.85997214  0.50892684  1
  H+  H159  1  0.22095910  0.10337139  0.32576176  1
  H+  H160  1  0.12747605  0.26271298  0.17502772  1
  H+  H161  1  0.37320402  0.59384613  0.50035609  1
  H+  H162  1  0.72492653  0.63120580  -0.01284291  1
  H+  H163  1  0.76687371  0.88088495  0.01188287  1
  H+  H164  1  0.73573229  0.62006074  0.17464730  1
  H+  H165  1  0.11443828  0.15543871  0.49313138  1
  H+  H166  1  0.08082566  0.93296077  0.55238768  1
  H+  H167  1  0.15809480  0.61555425  0.67898292  1
  H+  H168  1  0.22742471  0.36618026  0.32228858  1
  H+  H169  1  0.87862243  1.01247578  0.00712755  1
  H+  H170  1  0.83404093  0.66729914  0.09769239  1
  H+  H171  1  0.88655246  0.26913136  0.17607256  1
  H+  H172  1  0.86578683  0.00585647  0.85144876  1
  H+  H173  1  0.10707803  0.13036550  0.16242150  1
  H+  H174  1  0.17835603  1.06988071  0.52854987  1
  H+  H175  1  0.63179880  0.11375993  0.84516199  1
  H+  H176  1  0.63386198  0.10797360  0.31861927  1
  H+  H177  1  0.82891759  0.15966724  0.77119130  1
  H+  H178  1  0.11829955  0.72898198  0.68245733  1
  H+  H179  1  0.86244393  0.73175789  0.50116891  1
  H+  H180  1  1.01499711  0.87572410  1.00862257  1
  H+  H181  1  0.62570355  0.38811770  0.50224956  1
  H+  H182  1  0.61529558  0.62040356  0.33315349  1
  H+  H183  1  0.36413728  0.64994134  0.82351315  1
  H+  H184  1  0.96627790  0.85108408  0.83990335  1
  H+  H185  1  0.37660300  0.03531834  0.31772934  1
  H+  H186  1  0.22664637  0.08980222  1.01636735  1
  H+  H187  1  0.92515029  0.57974160  0.21448987  1
  H+  H188  1  0.66926170  0.08432462  0.93789706  1
  H+  H189  1  0.38766681  0.44571074  0.48196672  1
  H+  H190  1  0.87695238  0.76669843  0.83727306  1
  H+  H191  1  0.85468526  0.98049197  0.68155858  1
  H+  H192  1  0.85997567  0.88165958  0.83522209  1
  H+  H193  1  0.23507728  0.63234914  0.52405172  1
  H+  H194  1  0.03380226  0.89751803  0.67063052  1
  H+  H195  1  0.38095615  0.98723223  0.49691715  1
  H+  H196  1  0.63060985  0.48714579  0.16010888  1
  H+  H197  1  0.37546504  0.39831644  0.82367666  1
  H+  H198  1  0.74188562  0.61361610  0.51926427  1
  H+  H199  1  0.21700030  0.12355975  0.17258055  1
  H+  H200  1  0.86429461  0.46281117  0.48363196  1
  H+  H201  1  0.11253756  0.87511453  0.33284908  1
  H+  H202  1  0.13988295  0.36844306  0.33201435  1
  H+  H203  1  0.97515540  0.85949816  0.31507775  1
  H+  H204  1  0.78127037  0.63039530  0.82042257  1
  H+  H205  1  0.14983587  0.87231838  0.66868092  1
  H+  H206  1  0.39008523  0.37126818  0.99693200  1
  H+  H207  1  0.36859889  0.90073188  0.16163206  1
  H+  H208  1  0.41367524  0.58168375  0.94235839  1
  H+  H209  1  0.36524204  0.51500112  0.84710710  1
  H+  H210  1  0.13239632  0.85858557  0.99569725  1
  H+  H211  1  0.74195337  0.35334860  0.33652719  1
  H+  H212  1  0.27409724  0.89090060  0.16079909  1
  H+  H213  1  0.64309337  0.13043982  0.16296240  1
  H+  H214  1  0.36220089  0.85917903  0.68972049  1
  H+  H215  1  0.12705097  0.59008385  0.16396752  1
  H+  H216  1  0.15193969  0.36886207  0.65222213  1
  H+  H217  1  0.46510087  0.11877026  0.31392735  1
  H+  H218  1  0.41732025  0.33005264  0.65636399  1
  H+  H219  1  0.41047721  0.30168428  0.19637486  1
  H+  H220  1  0.63208102  0.27303588  0.17261639  1
  H+  H221  1  0.11765331  0.46991755  0.82301829  1
  H+  H222  1  0.07896908  0.64025576  -0.05972238  1
  H+  H223  1  0.88165483  0.86105598  0.99575769  1
  H+  H224  1  0.61419057  0.37555078  0.82567126  1
  H+  H225  1  0.61396426  0.71338960  0.33198958  1
  H+  H226  1  0.18191769  0.07501434  0.95107289  1
  H+  H227  1  0.71987676  0.84539735  0.32323591  1
  H+  H228  1  0.78106893  0.14523417  0.15745494  1
  H+  H229  1  0.89300073  0.61358040  0.15998159  1
  H+  H230  1  0.06371344  0.66992698  0.58383369  1
  H+  H231  1  0.53891400  0.39067981  0.50174687  1
  H+  H232  1  0.58836792  0.68066947  0.65901811  1
  H+  H233  1  0.16889039  0.87963999  0.52327974  1
  H+  H234  1  0.61433624  0.23053570  0.83795425  1
  H+  H235  1  0.41005819  0.60962790  0.31469639  1
  H+  H236  1  0.28209492  0.89645523  0.34356197  1
  H+  H237  1  0.86097882  0.66497208  0.35181718  1
  H+  H238  1  0.44403576  0.38458561  0.27991146  1
  H+  H239  1  0.01533373  0.63557629  0.52291034  1
  H+  H240  1  0.61309275  0.63944560  0.01634669  1
  H+  H241  1  0.61772278  0.71028443  0.86832999  1
  H+  H242  1  0.11264594  0.36635322  0.15517057  1
  H+  H243  1  0.93762019  0.60387233  0.39015308  1
  H+  H244  1  0.62211308  0.06461067  0.63872153  1
  H+  H245  1  0.41157376  0.86546391  0.85745618  1
  H+  H246  1  0.36574031  0.76426802  0.85257617  1
  H+  H247  1  0.59682003  0.42256854  0.40595460  1
  H+  H248  1  0.35718158  0.19460016  0.43143020  1
  H+  H249  1  0.64258153  0.27617602  0.51245148  1
  H+  H250  1  0.36500993  0.11868613  0.02663006  1
  H+  H251  1  0.72032631  0.09519590  0.64259954  1
  H+  H252  1  0.12524396  0.37842653  0.99984048  1
  H+  H253  1  0.62092527  0.25590278  0.68226835  1
  H+  H254  1  0.05286771  0.13362035  0.81025624  1
  H+  H255  1  0.50640351  0.37955638  0.18810558  1
  H+  H256  1  0.85795101  0.72979161  0.00801841  1
  H+  H257  1  0.62583945  0.35636659  0.32839930  1
  H+  H258  1  0.11079627  0.12558853  0.00993366  1
  H+  H259  1  0.70923788  0.82960762  0.65344830  1
  H+  H260  1  0.29054785  0.15551549  0.83877540  1
  H+  H261  1  0.64538392  0.61895794  0.17629200  1
  H+  H262  1  0.97538222  0.61369301  0.83479186  1
  H+  H263  1  0.11049488  -0.02285029  0.16000838  1
  H+  H264  1  0.41724089  0.08530313  -0.06253903  1
  H+  H265  1  0.15043202  0.27299441  0.82772986  1
  H+  H266  1  0.26052794  0.36805949  0.15727964  1
  H+  H267  1  0.13782981  0.49882883  0.51001422  1
  H+  H268  1  0.72930924  0.35606663  0.99272191  1
  H+  H269  1  0.49080527  0.61807008  0.66137257  1
  H+  H270  1  0.65115806  0.62665901  0.93865227  1
  H+  H271  1  0.14125648  0.77911760  0.17943991  1
  H+  H272  1  0.03078794  0.66382020  0.31071680  1
  H+  H273  1  0.16002639  0.13266414  0.83757892  1
  H+  H274  1  0.64392830  0.36544313  0.99214810  1
  H+  H275  1  0.47993302  0.11828421  0.84341672  1
  H+  H276  1  0.63744989  0.77508411  -0.00021489  1
  H+  H277  1  0.29714785  0.89548118  0.49912481  1
  H+  H278  1  0.43447822  0.82134487  0.16531686  1
  H+  H279  1  0.60614243  0.88425873  0.82863267  1
  H+  H280  1  0.85461799  0.23162842  0.66720817  1
  H+  H281  1  0.85870499  0.37138754  0.00333872  1
  H+  H282  1  0.60571475  0.95931199  0.47809742  1
  H+  H283  1  0.11966508  0.47287379  0.67436532  1
  H+  H284  1  0.60329571  0.86850129  0.48648235  1
  H+  H285  1  0.85188228  0.97233145  0.32418858  1
  H+  H286  1  0.83907578  0.42531125  0.32614140  1
  H+  H287  1  0.15283095  0.78395007  0.52338550  1
  H+  H288  1  0.82883914  0.68172614  0.43727040  1
  H+  H289  1  0.07565640  0.91059375  0.10284052  1
  H+  H290  1  0.18109091  0.58857234  0.61631322  1
  H+  H291  1  0.89869894  0.06891269  0.94710492  1
  H+  H292  1  0.59032279  0.42827506  0.74193289  1
  H+  H293  1  0.33605439  0.10122389  0.09408864  1
  H+  H294  1  0.09542697  0.17959533  0.74590070  1
  H+  H295  1  0.32757025  0.64148118  0.10084290  1
  H+  H296  1  0.07605713  0.62820863  0.41978711  1
  H+  H297  1  0.92760122  0.32699053  0.59492832  1
  H+  H298  1  0.67994536  0.10653537  0.25785422  1
  H+  H299  1  0.92735779  0.34013029  0.93049692  1
  H+  H300  1  0.76404942  0.93995200  0.71072873  1
  H+  H301  1  0.32543216  0.40532891  0.06432692  1
  H+  H302  1  0.18493574  0.84089706  0.61355266  1
  H+  H303  1  0.57944038  0.17833097  0.77699051  1
  H+  H304  1  0.08024247  0.17313561  0.39607588  1
  H+  H305  1  0.43020234  0.56672540  0.25588005  1
  H+  H306  1  0.33711342  0.17418945  0.77463566  1
  H+  H307  1  0.82631414  0.39572005  0.42801909  1
  H+  H308  1  0.58564208  0.66619408  0.10618600  1
  H+  H309  1  0.90199489  0.06044379  0.56518795  1
  H+  H310  1  0.37246261  0.72593838  0.01940628  1
  H+  H311  1  0.65994516  0.83452724  0.90550736  1
  H+  H312  1  0.30564437  0.53789163  0.88362873  1
  H+  H313  1  0.61344790  0.97071626  0.01130928  1
  H+  H314  1  0.58195339  0.90349448  0.73728144  1
  H+  H315  1  0.10654386  0.68004487  0.10320361  1
  H+  H316  1  0.82806216  0.90780188  0.07151849  1
  H+  H317  1  0.21046256  0.17992862  0.89457675  1
  H+  H318  1  0.67247674  0.33665727  0.90102057  1
  H+  H319  1  0.56847280  0.64861490  0.43238680  1
  H+  H320  1  0.89280641  0.30585381  0.25926342  1
  H+  H321  1  0.67296524  0.57985198  0.26728488  1
  H+  H322  1  0.09274961  0.66810997  0.77598836  1
  H+  H323  1  0.13421783  0.54731040  0.25545896  1
  H+  H324  1  0.42043119  0.81452220  0.60821427  1
  H+  H325  1  0.13966104  0.60626885  0.84270668  1
  H+  H326  1  0.38380421  0.86789672  0.32722225  1
  H+  H327  1  0.33163727  0.20877067  0.11377344  1
  H+  H328  1  0.07581254  0.89401182  0.75920032  1
  H+  H329  1  0.91957708  0.83880790  0.60288638  1
  H+  H330  1  0.91708810  0.58078493  0.60804875  1
  H+  H331  1  0.14964243  0.28047432  0.65376930  1
  H+  H332  1  0.27988315  0.87231651  0.68547019  1
  H+  H333  1  0.03397987  0.60519568  0.00145916  1
  H+  H334  1  0.29453134  0.08189604  0.70641605  1
  H+  H335  1  0.34770363  0.92879108  0.40015747  1
  H+  H336  1  0.82937832  0.91629658  0.77791973  1
  H+  H337  1  0.33448031  0.92064711  0.06723609  1
  H+  H338  1  0.82832483  0.15669339  0.07374038  1
  H+  H339  1  0.39772978  0.28509169  0.84242561  1
  H+  H340  1  0.09614096  0.41958185  0.41196034  1
  H+  H341  1  0.14103331  0.62287238  0.53365148  1
  H+  H342  1  0.10472737  0.67591368  0.41656542  1
  H+  H343  1  0.56874332  0.15140082  0.38734419  1
  H+  H344  1  0.04627219  0.22647299  0.70271197  1
  H+  H345  1  0.91857216  0.83738026  0.23384695  1
  H+  H346  1  0.10083191  0.95170735  0.48374391  1
  H+  H347  1  0.31030903  0.69506110  0.45015214  1
  H+  H348  1  0.34257117  0.91886769  0.76380321  1
  H+  H349  1  0.90296904  0.58913489  0.92239394  1
  H+  H350  1  0.82719479  0.66659967  0.75728945  1
  H+  H351  1  0.68010715  0.33887439  0.60780460  1
  H+  H352  1  0.02228446  0.12753023  0.00797363  1
  H+  H353  1  0.15891978  0.33119702  0.23162936  1
  H+  H354  1  0.71303209  0.59247589  0.61576512  1
  H+  H355  1  0.60927454  0.97422835  0.82492270  1
  H+  H356  1  0.17963761  0.84482426  0.89932414  1
  H+  H357  1  0.39337202  1.02255817  -0.00519394  1
  H+  H358  1  0.65612173  0.06636494  0.54580513  1
  H+  H359  1  0.42563612  0.10211154  0.56599876  1
  H+  H360  1  0.19779246  0.34681135  0.56077499  1
  H+  H361  1  0.52912077  0.13841627  0.00388574  1
  H+  H362  1  0.34479981  0.43192772  0.76512818  1
  H+  H363  1  0.08314488  0.16363649  0.10175877  1
  H+  H364  1  0.11884365  0.38140591  0.82282720  1
  H+  H365  1  0.88766447  0.61521445  0.82477045  1
  H+  H366  1  0.82316500  0.14348184  0.39179715  1
  H+  H367  1  0.91862426  0.08071512  0.23214193  1
  H+  H368  1  0.41268154  0.69040288  0.39412236  1
  H+  H369  1  0.17925585  0.57571748  0.89628753  1
  H+  H370  1  0.62371069  0.83323290  0.32399237  1
  H+  H371  1  0.42209215  0.84685593  0.23360257  1
  H+  H372  1  0.58372615  0.17370862  0.09583495  1
  H+  H373  1  0.08679632  0.40757273  0.72932183  1
  H+  H374  1  0.42640873  0.34651088  0.90076097  1
  H+  H375  1  0.11645840  0.99025142  0.67898003  1
  H+  H376  1  0.82185900  0.38937884  0.06410007  1
  H+  H377  1  0.67057530  0.81906744  0.23667529  1
  H+  H378  1  0.18598539  0.85954288  0.26663503  1
  H+  H379  1  0.34331560  0.23249461  0.34506517  1
  H+  H380  1  0.61899445  0.62713139  0.84768775  1
  H+  H381  1  0.17081932  0.32270037  0.92612970  1
  H+  H382  1  0.64230167  0.81068960  0.56147982  1
  H+  H383  1  0.06288374  0.88605819  0.38909282  1
  O2-  O384  1  0.07940494  0.16356364  0.14691758  1
  O2-  O385  1  0.09033061  0.18686262  0.47217416  1
  O2-  O386  1  0.11016144  0.17117390  0.79445385  1
  O2-  O387  1  0.08312351  0.39659261  0.13324616  1
  O2-  O388  1  0.11195865  0.43817554  0.49480785  1
  O2-  O389  1  0.08712189  0.40978256  0.80700589  1
  O2-  O390  1  0.09577687  0.66541991  0.14617435  1
  O2-  O391  1  0.07321507  0.66867874  0.54014605  1
  O2-  O392  1  0.09115534  0.66782896  0.82143149  1
  O2-  O393  1  0.07596018  0.91420155  0.14853540  1
  O2-  O394  1  0.12678529  0.95072330  0.52242934  1
  O2-  O395  1  0.05892522  0.85909840  0.79798858  1
  O2-  O396  1  0.31499020  0.22516951  0.15188801  1
  O2-  O397  1  0.39156028  0.21209188  0.47088540  1
  O2-  O398  1  0.34861470  0.18106406  0.81948599  1
  O2-  O399  1  0.31701111  0.38405964  0.13838563  1
  O2-  O400  1  0.35064667  0.38668608  0.46771402  1
  O2-  O401  1  0.34047833  0.42437280  0.81067619  1
  O2-  O402  1  0.31518428  0.62351630  0.14585619  1
  O2-  O403  1  0.33053423  0.68311756  0.48797466  1
  O2-  O404  1  0.33726637  0.68213080  0.80762950  1
  O2-  O405  1  0.33330342  0.92330694  0.14344902  1
  O2-  O406  1  0.35623170  0.92672844  0.48216624  1
  O2-  O407  1  0.34110539  0.93265297  0.81145952  1
  O2-  O408  1  0.58131925  0.17286598  0.14142255  1
  O2-  O409  1  0.56904857  0.18731972  0.46839881  1
  O2-  O410  1  0.58058184  0.16995150  0.82181267  1
  O2-  O411  1  0.60074300  0.42644563  0.14570937  1
  O2-  O412  1  0.59739681  0.41996621  0.48595481  1
  O2-  O413  1  0.58559745  0.40779952  0.80995285  1
  O2-  O414  1  0.58568401  0.66368126  0.15211921  1
  O2-  O415  1  0.56989425  0.65591233  0.47655371  1
  O2-  O416  1  0.60337349  0.65190659  0.88158488  1
  O2-  O417  1  0.61370309  0.94385897  0.20956734  1
  O2-  O418  1  0.57225192  0.89739743  0.46805111  1
  O2-  O419  1  0.58091273  0.91558399  0.80763851  1
  O2-  O420  1  0.84159267  0.16906488  0.14171363  1
  O2-  O421  1  0.82246565  0.14338535  0.46798806  1
  O2-  O422  1  0.82782556  0.16326211  0.81578460  1
  O2-  O423  1  0.82766433  0.40020344  0.14825814  1
  O2-  O424  1  0.83739290  0.40131468  0.47276878  1
  O2-  O425  1  0.83489761  0.41349447  0.80881870  1
  O2-  O426  1  0.84043110  0.66634598  0.14340579  1
  O2-  O427  1  0.83789987  0.67333484  0.48076766  1
  O2-  O428  1  0.83937592  0.67113064  0.80195528  1
  O2-  O429  1  0.83801667  0.91366530  0.15377458  1
  O2-  O430  1  0.81217001  0.88589007  0.49129367  1
  O2-  O431  1  0.83034383  0.91433727  0.82324123  1
  O2-  O432  1  0.15857684  0.07826616  0.18486791  1
  O2-  O433  1  0.18615267  0.12574040  0.54086832  1
  O2-  O434  1  0.19512389  0.12776563  0.87159875  1
  O2-  O435  1  0.15714764  0.32573821  0.18593878  1
  O2-  O436  1  0.20078771  0.35166145  0.51542574  1
  O2-  O437  1  0.17539043  0.33032312  0.84799544  1
  O2-  O438  1  0.14773800  0.55074515  0.17859365  1
  O2-  O439  1  0.17607298  0.59524883  0.54133136  1
  O2-  O440  1  0.16992817  0.57386775  0.85157402  1
  O2-  O441  1  0.17112246  0.84128523  0.18855665  1
  O2-  O442  1  0.19472624  0.84392373  0.53404394  1
  O2-  O443  1  0.18376435  0.84162070  0.85405259  1
  O2-  O444  1  0.40894772  0.09319170  0.16896952  1
  O2-  O445  1  0.42258227  0.09184312  0.52023412  1
  O2-  O446  1  0.41709330  0.08501298  0.85533848  1
  O2-  O447  1  0.45602180  0.35411578  0.21572573  1
  O2-  O448  1  0.34843131  0.24325731  0.51203418  1
  O2-  O449  1  0.42794819  0.34673891  0.85551143  1
  O2-  O450  1  0.42103361  0.55579384  0.18375641  1
  O2-  O451  1  0.40207290  0.56509055  0.51810415  1
  O2-  O452  1  0.36571584  0.56216409  0.87218369  1
  O2-  O453  1  0.43967558  0.86817329  0.19049831  1
  O2-  O454  1  0.42717655  0.83685655  0.53061326  1
  O2-  O455  1  0.37655525  0.81320978  0.88049710  1
  O2-  O456  1  0.68283516  0.11098515  0.17905562  1
  O2-  O457  1  0.65498903  0.06907891  0.50060434  1
  O2-  O458  1  0.66144864  0.08260629  0.85970212  1
  O2-  O459  1  0.66502969  0.33181728  0.19128411  1
  O2-  O460  1  0.67831508  0.33620411  0.52724360  1
  O2-  O461  1  0.66999599  0.33382043  0.85499967  1
  O2-  O462  1  0.67649670  0.58924248  0.19156891  1
  O2-  O463  1  0.69600999  0.57722212  0.54841420  1
  O2-  O464  1  0.69225726  0.56422058  0.84947109  1
  O2-  O465  1  0.67492097  0.83137051  0.19163203  1
  O2-  O466  1  0.64427186  0.81501699  0.51616950  1
  O2-  O467  1  0.65546637  0.82756064  0.86030202  1
  O2-  O468  1  0.91300902  0.07746477  0.18564935  1
  O2-  O469  1  0.89185558  0.04734057  0.52157942  1
  O2-  O470  1  0.88698831  0.06596997  0.86945864  1
  O2-  O471  1  0.90539415  0.32270148  0.20013484  1
  O2-  O472  1  0.91934032  0.31636694  0.50894222  1
  O2-  O473  1  0.92180968  0.33639268  0.84886416  1
  O2-  O474  1  0.92520964  0.58255625  0.17029500  1
  O2-  O475  1  0.87762241  0.56211171  0.52334224  1
  O2-  O476  1  0.91322065  0.58264375  0.84453116  1
  O2-  O477  1  0.91983196  0.84201392  0.18479758  1
  O2-  O478  1  0.89947269  0.82596714  0.52831799  1
  O2-  O479  1  0.90736151  0.82550310  0.85651995  1
  O2-  O480  1  0.17022117  0.06518440  0.30097611  1
  O2-  O481  1  0.15376397  0.09838575  0.65858048  1
  O2-  O482  1  0.17047464  0.06829019  0.99510212  1
  O2-  O483  1  0.16933653  0.34373039  0.30671632  1
  O2-  O484  1  0.18500211  0.34101606  0.63853881  1
  O2-  O485  1  0.17108485  0.32381539  0.97172653  1
  O2-  O486  1  0.12514052  0.55310433  0.29981707  1
  O2-  O487  1  0.18498474  0.58377046  0.66161073  1
  O2-  O488  1  0.19222207  0.57533084  0.97675245  1
  O2-  O489  1  0.18063347  0.84889898  0.31142672  1
  O2-  O490  1  0.17620243  0.83641889  0.65848863  1
  O2-  O491  1  0.16919045  0.83683911  0.97732851  1
  O2-  O492  1  0.40406834  0.09459360  0.30157400  1
  O2-  O493  1  0.42800206  0.12253562  0.63549000  1
  O2-  O494  1  0.42128187  0.08453745  0.98250213  1
  O2-  O495  1  0.44549100  0.40640890  0.32321601  1
  O2-  O496  1  0.45050360  0.39207005  0.65188432  1
  O2-  O497  1  0.42469565  0.34466027  0.98137578  1
  O2-  O498  1  0.43687589  0.57581173  0.30178044  1
  O2-  O499  1  0.38034876  0.59127090  0.64024268  1
  O2-  O500  1  0.42321633  0.58436119  0.98736249  1
  O2-  O501  1  0.40970142  0.83519885  0.30735127  1
  O2-  O502  1  0.41596500  0.80012113  0.65249119  1
  O2-  O503  1  0.41604330  0.82355506  0.99567230  1
  O2-  O504  1  0.67126981  0.08750126  0.30104992  1
  O2-  O505  1  0.66525551  0.05170670  0.62345758  1
  O2-  O506  1  0.67188577  0.08530360  0.98350497  1
  O2-  O507  1  0.65129393  0.32188977  0.31188016  1
  O2-  O508  1  0.68070563  0.34005222  0.65281696  1
  O2-  O509  1  0.66804408  0.33076961  0.97540117  1
  O2-  O510  1  0.67177929  0.58139221  0.31309430  1
  O2-  O511  1  0.71477398  0.59450591  0.66308029  1
  O2-  O512  1  0.66440332  0.59683624  0.97239327  1
  O2-  O513  1  0.65721485  0.80430514  0.31106086  1
  O2-  O514  1  0.65014142  0.80411445  0.63869495  1
  O2-  O515  1  0.66961733  0.83518976  0.98435291  1
  O2-  O516  1  0.92269418  0.07954041  0.30401085  1
  O2-  O517  1  0.91613154  0.07657146  0.64904952  1
  O2-  O518  1  0.90768743  0.07388371  0.99202021  1
  O2-  O519  1  0.88666851  0.29580760  0.30950155  1
  O2-  O520  1  0.92547018  0.32793825  0.63970996  1
  O2-  O521  1  0.92537087  0.33817621  0.97544515  1
  O2-  O522  1  0.92660327  0.61915090  0.34986560  1
  O2-  O523  1  0.92298641  0.58296808  0.65257952  1
  O2-  O524  1  0.91196375  0.60363815  0.96680380  1
  O2-  O525  1  0.91616827  0.83552969  0.29699707  1
  O2-  O526  1  0.93614645  0.84665952  0.64696407  1
  O2-  O527  1  0.91264347  0.83107095  0.98105648  1
  O2-  O528  1  0.08379315  0.16046346  0.02022577  1
  O2-  O529  1  0.07517601  0.16714294  0.35076150  1
  O2-  O530  1  0.06967596  0.18994543  0.69086718  1
  O2-  O531  1  0.10066214  0.41210273  0.01927348  1
  O2-  O532  1  0.08117183  0.40167059  0.36921364  1
  O2-  O533  1  0.08728157  0.41021035  0.68367837  1
  O2-  O534  1  0.08878129  0.64918338  -0.01586663  1
  O2-  O535  1  0.08561451  0.68349458  0.28972394  1
  O2-  O536  1  0.09050105  0.66741441  0.69501792  1
  O2-  O537  1  0.07439625  0.90116584  0.02605904  1
  O2-  O538  1  0.07090813  0.89548803  0.34553184  1
  O2-  O539  1  0.09457080  0.92816928  0.68722967  1
  O2-  O540  1  0.32681686  0.12563799  0.05663762  1
  O2-  O541  1  0.32683748  0.17398671  0.35936983  1
  O2-  O542  1  0.30695384  0.14104321  0.70216373  1
  O2-  O543  1  0.33360463  0.41505024  0.01910254  1
  O2-  O544  1  0.35994817  0.34267159  0.34634063  1
  O2-  O545  1  0.34260726  0.44133905  0.68976873  1
  O2-  O546  1  0.34324073  0.66275906  0.03151699  1
  O2-  O547  1  0.37843572  0.67453495  0.35684501  1
  O2-  O548  1  0.35252498  0.64178833  0.67824856  1
  O2-  O549  1  0.33830399  0.91952183  0.02176278  1
  O2-  O550  1  0.34419713  0.92688512  0.35489138  1
  O2-  O551  1  0.33886175  0.89623991  0.70262520  1
  O2-  O552  1  0.58974155  0.16894823  0.01866934  1
  O2-  O553  1  0.57046791  0.15294992  0.34252408  1
  O2-  O554  1  0.57778569  0.19586733  0.70061122  1
  O2-  O555  1  0.59399623  0.42707032  0.02060823  1
  O2-  O556  1  0.59372622  0.42187587  0.36065739  1
  O2-  O557  1  0.59483668  0.44396750  0.69672261  1
  O2-  O558  1  0.58366899  0.67003852  0.03186279  1
  O2-  O559  1  0.57993022  0.64869393  0.34480487  1
  O2-  O560  1  0.54627636  0.62136509  0.66970329  1
  O2-  O561  1  0.58822835  0.91147008  0.02663931  1
  O2-  O562  1  0.57736112  0.88795849  0.34265285  1
  O2-  O563  1  0.57871582  0.89088618  0.69140117  1
  O2-  O564  1  0.82207580  0.14751759  0.02695483  1
  O2-  O565  1  0.82344528  0.14528338  0.34616229  1
  O2-  O566  1  0.80606002  0.17848680  0.68678804  1
  O2-  O567  1  0.82063288  0.39263053  0.01942877  1
  O2-  O568  1  0.80431143  0.37501614  0.35120792  1
  O2-  O569  1  0.84900310  0.41928354  0.68767284  1
  O2-  O570  1  0.82315975  0.66879687  0.02256041  1
  O2-  O571  1  0.82534202  0.69198176  0.35844547  1
  O2-  O572  1  0.80539093  0.64213921  0.68106895  1
  O2-  O573  1  0.82896457  0.91007817  0.02641702  1
  O2-  O574  1  0.81732096  0.90990058  0.33359861  1
  O2-  O575  1  0.80940012  0.92668721  0.70218697  1
