# generated using pymatgen
data_H2O
_symmetry_space_group_name_H-M   'P 1'
_cell_length_a   17.98887329
_cell_length_b   17.99381369
_cell_length_c   22.00011752
_cell_angle_alpha   90.03249285
_cell_angle_beta   89.95632146
_cell_angle_gamma   119.99665007
_symmetry_Int_Tables_number   1
_chemical_formula_structural   H2O
_chemical_formula_sum   'H384 O192'
_cell_volume   6167.33213577
_cell_formula_units_Z   192
loop_
 _symmetry_equiv_pos_site_id
 _symmetry_equiv_pos_as_xyz
  1  'x, y, z'
loop_
 _atom_type_symbol
 _atom_type_oxidation_number
  H+  1.0
  O2-  -2.0
loop_
 _atom_site_type_symbol
 _atom_site_label
 _atom_site_symmetry_multiplicity
 _atom_site_fract_x
 _atom_site_fract_y
 _atom_site_fract_z
 _atom_site_occupancy
  H+  H0  1  0.80844996  0.92908804  0.81365952  1
  H+  H1  1  0.37544297  0.65171128  0.83647736  1
  H+  H2  1  0.24006784  0.82792549  0.33290550  1
  H+  H3  1  -0.02530851  0.36293734  -0.01077532  1
  H+  H4  1  0.63992683  0.60849074  0.17718585  1
  H+  H5  1  0.85593012  0.23269889  0.14534891  1
  H+  H6  1  0.35039583  0.72401832  0.67565501  1
  H+  H7  1  0.62844737  0.85160701  0.16920782  1
  H+  H8  1  0.11794548  0.46006853  0.00132174  1
  H+  H9  1  0.11597502  0.23585125  0.33822730  1
  H+  H10  1  0.37408147  0.73145515  0.34310834  1
  H+  H11  1  0.75210198  0.38471057  0.17800693  1
  H+  H12  1  0.10933968  0.77801691  0.50695036  1
  H+  H13  1  0.88554500  0.27569491  0.98396485  1
  H+  H14  1  0.26018802  0.87499675  0.50447104  1
  H+  H15  1  0.07668111  0.58253409  0.50710977  1
  H+  H16  1  0.38420965  0.60812505  0.32789997  1
  H+  H17  1  0.60858521  0.71522682  0.16213315  1
  H+  H18  1  0.28054236  0.66570835  0.36445354  1
  H+  H19  1  0.27662604  0.39155567  0.66161877  1
  H+  H20  1  0.22612896  0.86378820  -0.00337884  1
  H+  H21  1  0.86047580  0.63888912  0.49206803  1
  H+  H22  1  0.92702358  0.09881450  0.93604202  1
  H+  H23  1  0.02411056  0.88062244  0.83765922  1
  H+  H24  1  0.87153235  0.23716975  0.81960744  1
  H+  H25  1  0.72240301  0.35160298  0.68040589  1
  H+  H26  1  0.65666628  0.69020920  0.83080635  1
  H+  H27  1  0.85520513  0.37881242  0.98679437  1
  H+  H28  1  0.10142255  0.46283273  0.33794191  1
  H+  H29  1  0.87545803  0.97939127  0.50304156  1
  H+  H30  1  0.87902528  0.51986358  0.32846356  1
  H+  H31  1  0.15490691  0.50119048  0.52523057  1
  H+  H32  1  0.34891106  0.37670987  0.85506992  1
  H+  H33  1  0.22757230  0.61594102  0.16891517  1
  H+  H34  1  0.36244602  0.97838310  0.00931256  1
  H+  H35  1  0.60919156  0.22477469  0.16757446  1
  H+  H36  1  0.64056520  0.11896864  0.51087911  1
  H+  H37  1  0.60221491  0.71496659  0.66401292  1
  H+  H38  1  0.18892786  0.86273930  0.66284365  1
  H+  H39  1  0.24783220  0.59076685  0.52508605  1
  H+  H40  1  0.64050440  0.11671138  0.17318262  1
  H+  H41  1  0.61119440  0.62019174  0.33099466  1
  H+  H42  1  0.29217219  0.16295728  0.33417040  1
  H+  H43  1  0.60533529  0.30422638  0.35848494  1
  H+  H44  1  0.81382148  0.53670257  0.55355865  1
  H+  H45  1  -0.01117102  0.89357901  0.67092943  1
  H+  H46  1  0.39085913  0.77015689  0.51513895  1
  H+  H47  1  0.62820685  0.59288888  1.00415023  1
  H+  H48  1  0.25063265  0.59243971  0.98493099  1
  H+  H49  1  0.11534745  0.62419221  0.51632330  1
  H+  H50  1  0.99715863  0.96413720  0.89358045  1
  H+  H51  1  0.37782556  0.81674451  0.60444586  1
  H+  H52  1  0.29468556  0.16445593  0.67326132  1
  H+  H53  1  0.72774887  0.60275548  0.32525188  1
  H+  H54  1  0.02395002  0.89274922  0.51217491  1
  H+  H55  1  0.42869488  0.17094398  0.96385799  1
  H+  H56  1  0.12443845  0.14768675  0.16316581  1
  H+  H57  1  0.52506647  0.23924803  0.94137991  1
  H+  H58  1  0.13853837  1.02562349  -0.01714672  1
  H+  H59  1  0.40095897  0.13541978  0.66506533  1
  H+  H60  1  0.37690749  0.39591573  0.65879871  1
  H+  H61  1  0.35893614  0.47190306  1.00356275  1
  H+  H62  1  0.77813603  0.63557482  0.16339714  1
  H+  H63  1  0.89016437  0.52365278  0.18116018  1
  H+  H64  1  0.36298310  0.63934879  0.16141220  1
  H+  H65  1  0.01580704  0.37172348  0.34299981  1
  H+  H66  1  0.89674774  0.03695933  0.99658216  1
  H+  H67  1  0.98412137  0.85211550  0.68321869  1
  H+  H68  1  0.64260726  0.22217078  0.30356574  1
  H+  H69  1  0.12267997  0.15124171  0.33657060  1
  H+  H70  1  0.61892933  0.47744057  0.16329598  1
  H+  H71  1  0.39150294  0.52326301  0.50870225  1
  H+  H72  1  -0.02542299  0.60066948  0.33322644  1
  H+  H73  1  0.87949437  0.27197897  0.51032610  1
  H+  H74  1  0.87784578  0.25672146  0.33551527  1
  H+  H75  1  0.62471564  0.36338276  0.18370817  1
  H+  H76  1  0.87643478  0.36404415  0.17327028  1
  H+  H77  1  0.86309646  0.37208172  0.68711707  1
  H+  H78  1  0.21966060  0.57253269  0.30986808  1
  H+  H79  1  0.61575029  0.88441451  0.82002197  1
  H+  H80  1  0.63703778  0.60747399  0.65731274  1
  H+  H81  1  0.18215200  0.10023040  0.57121481  1
  H+  H82  1  0.36534583  0.72514051  1.00461814  1
  H+  H83  1  0.23355243  0.11066963  0.50784804  1
  H+  H84  1  0.63393982  0.76042852  0.36250520  1
  H+  H85  1  0.61853088  1.02219230  0.66534295  1
  H+  H86  1  0.27289203  0.38058622  0.00376245  1
  H+  H87  1  0.23336533  0.12011394  0.17708808  1
  H+  H88  1  0.15669358  0.13415123  0.67024989  1
  H+  H89  1  0.85871657  0.88558602  0.48848478  1
  H+  H90  1  0.11286731  0.88665047  0.53216610  1
  H+  H91  1  0.76667397  0.14035734  0.14750885  1
  H+  H92  1  0.27475544  0.89233301  0.15892219  1
  H+  H93  1  0.38438375  0.77490237  0.17578957  1
  H+  H94  1  0.60443558  0.69559061  0.02668598  1
  H+  H95  1  0.11931046  0.98824187  0.52833084  1
  H+  H96  1  0.87373355  0.25978174  0.66629661  1
  H+  H97  1  0.38411528  0.77317565  0.84229397  1
  H+  H98  1  0.39074668  0.37116291  0.17052625  1
  H+  H99  1  0.36291319  0.23104372  0.16345331  1
  H+  H100  1  0.14342318  0.36024319  0.65732181  1
  H+  H101  1  0.51977032  0.89049108  0.16924302  1
  H+  H102  1  0.41171265  0.06966379  0.32374869  1
  H+  H103  1  -0.00236372  0.14826235  0.85135727  1
  H+  H104  1  0.09708707  0.91353444  0.68930544  1
  H+  H105  1  0.40806314  0.15420148  0.31924613  1
  H+  H106  1  0.52186118  0.87568206  0.82800937  1
  H+  H107  1  0.23138935  0.51159921  0.94634836  1
  H+  H108  1  0.58838326  0.17031764  0.10465254  1
  H+  H109  1  0.71994609  0.35422776  0.50395806  1
  H+  H110  1  0.36859409  0.22762194  0.99647604  1
  H+  H111  1  0.63666067  0.02922467  0.51811347  1
  H+  H112  1  0.10864330  0.37413475  0.49965068  1
  H+  H113  1  0.13583293  0.36653957  0.17035723  1
  H+  H114  1  0.86882796  0.46510955  0.68325372  1
  H+  H115  1  0.14335745  0.11589907  -0.01584605  1
  H+  H116  1  0.01380247  0.63303006  0.00477770  1
  H+  H117  1  0.11386051  0.69955828  0.34385085  1
  H+  H118  1  0.65445743  0.25229176  0.85637939  1
  H+  H119  1  0.78214655  0.89036990  0.35305528  1
  H+  H120  1  0.15068456  0.04902537  0.33160412  1
  H+  H121  1  0.83353677  0.71046818  0.82000838  1
  H+  H122  1  0.86818600  0.63752896  0.16412023  1
  H+  H123  1  0.11899758  0.47244971  0.81366298  1
  H+  H124  1  0.47592054  0.70242201  0.88933708  1
  H+  H125  1  0.47871612  0.11392627  0.16510843  1
  H+  H126  1  0.38247246  0.25195361  0.67392048  1
  H+  H127  1  0.11627409  0.63089206  0.82905474  1
  H+  H128  1  0.64221961  0.88086014  0.50748734  1
  H+  H129  1  0.22835556  0.36505395  0.50627061  1
  H+  H130  1  0.71513391  0.35294142  -0.04786326  1
  H+  H131  1  0.90054423  0.12039246  0.66441678  1
  H+  H132  1  0.77153628  0.14255868  0.50337637  1
  H+  H133  1  0.93569580  0.87120745  0.91894180  1
  H+  H134  1  0.86671141  0.13444666  0.34414986  1
  H+  H135  1  0.17366500  0.05383285  0.66481199  1
  H+  H136  1  0.34606591  0.66626363  0.44558075  1
  H+  H137  1  0.52602928  0.39060694  0.16083211  1
  H+  H138  1  0.11189528  0.88887826  0.00173874  1
  H+  H139  1  0.64142154  0.10316467  0.32205009  1
  H+  H140  1  0.48576542  0.60842494  0.50377140  1
  H+  H141  1  0.26871174  0.13489052  0.82203875  1
  H+  H142  1  0.32367250  0.89395030  0.44920748  1
  H+  H143  1  0.36566598  0.98054489  0.15988318  1
  H+  H144  1  0.88545849  0.65984751  0.82251190  1
  H+  H145  1  0.60867034  0.08749432  0.85402742  1
  H+  H146  1  0.86511776  0.38152860  0.49657792  1
  H+  H147  1  0.12257484  0.71378513  0.67549135  1
  H+  H148  1  0.52118739  0.89187534  0.50325778  1
  H+  H149  1  0.37653032  0.26443116  0.84862115  1
  H+  H150  1  0.61352261  0.47129626  0.66996521  1
  H+  H151  1  0.13649325  0.84788091  0.83890064  1
  H+  H152  1  0.86916410  0.89671568  0.01322495  1
  H+  H153  1  0.33870415  0.37157840  0.34582472  1
  H+  H154  1  0.91412722  1.05290508  0.84155130  1
  H+  H155  1  0.03081720  0.14182857  0.00889298  1
  H+  H156  1  0.61870080  0.13860231  1.01404475  1
  H+  H157  1  0.13092560  0.77644906  0.16862809  1
  H+  H158  1  0.84445404  0.66738533  0.72549466  1
  H+  H159  1  0.86006612  0.49985830  0.51313067  1
  H+  H160  1  0.61148733  0.62329678  0.48788679  1
  H+  H161  1  0.56512024  0.32911591  0.80371503  1
  H+  H162  1  0.35742940  0.94249318  0.36081918  1
  H+  H163  1  0.12151167  0.72267925  0.83017173  1
  H+  H164  1  0.23103167  0.61197625  0.83277054  1
  H+  H165  1  0.08094619  0.40988571  0.44289257  1
  H+  H166  1  0.86458040  0.62552445  0.66934541  1
  H+  H167  1  0.24374150  0.61549352  0.67414891  1
  H+  H168  1  0.89241199  0.77937607  0.16888067  1
  H+  H169  1  0.39399252  0.36647578  1.00044206  1
  H+  H170  1  0.08292344  0.40387092  0.71822750  1
  H+  H171  1  0.13627317  0.77527469  0.99483925  1
  H+  H172  1  0.52177935  0.38602725  0.48475365  1
  H+  H173  1  0.67860634  0.54888299  0.84982927  1
  H+  H174  1  0.12527570  0.13883936  0.49172295  1
  H+  H175  1  0.47002831  0.59692240  1.00100181  1
  H+  H176  1  0.98421948  0.60005056  0.66647098  1
  H+  H177  1  0.77405128  0.64156362  0.49266378  1
  H+  H178  1  0.45113785  0.41096571  0.31520573  1
  H+  H179  1  0.13509196  0.35061788  -0.00999364  1
  H+  H180  1  0.38107593  0.85436958  0.51603611  1
  H+  H181  1  0.49918239  0.35891216  0.82180730  1
  H+  H182  1  0.15987628  0.57182908  0.25781319  1
  H+  H183  1  0.51303279  0.65624965  0.83184345  1
  H+  H184  1  0.89818069  1.02826859  0.17747575  1
  H+  H185  1  0.70672514  0.81202648  0.84729933  1
  H+  H186  1  0.10223939  0.63413385  0.00501037  1
  H+  H187  1  0.37343254  0.86433299  0.34964355  1
  H+  H188  1  0.48389393  0.36462532  0.00272875  1
  H+  H189  1  0.64252492  0.52002330  0.50339507  1
  H+  H190  1  0.62015805  1.00539733  0.84892517  1
  H+  H191  1  0.13901207  0.86577942  0.30312708  1
  H+  H192  1  0.38645273  0.86506736  -0.00564404  1
  H+  H193  1  0.88260630  0.60919771  0.99487908  1
  H+  H194  1  0.65600328  0.50701289  0.83265926  1
  H+  H195  1  0.54764781  0.16568002  0.00477765  1
  H+  H196  1  0.63365104  0.35291095  0.67128552  1
  H+  H197  1  0.99276498  0.12963781  0.67074687  1
  H+  H198  1  0.63184311  0.35417479  0.50085652  1
  H+  H199  1  0.82684825  0.41978341  0.76519387  1
  H+  H200  1  0.38009911  0.52305950  0.16866600  1
  H+  H201  1  0.61018074  0.12448269  0.67314986  1
  H+  H202  1  0.10909146  0.47876273  0.15694632  1
  H+  H203  1  0.48206191  0.37790352  0.64964930  1
  H+  H204  1  0.10421540  0.37639698  0.81322748  1
  H+  H205  1  0.87875479  0.51791807  0.98787420  1
  H+  H206  1  0.50507276  0.86299596  0.00858319  1
  H+  H207  1  0.14619825  0.60901576  0.66729135  1
  H+  H208  1  0.73171477  0.87966556  0.50866561  1
  H+  H209  1  0.38025199  0.99670863  0.68186667  1
  H+  H210  1  0.71779333  0.85313911  0.16634774  1
  H+  H211  1  0.14246415  1.00950316  0.83346457  1
  H+  H212  1  0.92147217  0.34272779  0.88625643  1
  H+  H213  1  0.79991948  0.43834477  0.11994354  1
  H+  H214  1  0.63993974  1.02702797  0.17128872  1
  H+  H215  1  0.30990862  0.28151533  0.54673252  1
  H+  H216  1  0.02565795  0.63768690  0.16295791  1
  H+  H217  1  0.87747823  0.15241603  0.82718953  1
  H+  H218  1  0.14302704  0.27098950  0.50617637  1
  H+  H219  1  0.61861201  0.22295212  0.48578948  1
  H+  H220  1  0.94609218  0.85032746  0.43297989  1
  H+  H221  1  0.90649041  0.88949146  0.32120341  1
  H+  H222  1  0.98131856  0.11984845  0.33224498  1
  H+  H223  1  0.84164488  0.82128124  0.71502020  1
  H+  H224  1  0.77502912  0.63378857  0.01055892  1
  H+  H225  1  -0.00544994  0.89002264  0.30822493  1
  H+  H226  1  0.14332794  0.26752736  -0.00838977  1
  H+  H227  1  0.83316831  0.92496847  0.10545942  1
  H+  H228  1  0.36573811  0.85876231  0.66577469  1
  H+  H229  1  0.78875444  0.91153736  1.00682169  1
  H+  H230  1  0.93903285  0.07444242  0.57879355  1
  H+  H231  1  -0.02514200  0.86236056  0.00244649  1
  H+  H232  1  0.17263315  0.56732273  0.88945810  1
  H+  H233  1  0.33651086  0.67120992  0.10185145  1
  H+  H234  1  0.47550609  0.61191694  0.65724501  1
  H+  H235  1  0.59298597  0.88990790  0.66583174  1
  H+  H236  1  0.25940053  0.38533514  0.33863532  1
  H+  H237  1  0.62084677  0.46134699  1.01107914  1
  H+  H238  1  0.13041518  0.36244457  0.32534731  1
  H+  H239  1  0.38076068  0.63708658  0.50216808  1
  H+  H240  1  0.16527015  0.95643701  0.27623563  1
  H+  H241  1  0.36212285  0.14198445  0.15836415  1
  H+  H242  1  0.36995317  0.48917534  0.66111716  1
  H+  H243  1  0.76952144  0.12876931  0.00053467  1
  H+  H244  1  0.51388879  0.37313250  0.32545276  1
  H+  H245  1  0.89262598  0.02987165  0.33245680  1
  H+  H246  1  0.63993823  0.02405901  1.00323025  1
  H+  H247  1  0.38389156  0.86422758  0.17687679  1
  H+  H248  1  0.37312537  0.01626668  0.51959841  1
  H+  H249  1  0.48814953  0.86163597  0.32914513  1
  H+  H250  1  0.66639652  0.81537875  0.96777617  1
  H+  H251  1  0.35548119  0.22765988  0.49856611  1
  H+  H252  1  0.89407742  0.34745024  0.35720645  1
  H+  H253  1  0.51828965  0.62559506  0.16817365  1
  H+  H254  1  0.02334178  0.89651608  0.15136292  1
  H+  H255  1  0.89319330  0.92733954  0.82869662  1
  H+  H256  1  -0.00701297  0.64931824  0.49495959  1
  H+  H257  1  0.27350043  0.38941866  0.15878376  1
  H+  H258  1  0.38098206  0.25333549  0.33771574  1
  H+  H259  1  0.77777126  0.38251701  0.83640217  1
  H+  H260  1  0.80808488  0.37430858  0.32663465  1
  H+  H261  1  0.35410161  0.38067294  0.49874227  1
  H+  H262  1  0.61272069  0.87897077  0.36108537  1
  H+  H263  1  0.36899419  0.64266799  0.67338726  1
  H+  H264  1  0.29125609  0.90447159  0.83544724  1
  H+  H265  1  0.85920300  0.88754005  0.16122020  1
  H+  H266  1  0.66103891  0.81542683  0.42244074  1
  H+  H267  1  0.75090493  0.84151088  0.66252188  1
  H+  H268  1  0.37770843  0.10705270  0.51361348  1
  H+  H269  1  0.13690498  0.24117212  0.68200070  1
  H+  H270  1  0.88400384  0.77318656  1.00147026  1
  H+  H271  1  0.11236847  0.89718968  0.14608411  1
  H+  H272  1  0.54431305  0.16152785  0.32034914  1
  H+  H273  1  0.98080520  0.61204070  0.84064141  1
  H+  H274  1  0.01979379  0.38998390  0.15930523  1
  H+  H275  1  0.86679483  0.13484374  0.00355508  1
  H+  H276  1  0.03303622  0.14196655  0.16282643  1
  H+  H277  1  0.65680065  0.07023952  0.93736693  1
  H+  H278  1  0.64560616  0.88558464  -0.01122194  1
  H+  H279  1  0.35566009  0.46528981  0.84539943  1
  H+  H280  1  0.51623437  0.13676993  0.67398647  1
  H+  H281  1  -0.00720044  0.10326268  0.51556685  1
  H+  H282  1  0.13895053  0.61828476  0.16873904  1
  H+  H283  1  0.61388657  0.22666416  0.68373616  1
  H+  H284  1  0.72557760  0.60467908  0.65925895  1
  H+  H285  1  0.85706062  0.48920050  0.82911637  1
  H+  H286  1  0.39415500  0.86802648  0.84390101  1
  H+  H287  1  0.76911971  0.13036260  0.67985853  1
  H+  H288  1  0.61807851  0.96865266  0.34072420  1
  H+  H289  1  0.17437055  0.83224625  0.89986228  1
  H+  H290  1  0.08517964  0.92646206  0.05888907  1
  H+  H291  1  0.19607649  0.79262152  0.26836148  1
  H+  H292  1  0.10762556  0.19416267  0.74627973  1
  H+  H293  1  0.65130267  0.82749356  0.58990039  1
  H+  H294  1  0.67395215  0.07645668  0.26372730  1
  H+  H295  1  0.29066472  0.13604252  0.97938966  1
  H+  H296  1  0.65454239  0.08807217  0.60672060  1
  H+  H297  1  0.79503245  0.38136887  0.03738213  1
  H+  H298  1  0.41858626  0.32754348  0.90702613  1
  H+  H299  1  0.16452223  0.33869071  0.26349156  1
  H+  H300  1  0.70907249  0.69845958  0.89124860  1
  H+  H301  1  0.14038675  0.03218384  0.17350750  1
  H+  H302  1  0.52308897  0.62394315  0.33001090  1
  H+  H303  1  0.64297317  0.50876608  0.32336343  1
  H+  H304  1  0.16109583  0.07528612  0.88651195  1
  H+  H305  1  0.83534962  0.66415338  0.06971785  1
  H+  H306  1  0.84660329  0.93089403  0.40612474  1
  H+  H307  1  0.37853694  0.51719870  0.32557501  1
  H+  H308  1  0.08195427  0.90873261  0.39697369  1
  H+  H309  1  0.67271075  0.57684398  0.23398377  1
  H+  H310  1  0.61168301  0.16999284  0.42652739  1
  H+  H311  1  0.91753110  0.58606888  0.89853888  1
  H+  H312  1  0.58837405  0.40617796  0.07052900  1
  H+  H313  1  0.01780927  0.35895108  0.66464086  1
  H+  H314  1  0.82625292  0.65911266  0.39516484  1
  H+  H315  1  0.57447290  0.91819161  0.72919609  1
  H+  H316  1  0.33003437  0.41853609  0.43841238  1
  H+  H317  1  0.00692776  0.80850666  0.79299187  1
  H+  H318  1  0.34114228  0.66953488  0.77234232  1
  H+  H319  1  0.34059728  0.17811307  0.77119860  1
  H+  H320  1  0.16087134  0.30583704  0.88071668  1
  H+  H321  1  0.41848174  0.09217802  0.60545268  1
  H+  H322  1  0.17539470  0.09368577  0.26452594  1
  H+  H323  1  0.70233699  0.88262202  0.88692572  1
  H+  H324  1  0.04946722  0.67308032  0.43573065  1
  H+  H325  1  0.89829443  0.77586544  0.48073681  1
  H+  H326  1  0.56769653  0.40201894  0.72484142  1
  H+  H327  1  0.64983897  0.56055026  0.94246731  1
  H+  H328  1  0.47457859  0.13437441  0.88062986  1
  H+  H329  1  0.85982784  0.63149479  0.33756293  1
  H+  H330  1  0.57730381  0.92468236  0.44212906  1
  H+  H331  1  0.37489059  0.63997079  0.00850454  1
  H+  H332  1  0.40793910  0.33843691  0.59219439  1
  H+  H333  1  0.42792066  0.59782962  0.93612453  1
  H+  H334  1  0.97122494  0.35980498  0.51464506  1
  H+  H335  1  0.58522269  0.41122731  0.42754452  1
  H+  H336  1  0.58581422  0.73784155  0.79359773  1
  H+  H337  1  0.42139650  0.09538107  0.22349508  1
  H+  H338  1  0.09082514  0.65837403  0.73717873  1
  H+  H339  1  0.66969878  0.57792922  0.56404699  1
  H+  H340  1  0.16111265  0.81899270  0.57113765  1
  H+  H341  1  0.33223577  0.41759991  0.09870081  1
  H+  H342  1  0.82271146  0.75264653  0.66532301  1
  H+  H343  1  0.92365793  0.84600150  0.22473812  1
  H+  H344  1  0.92541151  0.58483132  0.23831819  1
  H+  H345  1  0.57296648  0.63621816  0.08424274  1
  H+  H346  1  0.17386132  0.95325494  0.73335539  1
  H+  H347  1  0.56079954  0.14767580  0.77706361  1
  H+  H348  1  0.57483205  0.64088823  0.42677507  1
  H+  H349  1  0.13860707  0.27835784  0.17166528  1
  H+  H350  1  0.35469456  0.93747609  0.74147711  1
  H+  H351  1  0.13996125  0.85129126  0.21596984  1
  H+  H352  1  0.54359560  0.81710724  0.04756437  1
  H+  H353  1  0.93077263  0.08829920  0.23550975  1
  H+  H354  1  0.64450670  0.34029403  0.24918242  1
  H+  H355  1  0.42327992  0.83327642  0.26979768  1
  H+  H356  1  0.82775239  0.16864523  0.44253620  1
  H+  H357  1  0.57213669  0.65743127  0.72452705  1
  H+  H358  1  0.83087262  0.41132772  0.43690466  1
  H+  H359  1  0.07730893  0.40988802  0.06363558  1
  H+  H360  1  0.10209962  0.60801934  0.35276102  1
  H+  H361  1  0.08050031  0.66894215  0.10138731  1
  H+  H362  1  0.34001769  0.17407986  0.43613873  1
  H+  H363  1  0.24604839  0.82167970  0.64440624  1
  H+  H364  1  -0.02255267  0.37015696  0.82642613  1
  H+  H365  1  0.74310493  0.40136043  0.35027429  1
  H+  H366  1  0.08795327  0.95318378  0.40024555  1
  H+  H367  1  0.09250697  0.16809631  0.06685575  1
  H+  H368  1  0.41902829  0.58798576  0.59670841  1
  H+  H369  1  0.18462435  0.56679624  0.60964195  1
  H+  H370  1  0.90059526  0.32357574  0.60814064  1
  H+  H371  1  0.42867902  0.34612921  0.22855193  1
  H+  H372  1  0.17830990  0.33254750  0.59901965  1
  H+  H373  1  0.91781361  0.56467230  0.61009793  1
  H+  H374  1  0.40685749  0.57965197  0.22961126  1
  H+  H375  1  0.83423796  0.16455681  0.73706444  1
  H+  H376  1  0.33660001  0.92169129  0.06955322  1
  H+  H377  1  0.90436515  0.32868485  0.22937297  1
  H+  H378  1  0.41546629  0.83437504  0.93341745  1
  H+  H379  1  0.09403306  0.17014903  0.43313352  1
  H+  H380  1  0.77443844  0.12854906  0.34064314  1
  H+  H381  1  0.57458418  0.91549188  0.10871370  1
  H+  H382  1  0.82728258  0.16841281  0.07144574  1
  H+  H383  1  0.38603240  0.99059561  0.83397026  1
  O2-  O384  1  0.09386194  0.17646274  0.14633769  1
  O2-  O385  1  0.09675752  0.17115456  0.47847546  1
  O2-  O386  1  0.09406228  0.21269129  0.82470189  1
  O2-  O387  1  0.07919267  0.41766185  0.14315929  1
  O2-  O388  1  0.08031416  0.40814627  0.48785425  1
  O2-  O389  1  0.08327865  0.41380151  0.79668291  1
  O2-  O390  1  0.08577023  0.67182084  0.14649339  1
  O2-  O391  1  0.03241406  0.69768523  0.46965461  1
  O2-  O392  1  0.08628195  0.66241033  0.81498517  1
  O2-  O393  1  0.08406115  0.93035007  0.13530046  1
  O2-  O394  1  0.08047909  0.92204544  0.53598095  1
  O2-  O395  1  0.05482185  0.86254292  0.80843170  1
  O2-  O396  1  0.32674309  0.16941960  0.15305428  1
  O2-  O397  1  0.33287451  0.16695343  0.48061249  1
  O2-  O398  1  0.33172600  0.16972531  0.81560304  1
  O2-  O399  1  0.33443390  0.42064098  0.14450906  1
  O2-  O400  1  0.33183662  0.42063907  0.48331859  1
  O2-  O401  1  0.31495961  0.40649330  0.85685964  1
  O2-  O402  1  0.33379440  0.67167344  0.14724237  1
  O2-  O403  1  0.34571677  0.66515295  0.49038235  1
  O2-  O404  1  0.33572829  0.67086270  0.81742102  1
  O2-  O405  1  0.33560277  0.91898392  0.14533800  1
  O2-  O406  1  0.32192854  0.90169703  0.49355065  1
  O2-  O407  1  0.35189023  0.92964704  0.82182542  1
  O2-  O408  1  0.58515740  0.16601942  0.15109658  1
  O2-  O409  1  0.59913263  0.16350137  0.46992189  1
  O2-  O410  1  0.56275924  0.14833181  0.82240807  1
  O2-  O411  1  0.58832857  0.41575094  0.14976884  1
  O2-  O412  1  0.58234387  0.41538348  0.47342411  1
  O2-  O413  1  0.55302464  0.37546000  0.79735853  1
  O2-  O414  1  0.57874657  0.65093161  0.15313697  1
  O2-  O415  1  0.57484634  0.64542658  0.47174940  1
  O2-  O416  1  0.56823949  0.67747490  0.79998548  1
  O2-  O417  1  0.58010712  0.92104147  0.15335659  1
  O2-  O418  1  0.58109762  0.92645443  0.48716395  1
  O2-  O419  1  0.58007882  0.91016553  0.80945831  1
  O2-  O420  1  0.82474483  0.17423423  0.12704135  1
  O2-  O421  1  0.83088078  0.17707740  0.48694066  1
  O2-  O422  1  0.84386860  0.17553438  0.80742068  1
  O2-  O423  1  0.81004062  0.41498087  0.15699497  1
  O2-  O424  1  0.83386406  0.41254236  0.48161735  1
  O2-  O425  1  0.81106969  0.43409137  0.80891887  1
  O2-  O426  1  0.83825365  0.66647590  0.14670852  1
  O2-  O427  1  0.83469492  0.67218960  0.47632285  1
  O2-  O428  1  0.87849574  0.70379741  0.79973101  1
  O2-  O429  1  0.82734697  0.91791936  0.15036208  1
  O2-  O430  1  0.83417725  0.92270996  0.48047120  1
  O2-  O431  1  0.87073283  0.95855446  0.80530732  1
  O2-  O432  1  0.17154623  0.08923368  0.19378981  1
  O2-  O433  1  0.17416008  0.08360535  0.52688788  1
  O2-  O434  1  0.15841477  0.06874872  0.84124895  1
  O2-  O435  1  0.16793502  0.33935802  0.18727677  1
  O2-  O436  1  0.16825025  0.33088209  0.52266691  1
  O2-  O437  1  0.12771375  0.29842097  0.84293803  1
  O2-  O438  1  0.16627159  0.58479827  0.18333901  1
  O2-  O439  1  0.19947631  0.54840089  0.55062963  1
  O2-  O440  1  0.16891151  0.57782626  0.84560964  1
  O2-  O441  1  0.16510538  0.83893674  0.17967874  1
  O2-  O442  1  0.15195675  0.83302866  0.52828897  1
  O2-  O443  1  0.17829615  0.83131962  0.85461159  1
  O2-  O444  1  0.41718106  0.08405231  0.17920514  1
  O2-  O445  1  0.40114204  0.07525679  0.53560087  1
  O2-  O446  1  0.47122277  0.10711684  0.83920260  1
  O2-  O447  1  0.42343365  0.34227269  0.18353486  1
  O2-  O448  1  0.36844977  0.31171403  0.53075321  1
  O2-  O449  1  0.41184551  0.32639392  0.86194077  1
  O2-  O450  1  0.41053705  0.58390345  0.18435740  1
  O2-  O451  1  0.42601849  0.58420358  0.52297852  1
  O2-  O452  1  0.44987641  0.64459377  0.87248744  1
  O2-  O453  1  0.41414988  0.83451220  0.19317408  1
  O2-  O454  1  0.41724822  0.83037332  0.53073380  1
  O2-  O455  1  0.41937673  0.83293425  0.85941692  1
  O2-  O456  1  0.67471814  0.08845941  0.18467629  1
  O2-  O457  1  0.66691862  0.08906124  0.53425064  1
  O2-  O458  1  0.63917911  0.05987959  0.87168376  1
  O2-  O459  1  0.65217988  0.33282493  0.20557899  1
  O2-  O460  1  0.65839968  0.32037865  0.51407695  1
  O2-  O461  1  0.70668753  0.29936830  0.87581568  1
  O2-  O462  1  0.67403609  0.58034725  0.18800095  1
  O2-  O463  1  0.67448203  0.58027614  0.51858312  1
  O2-  O464  1  0.71669311  0.71793191  0.84920205  1
  O2-  O465  1  0.65501091  0.81547480  0.17372969  1
  O2-  O466  1  0.66914925  0.84589848  0.51858711  1
  O2-  O467  1  0.69927647  0.86327799  0.84441339  1
  O2-  O468  1  0.93618815  0.08838234  0.19067955  1
  O2-  O469  1  0.94100229  0.05763801  0.53540619  1
  O2-  O470  1  0.93655601  0.10769736  0.86557112  1
  O2-  O471  1  0.90687747  0.33297294  0.18462828  1
  O2-  O472  1  0.90977476  0.33376962  0.52658118  1
  O2-  O473  1  0.91748003  0.34425498  0.84164817  1
  O2-  O474  1  0.92556950  0.58485003  0.19242604  1
  O2-  O475  1  0.87022034  0.55368451  0.53637534  1
  O2-  O476  1  0.91895386  0.58582639  0.85303692  1
  O2-  O477  1  0.92245257  0.84156886  0.17893608  1
  O2-  O478  1  0.93563167  0.84043920  0.47656388  1
  O2-  O479  1  0.96018717  0.90491679  0.88033030  1
  O2-  O480  1  0.18361318  0.10386714  0.31078950  1
  O2-  O481  1  0.18963174  0.11052515  0.64759998  1
  O2-  O482  1  0.16854684  0.08372505  0.96425628  1
  O2-  O483  1  0.16523749  0.33705105  0.30936994  1
  O2-  O484  1  0.18485735  0.33893063  0.64436587  1
  O2-  O485  1  0.17106530  0.32725776  0.97482835  1
  O2-  O486  1  0.16231984  0.56435008  0.30338109  1
  O2-  O487  1  0.18170963  0.58129692  0.65679960  1
  O2-  O488  1  0.20401528  0.54332678  0.96127698  1
  O2-  O489  1  0.18327234  0.79666179  0.31111932  1
  O2-  O490  1  0.18708816  0.81303239  0.64187363  1
  O2-  O491  1  0.16705078  0.83515571  0.97935890  1
  O2-  O492  1  0.43959812  0.12447568  0.30271042  1
  O2-  O493  1  0.42774266  0.10069364  0.65143913  1
  O2-  O494  1  0.48535234  0.17774823  0.94676068  1
  O2-  O495  1  0.45027493  0.35691604  0.30830977  1
  O2-  O496  1  0.41935549  0.35134449  0.63912486  1
  O2-  O497  1  0.42403551  0.33621969  0.98558035  1
  O2-  O498  1  0.40957050  0.57647351  0.30850133  1
  O2-  O499  1  0.41423639  0.58592201  0.64270501  1
  O2-  O500  1  0.41437292  0.58007664  0.98123713  1
  O2-  O501  1  0.42565166  0.82978258  0.31536726  1
  O2-  O502  1  0.34557129  0.80313535  0.64369948  1
  O2-  O503  1  0.41471359  0.83281946  0.97961814  1
  O2-  O504  1  0.67114800  0.07196085  0.30918015  1
  O2-  O505  1  0.64920366  0.08588833  0.65306327  1
  O2-  O506  1  0.67100536  0.08025321  0.98399261  1
  O2-  O507  1  0.63514047  0.35628740  0.33317284  1
  O2-  O508  1  0.66140940  0.31682269  0.66854484  1
  O2-  O509  1  0.66877794  0.33142301  0.92106411  1
  O2-  O510  1  0.66676845  0.56917025  0.30828287  1
  O2-  O511  1  0.66606445  0.57596074  0.64228276  1
  O2-  O512  1  0.66646536  0.57348582  0.98512071  1
  O2-  O513  1  0.66210155  0.82080956  0.37778959  1
  O2-  O514  1  0.63694679  0.81689953  0.63566530  1
  O2-  O515  1  0.69080216  0.87743820  0.96821071  1
  O2-  O516  1  0.92086469  0.09049455  0.31731665  1
  O2-  O517  1  0.93623548  0.09570605  0.65126772  1
  O2-  O518  1  0.92209906  0.09780718  0.98274557  1
  O2-  O519  1  0.90699123  0.32081443  0.32323554  1
  O2-  O520  1  0.90375311  0.32245349  0.65330957  1
  O2-  O521  1  0.91509657  0.33666998  0.97197634  1
  O2-  O522  1  0.91753760  0.57888084  0.31324560  1
  O2-  O523  1  0.92207836  0.56828223  0.65509383  1
  O2-  O524  1  0.91338575  0.58019293  0.97766233  1
  O2-  O525  1  0.93328836  0.86044530  0.29925530  1
  O2-  O526  1  0.82045488  0.80528669  0.67358701  1
  O2-  O527  1  0.91270972  0.83522749  0.99014927  1
  O2-  O528  1  0.09183442  0.16647211  0.02133586  1
  O2-  O529  1  0.08903874  0.17586530  0.35453383  1
  O2-  O530  1  0.10906815  0.18352794  0.70172962  1
  O2-  O531  1  0.07509011  0.40349499  0.01849167  1
  O2-  O532  1  0.07640129  0.40542246  0.35743097  1
  O2-  O533  1  0.07996791  0.39029185  0.67415743  1
  O2-  O534  1  0.07485281  0.66541467  0.02043699  1
  O2-  O535  1  0.07613535  0.64313736  0.36375343  1
  O2-  O536  1  0.09114391  0.65379789  0.69156811  1
  O2-  O537  1  0.08065196  0.91946975  0.01347541  1
  O2-  O538  1  0.11735070  0.89782046  0.27905603  1
  O2-  O539  1  0.16017607  0.94595851  0.69000301  1
  O2-  O540  1  0.34968677  0.16509303  -0.00441472  1
  O2-  O541  1  0.35213816  0.19186734  0.35005169  1
  O2-  O542  1  0.35460186  0.19154521  0.68904597  1
  O2-  O543  1  0.33187967  0.41374451  0.02222517  1
  O2-  O544  1  0.32016946  0.41274641  0.35564030  1
  O2-  O545  1  0.34165018  0.42590504  0.67419263  1
  O2-  O546  1  0.33985293  0.66659236  0.02260704  1
  O2-  O547  1  0.33746671  0.67188679  0.36064595  1
  O2-  O548  1  0.33560576  0.66639607  0.69401183  1
  O2-  O549  1  0.33463078  0.91903478  0.02349392  1
  O2-  O550  1  0.33251197  0.88167396  0.36953674  1
  O2-  O551  1  0.35226167  0.93644311  0.69652894  1
  O2-  O552  1  0.59211715  0.16922974  0.03331553  1
  O2-  O553  1  0.60455911  0.18096547  0.33368775  1
  O2-  O554  1  0.57734417  0.15991900  0.69345863  1
  O2-  O555  1  0.58549210  0.40191369  0.02547616  1
  O2-  O556  1  0.59500887  0.40710175  0.35287009  1
  O2-  O557  1  0.57818795  0.40885331  0.67950888  1
  O2-  O558  1  0.57287044  0.63481382  0.03713907  1
  O2-  O559  1  0.58168465  0.65076400  0.34724212  1
  O2-  O560  1  0.57648503  0.65461099  0.67919071  1
  O2-  O561  1  0.56001538  0.87335145  0.03040131  1
  O2-  O562  1  0.58097336  0.91173540  0.36030445  1
  O2-  O563  1  0.57053537  0.92438407  0.68461619  1
  O2-  O564  1  0.83097639  0.16313176  0.01720103  1
  O2-  O565  1  0.83333721  0.16304808  0.35791191  1
  O2-  O566  1  0.83044060  0.16213564  0.69038810  1
  O2-  O567  1  0.81693773  0.40379300  -0.00294230  1
  O2-  O568  1  0.80408774  0.41461894  0.35426941  1
  O2-  O569  1  0.83634844  0.40720692  0.70271595  1
  O2-  O570  1  0.83597350  0.66513406  0.02384661  1
  O2-  O571  1  0.82265859  0.65466041  0.35033344  1
  O2-  O572  1  0.83114482  0.65342400  0.68160260  1
  O2-  O573  1  0.84603217  0.93476305  0.02585372  1
  O2-  O574  1  0.84448933  0.92713140  0.36009027  1
  O2-  O575  1  0.71953442  0.87433079  0.66480921  1
