# generated using pymatgen
data_H2O
_symmetry_space_group_name_H-M   'P 1'
_cell_length_a   17.97836695
_cell_length_b   17.97315895
_cell_length_c   21.99500701
_cell_angle_alpha   89.98459460
_cell_angle_beta   89.98973574
_cell_angle_gamma   119.98001446
_symmetry_Int_Tables_number   1
_chemical_formula_structural   H2O
_chemical_formula_sum   'H384 O192'
_cell_volume   6156.25746008
_cell_formula_units_Z   192
loop_
 _symmetry_equiv_pos_site_id
 _symmetry_equiv_pos_as_xyz
  1  'x, y, z'
loop_
 _atom_type_symbol
 _atom_type_oxidation_number
  H+  1.0
  O2-  -2.0
loop_
 _atom_site_type_symbol
 _atom_site_label
 _atom_site_symmetry_multiplicity
 _atom_site_fract_x
 _atom_site_fract_y
 _atom_site_fract_z
 _atom_site_occupancy
  H+  H0  1  0.86373410  0.47865560  0.15607670  1
  H+  H1  1  0.90722310  0.09618577  0.52881417  1
  H+  H2  1  0.86196197  0.73784879  0.32376198  1
  H+  H3  1  0.37007293  0.22324008  0.68771429  1
  H+  H4  1  0.37818789  0.02334439  0.99212715  1
  H+  H5  1  0.97667753  0.87273340  0.14595822  1
  H+  H6  1  0.43908471  0.31500052  0.43186703  1
  H+  H7  1  0.33822291  0.66010823  0.35804627  1
  H+  H8  1  0.89309648  0.50257266  0.99695062  1
  H+  H9  1  0.65212637  0.37105693  0.67186366  1
  H+  H10  1  0.88555967  0.53625215  0.32068855  1
  H+  H11  1  0.51806555  0.38316841  0.46967823  1
  H+  H12  1  0.58469541  -0.02579234  0.49659291  1
  H+  H13  1  0.73629434  0.36918928  0.18044325  1
  H+  H14  1  0.09590064  0.73225890  0.48514117  1
  H+  H15  1  0.49941306  0.58893435  0.48789114  1
  H+  H16  1  0.88872920  0.03647019  0.16299430  1
  H+  H17  1  0.65340160  0.87663522  0.50269956  1
  H+  H18  1  0.23059893  0.87459871  0.32145100  1
  H+  H19  1  0.46853393  0.09930997  0.50900922  1
  H+  H20  1  0.77070672  0.10380956  0.53541515  1
  H+  H21  1  0.52064417  0.89126382  0.67286506  1
  H+  H22  1  0.60292705  0.94218633  0.00584550  1
  H+  H23  1  0.64420321  0.39629580  0.32750787  1
  H+  H24  1  0.28205600  0.40143172  0.99155763  1
  H+  H25  1  0.97710191  0.84984495  0.50945919  1
  H+  H26  1  0.14699081  0.87388965  0.15105093  1
  H+  H27  1  0.75390320  0.12450399  0.30202151  1
  H+  H28  1  0.37058385  0.61675865  0.98950132  1
  H+  H29  1  0.89886138  0.58892251  0.74574882  1
  H+  H30  1  0.22509647  0.34666297  0.51047787  1
  H+  H31  1  0.54690966  0.21756009  0.44822465  1
  H+  H32  1  0.96343648  0.35898766  0.33360064  1
  H+  H33  1  0.87577297  0.10528602  0.84582976  1
  H+  H34  1  0.34459525  0.72181956  0.82708627  1
  H+  H35  1  0.10125764  0.97949147  0.82612633  1
  H+  H36  1  0.22554684  0.89488037  0.64961039  1
  H+  H37  1  0.37586373  0.90537364  0.35455530  1
  H+  H38  1  0.36842351  0.39511775  0.82526946  1
  H+  H39  1  0.10595079  0.91161178  0.66510641  1
  H+  H40  1  0.62708518  0.65026350  0.33130891  1
  H+  H41  1  0.26610832  0.63106143  0.99942137  1
  H+  H42  1  0.64273437  0.06903330  0.57589011  1
  H+  H43  1  0.09962431  0.11500189  0.00668981  1
  H+  H44  1  0.13045350  0.36062415  0.15985969  1
  H+  H45  1  0.36213471  0.13449775  0.33256641  1
  H+  H46  1  0.12755636  0.52291830  0.67797299  1
  H+  H47  1  0.56174698  0.68827809  0.33882383  1
  H+  H48  1  0.23281759  0.36938818  0.84124254  1
  H+  H49  1  0.13221509  0.86488488  1.01167470  1
  H+  H50  1  0.35486037  0.72004929  0.99757222  1
  H+  H51  1  0.37051386  0.34745465  0.31652283  1
  H+  H52  1  0.39974516  0.61930414  0.65246065  1
  H+  H53  1  0.47854597  0.12390120  0.17289902  1
  H+  H54  1  0.95209484  0.59173778  0.46118825  1
  H+  H55  1  0.17315390  0.70355204  0.65110188  1
  H+  H56  1  0.00995403  0.36386093  0.84548579  1
  H+  H57  1  0.35736675  0.47842192  0.13601153  1
  H+  H58  1  0.86273815  0.73542806  0.14387291  1
  H+  H59  1  0.26741399  0.88822480  0.00685899  1
  H+  H60  1  0.98075460  0.10847213  0.66427903  1
  H+  H61  1  0.38154872  0.50835125  0.50748339  1
  H+  H62  1  0.27170624  0.38822387  0.13559495  1
  H+  H63  1  0.11125771  0.36225792  0.49711428  1
  H+  H64  1  0.88199176  0.62377806  0.31786840  1
  H+  H65  1  0.78254736  0.37910042  0.69586225  1
  H+  H66  1  0.87998980  0.34195808  0.86240673  1
  H+  H67  1  0.11150661  0.13463420  0.15097211  1
  H+  H68  1  0.82316458  0.12486486  0.59552774  1
  H+  H69  1  0.66546563  0.40788963  0.50073039  1
  H+  H70  1  0.37481252  0.85721091  0.98932516  1
  H+  H71  1  0.35086187  -0.03354720  0.50046119  1
  H+  H72  1  0.60245397  0.59557650  0.48671685  1
  H+  H73  1  0.88276765  0.03420504  0.99346085  1
  H+  H74  1  0.40925102  0.84156012  0.60615440  1
  H+  H75  1  0.35109791  0.45532597  0.33116284  1
  H+  H76  1  0.78124765  0.88603841  0.00346399  1
  H+  H77  1  0.85974464  0.14405124  0.15305242  1
  H+  H78  1  0.84061587  0.18685906  0.09622823  1
  H+  H79  1  0.77244281  0.63708196  0.83185849  1
  H+  H80  1  0.45964612  0.12058506  0.99579290  1
  H+  H81  1  0.88210382  0.27485119  0.17290376  1
  H+  H82  1  0.45990682  0.84975721  -0.01084810  1
  H+  H83  1  0.85937074  0.19446780  0.67980926  1
  H+  H84  1  0.24504239  0.11581130  0.65120428  1
  H+  H85  1  1.00423617  0.33268136  0.69285335  1
  H+  H86  1  0.63666367  0.40917286  0.16611726  1
  H+  H87  1  0.89373373  0.86037979  0.49882240  1
  H+  H88  1  0.77097459  0.65022227  0.32396099  1
  H+  H89  1  0.12330759  0.73709346  0.16191209  1
  H+  H90  1  0.08674531  0.67404286  0.25204934  1
  H+  H91  1  0.59634692  0.22605810  0.83551140  1
  H+  H92  1  0.62675705  0.48629902  0.67937818  1
  H+  H93  1  0.97216081  0.61932866  0.16718109  1
  H+  H94  1  0.79074719  0.90860977  0.33344417  1
  H+  H95  1  0.87847633  0.36645565  0.33322182  1
  H+  H96  1  0.98007440  0.12853671  0.32170762  1
  H+  H97  1  0.86659194  0.89079437  0.83090377  1
  H+  H98  1  0.63489026  0.87245135  0.66021061  1
  H+  H99  1  0.90778923  0.49544537  0.55895474  1
  H+  H100  1  0.11032458  0.35514964  0.68875521  1
  H+  H101  1  0.38480971  0.79091834  0.66795797  1
  H+  H102  1  0.77144837  0.37225080  0.85622008  1
  H+  H103  1  0.68717634  0.07716863  1.00299878  1
  H+  H104  1  0.54300756  0.89602437  0.09450375  1
  H+  H105  1  0.28768673  0.89523870  0.15353296  1
  H+  H106  1  0.86452766  0.35762668  0.01057817  1
  H+  H107  1  0.11030842  0.47531229  0.15363837  1
  H+  H108  1  0.14110094  0.25498802  0.51280304  1
  H+  H109  1  0.34585654  0.42989462  0.04986652  1
  H+  H110  1  0.77661564  0.90657671  0.14744387  1
  H+  H111  1  0.63763372  0.10786224  0.31087254  1
  H+  H112  1  0.61566764  0.72028873  0.82758918  1
  H+  H113  1  0.85679957  0.46224805  0.84934065  1
  H+  H114  1  0.85096907  0.21043408  0.83370934  1
  H+  H115  1  0.12095812  0.61300998  0.50241112  1
  H+  H116  1  0.70983093  0.10812315  0.66404483  1
  H+  H117  1  0.57531859  0.84324024  0.02053984  1
  H+  H118  1  0.46637952  0.34811282  0.83271028  1
  H+  H119  1  0.26544037  0.61798776  0.30926795  1
  H+  H120  1  0.14299341  0.78741652  0.30699073  1
  H+  H121  1  0.20789818  0.43551600  0.28163822  1
  H+  H122  1  0.98055044  0.87012084  0.31264562  1
  H+  H123  1  0.37856108  0.09522876  0.50589486  1
  H+  H124  1  1.02285653  0.13852560  0.15419736  1
  H+  H125  1  0.64187589  0.10881403  0.51093250  1
  H+  H126  1  0.32571829  0.92045578  0.40677902  1
  H+  H127  1  0.83785819  0.60010260  0.00389692  1
  H+  H128  1  0.38573644  0.62030983  0.83747272  1
  H+  H129  1  0.36162739  -0.00234270  0.67723429  1
  H+  H130  1  0.13703708  0.76287855  0.85558071  1
  H+  H131  1  0.03295960  0.66347355  0.69173427  1
  H+  H132  1  0.10758254  0.44933151  0.49587387  1
  H+  H133  1  0.40310909  0.27485306  0.16009212  1
  H+  H134  1  0.76861589  0.90741384  0.67329496  1
  H+  H135  1  0.89923818  0.51237919  0.71088956  1
  H+  H136  1  0.49703408  0.88830353  0.33275182  1
  H+  H137  1  0.81342682  0.64701124  1.05510034  1
  H+  H138  1  0.00410420  0.61603546  0.84115746  1
  H+  H139  1  0.62892242  0.53880752  0.31068840  1
  H+  H140  1  0.26963739  0.58054919  0.68476300  1
  H+  H141  1  0.61096486  0.14474884  0.15425049  1
  H+  H142  1  0.67529155  0.79940793  0.90567717  1
  H+  H143  1  0.37329139  0.13331931  0.68251798  1
  H+  H144  1  0.47360409  0.61552410  0.15129550  1
  H+  H145  1  0.69485143  0.74987938  0.53347052  1
  H+  H146  1  0.39295738  0.03179203  0.16906793  1
  H+  H147  1  0.48718491  0.87975762  0.49469337  1
  H+  H148  1  0.87680900  0.67473817  0.67247681  1
  H+  H149  1  0.47774635  0.62298859  0.83715231  1
  H+  H150  1  0.11907083  0.23033323  0.34054435  1
  H+  H151  1  0.21205664  0.10841314  1.00065925  1
  H+  H152  1  0.21964642  0.85468998  0.84965035  1
  H+  H153  1  0.63937081  0.76790016  0.17675797  1
  H+  H154  1  0.34929911  0.97543159  0.82686641  1
  H+  H155  1  0.35850197  0.13456052  0.15272667  1
  H+  H156  1  0.63771111  0.51716104  0.84169587  1
  H+  H157  1  0.11631820  0.14129530  0.33123683  1
  H+  H158  1  0.36428446  0.85614947  0.83593800  1
  H+  H159  1  0.66415873  0.59936440  0.25077636  1
  H+  H160  1  0.72814138  0.84740403  0.84628560  1
  H+  H161  1  0.02187988  0.64628425  0.30568397  1
  H+  H162  1  0.50835793  0.13271436  0.68045716  1
  H+  H163  1  0.13395476  0.02888492  0.31993671  1
  H+  H164  1  0.36250831  0.84956887  0.51054591  1
  H+  H165  1  0.37646327  0.48374992  0.67616190  1
  H+  H166  1  0.38012896  0.26416996  0.31776367  1
  H+  H167  1  0.62154389  0.64816249  0.67174109  1
  H+  H168  1  0.09899665  0.38145455  0.33553308  1
  H+  H169  1  0.52870863  0.12936343  0.32495240  1
  H+  H170  1  0.41974060  0.33096758  0.62296153  1
  H+  H171  1  0.60566026  0.22182248  0.67898500  1
  H+  H172  1  0.26874915  0.62594086  0.53041983  1
  H+  H173  1  0.12243719  0.51219789  0.32909296  1
  H+  H174  1  0.00502207  0.12378816  0.00181453  1
  H+  H175  1  0.90304601  0.47621203  0.59013738  1
  H+  H176  1  0.63151640  0.22923701  0.47554211  1
  H+  H177  1  0.36840719  0.73434170  0.14826668  1
  H+  H178  1  0.89104553  0.78338258  0.84988109  1
  H+  H179  1  0.85356120  0.47605226  0.40261981  1
  H+  H180  1  0.66839345  0.80404382  0.34060206  1
  H+  H181  1  0.88067697  0.88807070  0.65526224  1
  H+  H182  1  0.53723671  0.39729347  0.68077986  1
  H+  H183  1  0.86373600  0.75547787  0.67440703  1
  H+  H184  1  0.21215011  0.59784982  0.83875788  1
  H+  H185  1  0.11519784  0.50516392  0.64623671  1
  H+  H186  1  0.65630339  0.52686257  0.50778398  1
  H+  H187  1  0.10507316  0.72817800  0.01393180  1
  H+  H188  1  0.22989591  0.61955651  0.17182920  1
  H+  H189  1  0.32182115  0.40833898  0.42968197  1
  H+  H190  1  0.13521863  0.80944415  0.65284696  1
  H+  H191  1  0.23765939  0.38861809  0.66481754  1
  H+  H192  1  0.27524681  0.66563142  0.66281968  1
  H+  H193  1  0.38858812  0.02981601  0.32480943  1
  H+  H194  1  0.12709286  0.95090526  0.50297097  1
  H+  H195  1  0.71591035  0.10697955  0.15714074  1
  H+  H196  1  0.88015731  0.01867913  0.84925331  1
  H+  H197  1  0.37561599  0.58874764  0.29920932  1
  H+  H198  1  0.83309842  0.39418072  0.75886779  1
  H+  H199  1  0.21511032  0.11206713  0.84650751  1
  H+  H200  1  0.33683218  0.92361682  0.06013847  1
  H+  H201  1  -0.03233174  0.33306427  0.51640783  1
  H+  H202  1  0.22523181  0.11297952  0.15936323  1
  H+  H203  1  0.12719828  0.01547744  1.01294269  1
  H+  H204  1  0.11499026  0.97943073  0.12582509  1
  H+  H205  1  0.02040054  0.38682628  0.15736537  1
  H+  H206  1  0.51166300  0.39460142  0.31685709  1
  H+  H207  1  0.88940232  0.34578349  0.68011433  1
  H+  H208  1  0.98804685  0.88348724  1.00678156  1
  H+  H209  1  0.62197968  0.35599764  -0.03761997  1
  H+  H210  1  0.77726298  0.41399306  0.35363938  1
  H+  H211  1  0.12061794  0.64380964  0.16455148  1
  H+  H212  1  0.38144733  0.36547309  0.98131897  1
  H+  H213  1  0.34615023  0.13249306  0.83298114  1
  H+  H214  1  0.63864135  0.36002733  0.86890988  1
  H+  H215  1  0.13328755  0.27195920  0.16235300  1
  H+  H216  1  0.53622552  0.25320183  0.03929052  1
  H+  H217  1  0.62197397  0.11383554  0.66762157  1
  H+  H218  1  0.11967649  0.59165251  0.83847316  1
  H+  H219  1  0.50272506  0.36033568  0.98312468  1
  H+  H220  1  0.86634654  0.59472621  0.46170113  1
  H+  H221  1  0.14008830  0.08399507  0.50240731  1
  H+  H222  1  0.68230302  0.35997387  0.27881293  1
  H+  H223  1  0.86306085  0.13856650  0.30758496  1
  H+  H224  1  0.36561384  0.82770020  0.27380482  1
  H+  H225  1  0.13861387  0.35483692  0.84708214  1
  H+  H226  1  0.75005812  0.35433293  0.51330357  1
  H+  H227  1  0.08252083  0.91237008  0.39452365  1
  H+  H228  1  0.37126147  0.26670086  0.83279066  1
  H+  H229  1  0.50210412  0.87973510  0.82393335  1
  H+  H230  1  0.87631651  0.60423652  0.85343514  1
  H+  H231  1  0.62328437  0.58702439  -0.00441280  1
  H+  H232  1  0.79108130  0.90324800  0.48752392  1
  H+  H233  1  0.73526604  0.62860753  0.66153767  1
  H+  H234  1  0.83137968  0.30938396  0.48941764  1
  H+  H235  1  1.04038949  0.12380782  0.49560739  1
  H+  H236  1  0.86731724  0.39115294  0.16319794  1
  H+  H237  1  0.60784509  0.97974050  0.67472220  1
  H+  H238  1  0.09619827  0.12328542  0.81357145  1
  H+  H239  1  0.17125317  0.34662866  0.60964711  1
  H+  H240  1  0.25846772  0.10037557  0.48847244  1
  H+  H241  1  0.34930684  0.90183656  0.67307410  1
  H+  H242  1  0.38027621  0.51998388  0.98798471  1
  H+  H243  1  0.85999620  0.72599281  0.48482899  1
  H+  H244  1  0.97806265  0.87372300  0.83870440  1
  H+  H245  1  0.37521803  0.39000235  0.47608503  1
  H+  H246  1  0.34605297  0.22361930  -0.00258916  1
  H+  H247  1  0.15860215  0.37844697  -0.00692635  1
  H+  H248  1  0.72573021  0.62546135  0.16302800  1
  H+  H249  1  0.49112225  0.62381895  0.65836460  1
  H+  H250  1  0.35850996  0.62932691  0.52665292  1
  H+  H251  1  0.45825210  0.57640312  0.29846307  1
  H+  H252  1  0.90838689  0.01567939  0.49948079  1
  H+  H253  1  0.59275144  0.69308899  0.09554584  1
  H+  H254  1  0.89169389  0.87883474  0.15392959  1
  H+  H255  1  0.59880824  0.24107925  -0.00110982  1
  H+  H256  1  0.14644219  0.04121742  0.65177887  1
  H+  H257  1  1.01013894  0.12462770  0.81678517  1
  H+  H258  1  0.34657455  0.13394061  0.99850417  1
  H+  H259  1  0.05128451  0.15845727  0.71197535  1
  H+  H260  1  0.11680384  0.89443589  0.33329466  1
  H+  H261  1  0.85151334  0.22828853  0.31288027  1
  H+  H262  1  0.87833132  0.90530588  0.32634412  1
  H+  H263  1  0.36455777  0.64584552  0.16196298  1
  H+  H264  1  0.11909275  0.48003677  0.00318384  1
  H+  H265  1  0.89032148  0.17514996  1.00090928  1
  H+  H266  1  0.58485660  -0.02195016  0.33735944  1
  H+  H267  1  0.15670265  0.58221660  0.93340186  1
  H+  H268  1  0.88555448  0.24370138  0.53753755  1
  H+  H269  1  0.86050534  0.64528560  0.14957202  1
  H+  H270  1  0.59321534  0.44579121  -0.00655957  1
  H+  H271  1  0.12925548  0.60370068  0.31307979  1
  H+  H272  1  0.38519886  0.75375947  0.28537166  1
  H+  H273  1  0.37088305  0.48687745  0.82866135  1
  H+  H274  1  0.13140097  0.61695076  0.99338355  1
  H+  H275  1  0.39549667  0.37214040  0.67755848  1
  H+  H276  1  0.45615924  0.12146228  0.83771038  1
  H+  H277  1  0.72928722  0.62350364  0.49950338  1
  H+  H278  1  0.78079315  0.44306699  0.54586494  1
  H+  H279  1  0.01717789  0.91174360  0.66676603  1
  H+  H280  1  0.37396437  0.76570351  0.52540938  1
  H+  H281  1  0.26022491  0.37521446  0.33210840  1
  H+  H282  1  0.61150981  0.64051710  0.14793232  1
  H+  H283  1  0.38211766  0.90309213  0.14736566  1
  H+  H284  1  0.66478249  0.04001867  0.93532944  1
  H+  H285  1  0.34238732  0.19126636  0.49438570  1
  H+  H286  1  0.62087362  0.02147905  0.15714232  1
  H+  H287  1  0.66684534  0.74534683  0.50683610  1
  H+  H288  1  0.31610003  0.92014259  0.76605068  1
  H+  H289  1  0.42803010  0.32857840  0.22044694  1
  H+  H290  1  0.91315335  0.33396051  0.23297287  1
  H+  H291  1  0.10561954  0.55069489  0.55774722  1
  H+  H292  1  0.45432475  0.84925771  0.20046689  1
  H+  H293  1  0.90934823  0.20076232  0.41998871  1
  H+  H294  1  0.25461948  0.88701780  0.49371075  1
  H+  H295  1  0.14452495  0.85414289  0.55819886  1
  H+  H296  1  0.08625502  0.41493144  0.05802185  1
  H+  H297  1  0.85419733  0.40778998  0.06732176  1
  H+  H298  1  0.40341665  0.08174794  0.89955120  1
  H+  H299  1  0.40904438  0.27060369  0.55215540  1
  H+  H300  1  0.65756188  0.57194877  0.90156755  1
  H+  H301  1  0.67932957  0.84371837  0.27505735  1
  H+  H302  1  0.40907368  0.56856189  0.20602942  1
  H+  H303  1  0.58552164  0.39451357  0.76853655  1
  H+  H304  1  0.57072775  0.63189434  0.42490684  1
  H+  H305  1  0.19889017  0.67662335  0.58949920  1
  H+  H306  1  0.07351500  0.39838029  0.40238249  1
  H+  H307  1  0.32714257  0.16343253  0.09254126  1
  H+  H308  1  0.56381970  0.18728668  0.76726554  1
  H+  H309  1  0.16117371  0.07744471  0.21602713  1
  H+  H310  1  0.39906632  0.32440244  0.92200543  1
  H+  H311  1  0.89215879  0.28842716  0.91584474  1
  H+  H312  1  0.41934634  0.09001641  0.61805840  1
  H+  H313  1  0.33486786  0.70773740  0.42646409  1
  H+  H314  1  0.92571500  0.84672802  0.25057595  1
  H+  H315  1  0.90510075  0.57062194  0.91330897  1
  H+  H316  1  0.35480955  0.67943688  0.42986365  1
  H+  H317  1  0.31820492  0.66033918  0.76852776  1
  H+  H318  1  0.34202034  0.42815070  0.73803121  1
  H+  H319  1  0.84631169  0.92022157  0.42527845  1
  H+  H320  1  0.90655832  0.84723377  0.59869061  1
  H+  H321  1  0.54180358  0.43223029  0.38005139  1
  H+  H322  1  0.54522912  0.39863310  0.15616444  1
  H+  H323  1  0.02640077  0.60432249  0.77639563  1
  H+  H324  1  0.55447445  0.30548790  0.80175126  1
  H+  H325  1  0.07129588  0.15609512  0.06593122  1
  H+  H326  1  0.15755054  0.83245307  0.94885614  1
  H+  H327  1  0.65351145  0.43643353  0.43487346  1
  H+  H328  1  0.83406149  0.67696192  0.77466425  1
  H+  H329  1  0.97537177  0.67025104  0.58990071  1
  H+  H330  1  0.09744499  0.68528383  0.42568190  1
  H+  H331  1  0.41635475  0.08595019  0.26272675  1
  H+  H332  1  0.89406048  0.03673339  0.32105278  1
  H+  H333  1  0.91725422  0.32020095  0.61693660  1
  H+  H334  1  0.83456579  0.09219468  0.68382464  1
  H+  H335  1  0.71170109  0.58442356  0.99263498  1
  H+  H336  1  0.69434372  0.88172655  0.56665829  1
  H+  H337  1  0.83590573  0.93480263  0.08726923  1
  H+  H338  1  0.82389330  0.67760535  0.42045943  1
  H+  H339  1  0.22423773  0.11451608  0.31692621  1
  H+  H340  1  0.96730812  0.60133712  0.99925059  1
  H+  H341  1  0.61958418  1.00614590  0.84791819  1
  H+  H342  1  0.07641239  0.66458276  0.07031011  1
  H+  H343  1  0.18040126  0.06795719  0.56423450  1
  H+  H344  1  0.64397932  0.28536214  0.18462763  1
  H+  H345  1  0.31973977  0.15889637  0.77091190  1
  H+  H346  1  0.57985358  0.18837077  0.10382387  1
  H+  H347  1  0.09954168  0.15882938  0.43684312  1
  H+  H348  1  0.65868498  0.07099487  0.24959149  1
  H+  H349  1  0.59221363  0.15887126  0.38077547  1
  H+  H350  1  0.64262360  0.78730217  0.65728165  1
  H+  H351  1  0.16189157  0.57433710  0.22483555  1
  H+  H352  1  0.73034971  0.80375360  0.20336055  1
  H+  H353  1  0.06345558  0.36627933  0.75902620  1
  H+  H354  1  0.56904226  0.91261478  0.76938155  1
  H+  H355  1  0.54327340  0.92467797  0.42696462  1
  H+  H356  1  0.81695813  0.14892789  0.77437755  1
  H+  H357  1  0.06938078  0.93015095  0.76322115  1
  H+  H358  1  0.80354960  0.34476062  0.43177158  1
  H+  H359  1  0.60313649  0.62665948  0.82234279  1
  H+  H360  1  0.83589311  0.92678000  0.77426087  1
  H+  H361  1  0.39474190  0.82483583  0.89488243  1
  H+  H362  1  0.64075223  0.53118131  0.16610047  1
  H+  H363  1  0.37323878  0.28133776  0.54840949  1
  H+  H364  1  0.86134253  0.17693450  0.42320868  1
  H+  H365  1  0.15227981  0.07701699  0.90421501  1
  H+  H366  1  0.93563432  0.85900581  0.94265667  1
  H+  H367  1  0.92072501  0.09399581  0.22386495  1
  H+  H368  1  0.69322353  0.34770490  0.61657334  1
  H+  H369  1  0.71020781  0.09190309  0.85127321  1
  H+  H370  1  0.91712744  0.09077308  0.93248947  1
  H+  H371  1  0.17473409  0.85783768  0.21715446  1
  H+  H372  1  0.42785730  0.57267616  0.56592143  1
  H+  H373  1  0.58763462  0.67405856  0.73081861  1
  H+  H374  1  0.67535730  0.59173956  0.60275132  1
  H+  H375  1  0.90655454  0.58887304  0.22181219  1
  H+  H376  1  0.16685332  0.34962010  0.24492579  1
  H+  H377  1  0.87855099  0.90540402  0.00469532  1
  H+  H378  1  0.09626469  0.45677107  0.83421221  1
  H+  H379  1  0.10685653  0.71953775  0.73676770  1
  H+  H380  1  0.32489635  0.15386397  0.39274153  1
  H+  H381  1  0.93072479  0.65887173  0.58056123  1
  H+  H382  1  0.41256684  0.59147081  0.92823951  1
  H+  H383  1  0.18463822  0.34266816  0.93454006  1
  O2-  O384  1  0.08240815  0.16691901  0.13654491  1
  O2-  O385  1  0.10300552  0.15415722  0.48134087  1
  O2-  O386  1  0.06162557  0.14304768  0.79139517  1
  O2-  O387  1  0.08024725  0.41390209  0.14140109  1
  O2-  O388  1  0.07758711  0.38980315  0.48126458  1
  O2-  O389  1  0.06624471  0.39439698  0.82309021  1
  O2-  O390  1  0.08550232  0.67325823  0.16133590  1
  O2-  O391  1  0.07929569  0.67461535  0.46814809  1
  O2-  O392  1  0.05589227  0.63346154  0.81416424  1
  O2-  O393  1  0.08553633  0.91779686  0.11312003  1
  O2-  O394  1  0.09355804  0.88814986  0.48827031  1
  O2-  O395  1  0.06735620  0.92124768  0.80778833  1
  O2-  O396  1  0.32649063  0.16313506  0.13808844  1
  O2-  O397  1  0.32095927  0.13707872  0.47225831  1
  O2-  O398  1  0.31789818  0.16436259  0.81651417  1
  O2-  O399  1  0.33134903  0.41871183  0.12074866  1
  O2-  O400  1  0.33269853  0.40955780  0.47440974  1
  O2-  O401  1  0.34055339  0.42807899  0.81052065  1
  O2-  O402  1  0.33560272  0.67997914  0.17028013  1
  O2-  O403  1  0.33008616  0.66112187  0.54039249  1
  O2-  O404  1  0.31883300  0.65971089  0.81349826  1
  O2-  O405  1  0.34758960  0.93105275  0.13831859  1
  O2-  O406  1  0.31525038  0.90683410  0.48264505  1
  O2-  O407  1  0.31843955  0.91515728  0.81124345  1
  O2-  O408  1  0.58241603  0.17950975  0.14824576  1
  O2-  O409  1  0.57359589  0.18519425  0.46314795  1
  O2-  O410  1  0.54828548  0.20572542  0.80663132  1
  O2-  O411  1  0.60773732  0.43813250  0.14741589  1
  O2-  O412  1  0.63100486  0.42823218  0.47629568  1
  O2-  O413  1  0.56889519  0.36635543  0.80940683  1
  O2-  O414  1  0.58105613  0.67353419  0.13837368  1
  O2-  O415  1  0.55141444  0.59285502  0.46191628  1
  O2-  O416  1  0.57822437  0.66146633  0.80724841  1
  O2-  O417  1  0.54259703  0.90860262  0.14026484  1
  O2-  O418  1  0.54767350  0.91697336  0.47406748  1
  O2-  O419  1  0.56405032  0.91141769  0.81410733  1
  O2-  O420  1  0.82623379  0.17202398  0.14022420  1
  O2-  O421  1  0.82974691  0.13560613  0.55145281  1
  O2-  O422  1  0.81925627  0.14951525  0.81916867  1
  O2-  O423  1  0.83332700  0.41634317  0.14607758  1
  O2-  O424  1  0.78108872  0.30803777  0.46838255  1
  O2-  O425  1  0.82930478  0.40051713  0.83701908  1
  O2-  O426  1  0.82809212  0.67318506  0.13427784  1
  O2-  O427  1  0.82285508  0.66833047  0.46540091  1
  O2-  O428  1  0.83377957  0.66599584  0.81875327  1
  O2-  O429  1  0.83695431  0.93685108  0.13383826  1
  O2-  O430  1  0.84670723  0.91273535  0.47015275  1
  O2-  O431  1  0.83194494  0.91861692  0.81877328  1
  O2-  O432  1  0.16218498  0.07985453  0.17099121  1
  O2-  O433  1  0.16988679  0.05272617  0.51712294  1
  O2-  O434  1  0.15371505  0.07989689  0.85944669  1
  O2-  O435  1  0.16296788  0.33287311  0.17662051  1
  O2-  O436  1  0.16529220  0.31657958  0.52572815  1
  O2-  O437  1  0.17679506  0.33395969  0.86140518  1
  O2-  O438  1  0.16615307  0.58442359  0.18039684  1
  O2-  O439  1  0.14560770  0.58171899  0.52470237  1
  O2-  O440  1  0.15198399  0.56408647  0.85448649  1
  O2-  O441  1  0.17750419  0.84831203  0.17294351  1
  O2-  O442  1  0.14038499  0.84530274  0.51191185  1
  O2-  O443  1  0.16568485  0.82028201  0.87319003  1
  O2-  O444  1  0.41716920  0.09053447  0.18695740  1
  O2-  O445  1  0.40921246  0.06668618  0.52380668  1
  O2-  O446  1  0.39825625  0.08001156  0.85422829  1
  O2-  O447  1  0.44413406  0.33144533  0.17739685  1
  O2-  O448  1  0.46425228  0.37243712  0.44935607  1
  O2-  O449  1  0.40648702  0.32914023  0.84569381  1
  O2-  O450  1  0.41128988  0.58395825  0.16278025  1
  O2-  O451  1  0.42197961  0.56957086  0.52009935  1
  O2-  O452  1  0.41768722  0.59245158  0.85403850  1
  O2-  O453  1  0.45070182  0.85988886  0.15653551  1
  O2-  O454  1  0.40303757  0.83066611  0.52574089  1
  O2-  O455  1  0.39097283  0.82153748  0.84941054  1
  O2-  O456  1  0.65633908  0.07985601  0.17432843  1
  O2-  O457  1  0.64601950  0.06191570  0.52976433  1
  O2-  O458  1  0.65280052  0.06213857  0.87039718  1
  O2-  O459  1  0.67882541  0.34445469  0.20091144  1
  O2-  O460  1  0.72900856  0.38721289  0.53971797  1
  O2-  O461  1  0.66489846  0.32649838  0.88480062  1
  O2-  O462  1  0.66520325  0.59514981  0.17859583  1
  O2-  O463  1  0.67056529  0.58641452  0.51883641  1
  O2-  O464  1  0.66312952  0.57644093  0.85567209  1
  O2-  O465  1  0.68624829  0.81973462  0.19820395  1
  O2-  O466  1  0.70761765  0.90535470  0.52453010  1
  O2-  O467  1  0.66997776  0.80579231  0.86182926  1
  O2-  O468  1  0.92071064  0.09719289  0.17868619  1
  O2-  O469  1  0.94513100  0.07472971  0.51539130  1
  O2-  O470  1  0.90996856  0.08003631  0.86311068  1
  O2-  O471  1  0.91656491  0.33534420  0.18806537  1
  O2-  O472  1  0.90978264  0.30748560  0.53519641  1
  O2-  O473  1  0.90752314  0.30711876  0.87175790  1
  O2-  O474  1  0.90980696  0.58875210  0.17663572  1
  O2-  O475  1  0.88932298  0.55481406  0.45847066  1
  O2-  O476  1  0.90425105  0.57113582  0.86670171  1
  O2-  O477  1  0.92071669  0.84685305  0.16774701  1
  O2-  O478  1  0.91560900  0.82495016  0.51959181  1
  O2-  O479  1  0.91940814  0.84482632  0.86046013  1
  O2-  O480  1  0.16359158  0.08758841  0.30213734  1
  O2-  O481  1  0.19010665  0.09097096  0.62781156  1
  O2-  O482  1  0.14926284  0.07238125  0.99049940  1
  O2-  O483  1  0.17601627  0.37363381  0.28906802  1
  O2-  O484  1  0.18309415  0.38096601  0.64726704  1
  O2-  O485  1  0.19324070  0.35147059  0.97990277  1
  O2-  O486  1  0.15738956  0.56851798  0.30786108  1
  O2-  O487  1  0.22205592  0.70643798  0.62810694  1
  O2-  O488  1  0.16304984  0.58826374  0.97838571  1
  O2-  O489  1  0.17364029  0.85099435  0.30158116  1
  O2-  O490  1  0.16505045  0.86578543  0.63198935  1
  O2-  O491  1  0.16016931  0.83269604  0.99451046  1
  O2-  O492  1  0.41997318  0.08915892  0.30861433  1
  O2-  O493  1  0.42036300  0.09007177  0.66255502  1
  O2-  O494  1  0.40269862  0.08391715  0.97674591  1
  O2-  O495  1  0.40718057  0.32419841  0.30193822  1
  O2-  O496  1  0.42868783  0.34204118  0.66661072  1
  O2-  O497  1  0.39991515  0.32371699  0.96765553  1
  O2-  O498  1  0.39752978  0.54854323  0.28818741  1
  O2-  O499  1  0.43082859  0.58909964  0.64105669  1
  O2-  O500  1  0.40669446  0.58717025  0.97408841  1
  O2-  O501  1  0.41356249  0.81722944  0.27873221  1
  O2-  O502  1  0.41472034  0.84879540  0.65105455  1
  O2-  O503  1  0.40013931  0.82317806  0.97249899  1
  O2-  O504  1  0.66718761  0.07483013  0.29526235  1
  O2-  O505  1  0.65029576  0.08306360  0.64766494  1
  O2-  O506  1  0.67391446  0.02621764  0.97952291  1
  O2-  O507  1  0.68358978  0.37350126  0.32314531  1
  O2-  O508  1  0.68180759  0.33845426  0.66074734  1
  O2-  O509  1  0.66269027  0.33171589  0.95130652  1
  O2-  O510  1  0.66367471  0.60010509  0.29752561  1
  O2-  O511  1  0.67445683  0.59214599  0.64783192  1
  O2-  O512  1  0.64872320  0.55621988  0.97626128  1
  O2-  O513  1  0.68804033  0.85865571  0.31908244  1
  O2-  O514  1  0.67084854  0.84823308  0.64376292  1
  O2-  O515  1  0.67778413  0.78033277  0.99141733  1
  O2-  O516  1  0.92067729  0.09756853  0.30464474  1
  O2-  O517  1  0.86296836  0.02435312  0.66078456  1
  O2-  O518  1  0.91941645  0.09499661  0.97932700  1
  O2-  O519  1  0.90397582  0.33300448  0.31651224  1
  O2-  O520  1  0.91652964  0.31401386  0.66199127  1
  O2-  O521  1  0.84602682  0.25331764  0.98388485  1
  O2-  O522  1  0.91264124  0.59398906  0.30187511  1
  O2-  O523  1  0.93097691  0.57699968  0.71522983  1
  O2-  O524  1  0.90817297  0.56285594  0.98378313  1
  O2-  O525  1  0.92124864  0.84311328  0.29582152  1
  O2-  O526  1  0.90719725  0.85260711  0.64375630  1
  O2-  O527  1  0.93121945  0.86391120  0.98730255  1
  O2-  O528  1  0.06784448  0.14794635  0.01968461  1
  O2-  O529  1  0.08583346  0.16952137  0.35084292  1
  O2-  O530  1  0.03448078  0.16338624  0.66987512  1
  O2-  O531  1  0.09638295  0.41888503  0.01377440  1
  O2-  O532  1  0.06853394  0.40662284  0.35777510  1
  O2-  O533  1  0.05593095  0.33875815  0.71608533  1
  O2-  O534  1  0.07547532  0.66551189  0.02561875  1
  O2-  O535  1  0.08516180  0.67382617  0.29704310  1
  O2-  O536  1  0.09364775  0.71084636  0.69325161  1
  O2-  O537  1  0.08804290  0.92027713  0.04458367  1
  O2-  O538  1  0.08293637  0.92014461  0.35024442  1
  O2-  O539  1  0.07684628  0.94127566  0.68271071  1
  O2-  O540  1  0.31722634  0.16427085  0.01550411  1
  O2-  O541  1  0.32830477  0.16150028  0.34776424  1
  O2-  O542  1  0.33609740  0.16125171  0.69622408  1
  O2-  O543  1  0.34900555  0.43574997  0.00359203  1
  O2-  O544  1  0.31798262  0.39789908  0.35086164  1
  O2-  O545  1  0.34299415  0.42403861  0.69185553  1
  O2-  O546  1  0.32817847  0.65882253  0.01125887  1
  O2-  O547  1  0.32977026  0.64758344  0.31417373  1
  O2-  O548  1  0.30893202  0.64249203  0.68508160  1
  O2-  O549  1  0.33108473  0.91992815  0.01498863  1
  O2-  O550  1  0.33436419  0.92447873  0.36123278  1
  O2-  O551  1  0.31856124  0.93179512  0.68595344  1
  O2-  O552  1  0.55345200  0.21053557  0.03029503  1
  O2-  O553  1  0.58997063  0.15193512  0.33647060  1
  O2-  O554  1  0.57420175  0.16324096  0.69618784  1
  O2-  O555  1  0.56463831  0.38197313  -0.00619858  1
  O2-  O556  1  0.56573273  0.43603634  0.33916630  1
  O2-  O557  1  0.59895503  0.42550209  0.69339481  1
  O2-  O558  1  0.61167900  0.76052789  0.02581343  1
  O2-  O559  1  0.60535810  0.68111618  0.35999991  1
  O2-  O560  1  0.58969319  0.67752277  0.68498379  1
  O2-  O561  1  0.55559170  0.88531065  0.02476391  1
  O2-  O562  1  0.53385630  0.93581218  0.36079306  1
  O2-  O563  1  0.58138841  0.91805508  0.68660734  1
  O2-  O564  1  0.88725635  0.22134723  0.02412542  1
  O2-  O565  1  0.82409846  0.16505301  0.30270347  1
  O2-  O566  1  0.81289445  0.13508223  0.68785403  1
  O2-  O567  1  0.87689644  0.41482041  0.02548286  1
  O2-  O568  1  0.83770333  0.43311906  0.36888887  1
  O2-  O569  1  0.84133378  0.40223555  0.71368064  1
  O2-  O570  1  0.80351095  0.62850366  0.01196385  1
  O2-  O571  1  0.83030132  0.67838467  0.34115902  1
  O2-  O572  1  0.83924335  0.69418929  0.68941318  1
  O2-  O573  1  0.83934302  0.93015878  0.01655728  1
  O2-  O574  1  0.85335891  0.93801286  0.34587064  1
  O2-  O575  1  0.82964835  0.94000485  0.68923515  1
