# generated using pymatgen
data_H2O
_symmetry_space_group_name_H-M   'P 1'
_cell_length_a   17.99378172
_cell_length_b   17.99315873
_cell_length_c   21.99203838
_cell_angle_alpha   90.01354092
_cell_angle_beta   90.01433982
_cell_angle_gamma   120.03829486
_symmetry_Int_Tables_number   1
_chemical_formula_structural   H2O
_chemical_formula_sum   'H384 O192'
_cell_volume   6163.93722137
_cell_formula_units_Z   192
loop_
 _symmetry_equiv_pos_site_id
 _symmetry_equiv_pos_as_xyz
  1  'x, y, z'
loop_
 _atom_type_symbol
 _atom_type_oxidation_number
  H+  1.0
  O2-  -2.0
loop_
 _atom_site_type_symbol
 _atom_site_label
 _atom_site_symmetry_multiplicity
 _atom_site_fract_x
 _atom_site_fract_y
 _atom_site_fract_z
 _atom_site_occupancy
  H+  H0  1  0.46674436  0.36832659  0.82914771  1
  H+  H1  1  0.93480018  -0.06959013  0.14398311  1
  H+  H2  1  -0.09249248  0.78158634  0.15907844  1
  H+  H3  1  0.13307147  0.60884404  0.17535589  1
  H+  H4  1  0.35955274  0.46995731  0.16375395  1
  H+  H5  1  0.03947007  0.89219259  0.15637567  1
  H+  H6  1  0.14335422  0.85292681  0.22075939  1
  H+  H7  1  0.35419808  -0.03006038  1.01462100  1
  H+  H8  1  0.03819823  0.16459896  0.30572219  1
  H+  H9  1  0.10706515  0.38346460  0.82793332  1
  H+  H10  1  0.13248070  0.90435120  0.13932543  1
  H+  H11  1  0.10780983  0.59523773  0.80538582  1
  H+  H12  1  0.10283561  0.37922555  0.15444346  1
  H+  H13  1  0.85690050  0.17613098  0.80308977  1
  H+  H14  1  0.73210994  0.86721002  0.66642732  1
  H+  H15  1  0.76429440  0.98287350  0.52216075  1
  H+  H16  1  0.54978128  0.55830690  0.91542457  1
  H+  H17  1  0.11510262  0.60540717  0.34625968  1
  H+  H18  1  0.85978413  0.83616172  0.50679586  1
  H+  H19  1  0.23131673  0.37289102  0.83521242  1
  H+  H20  1  0.88731884  0.40779352  1.01449629  1
  H+  H21  1  0.13300052  0.26151285  0.16572313  1
  H+  H22  1  0.13699614  1.03051781  -0.01440537  1
  H+  H23  1  0.64512291  0.57644320  0.91544453  1
  H+  H24  1  0.22545291  0.34936107  0.16459147  1
  H+  H25  1  0.63251829  0.36882300  0.66005899  1
  H+  H26  1  1.01386558  0.19602910  0.49443741  1
  H+  H27  1  0.63839556  0.33660892  0.99892557  1
  H+  H28  1  0.42163141  1.04159078  0.50920168  1
  H+  H29  1  0.84693599  0.14350628  0.16918460  1
  H+  H30  1  0.55920360  0.38252536  0.15627059  1
  H+  H31  1  0.13523014  0.32261778  0.52227106  1
  H+  H32  1  0.91996258  0.30687564  1.01104166  1
  H+  H33  1  0.71727947  0.11441853  0.83769858  1
  H+  H34  1  0.59028714  0.10511716  1.00508529  1
  H+  H35  1  0.83448387  0.17113424  0.41501048  1
  H+  H36  1  0.64390449  0.61725528  0.65729257  1
  H+  H37  1  0.87421510  -0.02867574  0.84045787  1
  H+  H38  1  0.14988294  0.46334288  0.49561017  1
  H+  H39  1  0.42036436  0.86766677  0.50216810  1
  H+  H40  1  0.61620945  0.07665036  0.83585906  1
  H+  H41  1  0.39790523  0.92336786  0.69405761  1
  H+  H42  1  0.13639609  0.53718725  0.98616738  1
  H+  H43  1  0.78995591  0.38482994  0.34264693  1
  H+  H44  1  0.17758263  0.32805207  0.72139373  1
  H+  H45  1  0.11831982  0.72985779  0.35273912  1
  H+  H46  1  0.85706234  0.89278851  0.98707505  1
  H+  H47  1  0.21536305  0.93688998  0.53503479  1
  H+  H48  1  0.13087025  0.86806522  -0.00409678  1
  H+  H49  1  0.15234519  0.03926701  0.17309327  1
  H+  H50  1  0.65848126  0.26462733  0.17334965  1
  H+  H51  1  0.59158994  0.86044212  0.16875238  1
  H+  H52  1  0.86212916  0.07841059  0.35754488  1
  H+  H53  1  0.12227935  0.14059409  0.15694701  1
  H+  H54  1  0.51857435  0.37873477  0.49271957  1
  H+  H55  1  0.39338057  0.04205078  0.66661315  1
  H+  H56  1  0.73150499  0.59490200  0.33422446  1
  H+  H57  1  0.96158983  0.84810597  0.31540802  1
  H+  H58  1  0.69226687  0.82775345  1.04717483  1
  H+  H59  1  0.03116499  0.14745584  0.00427858  1
  H+  H60  1  0.38596985  0.11221500  0.99705111  1
  H+  H61  1  0.77143947  -0.02730113  0.55392370  1
  H+  H62  1  0.88889148  0.09638118  0.84953910  1
  H+  H63  1  0.25727996  0.62883466  0.16143094  1
  H+  H64  1  0.94015261  0.06436271  0.37550527  1
  H+  H65  1  1.03118069  0.14146735  0.82378402  1
  H+  H66  1  0.88820973  0.72789447  0.50028718  1
  H+  H67  1  0.70254945  0.08807945  -0.00313176  1
  H+  H68  1  0.37048211  0.82237903  0.63248048  1
  H+  H69  1  0.32437267  0.91676108  0.49952615  1
  H+  H70  1  0.59639352  0.86139256  0.34799932  1
  H+  H71  1  0.11011877  0.94918107  0.48785727  1
  H+  H72  1  0.67014556  0.27316614  0.32977986  1
  H+  H73  1  0.64011910  0.38243027  0.90803570  1
  H+  H74  1  0.58801620  0.68843681  0.38671816  1
  H+  H75  1  0.37020794  0.64061993  0.83183647  1
  H+  H76  1  0.85884503  0.63516461  0.04947544  1
  H+  H77  1  0.25959105  0.87009169  0.67240535  1
  H+  H78  1  0.64035436  0.86139536  0.66412767  1
  H+  H79  1  0.23530614  0.14330011  0.32429086  1
  H+  H80  1  0.64699784  0.86343962  0.83188706  1
  H+  H81  1  0.60065959  0.62553017  0.47688460  1
  H+  H82  1  0.12228962  0.23584343  0.00292365  1
  H+  H83  1  0.38803104  0.62876483  0.32077319  1
  H+  H84  1  0.36976936  0.24441797  0.33023117  1
  H+  H85  1  0.63722530  0.06155998  0.27422045  1
  H+  H86  1  0.72047307  0.36973085  0.66896471  1
  H+  H87  1  0.28546584  0.89746797  0.17822244  1
  H+  H88  1  0.76850877  0.12173233  0.32864518  1
  H+  H89  1  0.37184000  0.63531057  0.48071817  1
  H+  H90  1  0.02691566  0.14386508  0.66854193  1
  H+  H91  1  0.35810278  0.14161378  0.67222928  1
  H+  H92  1  1.01975089  0.39129748  0.14932391  1
  H+  H93  1  0.05316351  0.43455599  0.49177744  1
  H+  H94  1  0.12114327  0.61735383  -0.02818503  1
  H+  H95  1  0.12882591  0.38421956  0.67662864  1
  H+  H96  1  0.36932116  0.71358972  0.66866770  1
  H+  H97  1  0.89366913  0.60150808  0.16676000  1
  H+  H98  1  0.74388346  0.86683571  0.83794511  1
  H+  H99  1  0.60863927  0.63978503  0.83923682  1
  H+  H100  1  0.69038822  0.80724070  0.32839206  1
  H+  H101  1  0.54203501  0.15822136  0.49480902  1
  H+  H102  1  0.46542404  0.85076146  0.00941697  1
  H+  H103  1  0.49052907  0.11039633  0.00301723  1
  H+  H104  1  0.37299165  0.37359373  0.31532862  1
  H+  H105  1  0.59644763  -0.04806492  1.01160996  1
  H+  H106  1  0.62229814  0.96351765  0.82467513  1
  H+  H107  1  0.43441227  0.10060324  0.56773134  1
  H+  H108  1  0.74138302  0.83184397  0.48833009  1
  H+  H109  1  0.81266997  0.42815164  0.75327430  1
  H+  H110  1  0.55544054  0.40456656  0.39015295  1
  H+  H111  1  0.40053608  0.03157789  0.84846891  1
  H+  H112  1  0.40156430  0.35914537  0.98914355  1
  H+  H113  1  0.86071522  0.71651392  0.33766592  1
  H+  H114  1  0.58872110  0.99384237  0.18934455  1
  H+  H115  1  0.39352433  0.37361815  0.21447871  1
  H+  H116  1  0.34656413  0.93457360  0.74866025  1
  H+  H117  1  0.09663054  0.11850233  0.48521558  1
  H+  H118  1  0.58072949  0.48470183  0.83367791  1
  H+  H119  1  0.26425348  0.13441583  0.66710228  1
  H+  H120  1  0.82186266  0.66889265  0.73365276  1
  H+  H121  1  0.24616442  0.37457903  0.98993608  1
  H+  H122  1  0.40994705  0.14075496  0.32224696  1
  H+  H123  1  0.40335539  0.62588069  0.64963271  1
  H+  H124  1  0.86791178  0.89892304  0.67406097  1
  H+  H125  1  0.78592807  0.63061775  0.14978283  1
  H+  H126  1  0.87134802  0.75208669  0.85335313  1
  H+  H127  1  0.52059750  0.39156909  0.66852837  1
  H+  H128  1  0.35951803  0.60156797  0.16975952  1
  H+  H129  1  0.46188563  0.37392441  0.31289539  1
  H+  H130  1  0.14281662  0.12813496  0.83539125  1
  H+  H131  1  0.61249242  0.39014619  0.49025831  1
  H+  H132  1  0.74917451  0.13490693  0.66718101  1
  H+  H133  1  0.60289864  0.41041643  0.82634127  1
  H+  H134  1  0.62201153  0.13118044  0.34669336  1
  H+  H135  1  0.86758866  0.20172968  0.31878932  1
  H+  H136  1  0.21290384  0.63379922  0.57229580  1
  H+  H137  1  0.86548666  0.87860147  0.83855574  1
  H+  H138  1  0.12235298  0.22689229  0.67309943  1
  H+  H139  1  0.87674286  0.63662615  0.83238866  1
  H+  H140  1  0.64537801  0.37843620  0.16185064  1
  H+  H141  1  0.85478200  0.40163671  0.84876753  1
  H+  H142  1  0.14483335  0.28048826  0.83608006  1
  H+  H143  1  0.98315458  0.60283310  0.32926354  1
  H+  H144  1  0.64787381  0.76853243  0.83375088  1
  H+  H145  1  0.55796235  0.60564066  0.13144175  1
  H+  H146  1  0.88820321  0.62985273  0.67530614  1
  H+  H147  1  0.87422770  0.48327936  0.34464272  1
  H+  H148  1  0.08917044  0.16718681  0.09771327  1
  H+  H149  1  0.25781432  0.37672096  0.50147524  1
  H+  H150  1  0.72329651  0.60753119  1.02920521  1
  H+  H151  1  0.77861252  0.61104026  0.83405958  1
  H+  H152  1  0.25695392  0.64811784  1.00604208  1
  H+  H153  1  0.47737285  0.61455958  0.14671721  1
  H+  H154  1  0.50927175  0.61965598  0.47062218  1
  H+  H155  1  0.23479413  0.61336061  0.83284770  1
  H+  H156  1  0.47815253  0.13337487  0.66775753  1
  H+  H157  1  0.97295332  0.37232137  0.84257911  1
  H+  H158  1  0.63527360  0.01251662  0.33482446  1
  H+  H159  1  0.35970049  0.75108675  0.01137521  1
  H+  H160  1  0.77094552  0.14915147  0.46956734  1
  H+  H161  1  0.37890814  0.14020814  0.48675253  1
  H+  H162  1  0.30954223  0.93580774  0.34334804  1
  H+  H163  1  0.41849713  0.04359557  0.17807066  1
  H+  H164  1  0.14763696  0.51340560  0.65591315  1
  H+  H165  1  0.13622514  0.28339087  0.31360946  1
  H+  H166  1  0.88888916  0.17646575  0.15531919  1
  H+  H167  1  0.14200606  0.88443737  0.83846063  1
  H+  H168  1  0.35739636  0.49606704  0.33151027  1
  H+  H169  1  0.11437735  0.47474895  0.82678947  1
  H+  H170  1  0.37067084  0.49975383  0.49127758  1
  H+  H171  1  0.76915740  0.88925549  -0.02279555  1
  H+  H172  1  0.84854042  0.48192549  0.69266971  1
  H+  H173  1  0.51985080  0.87625091  0.67085574  1
  H+  H174  1  0.14861970  0.60320489  0.65387502  1
  H+  H175  1  0.59356577  0.73677044  0.17261685  1
  H+  H176  1  0.38269444  0.27529058  0.65863590  1
  H+  H177  1  0.40076152  1.01736737  0.33872212  1
  H+  H178  1  0.12700296  1.00165786  0.82334434  1
  H+  H179  1  0.95986992  0.02745452  0.13613006  1
  H+  H180  1  0.65152770  0.29130177  0.50607578  1
  H+  H181  1  0.03496727  0.92306751  0.80949674  1
  H+  H182  1  0.06090966  0.84887983  0.47602925  1
  H+  H183  1  0.37902557  0.14590362  0.15930934  1
  H+  H184  1  0.40723371  0.47862808  0.00113773  1
  H+  H185  1  0.02234774  0.89250837  0.66871349  1
  H+  H186  1  0.38590023  0.77649421  0.83208482  1
  H+  H187  1  0.62612235  0.46118313  -0.01013483  1
  H+  H188  1  0.22851224  0.61220035  0.32535422  1
  H+  H189  1  0.60096383  0.09008535  0.18624770  1
  H+  H190  1  0.03946150  0.31130123  0.41541759  1
  H+  H191  1  0.13524471  1.01907662  0.65328278  1
  H+  H192  1  0.34779242  0.18412845  0.39016533  1
  H+  H193  1  0.16626658  0.77490454  0.65709224  1
  H+  H194  1  0.98174559  0.32486896  0.32410665  1
  H+  H195  1  0.61246166  0.24210711  0.67761481  1
  H+  H196  1  0.62228037  0.51992832  0.49711135  1
  H+  H197  1  0.47751227  0.62845119  0.31672290  1
  H+  H198  1  0.28299141  0.90080451  0.83321924  1
  H+  H199  1  0.36913710  0.89171090  0.82988472  1
  H+  H200  1  0.65887545  0.58803526  0.18250665  1
  H+  H201  1  0.13767174  0.40698574  0.00185281  1
  H+  H202  1  0.81780923  0.19583134  -0.01591264  1
  H+  H203  1  0.64424008  0.14001850  0.51157999  1
  H+  H204  1  0.98759987  0.63388004  0.89504751  1
  H+  H205  1  0.91774472  0.29991145  0.49229978  1
  H+  H206  1  -0.00849105  0.60867954  0.82692273  1
  H+  H207  1  0.61278884  0.11292953  0.67065370  1
  H+  H208  1  0.72033550  0.83909839  0.14421758  1
  H+  H209  1  0.12833117  0.10367867  0.49146186  1
  H+  H210  1  0.87621266  0.52013666  1.02125897  1
  H+  H211  1  0.26737262  0.15017691  0.82084983  1
  H+  H212  1  0.13192782  0.51818379  0.17286444  1
  H+  H213  1  0.44537069  0.58906957  0.90104844  1
  H+  H214  1  0.34818562  0.71858512  0.16173165  1
  H+  H215  1  0.07496697  0.40848881  0.40830479  1
  H+  H216  1  0.27184262  0.38301855  0.67877861  1
  H+  H217  1  0.88659159  0.03760520  0.66136800  1
  H+  H218  1  0.86914812  0.84287458  0.30519466  1
  H+  H219  1  0.18899909  0.82307541  0.37261408  1
  H+  H220  1  0.88048952  0.12280690  0.66174364  1
  H+  H221  1  0.61654120  0.74416837  0.50834250  1
  H+  H222  1  1.00772289  0.38850521  0.99440484  1
  H+  H223  1  0.37055170  0.48962606  0.82622351  1
  H+  H224  1  0.13936901  0.72258443  0.45102023  1
  H+  H225  1  0.37978511  0.35002154  0.50567724  1
  H+  H226  1  0.96181168  0.82907407  0.87067968  1
  H+  H227  1  0.38234494  0.85869511  0.17599955  1
  H+  H228  1  0.04393945  0.65490795  0.65644692  1
  H+  H229  1  0.75064359  0.35333902  0.17602443  1
  H+  H230  1  0.24643006  0.07274130  0.50503287  1
  H+  H231  1  0.98716441  0.35731674  0.65243057  1
  H+  H232  1  0.36045666  0.21677836  0.49228355  1
  H+  H233  1  0.79638481  0.90396885  0.26789721  1
  H+  H234  1  0.86656320  0.49466397  0.85117344  1
  H+  H235  1  0.28164616  0.62374543  0.67203946  1
  H+  H236  1  0.84890579  0.25262742  0.82871869  1
  H+  H237  1  0.53678424  0.37521343  0.97565401  1
  H+  H238  1  0.60256772  0.20315811  0.01189984  1
  H+  H239  1  -0.12324622  0.48539263  0.49451960  1
  H+  H240  1  0.19185172  0.83597699  0.51678477  1
  H+  H241  1  0.59784272  0.46438235  0.33335588  1
  H+  H242  1  0.36267042  0.73549296  0.33442583  1
  H+  H243  1  0.51241818  0.87517295  0.50339258  1
  H+  H244  1  0.63263277  0.59654432  1.01057406  1
  H+  H245  1  0.54395811  0.15082730  0.34241533  1
  H+  H246  1  0.27483963  0.32633806  0.44908052  1
  H+  H247  1  0.39874152  0.88080752  0.32470227  1
  H+  H248  1  0.62659307  0.73151468  0.68015537  1
  H+  H249  1  0.14065869  0.79596962  0.84111145  1
  H+  H250  1  0.52754514  0.62899370  0.03967086  1
  H+  H251  1  0.66605402  0.50426623  0.16703208  1
  H+  H252  1  0.88463586  0.02505781  0.98513995  1
  H+  H253  1  0.94287198  0.60992806  0.71983626  1
  H+  H254  1  0.60664476  0.26931846  0.84027483  1
  H+  H255  1  0.47619575  0.86186081  0.83314848  1
  H+  H256  1  0.88612887  0.13485167  0.50256276  1
  H+  H257  1  0.63968252  0.52710045  0.65376337  1
  H+  H258  1  0.89279976  0.27690790  0.64743415  1
  H+  H259  1  0.08952378  0.72567656  0.97107367  1
  H+  H260  1  0.63898434  0.20472372  0.83987302  1
  H+  H261  1  0.12438958  0.72383051  0.17415526  1
  H+  H262  1  0.87170349  0.63467604  0.34273110  1
  H+  H263  1  0.88127503  0.77328714  1.02567972  1
  H+  H264  1  0.48356972  0.12687290  0.85342670  1
  H+  H265  1  0.18021346  0.71380516  0.51291215  1
  H+  H266  1  0.01888883  0.89135143  0.00802660  1
  H+  H267  1  0.88408974  0.11253616  0.99904477  1
  H+  H268  1  0.77891828  0.40253421  0.49101927  1
  H+  H269  1  0.27492129  0.67397987  0.51560010  1
  H+  H270  1  0.44545033  0.11049703  0.26521816  1
  H+  H271  1  0.95914148  0.86410614  0.51079183  1
  H+  H272  1  0.62758458  0.75847463  -0.00115543  1
  H+  H273  1  0.71725761  0.39740508  0.86178045  1
  H+  H274  1  0.22928773  0.38130126  0.31259610  1
  H+  H275  1  0.48533456  0.62732939  0.83751792  1
  H+  H276  1  0.62587058  -0.00265776  0.49105820  1
  H+  H277  1  0.40831943  0.56191846  0.54848814  1
  H+  H278  1  0.71482818  0.19777972  0.12686088  1
  H+  H279  1  0.27855274  0.13649854  0.99979224  1
  H+  H280  1  0.35996316  0.24686354  0.81603843  1
  H+  H281  1  0.46533024  0.84737192  0.17518685  1
  H+  H282  1  0.08133291  0.85019941  0.33907572  1
  H+  H283  1  0.37828612  0.36971601  0.83291078  1
  H+  H284  1  0.59819293  0.86334997  0.01743037  1
  H+  H285  1  0.26417928  0.88255975  1.01515536  1
  H+  H286  1  0.88228139  0.78360751  0.66464900  1
  H+  H287  1  0.24287002  0.12598481  0.17107641  1
  H+  H288  1  0.84216097  0.42836174  0.41693459  1
  H+  H289  1  0.58777268  0.90538996  0.76434763  1
  H+  H290  1  0.17075658  0.33705187  0.24620877  1
  H+  H291  1  0.33022665  0.91946599  0.11276150  1
  H+  H292  1  0.18681010  0.04456721  0.56443945  1
  H+  H293  1  0.76877119  0.63931346  0.67043030  1
  H+  H294  1  0.95279029  0.12695271  0.24061853  1
  H+  H295  1  0.81728022  0.90271890  0.44783768  1
  H+  H296  1  0.21275311  0.85937275  0.60261719  1
  H+  H297  1  0.60138583  0.18104426  0.43410882  1
  H+  H298  1  0.65809919  0.80117254  0.56950150  1
  H+  H299  1  0.31802885  0.43105619  0.38860748  1
  H+  H300  1  0.18519407  0.36009253  0.58484669  1
  H+  H301  1  0.08741600  0.41479967  0.72825326  1
  H+  H302  1  0.18343686  0.34613353  0.93227427  1
  H+  H303  1  0.90926143  0.83967654  0.60394263  1
  H+  H304  1  0.92804432  0.83033636  0.22286291  1
  H+  H305  1  0.72572449  0.14835524  0.54830360  1
  H+  H306  1  0.17047139  0.85050566  0.93710356  1
  H+  H307  1  0.83042555  0.94346711  0.33268964  1
  H+  H308  1  0.03438585  0.63999546  0.16421943  1
  H+  H309  1  0.37787362  0.86032986  0.01067713  1
  H+  H310  1  0.59727083  0.93203140  0.43405541  1
  H+  H311  1  0.12390325  0.16274153  0.32465818  1
  H+  H312  1  0.13712641  0.10892762  0.64623846  1
  H+  H313  1  0.41469718  0.83664684  0.26593146  1
  H+  H314  1  0.09724774  0.65850798  0.71315302  1
  H+  H315  1  0.94475737  0.34250575  0.55803250  1
  H+  H316  1  0.41213971  0.32650051  0.56627229  1
  H+  H317  1  0.36071538  0.42220878  0.06116316  1
  H+  H318  1  0.92556103  0.58227707  0.26868097  1
  H+  H319  1  0.36513859  0.47449234  0.66633728  1
  H+  H320  1  0.53878728  0.64256061  0.67661896  1
  H+  H321  1  0.59316456  0.16342726  0.10940346  1
  H+  H322  1  0.86174782  0.57306611  0.96986296  1
  H+  H323  1  0.64658989  0.05722600  0.93646058  1
  H+  H324  1  0.34236390  0.66137436  0.76761553  1
  H+  H325  1  0.92718005  0.07865410  0.23947055  1
  H+  H326  1  0.34238413  0.43235009  0.76441480  1
  H+  H327  1  0.05807880  0.59584358  0.40713546  1
  H+  H328  1  0.08462318  0.22218081  0.44193382  1
  H+  H329  1  0.85643504  0.41825880  0.07979079  1
  H+  H330  1  0.90574872  0.51950718  0.17655622  1
  H+  H331  1  0.17504835  0.09856534  0.89584361  1
  H+  H332  1  0.81066936  0.90023334  0.11124332  1
  H+  H333  1  0.59957884  0.97132136  0.67559536  1
  H+  H334  1  0.10180713  0.43166707  0.06123487  1
  H+  H335  1  0.41800645  0.07965109  0.93687449  1
  H+  H336  1  0.32364603  0.17662626  0.75318156  1
  H+  H337  1  0.92270961  0.34574000  0.90560602  1
  H+  H338  1  0.39796579  0.73550263  0.48334974  1
  H+  H339  1  0.57737408  0.42921651  0.72847709  1
  H+  H340  1  0.86908788  0.67404407  0.43860552  1
  H+  H341  1  0.09158245  0.92450121  0.72175726  1
  H+  H342  1  0.81739883  0.26224330  0.13400188  1
  H+  H343  1  0.56943358  0.89562790  0.10796928  1
  H+  H344  1  0.79463232  0.17935203  0.05562697  1
  H+  H345  1  0.92157957  0.11365104  0.56330877  1
  H+  H346  1  0.91879394  0.56676136  0.57177072  1
  H+  H347  1  0.89650658  0.80587752  0.95684069  1
  H+  H348  1  0.34027790  0.67475526  0.39273178  1
  H+  H349  1  0.51847907  0.87877161  0.34150807  1
  H+  H350  1  0.51020236  0.13063186  0.17671671  1
  H+  H351  1  0.91890869  0.61622876  0.51222063  1
  H+  H352  1  0.17118919  0.58957756  0.89104259  1
  H+  H353  1  0.92641609  0.32853814  0.26767610  1
  H+  H354  1  0.65552758  0.58503724  0.55296546  1
  H+  H355  1  0.43456759  0.82074118  0.58521995  1
  H+  H356  1  0.14310207  0.12236141  0.98790949  1
  H+  H357  1  0.08531233  0.16725877  0.76062239  1
  H+  H358  1  0.41423116  0.32631636  0.92494350  1
  H+  H359  1  0.38718207  0.36655292  0.65851340  1
  H+  H360  1  0.67580488  0.34843568  0.56619545  1
  H+  H361  1  0.00288083  0.63791400  -0.01283319  1
  H+  H362  1  0.72255006  0.33153086  1.01395494  1
  H+  H363  1  0.58167739  0.19172789  0.74112634  1
  H+  H364  1  0.02853870  0.53521737  0.76381446  1
  H+  H365  1  0.84181596  0.92766355  0.73489731  1
  H+  H366  1  0.08781521  0.93384324  0.06045154  1
  H+  H367  1  0.31218355  0.66634362  0.07040231  1
  H+  H368  1  0.69238550  0.56105376  0.26981741  1
  H+  H369  1  0.34227659  0.16602690  0.09983560  1
  H+  H370  1  0.05976371  0.90205380  0.38579993  1
  H+  H371  1  0.70115218  0.32941133  0.26869906  1
  H+  H372  1  0.63397855  0.07948030  0.60909306  1
  H+  H373  1  0.40078289  0.58196231  0.22917334  1
  H+  H374  1  0.47987226  0.67123604  0.60371821  1
  H+  H375  1  0.59951203  0.67178811  0.76978425  1
  H+  H376  1  0.62349397  0.78185150  0.23822489  1
  H+  H377  1  0.81036565  0.18476175  0.72151849  1
  H+  H378  1  0.93031169  0.08752411  0.90957067  1
  H+  H379  1  0.16320047  0.57633782  0.26911174  1
  H+  H380  1  0.37539449  0.94366139  0.43591264  1
  H+  H381  1  0.17854346  0.11144967  0.26443521  1
  H+  H382  1  0.17993811  0.81205239  0.26357334  1
  H+  H383  1  0.37009045  0.22313114  -0.00181677  1
  O2-  O384  1  0.08537145  0.16457755  0.14284006  1
  O2-  O385  1  0.06693514  0.24629298  0.47473795  1
  O2-  O386  1  0.09003304  0.17292596  0.80653748  1
  O2-  O387  1  0.08136109  0.41615067  0.13780665  1
  O2-  O388  1  0.11071285  0.47737311  0.47442748  1
  O2-  O389  1  0.07659110  0.41388519  0.81355963  1
  O2-  O390  1  0.09576185  0.66907824  0.15188008  1
  O2-  O391  1  0.14815716  0.74114178  0.49323532  1
  O2-  O392  1  0.06020347  0.59427712  0.77892384  1
  O2-  O393  1  0.09872663  0.93289471  0.13865226  1
  O2-  O394  1  0.05864774  0.90090910  0.46756867  1
  O2-  O395  1  0.09551258  0.93982343  0.80858489  1
  O2-  O396  1  0.34026726  0.16627348  0.14462860  1
  O2-  O397  1  0.33826928  0.15919016  0.47286203  1
  O2-  O398  1  0.32678994  0.18314367  0.80068518  1
  O2-  O399  1  0.34054686  0.40992443  0.14876502  1
  O2-  O400  1  0.30395367  0.38067095  0.47123287  1
  O2-  O401  1  0.33749436  0.42963538  0.81009380  1
  O2-  O402  1  0.31748491  0.65939447  0.14345944  1
  O2-  O403  1  0.35428782  0.67724456  0.46808601  1
  O2-  O404  1  0.33770746  0.66610839  0.81249450  1
  O2-  O405  1  0.34161456  0.92520171  0.15734629  1
  O2-  O406  1  0.38188611  0.93952399  0.48063629  1
  O2-  O407  1  0.34303583  0.92906976  0.81820000  1
  O2-  O408  1  0.61420584  0.17226863  0.15109301  1
  O2-  O409  1  0.60294130  0.18716479  0.48022907  1
  O2-  O410  1  0.59069908  0.21004392  0.82537665  1
  O2-  O411  1  0.61928668  0.41240454  0.14406793  1
  O2-  O412  1  0.57625017  0.41319443  0.47417218  1
  O2-  O413  1  0.56685824  0.43309603  0.80835590  1
  O2-  O414  1  0.53459284  0.64336193  0.12424694  1
  O2-  O415  1  0.57028582  0.65630639  0.45958423  1
  O2-  O416  1  0.59830375  0.68144911  0.81491624  1
  O2-  O417  1  0.56499562  0.89381938  0.15317972  1
  O2-  O418  1  0.60086632  0.93703832  0.47914305  1
  O2-  O419  1  0.59310913  0.90322013  0.80990914  1
  O2-  O420  1  0.77277905  0.21772413  0.10761847  1
  O2-  O421  1  0.83217623  0.17855477  0.46046122  1
  O2-  O422  1  0.81461830  0.19436826  0.80836013  1
  O2-  O423  1  0.87141222  0.40870721  0.15468069  1
  O2-  O424  1  0.83794577  0.42819586  0.47344246  1
  O2-  O425  1  0.82518325  0.43468069  0.83975816  1
  O2-  O426  1  0.84714368  0.66787709  0.13246302  1
  O2-  O427  1  0.89387310  0.68186951  0.48002790  1
  O2-  O428  1  0.83476303  0.65488808  0.81928664  1
  O2-  O429  1  0.75302297  0.84879316  0.10625471  1
  O2-  O430  1  0.79480264  0.84518479  0.46414776  1
  O2-  O431  1  0.84170312  0.91338935  0.82112147  1
  O2-  O432  1  0.18150409  0.09993031  0.18619145  1
  O2-  O433  1  0.19979023  0.02174547  0.52694976  1
  O2-  O434  1  0.17619753  0.09976089  0.84961076  1
  O2-  O435  1  0.16556319  0.32483015  0.17923180  1
  O2-  O436  1  0.18603790  0.37338206  0.54154315  1
  O2-  O437  1  0.17150565  0.34032032  0.85185644  1
  O2-  O438  1  0.16280394  0.57699904  0.19053398  1
  O2-  O439  1  0.23985688  0.68464488  0.54557057  1
  O2-  O440  1  0.17257416  0.58230090  0.84585458  1
  O2-  O441  1  0.18137628  0.82889073  0.22029731  1
  O2-  O442  1  0.22970810  0.89006312  0.54183538  1
  O2-  O443  1  0.17225806  0.85514269  0.85556948  1
  O2-  O444  1  0.44795738  0.10492089  0.18958871  1
  O2-  O445  1  0.44086303  0.10167506  0.52273792  1
  O2-  O446  1  0.42538503  0.08814300  0.86945843  1
  O2-  O447  1  0.40898294  0.39415053  0.17142513  1
  O2-  O448  1  0.41063407  0.32115769  0.52071809  1
  O2-  O449  1  0.40530380  0.33384678  0.84396515  1
  O2-  O450  1  0.39057413  0.57122792  0.18425037  1
  O2-  O451  1  0.40221000  0.56014316  0.50378756  1
  O2-  O452  1  0.42878236  0.59432875  0.85788163  1
  O2-  O453  1  0.40412377  0.82043481  0.19053177  1
  O2-  O454  1  0.44882716  0.83544041  0.51605536  1
  O2-  O455  1  0.41501887  0.83857572  0.84256423  1
  O2-  O456  1  0.58797731  0.03943674  0.21372315  1
  O2-  O457  1  0.66923666  0.10622213  0.53279853  1
  O2-  O458  1  0.66083995  0.06777109  0.85368691  1
  O2-  O459  1  0.69053234  0.32770920  0.18956210  1
  O2-  O460  1  0.67800364  0.35177075  0.52093621  1
  O2-  O461  1  0.65380984  0.37053956  0.86617413  1
  O2-  O462  1  0.69955276  0.56742418  0.18233496  1
  O2-  O463  1  0.64680841  0.58140171  0.50863417  1
  O2-  O464  1  0.59894008  0.56402663  0.88616078  1
  O2-  O465  1  0.62748356  0.79270513  0.19387979  1
  O2-  O466  1  0.65443919  0.80254868  0.52502649  1
  O2-  O467  1  0.67943568  0.83382121  0.84832737  1
  O2-  O468  1  0.92380140  -0.03014224  0.11942094  1
  O2-  O469  1  0.92855673  0.11993840  0.51873438  1
  O2-  O470  1  0.92979237  0.07976338  0.86358737  1
  O2-  O471  1  0.90772730  0.36076168  0.16912098  1
  O2-  O472  1  0.95974083  0.35146240  0.51390126  1
  O2-  O473  1  0.91396028  0.34671343  0.86085766  1
  O2-  O474  1  0.92718855  0.58017932  0.18875589  1
  O2-  O475  1  0.93466238  0.57366238  0.52902596  1
  O2-  O476  1  0.95157498  0.61072725  0.85746872  1
  O2-  O477  1  0.94225910  0.83879995  0.17788408  1
  O2-  O478  1  0.90349044  0.82779437  0.53119141  1
  O2-  O479  1  0.90085577  0.81078306  0.87216038  1
  O2-  O480  1  0.17596298  0.12066039  0.30893436  1
  O2-  O481  1  0.16996766  0.07954261  0.63573122  1
  O2-  O482  1  0.17152562  0.09104530  0.97067470  1
  O2-  O483  1  0.17005065  0.34392075  0.29341736  1
  O2-  O484  1  0.18327954  0.33433658  0.67722977  1
  O2-  O485  1  0.18485677  0.34781499  0.97766750  1
  O2-  O486  1  0.16665405  0.57712420  0.31440700  1
  O2-  O487  1  0.18268287  0.57589378  0.64372642  1
  O2-  O488  1  0.16243919  0.59589845  0.96791676  1
  O2-  O489  1  0.14740981  0.79235296  0.34052125  1
  O2-  O490  1  0.20318499  0.83969403  0.64926406  1
  O2-  O491  1  0.16103626  0.83712473  0.98117569  1
  O2-  O492  1  0.44246385  0.11083837  0.31113640  1
  O2-  O493  1  0.41925467  0.10044654  0.64906797  1
  O2-  O494  1  0.41531500  0.07782790  0.98449011  1
  O2-  O495  1  0.40100179  0.34543343  0.29468282  1
  O2-  O496  1  0.41639810  0.33495119  0.64268439  1
  O2-  O497  1  0.42505486  0.32496435  0.96918072  1
  O2-  O498  1  0.41566967  0.59526522  0.30503902  1
  O2-  O499  1  0.44650077  0.61705965  0.62553832  1
  O2-  O500  1  0.48811294  0.56372380  0.96151560  1
  O2-  O501  1  0.41814288  0.84053649  0.31170756  1
  O2-  O502  1  0.41996691  0.81412329  0.63125046  1
  O2-  O503  1  0.40311434  0.82466354  0.99617774  1
  O2-  O504  1  0.66128075  0.07153049  0.31797366  1
  O2-  O505  1  0.63618488  0.07675903  0.65428367  1
  O2-  O506  1  0.64163101  0.05592048  0.98135021  1
  O2-  O507  1  0.70652392  0.33225247  0.31384215  1
  O2-  O508  1  0.66339739  0.33800530  0.64754084  1
  O2-  O509  1  0.66240663  0.29711690  1.00077184  1
  O2-  O510  1  0.67607884  0.56338682  0.31205281  1
  O2-  O511  1  0.67341552  0.58797432  0.63950120  1
  O2-  O512  1  0.67216332  0.57388141  1.00349535  1
  O2-  O513  1  0.62680955  0.78171468  0.32318911  1
  O2-  O514  1  0.67052263  0.82937167  0.65453443  1
  O2-  O515  1  0.66064730  0.82064303  1.00725512  1
  O2-  O516  1  0.87838969  0.03407975  0.36907107  1
  O2-  O517  1  0.91672581  0.09876302  0.64819130  1
  O2-  O518  1  0.92050969  0.09018132  0.98316594  1
  O2-  O519  1  0.94227783  0.29152834  0.28984313  1
  O2-  O520  1  0.92996498  0.33631644  0.63386136  1
  O2-  O521  1  0.94371128  0.35692092  0.98430662  1
  O2-  O522  1  0.92388515  0.58182814  0.31400187  1
  O2-  O523  1  0.92551190  0.60233453  0.67723148  1
  O2-  O524  1  0.89279980  0.58139820  1.00794206  1
  O2-  O525  1  0.90331842  0.81496246  0.29527073  1
  O2-  O526  1  0.91385024  0.84397396  0.65006215  1
  O2-  O527  1  0.90968255  0.82500681  0.99951753  1
  O2-  O528  1  0.09276582  0.17475444  0.01621141  1
  O2-  O529  1  0.08669114  0.19109499  0.33391179  1
  O2-  O530  1  0.08641426  0.16350191  0.68329779  1
  O2-  O531  1  0.10582587  0.43648007  0.01573490  1
  O2-  O532  1  0.04941206  0.35443636  0.38417901  1
  O2-  O533  1  0.09492719  0.41519938  0.68363544  1
  O2-  O534  1  0.05399927  0.66353794  -0.04000258  1
  O2-  O535  1  0.07853743  0.62863355  0.36948360  1
  O2-  O536  1  0.10403695  0.67660918  0.66964387  1
  O2-  O537  1  0.08227743  0.92648000  0.01534932  1
  O2-  O538  1  0.05909107  0.89003402  0.34173286  1
  O2-  O539  1  0.08534347  0.92228631  0.67733534  1
  O2-  O540  1  0.33913182  0.16271548  0.01420366  1
  O2-  O541  1  0.34722563  0.18426974  0.34503748  1
  O2-  O542  1  0.32388404  0.16894211  0.68592717  1
  O2-  O543  1  0.36037090  0.42104514  0.01623058  1
  O2-  O544  1  0.31999858  0.43388291  0.34390934  1
  O2-  O545  1  0.34169615  0.41973461  0.68746773  1
  O2-  O546  1  0.31586320  0.67537470  0.02457468  1
  O2-  O547  1  0.33551407  0.67395997  0.34716166  1
  O2-  O548  1  0.34311891  0.65524281  0.68700484  1
  O2-  O549  1  0.32402757  0.91094815  0.03178165  1
  O2-  O550  1  0.36851343  0.95593258  0.35584450  1
  O2-  O551  1  0.35174801  0.93576195  0.70161753  1
  O2-  O552  1  0.56195130  0.13806387  0.02043606  1
  O2-  O553  1  0.60132917  0.17084758  0.36140168  1
  O2-  O554  1  0.57887136  0.18257337  0.69660754  1
  O2-  O555  1  0.60062377  0.40133515  -0.02540899  1
  O2-  O556  1  0.55041254  0.40616696  0.34552416  1
  O2-  O557  1  0.58126740  0.42402744  0.68368787  1
  O2-  O558  1  0.55571617  0.63503107  -0.00029314  1
  O2-  O559  1  0.58812593  0.69063891  0.34037338  1
  O2-  O560  1  0.59705210  0.66961469  0.69463153  1
  O2-  O561  1  0.56512011  0.89305471  0.02902562  1
  O2-  O562  1  0.57805286  0.90319201  0.35813849  1
  O2-  O563  1  0.57806364  0.91068269  0.68882101  1
  O2-  O564  1  0.80625001  0.15388142  0.01605331  1
  O2-  O565  1  0.82955510  0.14775781  0.34286082  1
  O2-  O566  1  0.81086865  0.16749981  0.67918866  1
  O2-  O567  1  0.84873299  0.42459671  0.03497304  1
  O2-  O568  1  0.84903135  0.42511269  0.36407401  1
  O2-  O569  1  0.81155767  0.42354571  0.70858190  1
  O2-  O570  1  0.83150296  0.66822851  0.06641327  1
  O2-  O571  1  0.83985275  0.66165210  0.36017272  1
  O2-  O572  1  0.82836024  0.67372895  0.68910301  1
  O2-  O573  1  0.83094276  0.92304856  -0.03324573  1
  O2-  O574  1  0.79976957  0.88714286  0.30950621  1
  O2-  O575  1  0.83761035  0.92940583  0.69023104  1
