# generated using pymatgen
data_H2O
_symmetry_space_group_name_H-M   'P 1'
_cell_length_a   17.99812645
_cell_length_b   17.99321725
_cell_length_c   22.00553963
_cell_angle_alpha   90.00439936
_cell_angle_beta   90.00189853
_cell_angle_gamma   120.01144017
_symmetry_Int_Tables_number   1
_chemical_formula_structural   H2O
_chemical_formula_sum   'H384 O192'
_cell_volume   6170.90268712
_cell_formula_units_Z   192
loop_
 _symmetry_equiv_pos_site_id
 _symmetry_equiv_pos_as_xyz
  1  'x, y, z'
loop_
 _atom_type_symbol
 _atom_type_oxidation_number
  H+  1.0
  O2-  -2.0
loop_
 _atom_site_type_symbol
 _atom_site_label
 _atom_site_symmetry_multiplicity
 _atom_site_fract_x
 _atom_site_fract_y
 _atom_site_fract_z
 _atom_site_occupancy
  H+  H0  1  0.53354403  0.63958530  0.49446237  1
  H+  H1  1  0.10108790  0.96386189  0.66273222  1
  H+  H2  1  0.96912864  0.62110125  0.98303946  1
  H+  H3  1  0.71330329  0.32979172  0.59315636  1
  H+  H4  1  0.61421101  0.90024529  0.82875413  1
  H+  H5  1  0.13203512  0.27894433  0.18313879  1
  H+  H6  1  0.29602019  0.58323708  0.48667012  1
  H+  H7  1  0.09504447  0.68150041  0.73403621  1
  H+  H8  1  0.10969096  0.39799443  0.82414571  1
  H+  H9  1  0.41435010  0.58352902  0.23354756  1
  H+  H10  1  0.61343431  0.48262029  0.34274486  1
  H+  H11  1  0.38953044  0.60374696  0.99092590  1
  H+  H12  1  0.88763583  0.38240668  0.66261964  1
  H+  H13  1  0.11786426  0.14055965  0.17446270  1
  H+  H14  1  0.97416445  0.61742227  0.66484571  1
  H+  H15  1  0.75721949  0.14996853  1.05078363  1
  H+  H16  1  0.15829975  0.29136996  0.98990281  1
  H+  H17  1  0.28104218  0.63266220  0.00907942  1
  H+  H18  1  0.08539279  0.41699046  0.43799511  1
  H+  H19  1  0.14490435  0.27358942  0.32963552  1
  H+  H20  1  0.17258004  0.91023187  0.33763434  1
  H+  H21  1  0.62841106  0.16488305  0.69192762  1
  H+  H22  1  0.73173375  0.86596148  0.49626516  1
  H+  H23  1  0.08752675  0.16639015  0.72913025  1
  H+  H24  1  0.19371616  0.94337329  0.02083208  1
  H+  H25  1  0.34567142  0.65837281  0.06407806  1
  H+  H26  1  0.37298951  0.48422873  0.49544997  1
  H+  H27  1  0.77973252  0.13352051  0.49203521  1
  H+  H28  1  0.03219838  0.13126174  0.33470018  1
  H+  H29  1  0.38604518  0.52639544  0.32820045  1
  H+  H30  1  0.14651628  0.85917336  0.50816755  1
  H+  H31  1  0.88902164  0.76775322  0.49821594  1
  H+  H32  1  0.16015941  0.80348057  0.15575296  1
  H+  H33  1  0.71035619  0.34444685  0.13499296  1
  H+  H34  1  0.10873513  0.50407443  0.67383429  1
  H+  H35  1  0.07862203  0.89473937  0.57128779  1
  H+  H36  1  0.85404488  0.74441327  0.25418420  1
  H+  H37  1  0.29200828  0.89605559  1.00575269  1
  H+  H38  1  -0.09255720  0.61472067  0.82471354  1
  H+  H39  1  0.88730169  0.34107632  0.83075188  1
  H+  H40  1  0.45541360  0.34468200  1.01372700  1
  H+  H41  1  0.40781785  0.04900594  0.31891540  1
  H+  H42  1  0.63417888  0.52065377  0.17978464  1
  H+  H43  1  0.37621083  0.88436418  0.48907805  1
  H+  H44  1  0.53997117  0.14485937  0.34021484  1
  H+  H45  1  0.74954727  0.09128671  0.67531968  1
  H+  H46  1  0.85792164  0.72933936  0.66688795  1
  H+  H47  1  0.84777557  0.87501114  0.32770888  1
  H+  H48  1  0.63179663  0.26854240  0.20978390  1
  H+  H49  1  0.14514270  0.29062014  0.82986633  1
  H+  H50  1  0.91853578  0.84365983  0.96994842  1
  H+  H51  1  0.29451395  0.16304123  0.82673456  1
  H+  H52  1  0.61488042  0.76141969  1.00814464  1
  H+  H53  1  0.83200139  0.89856950  -0.00932435  1
  H+  H54  1  0.40232628  0.29830235  0.83151637  1
  H+  H55  1  0.37646615  0.88900579  1.01374891  1
  H+  H56  1  0.51740318  0.63429173  0.00729450  1
  H+  H57  1  0.64371476  0.26017933  0.30798288  1
  H+  H58  1  0.48468327  0.13270377  0.65907116  1
  H+  H59  1  0.51348066  0.38685372  0.34308570  1
  H+  H60  1  0.62220435  0.98450729  0.65986912  1
  H+  H61  1  0.12693250  0.36496348  0.17660413  1
  H+  H62  1  0.88440755  0.61569660  0.66249783  1
  H+  H63  1  0.10997333  0.61256993  0.15000378  1
  H+  H64  1  -0.04516634  0.58568910  0.17418681  1
  H+  H65  1  0.26374292  0.39294461  0.16141587  1
  H+  H66  1  0.48125824  0.61377782  0.65680970  1
  H+  H67  1  0.35899617  0.37520676  0.01505695  1
  H+  H68  1  0.49442201  0.16208791  0.16719682  1
  H+  H69  1  0.28245717  0.38633202  0.66636451  1
  H+  H70  1  0.76810356  0.64090727  0.19078468  1
  H+  H71  1  0.88288299  0.26574767  0.97644545  1
  H+  H72  1  0.15743669  0.16820710  0.02078048  1
  H+  H73  1  0.20736843  0.08642925  0.68068594  1
  H+  H74  1  0.92862453  0.48923145  1.00475338  1
  H+  H75  1  0.61277835  0.11144263  0.84359497  1
  H+  H76  1  0.24136992  0.85725360  0.31438946  1
  H+  H77  1  0.84339534  0.88320723  0.82175991  1
  H+  H78  1  0.22861893  0.12204952  0.16792341  1
  H+  H79  1  0.38646232  0.76833081  0.85245922  1
  H+  H80  1  0.41097846  0.13804903  0.32492964  1
  H+  H81  1  0.63376809  0.86486946  0.33690559  1
  H+  H82  1  0.82846416  0.69329105  -0.03465313  1
  H+  H83  1  -0.03984748  0.85636751  0.64942724  1
  H+  H84  1  0.12090225  0.38345889  0.34669203  1
  H+  H85  1  0.63705208  0.61193473  0.65757014  1
  H+  H86  1  0.58302714  0.46615143  1.01003420  1
  H+  H87  1  0.72283719  0.88194622  0.82521738  1
  H+  H88  1  0.24412545  0.37826958  -0.01454168  1
  H+  H89  1  0.87138376  0.90954043  0.13983571  1
  H+  H90  1  0.37020120  1.01058103  0.15362839  1
  H+  H91  1  0.28215944  0.38865509  0.34191927  1
  H+  H92  1  0.86474244  0.97668410  0.66579741  1
  H+  H93  1  0.03994035  0.14434389  0.49227369  1
  H+  H94  1  0.62550015  0.39579701  0.49325111  1
  H+  H95  1  0.89299501  0.27866985  0.50909572  1
  H+  H96  1  0.65070497  0.35890936  0.61999448  1
  H+  H97  1  0.17021756  0.59247391  1.05968163  1
  H+  H98  1  -0.01098556  0.18760911  0.01143655  1
  H+  H99  1  0.64342276  0.77577333  0.49640976  1
  H+  H100  1  0.64906910  0.10990705  0.50482365  1
  H+  H101  1  0.88638934  0.10477450  0.65780500  1
  H+  H102  1  0.28042244  0.40181566  0.81925793  1
  H+  H103  1  0.70695138  0.86146952  0.00269438  1
  H+  H104  1  0.81088220  0.97731714  -0.01446122  1
  H+  H105  1  0.14513555  0.28095814  0.49767316  1
  H+  H106  1  0.18217967  0.04671033  0.32798943  1
  H+  H107  1  0.02584328  0.84806151  0.34552269  1
  H+  H108  1  0.36264086  0.14855440  0.14296257  1
  H+  H109  1  0.52614625  0.39395748  0.67347218  1
  H+  H110  1  0.70702319  0.60236641  0.86880323  1
  H+  H111  1  0.85301716  0.56803296  0.33599962  1
  H+  H112  1  0.76597752  0.39406222  0.45394356  1
  H+  H113  1  0.63268465  0.60933516  0.17776455  1
  H+  H114  1  0.61049524  0.01089275  0.84347123  1
  H+  H115  1  1.01863963  0.40375877  0.68109990  1
  H+  H116  1  0.61330074  0.86142546  1.01086018  1
  H+  H117  1  0.13589868  0.52381786  0.00921996  1
  H+  H118  1  0.38117037  1.02933734  0.83566845  1
  H+  H119  1  0.13415864  0.65543505  0.82790314  1
  H+  H120  1  0.20149190  0.61158444  0.50819980  1
  H+  H121  1  0.63803630  0.10911213  0.17302005  1
  H+  H122  1  0.86034067  0.62770083  0.49659187  1
  H+  H123  1  0.11938314  0.73347070  0.48904702  1
  H+  H124  1  0.39149949  0.76900063  0.51186598  1
  H+  H125  1  0.36872173  0.64356486  0.83750213  1
  H+  H126  1  0.94111938  0.15839196  1.01181293  1
  H+  H127  1  0.63928567  0.11041978  0.32650565  1
  H+  H128  1  0.83380843  0.15541001  0.26522584  1
  H+  H129  1  0.87354004  0.86138695  0.65328863  1
  H+  H130  1  0.51828647  0.88310899  1.01690501  1
  H+  H131  1  0.22964337  0.61400563  0.33955207  1
  H+  H132  1  0.98013343  0.83461177  0.83735989  1
  H+  H133  1  0.52222042  0.63292436  0.16367676  1
  H+  H134  1  0.61491383  0.72094997  0.66427331  1
  H+  H135  1  0.15676164  0.92082599  0.81429597  1
  H+  H136  1  0.48889627  0.38579513  0.83236633  1
  H+  H137  1  0.47189274  0.84528850  0.17245833  1
  H+  H138  1  0.24025994  1.04008067  0.05288621  1
  H+  H139  1  0.78599255  0.43111876  0.37242945  1
  H+  H140  1  0.40638595  0.29502821  0.66066682  1
  H+  H141  1  0.25016655  0.88975522  0.82265742  1
  H+  H142  1  0.10252609  0.82612298  0.86294238  1
  H+  H143  1  0.72555916  0.10491960  0.31801477  1
  H+  H144  1  0.02424358  0.38811900  0.49688304  1
  H+  H145  1  0.87910135  0.22624141  0.83153556  1
  H+  H146  1  0.61320149  0.87936080  0.15789350  1
  H+  H147  1  0.33731772  0.24397057  0.49555264  1
  H+  H148  1  0.08541624  0.67833739  0.18284896  1
  H+  H149  1  0.38703202  0.85750222  0.86666724  1
  H+  H150  1  0.61550917  0.88210885  0.48787396  1
  H+  H151  1  0.35945417  0.72410216  0.34500836  1
  H+  H152  1  0.37193461  0.40386665  0.81853673  1
  H+  H153  1  0.11644204  0.64048071  0.34770610  1
  H+  H154  1  0.12199137  0.73193433  0.33841646  1
  H+  H155  1  0.12484930  0.13838014  0.33746218  1
  H+  H156  1  0.89416224  0.10543641  0.31438209  1
  H+  H157  1  0.60469729  0.97261178  0.33789550  1
  H+  H158  1  0.40149160  0.37669295  0.33401294  1
  H+  H159  1  0.87932217  0.60446749  0.19022896  1
  H+  H160  1  0.64295470  0.53116473  0.50710703  1
  H+  H161  1  0.41854569  0.08502387  0.89802439  1
  H+  H162  1  0.37821424  0.36653273  0.16087248  1
  H+  H163  1  0.38625904  0.60967377  0.17109262  1
  H+  H164  1  0.77777808  0.64038783  0.49488638  1
  H+  H165  1  0.39726987  0.37380687  0.50626413  1
  H+  H166  1  0.51941134  0.89066306  0.83620114  1
  H+  H167  1  0.22169684  0.11997797  0.51507202  1
  H+  H168  1  0.63418283  0.26915371  0.85516592  1
  H+  H169  1  0.12189306  0.90356956  0.16310728  1
  H+  H170  1  0.51324656  0.13911439  0.82964154  1
  H+  H171  1  0.24868260  0.14267823  0.99618789  1
  H+  H172  1  0.91639266  0.85516582  0.20634324  1
  H+  H173  1  0.39155285  0.52484934  0.65465140  1
  H+  H174  1  0.11817911  0.61328936  0.66091195  1
  H+  H175  1  0.62921512  0.39371049  0.83443940  1
  H+  H176  1  0.39141072  0.76408271  1.00457225  1
  H+  H177  1  0.75044500  0.06476040  0.96344103  1
  H+  H178  1  0.40347614  0.28713589  0.33361664  1
  H+  H179  1  0.12485005  0.39300004  -0.00704583  1
  H+  H180  1  0.34815550  0.93433884  0.39969759  1
  H+  H181  1  0.39348053  0.51617555  0.99157902  1
  H+  H182  1  0.60444840  0.63435148  0.33888987  1
  H+  H183  1  0.89112860  1.02690289  0.16520199  1
  H+  H184  1  0.93376557  0.80893939  0.29538095  1
  H+  H185  1  0.37839555  0.27953578  0.15072909  1
  H+  H186  1  0.47351555  0.61665942  0.32806656  1
  H+  H187  1  0.59778973  0.37950856  0.15225988  1
  H+  H188  1  0.11680247  0.51924756  0.50363729  1
  H+  H189  1  0.32973482  0.42065463  0.06560385  1
  H+  H190  1  -0.01203645  0.86992854  0.85966316  1
  H+  H191  1  0.12081461  0.73219551  0.67037187  1
  H+  H192  1  0.83765890  0.37324992  0.16545539  1
  H+  H193  1  0.14203036  0.85781113  0.64439379  1
  H+  H194  1  0.27145250  0.62579856  0.14175679  1
  H+  H195  1  0.48161762  0.85650781  0.50436584  1
  H+  H196  1  0.17089851  1.05582690  0.83503596  1
  H+  H197  1  0.47039945  0.86011754  0.32950918  1
  H+  H198  1  0.40797095  0.02821758  0.50208461  1
  H+  H199  1  0.71294934  0.60269843  0.33525652  1
  H+  H200  1  0.62972444  0.52013138  0.83810725  1
  H+  H201  1  0.90431640  0.12132810  0.83898789  1
  H+  H202  1  0.83881857  0.70001376  0.34359678  1
  H+  H203  1  0.76597753  0.13745086  0.15085313  1
  H+  H204  1  -0.00033379  0.62221367  0.82880554  1
  H+  H205  1  0.97853666  0.35186985  0.33217348  1
  H+  H206  1  0.84250888  0.17285621  0.43564454  1
  H+  H207  1  0.13965369  0.01109928  0.52815896  1
  H+  H208  1  0.90265592  0.30020322  0.65923709  1
  H+  H209  1  0.52314701  0.64888716  0.82338655  1
  H+  H210  1  0.51199973  0.88764834  0.67688666  1
  H+  H211  1  1.03913656  0.14847576  0.82162554  1
  H+  H212  1  0.83135704  0.45781153  0.16668134  1
  H+  H213  1  0.85175275  0.50506142  0.51449976  1
  H+  H214  1  0.40746970  1.02944675  -0.01208101  1
  H+  H215  1  0.63579704  0.12129455  0.99305072  1
  H+  H216  1  0.62137045  0.07090748  0.64046725  1
  H+  H217  1  0.49036630  0.12364086  0.98133273  1
  H+  H218  1  1.04063291  0.87147418  0.31532638  1
  H+  H219  1  0.09988696  0.63266471  0.48895460  1
  H+  H220  1  0.13381764  0.74614535  0.82900623  1
  H+  H221  1  0.61011963  0.96768478  0.16348756  1
  H+  H222  1  0.39892835  0.13697192  0.65287030  1
  H+  H223  1  0.86176188  0.47842337  0.67505357  1
  H+  H224  1  0.12965963  0.52413060  0.84436923  1
  H+  H225  1  1.01727210  0.84523900  1.01411756  1
  H+  H226  1  0.35617761  0.47906519  0.16099141  1
  H+  H227  1  0.96873399  0.36384257  0.17176305  1
  H+  H228  1  0.57322804  0.91899547  0.73642403  1
  H+  H229  1  0.14994447  0.79398631  0.99594340  1
  H+  H230  1  0.36262223  0.71404762  0.15485324  1
  H+  H231  1  0.03099896  0.88348918  -0.00651213  1
  H+  H232  1  0.15216015  0.26777147  0.65074558  1
  H+  H233  1  0.13244686  0.15819327  0.82219148  1
  H+  H234  1  0.60416399  0.41837504  0.76958330  1
  H+  H235  1  0.36300225  0.63814617  0.67790143  1
  H+  H236  1  0.37059607  0.25575279  1.02972194  1
  H+  H237  1  0.83911529  0.61129066  -0.04202546  1
  H+  H238  1  1.02518812  0.13051547  0.66943452  1
  H+  H239  1  0.51309596  0.38749332  0.16197605  1
  H+  H240  1  0.87463852  -0.01504839  0.82389157  1
  H+  H241  1  0.74479146  0.74897921  0.84606032  1
  H+  H242  1  0.14182958  0.03306046  0.17698038  1
  H+  H243  1  0.62080922  0.24093306  0.66262360  1
  H+  H244  1  0.23705303  0.87324586  0.65009711  1
  H+  H245  1  0.41183861  0.62817300  0.51094761  1
  H+  H246  1  0.38211273  0.85958648  0.32348417  1
  H+  H247  1  0.14394530  0.36985735  0.50424907  1
  H+  H248  1  0.68237892  0.35667091  0.31085974  1
  H+  H249  1  0.69938704  0.59407528  -0.02281265  1
  H+  H250  1  0.10723253  0.47236526  0.14547956  1
  H+  H251  1  0.63470514  0.79188955  0.82634912  1
  H+  H252  1  0.27819837  0.64194750  0.83762450  1
  H+  H253  1  0.43232433  0.09227454  0.55796290  1
  H+  H254  1  0.29275643  0.96377987  0.36396205  1
  H+  H255  1  0.28893756  0.88723106  0.48864802  1
  H+  H256  1  0.76906013  0.64028363  0.66582283  1
  H+  H257  1  0.53961911  0.13931643  0.49517518  1
  H+  H258  1  0.29432285  0.15748086  0.33659954  1
  H+  H259  1  0.36351949  0.00176271  0.66501305  1
  H+  H260  1  0.39088660  0.53254290  0.83402082  1
  H+  H261  1  -0.00857830  0.11741425  0.17448921  1
  H+  H262  1  0.16924586  0.05482067  0.99286947  1
  H+  H263  1  0.76577864  0.88598626  0.33929824  1
  H+  H264  1  0.63378285  0.24654242  -0.03020066  1
  H+  H265  1  0.89675113  0.11283610  0.50371334  1
  H+  H266  1  0.37810166  0.15332159  0.82481192  1
  H+  H267  1  0.77867209  0.58544005  0.80042376  1
  H+  H268  1  0.11561966  0.47001716  0.34772714  1
  H+  H269  1  0.10502640  0.64563912  1.01033912  1
  H+  H270  1  0.39477785  0.37904438  0.65954112  1
  H+  H271  1  0.00978925  0.37888546  0.82718953  1
  H+  H272  1  0.29746209  0.20535411  0.68220447  1
  H+  H273  1  0.62332578  0.64188287  0.48983565  1
  H+  H274  1  0.72619407  0.85236750  0.65270457  1
  H+  H275  1  0.60800254  0.63878896  0.00722365  1
  H+  H276  1  0.88923872  0.01272975  0.32074781  1
  H+  H277  1  0.60672765  0.64186976  0.82325062  1
  H+  H278  1  0.88173009  0.27617585  0.17025167  1
  H+  H279  1  0.82053979  0.18311335  0.69274919  1
  H+  H280  1  0.39142039  0.89124721  0.65544589  1
  H+  H281  1  0.78188107  0.38784597  0.83346001  1
  H+  H282  1  0.83502708  0.38091560  0.49737867  1
  H+  H283  1  0.32400209  0.87512193  0.79674627  1
  H+  H284  1  0.87373165  0.22506351  0.31689157  1
  H+  H285  1  0.93316004  0.40575929  1.00160598  1
  H+  H286  1  0.72539371  0.86414723  0.16030456  1
  H+  H287  1  0.85440076  0.72224007  0.16438699  1
  H+  H288  1  0.87321525  0.47147178  0.82375770  1
  H+  H289  1  0.17526443  0.57302076  0.19569254  1
  H+  H290  1  0.88048259  0.53200816  0.28155934  1
  H+  H291  1  0.53203176  0.38551401  0.49868338  1
  H+  H292  1  0.92674737  0.57907054  0.91978650  1
  H+  H293  1  0.42142459  0.34002639  0.56594049  1
  H+  H294  1  0.10023983  0.17908782  0.11484397  1
  H+  H295  1  0.17092960  0.33829592  0.27314730  1
  H+  H296  1  0.18228989  0.33060091  0.59344938  1
  H+  H297  1  0.92035481  0.33505874  0.27318214  1
  H+  H298  1  0.57910973  0.65916585  0.10339656  1
  H+  H299  1  0.34025412  0.66900068  0.73749358  1
  H+  H300  1  0.42283027  0.58360993  0.89743743  1
  H+  H301  1  0.60145310  0.17108560  0.39923316  1
  H+  H302  1  0.84348344  0.80771290  0.92072885  1
  H+  H303  1  0.18063228  0.83470621  0.25601333  1
  H+  H304  1  0.81329733  0.59562647  0.07708733  1
  H+  H305  1  0.17320005  0.08041216  0.58722151  1
  H+  H306  1  -0.01366093  0.88638922  0.15391068  1
  H+  H307  1  0.42488808  0.82699476  0.94744569  1
  H+  H308  1  0.34389484  0.94266462  0.09925720  1
  H+  H309  1  0.64106104  0.07781080  0.90784410  1
  H+  H310  1  0.94388009  0.09106023  0.89350194  1
  H+  H311  1  0.12604349  0.10435242  0.66999009  1
  H+  H312  1  0.32199823  0.94112716  0.72380027  1
  H+  H313  1  0.81656398  0.72618463  0.83029196  1
  H+  H314  1  0.42878030  0.58708837  0.57052560  1
  H+  H315  1  0.85858548  0.63160711  0.07298572  1
  H+  H316  1  0.63920185  0.77184931  0.16490015  1
  H+  H317  1  0.61491832  0.22384005  0.03976155  1
  H+  H318  1  0.80605770  0.07742851  0.90626532  1
  H+  H319  1  0.12145803  0.95115654  0.10351137  1
  H+  H320  1  0.67398714  0.06558970  0.55912922  1
  H+  H321  1  0.90311426  0.82605823  0.55702892  1
  H+  H322  1  0.63104217  0.22550860  0.49915589  1
  H+  H323  1  0.82023351  0.65000541  0.40678909  1
  H+  H324  1  0.66543930  0.07996534  0.23303446  1
  H+  H325  1  0.34381636  0.18555814  0.73763383  1
  H+  H326  1  0.83078933  0.65664673  0.75154958  1
  H+  H327  1  0.63563379  0.77678072  0.33648604  1
  H+  H328  1  0.42075907  0.85201998  0.60134452  1
  H+  H329  1  0.92213578  0.08357696  0.59637411  1
  H+  H330  1  0.24938849  0.21635056  0.46111843  1
  H+  H331  1  0.28181921  0.39548825  0.49297201  1
  H+  H332  1  0.31897663  0.65165517  0.43463900  1
  H+  H333  1  0.56529447  0.41825631  0.07288636  1
  H+  H334  1  0.18275565  0.82657097  0.55947018  1
  H+  H335  1  0.03208060  0.38413914  -0.00522154  1
  H+  H336  1  0.34084071  0.18298078  0.40000320  1
  H+  H337  1  0.36162235  0.63504339  0.34218483  1
  H+  H338  1  0.61998186  0.02257814  0.99989625  1
  H+  H339  1  0.82452037  0.13963551  0.78646433  1
  H+  H340  1  0.83165604  0.94428998  0.08859719  1
  H+  H341  1  0.09155338  0.17173423  0.43040858  1
  H+  H342  1  0.83133397  0.41353198  0.73176621  1
  H+  H343  1  0.58105161  0.18109347  0.77436612  1
  H+  H344  1  0.34052808  0.42558096  0.72739254  1
  H+  H345  1  0.07607799  0.93015213  0.80702352  1
  H+  H346  1  0.92210679  0.34574544  0.56398378  1
  H+  H347  1  0.62091436  0.56612468  0.93552314  1
  H+  H348  1  0.24560221  0.89534718  0.16564848  1
  H+  H349  1  0.41043727  0.81191955  0.22966833  1
  H+  H350  1  0.07809246  0.43645119  0.74454699  1
  H+  H351  1  0.61488966  0.97070214  0.48923414  1
  H+  H352  1  0.08635488  0.67666402  0.42095201  1
  H+  H353  1  0.13359509  0.57095511  0.59983866  1
  H+  H354  1  0.16205291  0.58361127  0.90327462  1
  H+  H355  1  0.08055708  0.89506638  0.71170382  1
  H+  H356  1  0.01926119  0.87897325  0.51528161  1
  H+  H357  1  0.21388195  0.24731462  0.06166746  1
  H+  H358  1  0.92552104  0.07499892  0.23641383  1
  H+  H359  1  0.34277805  0.42383236  0.40091697  1
  H+  H360  1  0.18820837  0.09889759  0.26689985  1
  H+  H361  1  0.89604900  0.02384087  0.50159895  1
  H+  H362  1  0.92112439  0.31554374  0.91121021  1
  H+  H363  1  0.15715009  0.94372532  0.40009535  1
  H+  H364  1  0.06956028  0.67180876  0.06537380  1
  H+  H365  1  0.83439460  0.92145829  0.72700082  1
  H+  H366  1  0.67317283  0.59692924  0.56351811  1
  H+  H367  1  0.59046004  0.41894919  0.40295108  1
  H+  H368  1  0.86785558  0.88621902  0.48403240  1
  H+  H369  1  0.67038833  0.82326054  0.59219178  1
  H+  H370  1  0.58193745  0.66817520  0.72702009  1
  H+  H371  1  0.57909524  0.66577323  0.39887225  1
  H+  H372  1  0.58159236  0.91747780  0.07582502  1
  H+  H373  1  0.07129106  0.39918273  0.09638330  1
  H+  H374  1  0.19186241  0.11120039  0.89717054  1
  H+  H375  1  0.43475030  0.12033285  0.22396588  1
  H+  H376  1  0.65848368  0.53173721  0.64189446  1
  H+  H377  1  0.18234978  0.85138776  0.93527030  1
  H+  H378  1  0.83931689  0.91849985  0.42565784  1
  H+  H379  1  0.16217084  0.58445041  0.28557550  1
  H+  H380  1  0.17645928  0.34699262  0.89020825  1
  H+  H381  1  0.57444163  0.91433966  0.39865482  1
  H+  H382  1  0.89899498  0.57314729  0.56751040  1
  H+  H383  1  0.65663935  0.57587542  0.27301909  1
  O2-  O384  1  0.08427108  0.16823319  0.15899254  1
  O2-  O385  1  0.09872127  0.17832824  0.47529095  1
  O2-  O386  1  0.09825025  0.18220784  0.80374315  1
  O2-  O387  1  0.07306047  0.40705174  0.14117438  1
  O2-  O388  1  0.08640133  0.42205698  0.48356347  1
  O2-  O389  1  0.07470506  0.42518848  0.81420129  1
  O2-  O390  1  0.07079932  0.64211765  0.14699109  1
  O2-  O391  1  0.08194042  0.67390305  0.47098925  1
  O2-  O392  1  0.10672321  0.68677972  0.81025041  1
  O2-  O393  1  0.09509111  0.93576461  0.14548101  1
  O2-  O394  1  0.08319841  0.90869726  0.52783955  1
  O2-  O395  1  0.13478648  0.95533510  0.79137739  1
  O2-  O396  1  0.31977683  0.16500000  0.12855198  1
  O2-  O397  1  0.28578755  0.19350041  0.47507636  1
  O2-  O398  1  0.35281887  0.18752833  0.80780867  1
  O2-  O399  1  0.32197271  0.42037939  0.14274576  1
  O2-  O400  1  0.34336059  0.42440202  0.47895848  1
  O2-  O401  1  0.34048249  0.43384677  0.80333732  1
  O2-  O402  1  0.33604681  0.65455096  0.13601291  1
  O2-  O403  1  0.31167638  0.64303480  0.48019612  1
  O2-  O404  1  0.33998528  0.67776237  0.82713694  1
  O2-  O405  1  0.33415084  0.94924128  0.14309053  1
  O2-  O406  1  0.34914580  0.91808164  0.47393946  1
  O2-  O407  1  0.30947896  0.92001314  0.80251811  1
  O2-  O408  1  0.61502407  0.23634156  0.16996253  1
  O2-  O409  1  0.60223330  0.16780904  0.48173039  1
  O2-  O410  1  0.57680554  0.16950328  0.81878539  1
  O2-  O411  1  0.57679056  0.42073185  0.15261789  1
  O2-  O412  1  0.59042040  0.42061154  0.48067877  1
  O2-  O413  1  0.60452528  0.42622219  0.81438613  1
  O2-  O414  1  0.58291566  0.66102055  0.14860033  1
  O2-  O415  1  0.59125595  0.67098190  0.47482538  1
  O2-  O416  1  0.58391153  0.67851298  0.80806670  1
  O2-  O417  1  0.57956610  0.90919443  0.14581619  1
  O2-  O418  1  0.58092093  0.90978145  0.47536931  1
  O2-  O419  1  0.57838688  0.92967442  0.81982454  1
  O2-  O420  1  0.82028846  0.17182429  0.12705932  1
  O2-  O421  1  0.84224110  0.16774393  0.47975045  1
  O2-  O422  1  0.84795578  0.15662528  0.82762645  1
  O2-  O423  1  0.80281520  0.39808627  0.15093221  1
  O2-  O424  1  0.79080668  0.39745393  0.50026196  1
  O2-  O425  1  0.83579135  0.41151028  0.80989292  1
  O2-  O426  1  0.83248635  0.67797777  0.19611909  1
  O2-  O427  1  0.83780689  0.66642997  0.47909519  1
  O2-  O428  1  0.82736979  0.64375351  0.79753459  1
  O2-  O429  1  0.84004846  0.94221654  0.13328786  1
  O2-  O430  1  0.84039339  0.92000125  0.47111079  1
  O2-  O431  1  0.83366721  0.92842333  0.80490769  1
  O2-  O432  1  0.17345073  0.09427829  0.19193100  1
  O2-  O433  1  0.17057812  0.07435855  0.54059255  1
  O2-  O434  1  0.19278100  0.11441531  0.85168085  1
  O2-  O435  1  0.16095500  0.34010731  0.19559149  1
  O2-  O436  1  0.17788426  0.34134871  0.51400834  1
  O2-  O437  1  0.17422189  0.35081452  0.84496081  1
  O2-  O438  1  0.16582226  0.57581220  0.15250285  1
  O2-  O439  1  0.13970119  0.58068015  0.51874277  1
  O2-  O440  1  0.16672183  0.58541453  0.85906335  1
  O2-  O441  1  0.18253507  0.85447638  0.18142849  1
  O2-  O442  1  0.17928587  0.82874110  0.51354260  1
  O2-  O443  1  0.16330812  0.84535680  0.85775779  1
  O2-  O444  1  0.43365834  0.12359689  0.17880996  1
  O2-  O445  1  0.43914248  0.08970664  0.51356500  1
  O2-  O446  1  0.41500977  0.08858166  0.85124027  1
  O2-  O447  1  0.40886422  0.33530710  0.17165608  1
  O2-  O448  1  0.41889753  0.33503034  0.52030673  1
  O2-  O449  1  0.42717746  0.35980214  0.84133026  1
  O2-  O450  1  0.41717976  0.58076872  0.18836155  1
  O2-  O451  1  0.43116828  0.58826639  0.52311720  1
  O2-  O452  1  0.42183583  0.59181324  0.85252297  1
  O2-  O453  1  0.41121302  0.80831025  0.18504559  1
  O2-  O454  1  0.42098003  0.83077982  0.51995067  1
  O2-  O455  1  0.42208051  0.83039155  0.86972275  1
  O2-  O456  1  0.66848876  0.08001359  0.18696636  1
  O2-  O457  1  0.67816552  0.07594215  0.51426093  1
  O2-  O458  1  0.63799597  0.07589591  0.86129435  1
  O2-  O459  1  0.64428389  0.30658012  0.12485465  1
  O2-  O460  1  0.65447848  0.30642560  0.60796420  1
  O2-  O461  1  0.67094941  0.33144635  0.86576628  1
  O2-  O462  1  0.66331255  0.58100346  0.19619005  1
  O2-  O463  1  0.67274456  0.59313253  0.51753277  1
  O2-  O464  1  0.64757052  0.57901510  0.85548644  1
  O2-  O465  1  0.66553516  0.83407367  0.17432509  1
  O2-  O466  1  0.67137132  0.83658811  0.51123816  1
  O2-  O467  1  0.66317273  0.85221361  0.84091732  1
  O2-  O468  1  0.92774401  0.08388714  0.18929178  1
  O2-  O469  1  0.92694672  0.08306749  0.51933355  1
  O2-  O470  1  0.93896243  0.08941483  0.84929382  1
  O2-  O471  1  0.91055811  0.33260947  0.19080797  1
  O2-  O472  1  0.92320301  0.34063736  0.51905744  1
  O2-  O473  1  0.92235149  0.31569426  0.84308466  1
  O2-  O474  1  0.89844334  0.56197296  0.19449770  1
  O2-  O475  1  0.89040826  0.56820250  0.52304671  1
  O2-  O476  1  0.93795939  0.58585994  0.84061415  1
  O2-  O477  1  0.92303442  0.85893800  0.16182090  1
  O2-  O478  1  0.91760762  0.82992659  0.51270037  1
  O2-  O479  1  0.80662041  0.77175616  0.84832775  1
  O2-  O480  1  0.19275021  0.10304943  0.31252590  1
  O2-  O481  1  0.15570178  0.06896691  0.65595042  1
  O2-  O482  1  0.19154126  0.11371033  0.97569634  1
  O2-  O483  1  0.17556050  0.33581898  0.31847854  1
  O2-  O484  1  0.18754983  0.32809309  0.63825668  1
  O2-  O485  1  0.18381474  0.34673269  0.96811091  1
  O2-  O486  1  0.16573767  0.58256879  0.32961952  1
  O2-  O487  1  0.13815761  0.57369515  0.64479102  1
  O2-  O488  1  0.16968301  0.58830452  1.01506149  1
  O2-  O489  1  0.18051472  0.82954883  0.30165662  1
  O2-  O490  1  0.17779417  0.83225135  0.63329976  1
  O2-  O491  1  0.18929213  0.85311162  0.98095219  1
  O2-  O492  1  0.44008239  0.10954843  0.30524594  1
  O2-  O493  1  0.42634600  0.10369229  0.64062706  1
  O2-  O494  1  0.43106532  0.08567770  0.96686286  1
  O2-  O495  1  0.43600330  0.34926266  0.32205978  1
  O2-  O496  1  0.42859204  0.35184057  0.64175179  1
  O2-  O497  1  0.39135217  0.30966069  1.00654756  1
  O2-  O498  1  0.41204873  0.58702718  0.31352952  1
  O2-  O499  1  0.42190067  0.58496168  0.63864516  1
  O2-  O500  1  0.42347532  0.57703441  0.97588563  1
  O2-  O501  1  0.40859494  0.82460734  0.31551364  1
  O2-  O502  1  0.42456470  0.86288778  0.64546612  1
  O2-  O503  1  0.42215422  0.82683117  0.99273475  1
  O2-  O504  1  0.66346271  0.07515135  0.30771530  1
  O2-  O505  1  0.65865442  0.04642143  0.63616926  1
  O2-  O506  1  0.65451130  0.07937391  0.97935792  1
  O2-  O507  1  0.65583055  0.30889827  0.28106254  1
  O2-  O508  1  0.64254592  0.44178459  0.64354037  1
  O2-  O509  1  0.67990272  0.33524861  0.93071966  1
  O2-  O510  1  0.65246634  0.57533190  0.31857290  1
  O2-  O511  1  0.67741704  0.59658119  0.63712045  1
  O2-  O512  1  0.63630223  0.57383706  0.97931441  1
  O2-  O513  1  0.67078610  0.83953666  0.32919008  1
  O2-  O514  1  0.66787090  0.81437210  0.63670724  1
  O2-  O515  1  0.64208426  0.82588456  0.99496483  1
  O2-  O516  1  0.92528053  0.07345409  0.30435529  1
  O2-  O517  1  0.92303806  0.08221211  0.64213685  1
  O2-  O518  1  0.79489744  0.05350243  0.94756938  1
  O2-  O519  1  0.91862096  0.32060796  0.31699598  1
  O2-  O520  1  0.92689851  0.35869591  0.64471127  1
  O2-  O521  1  0.92704983  0.31909975  0.95876611  1
  O2-  O522  1  0.87518885  0.52939019  0.32608338  1
  O2-  O523  1  0.91383562  0.58332001  0.65073268  1
  O2-  O524  1  0.91361702  0.58057754  0.96363391  1
  O2-  O525  1  0.87487845  0.79330906  0.28459180  1
  O2-  O526  1  0.90021957  0.82841898  0.63486452  1
  O2-  O527  1  0.85714511  0.82234757  0.96471412  1
  O2-  O528  1  0.15465146  0.21193174  0.04771587  1
  O2-  O529  1  0.09125612  0.16580995  0.35128333  1
  O2-  O530  1  0.08618577  0.15617425  0.68387758  1
  O2-  O531  1  0.09078847  0.41658868  0.01218238  1
  O2-  O532  1  0.08670634  0.40976364  0.36209602  1
  O2-  O533  1  0.07900450  0.43780757  0.69746411  1
  O2-  O534  1  0.07827371  0.68062028  0.02086208  1
  O2-  O535  1  0.09040247  0.67578668  0.35998216  1
  O2-  O536  1  0.08461847  0.67477465  0.68902549  1
  O2-  O537  1  0.18378610  0.98624947  0.04239759  1
  O2-  O538  1  0.19121017  0.96316888  0.36299716  1
  O2-  O539  1  0.07359674  0.89980363  0.66757406  1
  O2-  O540  1  0.31168336  0.14503719  0.06259669  1
  O2-  O541  1  0.35268124  0.18411453  0.35619281  1
  O2-  O542  1  0.33507394  0.18216876  0.69101984  1
  O2-  O543  1  0.33607974  0.41688165  0.02063044  1
  O2-  O544  1  0.34340059  0.42254832  0.35537745  1
  O2-  O545  1  0.34354047  0.42195926  0.68188214  1
  O2-  O546  1  0.34391092  0.65996875  0.01770264  1
  O2-  O547  1  0.32935018  0.66296373  0.35976110  1
  O2-  O548  1  0.32542537  0.65826716  0.69434555  1
  O2-  O549  1  0.35189169  0.92674152  0.02228198  1
  O2-  O550  1  0.33583409  0.94558239  0.35689133  1
  O2-  O551  1  0.32871192  0.94070968  0.67899814  1
  O2-  O552  1  0.60655626  0.19611859  -0.00020541  1
  O2-  O553  1  0.59965538  0.16469682  0.35430727  1
  O2-  O554  1  0.59156853  0.19012897  0.69271026  1
  O2-  O555  1  0.55654803  0.40848442  0.02844785  1
  O2-  O556  1  0.58296755  0.42016615  0.35777281  1
  O2-  O557  1  0.58066795  0.40411348  0.69293707  1
  O2-  O558  1  0.57790173  0.66937402  0.02409785  1
  O2-  O559  1  0.57489396  0.66560640  0.35332726  1
  O2-  O560  1  0.58162787  0.66053204  0.68224833  1
  O2-  O561  1  0.58110936  0.91758126  0.02899753  1
  O2-  O562  1  0.57046357  0.91238715  0.35312354  1
  O2-  O563  1  0.57302740  0.91048669  0.69216567  1
  O2-  O564  1  0.78934952  0.20188435  0.07551168  1
  O2-  O565  1  0.83934049  0.15821556  0.30942832  1
  O2-  O566  1  0.80754256  0.12392840  0.69578172  1
  O2-  O567  1  0.95749781  0.46111420  0.02342097  1
  O2-  O568  1  0.73348740  0.39108248  0.39496228  1
  O2-  O569  1  0.83554930  0.41653575  0.68645951  1
  O2-  O570  1  0.79930828  0.63443988  -0.05021732  1
  O2-  O571  1  0.80957945  0.64223297  0.36126717  1
  O2-  O572  1  0.83032461  0.66919114  0.68255347  1
  O2-  O573  1  0.80412335  0.92814726  0.01097182  1
  O2-  O574  1  0.83176226  0.91473702  0.34627961  1
  O2-  O575  1  0.83340970  0.91665473  0.68174919  1
