# generated using pymatgen
data_H2O
_symmetry_space_group_name_H-M   'P 1'
_cell_length_a   18.00085890
_cell_length_b   17.99609905
_cell_length_c   22.01197451
_cell_angle_alpha   90.00962471
_cell_angle_beta   90.00360182
_cell_angle_gamma   120.02861053
_symmetry_Int_Tables_number   1
_chemical_formula_structural   H2O
_chemical_formula_sum   'H384 O192'
_cell_volume   6173.56385495
_cell_formula_units_Z   192
loop_
 _symmetry_equiv_pos_site_id
 _symmetry_equiv_pos_as_xyz
  1  'x, y, z'
loop_
 _atom_type_symbol
 _atom_type_oxidation_number
  H+  1.0
  O2-  -2.0
loop_
 _atom_site_type_symbol
 _atom_site_label
 _atom_site_symmetry_multiplicity
 _atom_site_fract_x
 _atom_site_fract_y
 _atom_site_fract_z
 _atom_site_occupancy
  H+  H0  1  0.36730152  -0.01725736  0.99828290  1
  H+  H1  1  0.22251300  0.61389884  0.66344312  1
  H+  H2  1  0.13535343  0.34689772  0.83695472  1
  H+  H3  1  0.37443913  0.52123134  0.66300127  1
  H+  H4  1  0.14095788  0.61976688  0.32655203  1
  H+  H5  1  0.33645584  0.42162278  0.43554690  1
  H+  H6  1  0.62218676  0.47396954  0.66747734  1
  H+  H7  1  0.89235118  0.37469243  0.33388404  1
  H+  H8  1  0.11526487  -0.02465474  0.15989894  1
  H+  H9  1  0.86903320  0.50181943  0.16317488  1
  H+  H10  1  0.02660840  0.39520315  0.33012216  1
  H+  H11  1  0.22293487  0.86505516  0.66389779  1
  H+  H12  1  0.61107257  0.72584152  0.13780829  1
  H+  H13  1  0.65060868  0.52940218  0.98942974  1
  H+  H14  1  0.59146917  0.12336176  0.62218099  1
  H+  H15  1  0.37815411  0.11717460  0.65787799  1
  H+  H16  1  0.48086485  0.35732339  0.83828520  1
  H+  H17  1  0.61415619  0.37554237  0.83565026  1
  H+  H18  1  0.88947945  0.98044125  0.35547359  1
  H+  H19  1  0.22091092  0.35783044  0.98800534  1
  H+  H20  1  0.38568617  0.39580525  0.14597930  1
  H+  H21  1  1.00095293  0.12502215  0.33036282  1
  H+  H22  1  -0.02274768  0.09877704  0.82438925  1
  H+  H23  1  0.63895995  0.41532751  0.48440277  1
  H+  H24  1  0.36695282  0.38405768  0.82669570  1
  H+  H25  1  0.87412888  0.23010612  0.33700428  1
  H+  H26  1  0.11835032  0.09398649  0.50871419  1
  H+  H27  1  0.63489884  0.84722795  0.66929642  1
  H+  H28  1  0.71072100  0.34346305  0.32553409  1
  H+  H29  1  0.57364394  0.90839211  0.36906781  1
  H+  H30  1  0.13215331  0.62060921  0.83438499  1
  H+  H31  1  0.12927144  0.76706045  0.15098521  1
  H+  H32  1  0.10976082  0.47881787  0.68406619  1
  H+  H33  1  -0.02610164  0.86185454  0.51833235  1
  H+  H34  1  0.35761832  0.38279985  0.49565898  1
  H+  H35  1  0.13844954  0.86471274  -0.00279267  1
  H+  H36  1  0.14180128  0.61154072  0.16339945  1
  H+  H37  1  0.35047613  0.88642458  0.33527741  1
  H+  H38  1  0.10988324  0.88287470  0.15204830  1
  H+  H39  1  0.37808361  0.10811262  0.33343556  1
  H+  H40  1  1.01346423  0.11487622  0.16219365  1
  H+  H41  1  0.38035588  0.51889174  0.83610357  1
  H+  H42  1  0.45287324  0.85650068  0.30690716  1
  H+  H43  1  0.51504221  0.63175771  0.84528109  1
  H+  H44  1  0.65015407  0.72230157  0.30359113  1
  H+  H45  1  0.86938427  0.88743846  0.66433430  1
  H+  H46  1  0.72451150  0.12777218  0.18522447  1
  H+  H47  1  1.01910025  0.63572771  0.83249236  1
  H+  H48  1  0.70859249  0.88635613  0.34584775  1
  H+  H49  1  0.38227534  0.61688595  -0.01103204  1
  H+  H50  1  0.24246264  0.62161098  0.50107190  1
  H+  H51  1  0.10960190  0.97872449  0.34358522  1
  H+  H52  1  0.84929638  0.66816908  0.75830387  1
  H+  H53  1  0.35580509  0.21701311  0.35748352  1
  H+  H54  1  0.35384171  0.25707231  0.51036780  1
  H+  H55  1  0.89545571  0.86344924  0.33164368  1
  H+  H56  1  0.41286236  0.79042970  0.51785634  1
  H+  H57  1  0.38662425  0.36468303  0.66189787  1
  H+  H58  1  0.90136710  0.49639172  0.53781321  1
  H+  H59  1  0.80482983  0.43481008  0.99733824  1
  H+  H60  1  0.52631006  0.64436332  0.49449702  1
  H+  H61  1  0.01845203  0.63052381  -0.00348233  1
  H+  H62  1  0.36790445  0.22248878  0.14793787  1
  H+  H63  1  0.27150662  0.63866593  0.99815504  1
  H+  H64  1  0.38499751  0.60891819  0.51058273  1
  H+  H65  1  0.87180029  0.73278103  0.16059546  1
  H+  H66  1  0.73039824  0.11640413  0.83147577  1
  H+  H67  1  0.76765462  0.88420278  -0.00364562  1
  H+  H68  1  0.11199971  0.22905828  0.66730902  1
  H+  H69  1  0.35756040  0.87835006  0.49472563  1
  H+  H70  1  0.85689125  0.91826622  -0.03647370  1
  H+  H71  1  0.36973152  0.77326163  0.83478788  1
  H+  H72  1  0.58234190  0.90818813  0.74274461  1
  H+  H73  1  0.22672969  0.11428934  0.83828818  1
  H+  H74  1  0.64709050  0.62830277  0.51658127  1
  H+  H75  1  0.77423434  0.87630607  0.13523417  1
  H+  H76  1  0.51476121  0.88678285  -0.00263795  1
  H+  H77  1  0.11648918  0.39619939  0.32687647  1
  H+  H78  1  0.97189361  0.35557757  0.67096701  1
  H+  H79  1  0.64418835  0.87406434  0.52442301  1
  H+  H80  1  0.22813470  0.11249796  0.17158007  1
  H+  H81  1  0.14080523  0.77976190  0.34252917  1
  H+  H82  1  0.64556133  0.63850197  0.67983691  1
  H+  H83  1  0.11474320  0.97881642  0.67548524  1
  H+  H84  1  0.22621088  0.86240745  0.99410483  1
  H+  H85  1  0.96718065  0.37712004  0.16782445  1
  H+  H86  1  0.00481267  0.11737452  0.49004662  1
  H+  H87  1  0.02175939  0.14057469  0.00778257  1
  H+  H88  1  0.63058199  0.49342083  0.15458691  1
  H+  H89  1  0.78556282  0.62960916  0.81865847  1
  H+  H90  1  0.36091601  0.99951830  0.50125833  1
  H+  H91  1  0.62576604  0.77114956  0.99444128  1
  H+  H92  1  0.90458327  0.56939461  0.89872684  1
  H+  H93  1  0.10381966  0.60771448  0.51430418  1
  H+  H94  1  0.02114323  0.35826848  0.48576773  1
  H+  H95  1  0.86862011  0.47068310  0.82534764  1
  H+  H96  1  0.61317061  0.47706420  0.33145960  1
  H+  H97  1  0.63046076  0.04133639  0.18075529  1
  H+  H98  1  0.11814162  -0.01864170  1.00150573  1
  H+  H99  1  0.38728609  0.02802714  0.83680067  1
  H+  H100  1  0.86552263  0.88533295  0.50891532  1
  H+  H101  1  0.39622769  0.53103008  0.16641772  1
  H+  H102  1  1.08192357  0.16595185  0.72524746  1
  H+  H103  1  0.11131823  0.89377153  0.83069271  1
  H+  H104  1  0.13027096  0.52991435  0.83277222  1
  H+  H105  1  0.13696819  1.02299042  0.83775830  1
  H+  H106  1  0.87538532  0.71564655  0.01144353  1
  H+  H107  1  0.78051855  0.88721614  0.66388725  1
  H+  H108  1  0.02297960  0.88707417  0.34223051  1
  H+  H109  1  0.49059765  0.88555499  0.52423933  1
  H+  H110  1  0.73044528  0.92450650  0.32434047  1
  H+  H111  1  0.66186396  0.28900428  0.99618699  1
  H+  H112  1  0.63262428  0.02757713  0.98267933  1
  H+  H113  1  0.88373968  0.27647989  0.98672067  1
  H+  H114  1  0.10667028  0.35759397  0.16256722  1
  H+  H115  1  0.33333089  0.41671342  0.73415900  1
  H+  H116  1  0.91970629  0.83261817  0.26850160  1
  H+  H117  1  0.86537294  0.73068416  0.50350200  1
  H+  H118  1  0.89899709  0.84506592  1.00744739  1
  H+  H119  1  0.47815700  0.11694533  0.83141323  1
  H+  H120  1  0.61955015  0.25938367  0.32726408  1
  H+  H121  1  0.63178749  0.00939971  0.51746103  1
  H+  H122  1  0.65553757  0.09632803  0.27314889  1
  H+  H123  1  0.36654582  0.63920431  0.15331587  1
  H+  H124  1  0.16527265  0.08319562  0.92898124  1
  H+  H125  1  0.61915523  0.14894306  0.80930198  1
  H+  H126  1  0.50146249  0.90927764  0.14983570  1
  H+  H127  1  0.88768721  0.35525429  0.83357382  1
  H+  H128  1  0.51091905  0.37768420  0.33776500  1
  H+  H129  1  0.26811788  0.63669803  0.33030673  1
  H+  H130  1  0.83794359  0.36261323  0.67337531  1
  H+  H131  1  0.88904028  0.62954639  0.18172229  1
  H+  H132  1  0.27504994  0.37845351  0.82811542  1
  H+  H133  1  0.69438136  0.67848553  0.22617107  1
  H+  H134  1  0.38220095  0.77249699  0.15725492  1
  H+  H135  1  0.13700700  0.11674284  0.66063604  1
  H+  H136  1  0.77603831  0.63490113  0.34719825  1
  H+  H137  1  0.62919962  0.59466480  0.33864368  1
  H+  H138  1  0.17862821  0.35906054  0.60572780  1
  H+  H139  1  0.22645644  0.11026182  0.32898580  1
  H+  H140  1  0.65201992  0.85095525  0.08627648  1
  H+  H141  1  0.38332572  0.74861312  0.66882789  1
  H+  H142  1  0.15478494  0.39173270  0.51285764  1
  H+  H143  1  0.10659353  0.51853832  0.52169244  1
  H+  H144  1  0.27440898  0.14349524  0.67510017  1
  H+  H145  1  0.88316211  0.38611852  0.16859765  1
  H+  H146  1  0.13836814  0.52944082  0.32093482  1
  H+  H147  1  0.10726610  0.47807199  0.15444541  1
  H+  H148  1  0.61179027  0.12317747  0.33676426  1
  H+  H149  1  0.87071155  0.13822443  0.48977659  1
  H+  H150  1  0.13769508  0.11001922  0.17317939  1
  H+  H151  1  0.38520598  0.86768271  0.99162422  1
  H+  H152  1  0.02029871  0.66704614  0.55226908  1
  H+  H153  1  0.11200539  0.12597911  0.81980417  1
  H+  H154  1  0.37846883  0.01859713  0.33156482  1
  H+  H155  1  0.86832780  0.06367756  0.19558619  1
  H+  H156  1  0.88389410  0.03866371  0.99970326  1
  H+  H157  1  0.88339404  0.50021038  0.35996791  1
  H+  H158  1  0.36498181  0.13838781  0.82702742  1
  H+  H159  1  0.11777984  0.64492921  0.68372538  1
  H+  H160  1  0.76491259  0.14170005  0.00184660  1
  H+  H161  1  0.60400944  0.37263761  0.32924955  1
  H+  H162  1  0.85194128  0.25336107  0.16204780  1
  H+  H163  1  0.75329809  0.38606511  0.51785048  1
  H+  H164  1  0.66809468  0.30124233  0.49961905  1
  H+  H165  1  0.21374616  0.84755640  0.50482855  1
  H+  H166  1  0.89210265  0.85799683  0.16746614  1
  H+  H167  1  0.62047677  0.98280855  0.82257012  1
  H+  H168  1  0.27524179  0.63493409  0.15484142  1
  H+  H169  1  0.36870070  0.76620986  0.31573973  1
  H+  H170  1  0.35630129  0.63430494  0.81996636  1
  H+  H171  1  0.39015947  0.61635947  0.32049141  1
  H+  H172  1  0.26778044  0.63567451  0.81763709  1
  H+  H173  1  0.85652317  0.12769233  0.67188765  1
  H+  H174  1  0.43376303  0.36218432  0.91892381  1
  H+  H175  1  0.36279247  0.13275861  0.15980957  1
  H+  H176  1  0.60502465  -0.03858013  0.68023041  1
  H+  H177  1  0.13603565  0.86685306  0.34089186  1
  H+  H178  1  0.64336698  0.60366024  0.83748697  1
  H+  H179  1  0.75308861  0.62155350  0.67139785  1
  H+  H180  1  0.13580085  0.61153017  0.98346344  1
  H+  H181  1  0.87927388  0.01901679  0.51248352  1
  H+  H182  1  0.09068501  0.21110016  0.16138960  1
  H+  H183  1  0.74088719  0.64027772  0.18402040  1
  H+  H184  1  0.63295299  0.15526073  0.48725588  1
  H+  H185  1  0.53049553  0.99494649  0.11484938  1
  H+  H186  1  0.44654795  0.09076440  0.50153679  1
  H+  H187  1  0.54101540  0.40296779  -0.00414010  1
  H+  H188  1  0.14779150  0.28712394  0.31759296  1
  H+  H189  1  0.65660496  0.37411658  0.99119350  1
  H+  H190  1  0.85726013  0.87386076  0.83669689  1
  H+  H191  1  0.88739460  0.76365514  0.66986005  1
  H+  H192  1  0.26409422  0.89648635  0.83057642  1
  H+  H193  1  0.61805718  0.64341758  0.15376498  1
  H+  H194  1  0.39427103  0.52568843  0.50679370  1
  H+  H195  1  0.52337487  0.62623199  0.34268418  1
  H+  H196  1  0.13711866  0.11257551  0.98955714  1
  H+  H197  1  0.62336166  0.89523928  0.82827765  1
  H+  H198  1  0.84544675  0.45786648  0.09756028  1
  H+  H199  1  0.34867347  -0.11080173  0.82754811  1
  H+  H200  1  0.13304587  0.15263199  0.33618639  1
  H+  H201  1  1.02069894  0.60224403  0.13363033  1
  H+  H202  1  0.21517837  0.85684610  0.15677192  1
  H+  H203  1  0.38292579  0.07005733  0.59694906  1
  H+  H204  1  0.50477629  0.12758716  0.62244898  1
  H+  H205  1  -0.01617747  0.86424491  0.17069203  1
  H+  H206  1  0.03516641  0.64434639  0.35154172  1
  H+  H207  1  0.12178556  0.76161835  0.50576060  1
  H+  H208  1  0.35988299  0.63063567  0.66738725  1
  H+  H209  1  0.88236470  0.14577322  0.33892180  1
  H+  H210  1  0.27658945  0.39467167  0.33105716  1
  H+  H211  1  0.86737140  0.21717629  0.82408649  1
  H+  H212  1  0.11365550  0.88897632  0.67542414  1
  H+  H213  1  0.17647904  0.33887946  0.13797006  1
  H+  H214  1  0.36772777  0.40051844  -0.00621938  1
  H+  H215  1  0.78048353  0.38166517  0.82828888  1
  H+  H216  1  0.75763358  0.13997053  0.49868532  1
  H+  H217  1  0.86314872  0.72710384  0.34106375  1
  H+  H218  1  0.48193232  0.45620325  0.94375388  1
  H+  H219  1  0.64012232  0.86745860  0.15508861  1
  H+  H220  1  0.90642806  0.36788687  0.52018340  1
  H+  H221  1  0.63010221  0.49600523  0.48973664  1
  H+  H222  1  0.73468639  0.37909327  0.16771020  1
  H+  H223  1  0.87648955  0.64834869  0.67666943  1
  H+  H224  1  0.99653966  0.62130369  0.65281439  1
  H+  H225  1  0.12984988  0.77595653  0.84376515  1
  H+  H226  1  0.87039183  0.58896057  1.00448461  1
  H+  H227  1  0.60327327  0.37918677  0.68386806  1
  H+  H228  1  0.01259095  0.37524551  0.83901130  1
  H+  H229  1  0.10736820  0.87750871  0.49750053  1
  H+  H230  1  0.63857366  0.77603069  0.84723244  1
  H+  H231  1  0.24647310  0.11617854  0.49593394  1
  H+  H232  1  0.80195809  0.42652514  0.39400308  1
  H+  H233  1  0.39228021  0.32067878  0.56720885  1
  H+  H234  1  0.63300147  0.40526553  0.15532233  1
  H+  H235  1  0.62431204  0.86253178  0.99363211  1
  H+  H236  1  0.27676225  0.13120922  -0.00151418  1
  H+  H237  1  0.51527699  0.63171835  -0.00359756  1
  H+  H238  1  0.35697748  -0.02226469  0.15810526  1
  H+  H239  1  0.27130358  0.38637703  0.67607793  1
  H+  H240  1  0.50094851  0.12817411  0.34619509  1
  H+  H241  1  0.11563507  0.47742965  -0.00108116  1
  H+  H242  1  0.73563476  0.62753509  0.51468059  1
  H+  H243  1  0.10184061  0.18447315  0.39386750  1
  H+  H244  1  0.85762139  0.21759821  0.67461422  1
  H+  H245  1  0.88641186  0.09914525  0.82721668  1
  H+  H246  1  0.34753702  0.97685827  0.67520968  1
  H+  H247  1  0.63468177  0.11766950  -0.01310587  1
  H+  H248  1  0.35397161  0.88755841  0.15170342  1
  H+  H249  1  0.38396581  0.77714926  0.99127731  1
  H+  H250  1  0.49958058  0.37598693  0.14885987  1
  H+  H251  1  0.89360856  0.62358191  0.34029245  1
  H+  H252  1  0.47559861  0.11599423  0.17673617  1
  H+  H253  1  0.12285799  1.00729912  0.51254964  1
  H+  H254  1  0.39302639  0.11542348  -0.01145552  1
  H+  H255  1  0.52992297  0.14606568  0.00114198  1
  H+  H256  1  0.88607954  0.12764679  1.00299289  1
  H+  H257  1  0.77429966  0.88762906  0.83038482  1
  H+  H258  1  0.59796479  0.42727395  0.05718093  1
  H+  H259  1  0.10694814  0.72387873  0.99683749  1
  H+  H260  1  0.64611634  0.76277765  0.66771970  1
  H+  H261  1  0.61291604  0.23673254  0.15620698  1
  H+  H262  1  0.58492105  0.66265674  0.40214078  1
  H+  H263  1  0.88585986  0.02015982  0.65480966  1
  H+  H264  1  0.29936876  0.39233789  0.16251432  1
  H+  H265  1  0.72275145  0.10510613  0.66501150  1
  H+  H266  1  0.09609254  0.42275852  0.87965787  1
  H+  H267  1  0.40230907  0.57918507  0.89484558  1
  H+  H268  1  0.25001619  0.40898544  0.51975688  1
  H+  H269  1  0.11331990  0.38667784  0.00202406  1
  H+  H270  1  0.10930162  0.21283530  0.82128589  1
  H+  H271  1  0.61315699  0.73503965  0.49427120  1
  H+  H272  1  0.86690504  0.75592437  0.84237437  1
  H+  H273  1  0.48592711  0.85201861  0.67460050  1
  H+  H274  1  0.89364223  0.27316087  0.50845761  1
  H+  H275  1  0.64517629  0.61574916  0.98713424  1
  H+  H276  1  0.38015199  0.36754495  0.34198384  1
  H+  H277  1  0.58330606  0.65826722  0.89665004  1
  H+  H278  1  0.57346553  0.17251207  0.52710553  1
  H+  H279  1  0.64256971  1.04637368  0.34151637  1
  H+  H280  1  0.13189941  0.26853398  -0.00733493  1
  H+  H281  1  0.13762852  0.36484019  0.66803210  1
  H+  H282  1  0.64533145  0.27351657  0.84227036  1
  H+  H283  1  0.88642584  0.60875614  0.83738790  1
  H+  H284  1  0.86397041  0.17344846  0.15568766  1
  H+  H285  1  0.36754151  0.48172534  0.33424831  1
  H+  H286  1  -0.02530874  0.36185111  -0.01574127  1
  H+  H287  1  0.38686489  0.27002679  0.84051015  1
  H+  H288  1  0.11531365  0.73356484  0.67924189  1
  H+  H289  1  0.77561126  0.88443052  0.50423233  1
  H+  H290  1  0.08541306  0.92383934  0.77036125  1
  H+  H291  1  0.61343583  0.46335685  0.83082638  1
  H+  H292  1  0.42378526  0.83166955  0.61321365  1
  H+  H293  1  0.61049116  0.24794888  0.66271464  1
  H+  H294  1  0.40844527  0.58045166  0.60328123  1
  H+  H295  1  0.99231798  0.85834522  0.99816059  1
  H+  H296  1  0.98336131  0.64925316  0.19582147  1
  H+  H297  1  0.60277967  0.21013908  0.76245028  1
  H+  H298  1  0.67097196  0.84053410  0.90209014  1
  H+  H299  1  0.68953156  0.59439310  0.61213600  1
  H+  H300  1  0.33547055  0.11529666  0.49505334  1
  H+  H301  1  0.01026459  0.63047332  0.47239681  1
  H+  H302  1  0.16479456  0.08133289  0.60419529  1
  H+  H303  1  0.15984158  0.82806044  0.60487799  1
  H+  H304  1  0.44295917  0.34342401  0.20651272  1
  H+  H305  1  0.16934963  0.08418073  0.26766959  1
  H+  H306  1  0.08406502  0.65502462  0.08134334  1
  H+  H307  1  0.97524949  0.85861814  0.66639833  1
  H+  H308  1  0.73704724  0.80304884  0.28341431  1
  H+  H309  1  0.08275265  0.16230092  0.06490354  1
  H+  H310  1  0.85102696  0.91474184  0.41127250  1
  H+  H311  1  0.83732121  0.67425384  0.44338205  1
  H+  H312  1  0.67153799  0.94766051  0.37153733  1
  H+  H313  1  0.90096480  0.81281991  0.90347802  1
  H+  H314  1  0.66666218  0.57799961  0.27681584  1
  H+  H315  1  0.57875390  0.65736763  0.05319288  1
  H+  H316  1  0.15029516  0.58156127  0.61183102  1
  H+  H317  1  0.33415229  0.92595721  0.05921162  1
  H+  H318  1  0.88535909  -0.00860236  0.17355527  1
  H+  H319  1  0.77945311  0.63535513  0.00808749  1
  H+  H320  1  0.68336320  0.33438889  0.90205424  1
  H+  H321  1  0.26288073  0.88863157  0.34539542  1
  H+  H322  1  0.07663892  0.39372770  0.42398097  1
  H+  H323  1  0.31794922  0.92019477  0.73525479  1
  H+  H324  1  0.83341143  0.15788188  0.76462200  1
  H+  H325  1  0.33162229  0.66556961  0.72912962  1
  H+  H326  1  0.42361938  0.58878953  0.26223122  1
  H+  H327  1  0.36458073  0.23282785  0.67451201  1
  H+  H328  1  0.26806447  0.56607831  0.46476774  1
  H+  H329  1  0.33304295  0.41678561  0.05660304  1
  H+  H330  1  0.41466929  0.08271116  0.23594430  1
  H+  H331  1  0.31476092  0.14654207  0.40920332  1
  H+  H332  1  0.09032287  0.92542508  0.06401056  1
  H+  H333  1  0.16865550  0.58603104  0.92446937  1
  H+  H334  1  0.58618659  0.17231623  0.06184784  1
  H+  H335  1  0.39996369  0.82721657  0.21819872  1
  H+  H336  1  0.83469701  0.66425642  0.10469774  1
  H+  H337  1  0.32640081  0.90340851  0.43240672  1
  H+  H338  1  0.87517357  0.98604874  0.82776687  1
  H+  H339  1  0.07750923  0.91178686  0.43985581  1
  H+  H340  1  0.33503324  0.16982457  0.76849807  1
  H+  H341  1  0.66682097  0.82781347  0.57694526  1
  H+  H342  1  0.92209741  0.32377856  0.60804563  1
  H+  H343  1  0.69590247  0.31938369  0.69430506  1
  H+  H344  1  0.07377342  0.42032473  0.09327941  1
  H+  H345  1  0.16798248  0.58616757  0.22682160  1
  H+  H346  1  0.88682476  0.46458224  0.46866045  1
  H+  H347  1  0.67101027  0.34007120  0.22529386  1
  H+  H348  1  0.16304528  0.31795003  0.89647076  1
  H+  H349  1  0.08495588  0.41939294  0.74243496  1
  H+  H350  1  0.66637644  0.09274971  0.88730027  1
  H+  H351  1  0.91187018  0.08489434  0.56922181  1
  H+  H352  1  0.38627108  0.30749991  0.29265747  1
  H+  H353  1  0.68094774  0.58099374  0.89387146  1
  H+  H354  1  0.07837957  0.67197855  0.77262780  1
  H+  H355  1  0.91056328  0.34957544  0.26771845  1
  H+  H356  1  0.09524515  0.66896486  0.41016405  1
  H+  H357  1  0.32544749  0.66783019  0.39012970  1
  H+  H358  1  0.82086557  0.40114081  0.73165960  1
  H+  H359  1  0.91564834  0.83042220  0.57965267  1
  H+  H360  1  0.84846372  0.17254008  0.42680947  1
  H+  H361  1  0.42715020  0.08911490  0.92949110  1
  H+  H362  1  0.60514163  0.94817622  0.46238457  1
  H+  H363  1  0.92192190  0.59197362  0.28174683  1
  H+  H364  1  0.60749277  0.66390092  0.73673013  1
  H+  H365  1  0.37770221  0.52496366  -0.01061236  1
  H+  H366  1  0.93408815  0.07107889  0.27840682  1
  H+  H367  1  0.48270678  0.61983860  0.16534160  1
  H+  H368  1  0.16034823  0.83417274  0.90342395  1
  H+  H369  1  0.97293113  0.11388489  0.65729568  1
  H+  H370  1  0.91291502  0.32398308  0.89530435  1
  H+  H371  1  0.81672550  0.18029881  0.06388006  1
  H+  H372  1  0.16760826  0.34045358  0.25581774  1
  H+  H373  1  0.47579225  0.36437529  0.65420924  1
  H+  H374  1  0.33209939  0.15472709  0.05834038  1
  H+  H375  1  0.61502299  0.15065834  0.16520154  1
  H+  H376  1  0.56603620  0.16503047  0.40620508  1
  H+  H377  1  0.32980889  0.66665989  0.05872006  1
  H+  H378  1  0.39994215  0.83126995  0.89434777  1
  H+  H379  1  0.02550379  0.06903005  0.44123359  1
  H+  H380  1  0.70971130  0.14681542  0.55837063  1
  H+  H381  1  0.67424011  0.04411489  0.61060074  1
  H+  H382  1  0.57335376  0.92863636  0.05599031  1
  H+  H383  1  0.84742063  0.91238993  0.08627545  1
  O2-  O384  1  0.07285289  0.15225981  0.14708933  1
  O2-  O385  1  0.05404479  0.12221584  0.46459861  1
  O2-  O386  1  0.07944414  0.15413530  0.80338888  1
  O2-  O387  1  0.06907333  0.41813027  0.13901808  1
  O2-  O388  1  0.07469911  0.37006282  0.46477632  1
  O2-  O389  1  0.07946131  0.41102353  0.83696799  1
  O2-  O390  1  0.07984671  0.64799105  0.12728937  1
  O2-  O391  1  0.06951786  0.65926002  0.48642794  1
  O2-  O392  1  0.08022511  0.66963611  0.81825629  1
  O2-  O393  1  0.08089130  0.91727830  0.14125465  1
  O2-  O394  1  0.07794969  0.91034281  0.48518003  1
  O2-  O395  1  0.08661291  0.92876776  0.81552412  1
  O2-  O396  1  0.33129711  0.16021856  0.14186765  1
  O2-  O397  1  0.30689481  0.14655519  0.47908513  1
  O2-  O398  1  0.33370514  0.16878857  0.81406401  1
  O2-  O399  1  0.35057175  0.42399475  0.13754012  1
  O2-  O400  1  0.34144197  0.42657517  0.48008120  1
  O2-  O401  1  0.33556479  0.41478591  0.81426954  1
  O2-  O402  1  0.33470770  0.66747548  0.13760237  1
  O2-  O403  1  0.29229373  0.62585934  0.47746547  1
  O2-  O404  1  0.32816206  0.66509679  0.80237233  1
  O2-  O405  1  0.32676824  0.92086566  0.13745663  1
  O2-  O406  1  0.32199712  0.90119119  0.47804230  1
  O2-  O407  1  0.32384194  0.92610732  0.81421446  1
  O2-  O408  1  0.58155962  0.17444782  0.14592715  1
  O2-  O409  1  0.59017156  0.17473473  0.48320711  1
  O2-  O410  1  0.58763540  0.18057150  0.80293162  1
  O2-  O411  1  0.60350219  0.43556411  0.13731536  1
  O2-  O412  1  0.61585550  0.44710827  0.46225873  1
  O2-  O413  1  0.57789573  0.40070807  0.82437719  1
  O2-  O414  1  0.58229270  0.66283887  0.13166323  1
  O2-  O415  1  0.58524737  0.67608779  0.47673188  1
  O2-  O416  1  0.57919294  0.66264011  0.85270598  1
  O2-  O417  1  0.55406738  0.96090165  0.13192457  1
  O2-  O418  1  0.59757359  0.94697857  0.50685831  1
  O2-  O419  1  0.59191962  0.92145911  0.80984010  1
  O2-  O420  1  0.82075542  0.19022376  0.14959396  1
  O2-  O421  1  0.84581734  0.17322564  0.47295578  1
  O2-  O422  1  0.83618833  0.15597479  0.81013825  1
  O2-  O423  1  0.83836060  0.44536426  0.14212544  1
  O2-  O424  1  0.87596534  0.44572416  0.51141007  1
  O2-  O425  1  0.84053238  0.40972545  0.81158450  1
  O2-  O426  1  0.83622036  0.66952625  0.15023911  1
  O2-  O427  1  0.83379942  0.67069137  0.48795847  1
  O2-  O428  1  0.84731548  0.66300202  0.80837503  1
  O2-  O429  1  0.83740165  0.90332553  0.13048965  1
  O2-  O430  1  0.83641076  0.91587043  0.49015145  1
  O2-  O431  1  0.83618032  0.91344929  0.81847830  1
  O2-  O432  1  0.16888806  0.08140987  0.18909416  1
  O2-  O433  1  0.15207122  0.06929085  0.52654972  1
  O2-  O434  1  0.16611155  0.08549846  0.85295704  1
  O2-  O435  1  0.13793935  0.32497358  0.17258298  1
  O2-  O436  1  0.20257840  0.40922801  0.54257185  1
  O2-  O437  1  0.16642589  0.31764815  0.85093094  1
  O2-  O438  1  0.17054538  0.58156769  0.18154032  1
  O2-  O439  1  0.13712752  0.57890652  0.53374725  1
  O2-  O440  1  0.16482221  0.59011647  0.84644113  1
  O2-  O441  1  0.15324904  0.82536199  0.16729319  1
  O2-  O442  1  0.15475714  0.82282910  0.52116619  1
  O2-  O443  1  0.15979043  0.83664047  0.85821819  1
  O2-  O444  1  0.41484535  0.08245512  0.19063001  1
  O2-  O445  1  0.38707256  0.06109309  0.51559355  1
  O2-  O446  1  0.42095835  0.08934231  0.85140908  1
  O2-  O447  1  0.43768238  0.34273011  0.16243922  1
  O2-  O448  1  0.38190456  0.31784721  0.52255449  1
  O2-  O449  1  0.41835012  0.33254850  0.85218196  1
  O2-  O450  1  0.42314123  0.59053572  0.18239057  1
  O2-  O451  1  0.42238388  0.58637347  0.52317908  1
  O2-  O452  1  0.40783192  0.58051636  0.84965530  1
  O2-  O453  1  0.40759889  0.83282265  0.17323982  1
  O2-  O454  1  0.42851318  0.84657051  0.53475801  1
  O2-  O455  1  0.38972310  0.83163580  0.85037266  1
  O2-  O456  1  0.66479550  0.09714453  0.20257418  1
  O2-  O457  1  0.69791279  0.11878679  0.51860058  1
  O2-  O458  1  0.66833171  0.09142459  0.84221458  1
  O2-  O459  1  0.67286861  0.34574724  0.18053106  1
  O2-  O460  1  0.69038569  0.35817851  0.51772625  1
  O2-  O461  1  0.68029847  0.33431005  0.85691774  1
  O2-  O462  1  0.68453203  0.62516885  0.20372661  1
  O2-  O463  1  0.67643686  0.59912790  0.53345453  1
  O2-  O464  1  0.67544246  0.57477321  0.84895875  1
  O2-  O465  1  0.66228995  0.83979100  0.12829217  1
  O2-  O466  1  0.66801338  0.83598090  0.53106165  1
  O2-  O467  1  0.67316242  0.83830422  0.85729318  1
  O2-  O468  1  0.91236964  0.04739195  0.19639912  1
  O2-  O469  1  0.91001004  0.08199676  0.52305410  1
  O2-  O470  1  0.91587779  0.06640555  0.83895862  1
  O2-  O471  1  0.90776662  0.35125460  0.18513171  1
  O2-  O472  1  0.92924679  0.32904449  0.52966337  1
  O2-  O473  1  0.91642426  0.32281815  0.84887546  1
  O2-  O474  1  0.92344136  0.60367281  0.19956416  1
  O2-  O475  1  0.98239401  0.67482225  0.58210472  1
  O2-  O476  1  0.91454464  0.57553179  0.85457502  1
  O2-  O477  1  0.92277764  0.83111394  0.18659811  1
  O2-  O478  1  0.91388451  0.83502521  0.53325723  1
  O2-  O479  1  0.86849873  0.80485369  0.86579504  1
  O2-  O480  1  0.16651075  0.08591357  0.31312321  1
  O2-  O481  1  0.16929767  0.08674960  0.64934410  1
  O2-  O482  1  0.16608381  0.08123667  0.97482975  1
  O2-  O483  1  0.17455097  0.34675193  0.30035290  1
  O2-  O484  1  0.16785374  0.33709269  0.64950116  1
  O2-  O485  1  0.15991490  0.32782662  0.97428360  1
  O2-  O486  1  0.16955847  0.59059872  0.30601797  1
  O2-  O487  1  0.15932755  0.58276057  0.65683225  1
  O2-  O488  1  0.16793135  0.58255693  0.97000964  1
  O2-  O489  1  0.17038972  0.84013412  0.32800714  1
  O2-  O490  1  0.16027612  0.83032815  0.64991958  1
  O2-  O491  1  0.16419196  0.82981244  0.98239670  1
  O2-  O492  1  0.41122599  0.08071787  0.31737560  1
  O2-  O493  1  0.40092712  0.08083172  0.64006819  1
  O2-  O494  1  0.42755282  0.08777567  0.97507062  1
  O2-  O495  1  0.40748854  0.32995788  0.33314769  1
  O2-  O496  1  0.41188487  0.33056323  0.64561613  1
  O2-  O497  1  0.45156994  0.39735186  0.95897048  1
  O2-  O498  1  0.42094533  0.58603103  0.30762331  1
  O2-  O499  1  0.39769724  0.58115443  0.64748405  1
  O2-  O500  1  0.41176464  0.58520981  0.97392920  1
  O2-  O501  1  0.39224716  0.82506235  0.29639440  1
  O2-  O502  1  0.42346543  0.81976173  0.65750290  1
  O2-  O503  1  0.41670536  0.83798733  0.97724092  1
  O2-  O504  1  0.65164016  0.09968954  0.31976780  1
  O2-  O505  1  0.66370311  0.07053129  0.64573515  1
  O2-  O506  1  0.66531721  0.08859709  0.96987591  1
  O2-  O507  1  0.65276289  0.31847048  0.30892281  1
  O2-  O508  1  0.63181371  0.28260690  0.70000392  1
  O2-  O509  1  0.69359317  0.34919023  0.98111719  1
  O2-  O510  1  0.66103178  0.56572290  0.32143674  1
  O2-  O511  1  0.68979722  0.58849334  0.65715358  1
  O2-  O512  1  0.68083745  0.59054835  0.97469794  1
  O2-  O513  1  0.68679421  0.75218013  0.26739913  1
  O2-  O514  1  0.66767238  0.82280322  0.65007240  1
  O2-  O515  1  0.66061204  0.83475416  0.98792189  1
  O2-  O516  1  0.93826860  0.08709460  0.32163914  1
  O2-  O517  1  0.91201372  0.08394296  0.64304314  1
  O2-  O518  1  0.92005249  0.10002877  0.99140218  1
  O2-  O519  1  0.91697323  0.34392174  0.31208422  1
  O2-  O520  1  0.91369704  0.32067961  0.65303653  1
  O2-  O521  1  0.91646486  0.33323049  0.96649424  1
  O2-  O522  1  0.92563459  0.59344005  0.32668927  1
  O2-  O523  1  0.94996291  0.59874853  0.62073476  1
  O2-  O524  1  0.89824134  0.55694367  0.98611624  1
  O2-  O525  1  0.91971706  0.82824154  0.31349831  1
  O2-  O526  1  0.91535107  0.82596420  0.65099772  1
  O2-  O527  1  0.92925576  0.81893070  0.98804807  1
  O2-  O528  1  0.08418265  0.16748210  0.02000896  1
  O2-  O529  1  0.10734948  0.18896989  0.34903782  1
  O2-  O530  1  0.08060255  0.16716806  0.67983171  1
  O2-  O531  1  0.08429400  0.41841070  0.01672482  1
  O2-  O532  1  0.08762748  0.42650458  0.34393656  1
  O2-  O533  1  0.08076598  0.41752387  0.69812638  1
  O2-  O534  1  0.07968508  0.66138380  0.00856751  1
  O2-  O535  1  0.09629967  0.67063519  0.36417235  1
  O2-  O536  1  0.08435896  0.67300078  0.69625914  1
  O2-  O537  1  0.09044121  0.92112401  0.01859011  1
  O2-  O538  1  0.08119151  0.91986846  0.36108474  1
  O2-  O539  1  0.08353293  0.91896420  0.69130038  1
  O2-  O540  1  0.33676292  0.15815644  0.01360343  1
  O2-  O541  1  0.32497000  0.15413884  0.36301128  1
  O2-  O542  1  0.33496446  0.17170234  0.69017950  1
  O2-  O543  1  0.32762142  0.41803391  0.01187480  1
  O2-  O544  1  0.33516785  0.42128474  0.34967909  1
  O2-  O545  1  0.33307827  0.41832942  0.68895376  1
  O2-  O546  1  0.33221853  0.66913752  0.01335251  1
  O2-  O547  1  0.32997934  0.66974579  0.34538448  1
  O2-  O548  1  0.33374876  0.66895678  0.68296332  1
  O2-  O549  1  0.33502850  0.92201373  0.01393292  1
  O2-  O550  1  0.32820097  0.91947238  0.35677239  1
  O2-  O551  1  0.31627347  0.91683381  0.68998066  1
  O2-  O552  1  0.59077367  0.17523992  0.01698575  1
  O2-  O553  1  0.56435582  0.16123432  0.36077215  1
  O2-  O554  1  0.56493931  0.15537267  0.60550902  1
  O2-  O555  1  0.60038655  0.42619178  0.01217258  1
  O2-  O556  1  0.57546263  0.40821953  0.33278130  1
  O2-  O557  1  0.57762041  0.41220934  0.66810873  1
  O2-  O558  1  0.57799047  0.66216730  0.00788082  1
  O2-  O559  1  0.58339464  0.64952681  0.35720155  1
  O2-  O560  1  0.61351989  0.66981681  0.69291799  1
  O2-  O561  1  0.57698858  0.91782673  0.01233902  1
  O2-  O562  1  0.62566322  0.96083076  0.38130570  1
  O2-  O563  1  0.57722933  0.90175829  0.69551631  1
  O2-  O564  1  0.82389513  0.17437154  0.02009553  1
  O2-  O565  1  0.84700736  0.17071505  0.35279213  1
  O2-  O566  1  0.82394355  0.15575307  0.68796019  1
  O2-  O567  1  0.85967051  0.47417696  0.01901932  1
  O2-  O568  1  0.85996830  0.44269831  0.38123218  1
  O2-  O569  1  0.80193241  0.38536487  0.68890251  1
  O2-  O570  1  0.83702407  0.65597620  0.02745653  1
  O2-  O571  1  0.83701866  0.66793732  0.35903001  1
  O2-  O572  1  0.84689519  0.67526252  0.69558112  1
  O2-  O573  1  0.83128869  0.91278384  0.00362108  1
  O2-  O574  1  0.85981583  0.91878591  0.36632685  1
  O2-  O575  1  0.84294328  0.92426276  0.67083569  1
