# generated using pymatgen
data_H2O
_symmetry_space_group_name_H-M   'P 1'
_cell_length_a   18.00622598
_cell_length_b   17.99574079
_cell_length_c   22.00909902
_cell_angle_alpha   89.99739655
_cell_angle_beta   90.02240388
_cell_angle_gamma   120.01108058
_symmetry_Int_Tables_number   1
_chemical_formula_structural   H2O
_chemical_formula_sum   'H384 O192'
_cell_volume   6175.56616971
_cell_formula_units_Z   192
loop_
 _symmetry_equiv_pos_site_id
 _symmetry_equiv_pos_as_xyz
  1  'x, y, z'
loop_
 _atom_type_symbol
 _atom_type_oxidation_number
  H+  1.0
  O2-  -2.0
loop_
 _atom_site_type_symbol
 _atom_site_label
 _atom_site_symmetry_multiplicity
 _atom_site_fract_x
 _atom_site_fract_y
 _atom_site_fract_z
 _atom_site_occupancy
  H+  H0  1  0.14607193  0.53320132  0.66300453  1
  H+  H1  1  0.84593227  0.39940320  0.48996061  1
  H+  H2  1  0.75357753  0.88717148  1.00364948  1
  H+  H3  1  0.39042387  0.36632626  0.32774202  1
  H+  H4  1  0.61572224  0.09855910  0.16824130  1
  H+  H5  1  0.43425535  0.58529670  0.60145700  1
  H+  H6  1  0.02404742  0.63417888  0.67446542  1
  H+  H7  1  0.89312740  0.12537190  0.49974546  1
  H+  H8  1  0.61802207  0.49122493  0.15954204  1
  H+  H9  1  0.23291306  0.61650413  1.00052706  1
  H+  H10  1  0.78827184  0.89951721  0.16423030  1
  H+  H11  1  0.87785061  0.26621057  0.31602505  1
  H+  H12  1  0.86285789  0.19254204  0.32871020  1
  H+  H13  1  0.52208668  0.39686616  0.34022334  1
  H+  H14  1  0.91807900  0.34260080  0.55019959  1
  H+  H15  1  0.48324723  0.61375704  0.16425604  1
  H+  H16  1  0.31153769  0.39142319  0.82693404  1
  H+  H17  1  0.39802684  0.81039658  0.66115037  1
  H+  H18  1  0.91261702  0.64353887  0.84403651  1
  H+  H19  1  0.85678768  0.90225714  0.67674035  1
  H+  H20  1  0.63183083  0.88220834  0.48583884  1
  H+  H21  1  0.14092656  0.76583994  0.66021424  1
  H+  H22  1  0.60470756  0.12599592  0.66939448  1
  H+  H23  1  0.60863646  0.39197603  0.49445447  1
  H+  H24  1  0.03335769  0.14736969  0.49517875  1
  H+  H25  1  0.63166521  0.85311509  0.84125313  1
  H+  H26  1  0.42048131  0.82411916  0.28264322  1
  H+  H27  1  0.87967818  0.62337476  0.50829899  1
  H+  H28  1  0.95135160  0.10895659  0.65943750  1
  H+  H29  1  0.90842628  0.27479940  0.64257343  1
  H+  H30  1  0.69799851  0.34686382  0.18296834  1
  H+  H31  1  0.87288660  0.62416502  0.68199539  1
  H+  H32  1  0.88911583  0.34809787  0.99054945  1
  H+  H33  1  0.77597427  0.15092088  0.48756683  1
  H+  H34  1  0.13618182  0.10840666  0.33074086  1
  H+  H35  1  0.15884603  0.36620789  0.66645751  1
  H+  H36  1  0.10370690  0.95717127  0.64199065  1
  H+  H37  1  0.15027750  0.36283397  0.32551830  1
  H+  H38  1  0.11789545  0.63436006  0.01012765  1
  H+  H39  1  0.77229540  0.40985553  0.09619990  1
  H+  H40  1  0.23276107  0.61125801  0.50295751  1
  H+  H41  1  0.87943230  0.76404380  0.18568898  1
  H+  H42  1  0.63978208  0.35606979  0.83248614  1
  H+  H43  1  0.23176131  0.11485405  0.50251555  1
  H+  H44  1  0.15016488  0.27964129  0.50629152  1
  H+  H45  1  0.59903577  0.22343086  0.32814671  1
  H+  H46  1  0.36986627  0.73643236  1.01322115  1
  H+  H47  1  0.62797653  0.26537920  0.65391991  1
  H+  H48  1  0.36120085  -0.01284871  0.66200224  1
  H+  H49  1  0.40829065  0.52751215  0.66097742  1
  H+  H50  1  0.53259830  0.63599678  0.67252503  1
  H+  H51  1  0.86514378  0.73759970  0.49586413  1
  H+  H52  1  0.14003404  0.61152917  0.84416228  1
  H+  H53  1  0.88302921  0.51203903  0.66306453  1
  H+  H54  1  0.10400148  0.48158751  0.83721407  1
  H+  H55  1  0.76253868  0.88792466  0.67799311  1
  H+  H56  1  0.85885212  0.79827001  0.62579125  1
  H+  H57  1  0.38208675  0.14527195  0.03039987  1
  H+  H58  1  0.72482733  0.85531273  0.84238237  1
  H+  H59  1  0.27452625  0.13491219  0.33060364  1
  H+  H60  1  0.16793290  0.17481431  0.81201978  1
  H+  H61  1  0.87661394  0.36298798  0.31862137  1
  H+  H62  1  0.86095139  0.21883623  0.00427887  1
  H+  H63  1  0.59820221  0.63087588  0.83282678  1
  H+  H64  1  0.95947645  0.86195570  0.64164309  1
  H+  H65  1  -0.00596336  0.37857423  0.15694704  1
  H+  H66  1  0.14327695  0.61354378  0.32721230  1
  H+  H67  1  0.57096891  0.15953849  0.41834374  1
  H+  H68  1  0.87063871  -0.01294904  0.48090264  1
  H+  H69  1  0.27243889  0.39435083  0.15398122  1
  H+  H70  1  0.36634045  0.64440143  0.82019777  1
  H+  H71  1  0.63055674  0.75456478  0.83394326  1
  H+  H72  1  0.27745569  0.15162160  0.66904858  1
  H+  H73  1  0.52713982  0.38203885  0.01161763  1
  H+  H74  1  0.64603955  0.86686770  0.17956595  1
  H+  H75  1  0.58781217  0.21644947  0.16742849  1
  H+  H76  1  -0.04010753  0.86337889  0.01001346  1
  H+  H77  1  0.38030694  0.38583949  0.67309581  1
  H+  H78  1  0.91188406  0.57682209  0.60542674  1
  H+  H79  1  0.92959522  0.06830815  0.27455124  1
  H+  H80  1  0.07239186  0.19226766  0.83207799  1
  H+  H81  1  0.47561258  0.62714165  0.83794967  1
  H+  H82  1  0.39959753  0.53353307  0.83522542  1
  H+  H83  1  0.08557890  0.15905179  0.68510930  1
  H+  H84  1  0.41436088  0.15495694  0.84764518  1
  H+  H85  1  0.52777331  0.39843166  0.16159676  1
  H+  H86  1  0.12759040  0.48671118  0.33546348  1
  H+  H87  1  0.52475999  0.37144918  0.82922054  1
  H+  H88  1  0.34208271  0.41433362  0.39585814  1
  H+  H89  1  0.61656528  0.98224901  0.33467590  1
  H+  H90  1  0.13586214  0.85109815  0.64755209  1
  H+  H91  1  0.90425444  1.02481948  0.17879776  1
  H+  H92  1  0.57468133  0.15271085  0.07703695  1
  H+  H93  1  0.39017031  0.27791070  1.00793510  1
  H+  H94  1  0.14329706  0.27354827  0.17250856  1
  H+  H95  1  0.38241945  0.63534293  1.01600526  1
  H+  H96  1  0.38229871  0.15156354  0.13306503  1
  H+  H97  1  0.28291596  0.87626236  0.48654142  1
  H+  H98  1  0.09799133  -0.03510704  0.17091232  1
  H+  H99  1  0.02004260  0.83330052  0.78690637  1
  H+  H100  1  0.86195572  0.01698913  0.85066182  1
  H+  H101  1  0.48653020  0.84991334  0.49445419  1
  H+  H102  1  0.61211204  0.12415231  0.02061014  1
  H+  H103  1  0.25229902  0.84377833  0.86698518  1
  H+  H104  1  0.09844594  0.87648345  0.02287268  1
  H+  H105  1  0.71165731  0.10637676  0.32323057  1
  H+  H106  1  -0.02109574  0.11822504  -0.00027835  1
  H+  H107  1  0.42069661  0.33653168  0.26884714  1
  H+  H108  1  0.48381211  0.35826511  0.65812163  1
  H+  H109  1  0.91218655  0.76673734  0.82993380  1
  H+  H110  1  0.85837220  0.63735715  0.16267954  1
  H+  H111  1  0.36257100  0.71693252  0.49514456  1
  H+  H112  1  0.02759276  0.63426702  0.01334866  1
  H+  H113  1  0.27837637  0.64384798  0.82939017  1
  H+  H114  1  0.53384726  0.88689367  0.67469888  1
  H+  H115  1  0.88909017  0.54815430  0.33592397  1
  H+  H116  1  0.18275225  0.13673930  0.59636021  1
  H+  H117  1  0.26670544  0.89873095  0.17071254  1
  H+  H118  1  0.84840021  0.40476133  0.33795648  1
  H+  H119  1  0.10994077  0.97219220  0.33911598  1
  H+  H120  1  0.04535794  0.34489775  0.47817719  1
  H+  H121  1  0.35851147  0.39242389  0.15130802  1
  H+  H122  1  0.86700255  0.12747213  1.00797452  1
  H+  H123  1  0.87359670  0.90113582  0.47250764  1
  H+  H124  1  0.99402985  0.86967564  0.49415063  1
  H+  H125  1  0.36599675  1.02350031  0.18532884  1
  H+  H126  1  0.02635234  0.12788495  0.34423309  1
  H+  H127  1  0.26775503  0.88707683  0.01837111  1
  H+  H128  1  0.01680882  0.60265721  0.81867352  1
  H+  H129  1  0.88536443  0.08022461  0.33246264  1
  H+  H130  1  0.70953438  0.36143223  0.49911750  1
  H+  H131  1  0.73173988  0.61126968  0.67371382  1
  H+  H132  1  0.53559059  0.65149660  0.49980636  1
  H+  H133  1  0.70716029  0.10008199  0.85280363  1
  H+  H134  1  0.53400502  0.14876468  0.83237991  1
  H+  H135  1  0.86230432  0.01972988  0.65824476  1
  H+  H136  1  0.82603815  0.91628824  0.77509996  1
  H+  H137  1  0.12574981  0.38895058  0.99986579  1
  H+  H138  1  0.84362791  0.22415968  0.83404207  1
  H+  H139  1  0.38803661  0.60165974  0.32808559  1
  H+  H140  1  0.85490148  0.43485576  0.06222804  1
  H+  H141  1  0.87755177  0.35850105  0.84472473  1
  H+  H142  1  0.40194994  0.85674617  0.49730895  1
  H+  H143  1  0.97119950  0.36139309  0.30508230  1
  H+  H144  1  0.27844472  0.62955236  0.34351903  1
  H+  H145  1  0.62668274  0.00501664  0.85097293  1
  H+  H146  1  0.61050534  0.61774682  0.14115117  1
  H+  H147  1  0.88058129  0.71261317  0.67053630  1
  H+  H148  1  0.28368018  0.11672333  0.82423280  1
  H+  H149  1  0.62123963  0.72666215  0.67217032  1
  H+  H150  1  0.51651261  0.13176468  0.48028635  1
  H+  H151  1  0.17624058  0.82192805  0.56318755  1
  H+  H152  1  0.38376595  0.85989412  0.00523843  1
  H+  H153  1  0.27199746  0.68297988  0.68052743  1
  H+  H154  1  0.96528904  0.35809081  0.84291328  1
  H+  H155  1  0.64709182  0.27093238  0.82724140  1
  H+  H156  1  0.62256685  0.65068087  0.50476276  1
  H+  H157  1  0.04042733  0.92908536  0.78577007  1
  H+  H158  1  0.37903391  0.27068148  0.15738766  1
  H+  H159  1  0.39139690  0.26769069  0.50138491  1
  H+  H160  1  0.84618565  -0.03055283  1.00516372  1
  H+  H161  1  0.14777869  0.85532356  0.50416314  1
  H+  H162  1  0.13279664  0.77035748  1.01492562  1
  H+  H163  1  0.48943069  0.85824177  0.19181439  1
  H+  H164  1  0.13916734  0.52236393  0.50430550  1
  H+  H165  1  0.12941333  0.62962203  0.49398976  1
  H+  H166  1  0.57329070  0.15352719  0.72771496  1
  H+  H167  1  0.03037445  0.63424753  0.16100373  1
  H+  H168  1  0.48998600  0.21678479  0.89024803  1
  H+  H169  1  0.84237224  0.48624179  0.49230612  1
  H+  H170  1  0.88689126  0.52790354  0.14292873  1
  H+  H171  1  0.61956658  0.36511508  0.17756798  1
  H+  H172  1  0.77027014  0.38356965  0.82743054  1
  H+  H173  1  0.83866486  0.41771625  -0.06454423  1
  H+  H174  1  0.51456013  0.13634688  0.31153546  1
  H+  H175  1  0.03172542  0.13589092  0.16477271  1
  H+  H176  1  0.88708003  0.53179154  0.99470472  1
  H+  H177  1  0.04383272  0.39549264  0.67253113  1
  H+  H178  1  0.62196350  0.27069151  0.49302499  1
  H+  H179  1  0.62013573  -0.03497144  0.48402976  1
  H+  H180  1  0.64191447  0.35694595  1.01398064  1
  H+  H181  1  0.09015164  0.73862110  0.86122797  1
  H+  H182  1  0.23755255  0.36720881  0.98860144  1
  H+  H183  1  0.12700286  0.39023650  0.15820406  1
  H+  H184  1  0.03958168  0.39460946  0.32974581  1
  H+  H185  1  0.96019094  0.38193449  0.48754277  1
  H+  H186  1  0.86466748  0.65612517  0.35696975  1
  H+  H187  1  0.31284164  0.27318459  0.20212004  1
  H+  H188  1  0.38216201  0.10987887  0.65375437  1
  H+  H189  1  0.26785413  0.88457180  0.66835979  1
  H+  H190  1  0.90401173  0.37087848  0.14283916  1
  H+  H191  1  0.39198772  0.52977607  0.16747715  1
  H+  H192  1  0.64049901  0.53208474  0.51555133  1
  H+  H193  1  0.76717866  0.38441568  0.67019098  1
  H+  H194  1  0.35959624  0.98845799  0.31210863  1
  H+  H195  1  0.91057069  0.11742051  0.18468167  1
  H+  H196  1  0.50039998  0.12803595  0.16932083  1
  H+  H197  1  0.40050526  0.52485578  0.50360913  1
  H+  H198  1  0.63008426  0.51705775  0.00448748  1
  H+  H199  1  0.37138588  0.84257246  0.33428388  1
  H+  H200  1  0.11855785  0.13825166  1.01066448  1
  H+  H201  1  0.65849699  0.91646019  0.33024969  1
  H+  H202  1  0.12953056  0.72733791  0.49591630  1
  H+  H203  1  0.37137806  0.40087903  0.00228444  1
  H+  H204  1  0.14871343  0.52565966  0.17287882  1
  H+  H205  1  0.63991619  0.13737077  0.50164628  1
  H+  H206  1  0.85406574  0.64151000  0.01608665  1
  H+  H207  1  0.37625168  0.38536431  0.49063027  1
  H+  H208  1  0.86084356  0.13669396  0.66894807  1
  H+  H209  1  0.89046555  0.23821346  0.16172204  1
  H+  H210  1  0.38941607  0.60712616  0.50713510  1
  H+  H211  1  0.61609230  0.47391975  0.67606837  1
  H+  H212  1  0.11462681  0.63741018  0.67356357  1
  H+  H213  1  0.85864865  0.47574966  0.82854222  1
  H+  H214  1  0.84785874  0.09844137  0.85400652  1
  H+  H215  1  0.09709817  0.39077269  0.83693921  1
  H+  H216  1  0.16294357  0.37477669  0.50635428  1
  H+  H217  1  0.47873056  0.36002762  0.50534187  1
  H+  H218  1  0.97463646  0.15623338  0.83278940  1
  H+  H219  1  0.21244934  0.09530705  0.17234540  1
  H+  H220  1  0.76513821  0.12136500  0.00530698  1
  H+  H221  1  0.60528226  0.38661379  0.34464136  1
  H+  H222  1  0.61720434  0.97255496  0.16308890  1
  H+  H223  1  0.62194172  0.10720389  0.32053016  1
  H+  H224  1  0.38188738  0.53524858  1.00310805  1
  H+  H225  1  0.22204369  0.86892012  0.32393190  1
  H+  H226  1  0.60261195  0.11685055  0.82840074  1
  H+  H227  1  0.11516371  0.21977476  0.34004544  1
  H+  H228  1  0.14484993  0.52621265  0.99703956  1
  H+  H229  1  0.36434642  0.12959557  0.48491239  1
  H+  H230  1  0.71064126  0.36785414  0.32851879  1
  H+  H231  1  0.60080229  0.50997131  0.85189976  1
  H+  H232  1  0.37361426  0.64075983  0.16097075  1
  H+  H233  1  0.16110223  -0.01122315  0.85534600  1
  H+  H234  1  0.77243937  0.64778553  0.50482313  1
  H+  H235  1  -0.02116714  0.86315100  0.33135005  1
  H+  H236  1  0.10777235  0.88136078  0.33750299  1
  H+  H237  1  0.85754336  0.89063613  0.83746304  1
  H+  H238  1  0.22824744  0.43497947  0.82566927  1
  H+  H239  1  0.20442406  0.22154909  0.63189610  1
  H+  H240  1  0.10436853  0.42312878  0.09665566  1
  H+  H241  1  0.80673435  0.91761947  0.36489809  1
  H+  H242  1  0.97641101  0.89953904  0.87543851  1
  H+  H243  1  0.42813211  1.00439062  0.80526896  1
  H+  H244  1  0.76835820  0.37441380  -0.01089613  1
  H+  H245  1  0.71053455  0.61184532  1.00481141  1
  H+  H246  1  0.86989237  0.89098879  0.16952586  1
  H+  H247  1  0.63758764  0.86023996  0.65905039  1
  H+  H248  1  0.72867591  0.11805935  0.66473690  1
  H+  H249  1  0.28342352  0.63950715  0.16453110  1
  H+  H250  1  0.71374269  0.60850023  0.16237888  1
  H+  H251  1  0.74665838  0.58326790  0.80577242  1
  H+  H252  1  0.10744638  0.96922115  0.02550269  1
  H+  H253  1  0.74012630  0.87308708  0.49876265  1
  H+  H254  1  0.03543287  0.64747634  0.35125721  1
  H+  H255  1  0.52740593  0.87315421  0.83486884  1
  H+  H256  1  0.40425443  0.35865917  0.84626272  1
  H+  H257  1  0.97279037  0.85357834  0.18637998  1
  H+  H258  1  0.29051104  0.38923795  0.49207651  1
  H+  H259  1  0.03436614  0.38289695  0.00407111  1
  H+  H260  1  0.71090063  0.19336257  0.54780808  1
  H+  H261  1  0.65028619  0.78152046  0.50496958  1
  H+  H262  1  0.39009427  0.01558692  0.50010475  1
  H+  H263  1  0.38592553  0.26230069  0.84371875  1
  H+  H264  1  0.42426660  0.09998862  0.95005735  1
  H+  H265  1  0.74934256  0.61227150  0.83140449  1
  H+  H266  1  0.12712934  0.13281961  0.81912344  1
  H+  H267  1  0.12605168  0.73319944  0.34501701  1
  H+  H268  1  0.10939116  0.83272841  0.85487163  1
  H+  H269  1  0.17082182  0.33794461  0.80692677  1
  H+  H270  1  0.48025164  0.10914077  1.00785696  1
  H+  H271  1  0.26452875  0.81716904  0.88660330  1
  H+  H272  1  0.16860061  0.58759599  0.60148443  1
  H+  H273  1  0.13037666  -0.02318944  0.49445665  1
  H+  H274  1  0.61405115  0.38362010  0.67079504  1
  H+  H275  1  0.36713235  0.47275869  0.33474370  1
  H+  H276  1  0.64288960  0.26716232  0.01687580  1
  H+  H277  1  0.64483397  0.61619373  0.67076718  1
  H+  H278  1  0.66124453  0.06801275  0.94407639  1
  H+  H279  1  0.23834055  0.11218328  1.02252857  1
  H+  H280  1  0.62417938  -0.02866839  0.68293452  1
  H+  H281  1  0.38102008  0.11912293  0.28460571  1
  H+  H282  1  0.46956156  0.61239482  0.02985765  1
  H+  H283  1  0.41047928  0.86839167  0.84274399  1
  H+  H284  1  0.64736281  0.01291941  1.00446716  1
  H+  H285  1  0.35732172  -0.02496737  1.01563514  1
  H+  H286  1  0.12016954  0.22735168  0.00370232  1
  H+  H287  1  0.36472533  0.22416948  0.33181068  1
  H+  H288  1  0.90657050  0.83831364  0.92094996  1
  H+  H289  1  0.86771043  0.86072107  1.00031483  1
  H+  H290  1  0.15964520  0.07637620  0.26948485  1
  H+  H291  1  0.08807469  0.16839117  0.10251200  1
  H+  H292  1  0.10042311  0.66917016  0.43095833  1
  H+  H293  1  0.14265326  0.11393151  0.50348218  1
  H+  H294  1  0.59092562  0.67166817  0.76598009  1
  H+  H295  1  0.82489988  0.41158638  0.73001625  1
  H+  H296  1  0.41902452  0.57705004  0.26757129  1
  H+  H297  1  0.65369258  0.78240792  0.19006919  1
  H+  H298  1  0.17535541  0.33319335  0.23194126  1
  H+  H299  1  0.03654247  0.17928207  0.73793355  1
  H+  H300  1  0.32716020  0.71647749  0.73989378  1
  H+  H301  1  0.13599938  0.76954773  0.17539467  1
  H+  H302  1  0.19308604  0.07497819  0.95922344  1
  H+  H303  1  0.58209279  0.42963011  0.43826907  1
  H+  H304  1  0.13214799  0.11051326  0.17119195  1
  H+  H305  1  0.60152255  0.91570348  0.39378364  1
  H+  H306  1  0.79753151  0.15897055  0.77858944  1
  H+  H307  1  0.23635098  0.35819790  0.32645618  1
  H+  H308  1  0.88969307  0.20591151  0.72082628  1
  H+  H309  1  0.86086986  0.23881695  0.47948894  1
  H+  H310  1  0.33394902  0.42471441  0.06013833  1
  H+  H311  1  0.58128234  0.40938939  0.76859106  1
  H+  H312  1  0.09202253  0.17223525  0.43582634  1
  H+  H313  1  0.12540027  0.85363324  0.17871196  1
  H+  H314  1  0.17269494  0.58651888  0.90490334  1
  H+  H315  1  0.36569490  0.71945879  0.34812331  1
  H+  H316  1  0.91714621  0.60074927  0.94419891  1
  H+  H317  1  0.67249699  0.58708846  0.57728087  1
  H+  H318  1  0.34403609  0.92499310  0.72479712  1
  H+  H319  1  0.09277743  0.66417334  0.10437462  1
  H+  H320  1  0.08667184  0.42712844  0.73769490  1
  H+  H321  1  0.96319254  0.61316565  0.50582649  1
  H+  H322  1  0.98765181  0.28928524  0.60601324  1
  H+  H323  1  0.73503428  0.60743418  0.33399364  1
  H+  H324  1  0.44400093  0.84296860  0.59686682  1
  H+  H325  1  0.65416006  0.32399048  0.59420535  1
  H+  H326  1  0.34189194  0.91441747  0.42797759  1
  H+  H327  1  0.82570725  0.15491357  0.39493207  1
  H+  H328  1  0.13882977  0.81827331  0.95474852  1
  H+  H329  1  0.67139116  0.08443079  0.60572395  1
  H+  H330  1  0.91499027  0.82677903  0.26339778  1
  H+  H331  1  0.42260727  0.32603689  0.59846907  1
  H+  H332  1  0.18012115  0.33767213  0.92909260  1
  H+  H333  1  0.82951551  0.67363342  0.10675730  1
  H+  H334  1  0.90202280  0.54421088  0.21172218  1
  H+  H335  1  0.64767630  0.59102565  0.23133433  1
  H+  H336  1  0.91665526  0.31585783  0.93458497  1
  H+  H337  1  0.64673711  0.33438445  0.27104272  1
  H+  H338  1  0.58653980  0.90524960  0.77363206  1
  H+  H339  1  0.14523298  0.61325657  0.17546217  1
  H+  H340  1  0.37221710  0.22607391  0.67049767  1
  H+  H341  1  0.39300244  0.77264705  0.84594893  1
  H+  H342  1  0.82616737  0.56904933  0.86615213  1
  H+  H343  1  0.91119758  0.08809890  0.56000094  1
  H+  H344  1  0.82177446  0.67821583  0.41166844  1
  H+  H345  1  0.58844487  0.60133057  1.04115351  1
  H+  H346  1  0.41771691  0.32366372  0.94275660  1
  H+  H347  1  0.32956344  0.93364897  0.11324262  1
  H+  H348  1  0.33038123  0.65574349  0.43618822  1
  H+  H349  1  0.82108944  0.43407953  0.40100358  1
  H+  H350  1  0.64005846  0.50547960  0.33074227  1
  H+  H351  1  0.08167439  0.65764696  0.76688194  1
  H+  H352  1  0.67424005  0.83911641  0.59784829  1
  H+  H353  1  0.65482899  0.07614736  0.22395011  1
  H+  H354  1  0.33695181  0.93297087  0.82635097  1
  H+  H355  1  0.18925791  0.34538404  0.60447766  1
  H+  H356  1  0.07583003  0.90318513  0.70339109  1
  H+  H357  1  0.10034644  0.91849476  0.43418341  1
  H+  H358  1  0.89675560  0.71159662  0.76708622  1
  H+  H359  1  0.91055549  0.08410384  0.94339688  1
  H+  H360  1  0.84968187  0.72808124  0.01586288  1
  H+  H361  1  0.92951152  0.62698675  0.28902690  1
  H+  H362  1  0.08496323  0.41353985  0.42544049  1
  H+  H363  1  0.29511338  0.39194347  0.67804333  1
  H+  H364  1  0.42061820  0.83402313  0.94766091  1
  H+  H365  1  0.33939364  0.67521901  0.07566532  1
  H+  H366  1  0.58547452  0.41417527  0.07135080  1
  H+  H367  1  0.41720089  0.07727424  0.55817808  1
  H+  H368  1  0.15434778  0.07133032  0.85870891  1
  H+  H369  1  0.92835161  0.86002529  0.54596778  1
  H+  H370  1  0.39949467  0.77413535  0.18803686  1
  H+  H371  1  0.17206716  0.58329151  0.26622354  1
  H+  H372  1  0.31221417  0.99448359  0.36793641  1
  H+  H373  1  0.06609494  0.90408956  0.11252431  1
  H+  H374  1  0.88054529  0.77728381  0.33613609  1
  H+  H375  1  0.47061378  0.10582073  0.65607218  1
  H+  H376  1  0.62056934  0.56705425  0.91230276  1
  H+  H377  1  0.83047287  0.15324339  0.12535370  1
  H+  H378  1  0.33515336  0.15947203  0.76131062  1
  H+  H379  1  0.71216308  0.88298040  0.26433824  1
  H+  H380  1  0.36843630  0.41956448  0.76732522  1
  H+  H381  1  0.33616501  0.16073445  0.42565781  1
  H+  H382  1  0.59011384  0.90195314  0.11097717  1
  H+  H383  1  0.15926530  0.82496892  0.26734319  1
  O2-  O384  1  0.09278028  0.16824228  0.14756834  1
  O2-  O385  1  0.09441645  0.17639087  0.48151571  1
  O2-  O386  1  0.02891341  0.20305609  0.81435101  1
  O2-  O387  1  0.10189161  0.42492940  0.14181987  1
  O2-  O388  1  0.07531947  0.40684813  0.47086147  1
  O2-  O389  1  0.06886922  0.42102611  0.82041390  1
  O2-  O390  1  0.09200061  0.66555529  0.15017328  1
  O2-  O391  1  0.09941241  0.66519705  0.47840391  1
  O2-  O392  1  0.07568226  0.64863185  0.81226405  1
  O2-  O393  1  0.06790159  0.90325699  0.15835699  1
  O2-  O394  1  0.10388469  0.91625836  0.47946312  1
  O2-  O395  1  0.06822119  0.89465665  0.78067844  1
  O2-  O396  1  0.39612981  0.20409680  0.10954195  1
  O2-  O397  1  0.33529615  0.16140391  0.47082513  1
  O2-  O398  1  0.33937644  0.15993783  0.80696915  1
  O2-  O399  1  0.33173990  0.42533440  0.13609318  1
  O2-  O400  1  0.34917294  0.41829297  0.47453326  1
  O2-  O401  1  0.37150463  0.42066364  0.81338409  1
  O2-  O402  1  0.34230954  0.67109452  0.14710446  1
  O2-  O403  1  0.32620086  0.65537308  0.48227174  1
  O2-  O404  1  0.33708539  0.67900768  0.81278992  1
  O2-  O405  1  0.32607982  0.94088943  0.15786575  1
  O2-  O406  1  0.34344010  0.91033287  0.47251775  1
  O2-  O407  1  0.38247445  0.94571896  0.79679823  1
  O2-  O408  1  0.55964229  0.15671564  0.15205296  1
  O2-  O409  1  0.57617443  0.16495173  0.46338185  1
  O2-  O410  1  0.57953660  0.14953757  0.80623018  1
  O2-  O411  1  0.58716580  0.42214424  0.14862340  1
  O2-  O412  1  0.58172907  0.42721380  0.48343660  1
  O2-  O413  1  0.58435349  0.40746078  0.81384058  1
  O2-  O414  1  0.57879805  0.64930649  0.12128952  1
  O2-  O415  1  0.59716011  0.68399005  0.48814498  1
  O2-  O416  1  0.58812664  0.67603160  0.81166846  1
  O2-  O417  1  0.59296955  0.90887490  0.15550599  1
  O2-  O418  1  0.59649325  0.90790130  0.46646751  1
  O2-  O419  1  0.58854689  0.90461507  0.81937473  1
  O2-  O420  1  0.86577030  0.17484872  0.16170931  1
  O2-  O421  1  0.83415457  0.17691029  0.46888080  1
  O2-  O422  1  0.80743843  0.16154873  0.82246544  1
  O2-  O423  1  0.83393386  0.43471748  0.10346917  1
  O2-  O424  1  0.81389425  0.42715807  0.47390233  1
  O2-  O425  1  0.83452770  0.41531357  0.81661962  1
  O2-  O426  1  0.83108487  0.67170905  0.15259177  1
  O2-  O427  1  0.83122060  0.67507226  0.48514272  1
  O2-  O428  1  0.93451165  0.73725642  0.80347836  1
  O2-  O429  1  0.84946243  0.92785396  0.15212435  1
  O2-  O430  1  0.83883529  0.92832359  0.46371635  1
  O2-  O431  1  0.82336536  0.91566356  0.82069451  1
  O2-  O432  1  0.15516441  0.07352706  0.18914163  1
  O2-  O433  1  0.17349817  0.08596855  0.52157698  1
  O2-  O434  1  0.18934635  0.04672351  0.87274749  1
  O2-  O435  1  0.17394285  0.33479714  0.18644699  1
  O2-  O436  1  0.18572413  0.33972623  0.52308105  1
  O2-  O437  1  0.19927187  0.37623461  0.84145771  1
  O2-  O438  1  0.17628230  0.58434266  0.19161386  1
  O2-  O439  1  0.16869201  0.58317422  0.51659545  1
  O2-  O440  1  0.16938704  0.58067004  0.85951079  1
  O2-  O441  1  0.16045393  0.82827087  0.19353218  1
  O2-  O442  1  0.17480771  0.82060606  0.51750664  1
  O2-  O443  1  0.09031088  0.78612992  0.88411910  1
  O2-  O444  1  0.39938149  0.09000504  0.20026131  1
  O2-  O445  1  0.41741604  0.07691485  0.51296162  1
  O2-  O446  1  0.45956185  0.15739177  0.87593949  1
  O2-  O447  1  0.37175150  0.30801133  0.18773301  1
  O2-  O448  1  0.41815785  0.32569703  0.52041000  1
  O2-  O449  1  0.42244737  0.31853556  0.86392110  1
  O2-  O450  1  0.42541743  0.58924288  0.18360232  1
  O2-  O451  1  0.42595229  0.58365588  0.52114476  1
  O2-  O452  1  0.41356677  0.59215707  0.84637894  1
  O2-  O453  1  0.43128112  0.82931430  0.20987430  1
  O2-  O454  1  0.42825179  0.82343020  0.51259771  1
  O2-  O455  1  0.43028898  0.83273245  0.86282223  1
  O2-  O456  1  0.65118180  0.07271158  0.17924820  1
  O2-  O457  1  0.68552769  0.13704001  0.52831709  1
  O2-  O458  1  0.64746644  0.06393598  0.86814255  1
  O2-  O459  1  0.63917741  0.32519367  0.19642496  1
  O2-  O460  1  0.64944852  0.32728508  0.51434166  1
  O2-  O461  1  0.67413776  0.32877146  0.84527728  1
  O2-  O462  1  0.65181030  0.57741945  0.17190188  1
  O2-  O463  1  0.67452535  0.59153598  0.53196841  1
  O2-  O464  1  0.59715911  0.55796170  0.87049552  1
  O2-  O465  1  0.68316039  0.84404572  0.19759480  1
  O2-  O466  1  0.68130034  0.84518234  0.51729939  1
  O2-  O467  1  0.66212282  0.82012400  0.85435251  1
  O2-  O468  1  0.93995869  0.08467131  0.19665136  1
  O2-  O469  1  0.92299666  0.09570631  0.51546654  1
  O2-  O470  1  0.88562327  0.07618143  0.86783866  1
  O2-  O471  1  0.93232240  0.34893261  0.16919010  1
  O2-  O472  1  0.90359464  0.34782807  0.50711515  1
  O2-  O473  1  0.90507721  0.32455148  0.85863836  1
  O2-  O474  1  0.91443699  0.57550385  0.17348442  1
  O2-  O475  1  0.90461879  0.58631588  0.52169804  1
  O2-  O476  1  0.88725319  0.58687586  0.86552451  1
  O2-  O477  1  0.91276317  0.82366072  0.20457741  1
  O2-  O478  1  0.93166639  0.84589485  0.50304583  1
  O2-  O479  1  0.91781271  0.85116333  0.87515997  1
  O2-  O480  1  0.16466075  0.07633896  0.31457304  1
  O2-  O481  1  0.18894170  0.16149250  0.63786028  1
  O2-  O482  1  0.18171206  0.08161681  1.00210664  1
  O2-  O483  1  0.17530380  0.32828549  0.31077679  1
  O2-  O484  1  0.19225614  0.34135667  0.64927353  1
  O2-  O485  1  0.17620117  0.33376188  0.97356796  1
  O2-  O486  1  0.16955825  0.57992053  0.31231568  1
  O2-  O487  1  0.16756752  0.59189518  0.64617026  1
  O2-  O488  1  0.17355700  0.58739961  0.98348784  1
  O2-  O489  1  0.16115092  0.82759895  0.31354624  1
  O2-  O490  1  0.17313551  0.82541136  0.64136273  1
  O2-  O491  1  0.15460411  0.82962035  0.99864379  1
  O2-  O492  1  0.41028950  0.08870939  0.26715793  1
  O2-  O493  1  0.40993361  0.07628856  0.63945706  1
  O2-  O494  1  0.41926996  0.08784451  0.99412645  1
  O2-  O495  1  0.42390201  0.33719065  0.31357899  1
  O2-  O496  1  0.42248210  0.32531622  0.64404762  1
  O2-  O497  1  0.41879101  0.33454138  0.98735748  1
  O2-  O498  1  0.41277644  0.56731425  0.31196836  1
  O2-  O499  1  0.43940033  0.58760084  0.64652359  1
  O2-  O500  1  0.41834404  0.59981752  1.00313462  1
  O2-  O501  1  0.40883681  0.81884744  0.32812629  1
  O2-  O502  1  0.44830157  0.85881538  0.64016644  1
  O2-  O503  1  0.41206440  0.82735362  0.99210733  1
  O2-  O504  1  0.65131340  0.07444012  0.30909354  1
  O2-  O505  1  0.66936578  0.08122537  0.65054604  1
  O2-  O506  1  0.67280223  0.07336317  0.98917045  1
  O2-  O507  1  0.64954633  0.33314554  0.31690937  1
  O2-  O508  1  0.65851446  0.32574882  0.63945480  1
  O2-  O509  1  0.67968000  0.33083818  1.01569701  1
  O2-  O510  1  0.68820015  0.56203535  0.30690969  1
  O2-  O511  1  0.67345092  0.58316775  0.65631049  1
  O2-  O512  1  0.64883346  0.57806794  0.99365048  1
  O2-  O513  1  0.73075202  0.91811938  0.30369162  1
  O2-  O514  1  0.67121345  0.83343954  0.64315894  1
  O2-  O515  1  0.63863072  0.86245841  1.00038181  1
  O2-  O516  1  0.92807166  0.06464773  0.32001669  1
  O2-  O517  1  0.89241464  0.07832922  0.63941044  1
  O2-  O518  1  0.91650248  0.08982475  0.98873185  1
  O2-  O519  1  0.90436317  0.32790781  0.29824112  1
  O2-  O520  1  0.95669550  0.31889163  0.61762021  1
  O2-  O521  1  0.91803012  0.31490091  0.98036184  1
  O2-  O522  1  0.92776449  0.61195522  0.33185794  1
  O2-  O523  1  0.91732724  0.57525397  0.65015351  1
  O2-  O524  1  0.91952123  0.59460967  0.98902763  1
  O2-  O525  1  0.91776926  0.83394349  0.31486855  1
  O2-  O526  1  0.90525256  0.85782581  0.62674966  1
  O2-  O527  1  0.90155099  0.83025015  0.99181513  1
  O2-  O528  1  0.08662646  0.16830824  0.02096435  1
  O2-  O529  1  0.08817799  0.16168859  0.35878962  1
  O2-  O530  1  0.03804660  0.16940804  0.69351509  1
  O2-  O531  1  0.09514596  0.41799826  0.01665557  1
  O2-  O532  1  0.09629734  0.42320207  0.35027007  1
  O2-  O533  1  0.09944827  0.42811828  0.69363237  1
  O2-  O534  1  0.08720152  0.66213963  0.02932236  1
  O2-  O535  1  0.09698605  0.67290420  0.36284103  1
  O2-  O536  1  0.08444432  0.66803381  0.68967198  1
  O2-  O537  1  0.06860751  0.90836894  0.03671989  1
  O2-  O538  1  0.07854112  0.91145267  0.35498323  1
  O2-  O539  1  0.07073849  0.89863290  0.65785603  1
  O2-  O540  1  0.35153002  0.17392231  0.05035371  1
  O2-  O541  1  0.33708006  0.16136673  0.34035861  1
  O2-  O542  1  0.33501603  0.16416585  0.68384334  1
  O2-  O543  1  0.33685273  0.42796362  0.01433982  1
  O2-  O544  1  0.33797213  0.41042656  0.35049756  1
  O2-  O545  1  0.35572503  0.41886214  0.69279574  1
  O2-  O546  1  0.33983338  0.67292179  0.02905257  1
  O2-  O547  1  0.33625016  0.65706306  0.36204144  1
  O2-  O548  1  0.31313500  0.73605902  0.70165868  1
  O2-  O549  1  0.32821963  0.91617736  0.03294033  1
  O2-  O550  1  0.32440377  0.95375805  0.34716744  1
  O2-  O551  1  0.33075807  0.92449292  0.68026904  1
  O2-  O552  1  0.58137084  0.15507321  0.03154679  1
  O2-  O553  1  0.56719178  0.16038470  0.33666785  1
  O2-  O554  1  0.57128057  0.15384830  0.68230084  1
  O2-  O555  1  0.58784068  0.41132521  0.02588718  1
  O2-  O556  1  0.58256671  0.42553866  0.35740731  1
  O2-  O557  1  0.58345399  0.41219173  0.68837508  1
  O2-  O558  1  0.53966681  0.59756574  0.06617514  1
  O2-  O559  1  0.64359733  0.60479611  0.28139436  1
  O2-  O560  1  0.59371068  0.66821654  0.69051481  1
  O2-  O561  1  0.61152617  0.90828434  0.02677296  1
  O2-  O562  1  0.60595537  0.92272394  0.34767461  1
  O2-  O563  1  0.59248415  0.91064449  0.69594752  1
  O2-  O564  1  0.82979934  0.15665156  0.01979859  1
  O2-  O565  1  0.81899185  0.14112959  0.34993052  1
  O2-  O566  1  0.84716422  0.18088050  0.68826924  1
  O2-  O567  1  0.83393244  0.40879564  -0.02056359  1
  O2-  O568  1  0.82433191  0.44018086  0.35436275  1
  O2-  O569  1  0.82719650  0.41535003  0.68522598  1
  O2-  O570  1  0.82043679  0.66743038  0.03143110  1
  O2-  O571  1  0.82526172  0.67858403  0.36554983  1
  O2-  O572  1  0.85125186  0.66346181  0.69754714  1
  O2-  O573  1  0.81452917  0.90828467  -0.00542468  1
  O2-  O574  1  0.76048255  0.87066966  0.34120098  1
  O2-  O575  1  0.82185408  0.92348604  0.69683342  1
