# generated using pymatgen
data_H2O
_symmetry_space_group_name_H-M   'P 1'
_cell_length_a   17.99496710
_cell_length_b   17.98614976
_cell_length_c   22.00478935
_cell_angle_alpha   90.00955554
_cell_angle_beta   89.98756792
_cell_angle_gamma   120.03000482
_symmetry_Int_Tables_number   1
_chemical_formula_structural   H2O
_chemical_formula_sum   'H384 O192'
_cell_volume   6166.03109368
_cell_formula_units_Z   192
loop_
 _symmetry_equiv_pos_site_id
 _symmetry_equiv_pos_as_xyz
  1  'x, y, z'
loop_
 _atom_type_symbol
 _atom_type_oxidation_number
  H+  1.0
  O2-  -2.0
loop_
 _atom_site_type_symbol
 _atom_site_label
 _atom_site_symmetry_multiplicity
 _atom_site_fract_x
 _atom_site_fract_y
 _atom_site_fract_z
 _atom_site_occupancy
  H+  H0  1  0.01002391  0.61852196  0.83296393  1
  H+  H1  1  0.39628454  0.12973616  0.48961037  1
  H+  H2  1  1.03594072  0.89157378  0.49047949  1
  H+  H3  1  0.88295019  0.27384726  0.32727422  1
  H+  H4  1  0.13372199  0.61896132  0.18210964  1
  H+  H5  1  0.01634477  0.63583742  0.34495554  1
  H+  H6  1  0.36460294  0.48096840  0.49654364  1
  H+  H7  1  0.64129427  0.61784996  0.66353693  1
  H+  H8  1  0.64349139  0.77129731  0.99899689  1
  H+  H9  1  0.65981926  0.03209137  0.99508810  1
  H+  H10  1  0.83651517  0.61009655  0.66593136  1
  H+  H11  1  0.62598658  0.34676912  0.36442751  1
  H+  H12  1  0.12147665  0.23539484  0.15770821  1
  H+  H13  1  0.33806846  0.17872781  0.42907434  1
  H+  H14  1  0.14808660  1.03088392  0.49504070  1
  H+  H15  1  0.08628010  0.36030050  0.69035130  1
  H+  H16  1  0.88495329  0.76742406  0.32723657  1
  H+  H17  1  0.64761288  0.28757494  0.12535270  1
  H+  H18  1  0.35451470  0.37659810  0.15830358  1
  H+  H19  1  0.12877187  0.52251618  0.33541071  1
  H+  H20  1  0.93825720  0.25602121  0.77796498  1
  H+  H21  1  0.11744477  0.13608979  0.16126729  1
  H+  H22  1  0.22087590  0.61664813  0.18696072  1
  H+  H23  1  0.93947991  0.53401048  0.99063470  1
  H+  H24  1  0.09704051  0.98742847  0.01535296  1
  H+  H25  1  0.62312247  0.48972366  0.69371929  1
  H+  H26  1  0.13799311  1.02563968  0.32802798  1
  H+  H27  1  1.02134145  0.13741149  0.52037812  1
  H+  H28  1  0.59228392  0.37873303  0.01028274  1
  H+  H29  1  0.08871354  0.16876747  0.60598462  1
  H+  H30  1  0.33867971  0.47507491  0.67650768  1
  H+  H31  1  0.37564621  0.26343062  -0.00444041  1
  H+  H32  1  0.20894089  0.90315945  0.22301095  1
  H+  H33  1  0.98138803  0.36465528  0.17272899  1
  H+  H34  1  0.66575340  0.34033469  0.62971615  1
  H+  H35  1  0.93841024  0.47258158  0.70663102  1
  H+  H36  1  0.40154894  0.59838234  -0.01788820  1
  H+  H37  1  0.87539660  1.00647834  0.65788565  1
  H+  H38  1  0.17071552  0.17790734  0.35276714  1
  H+  H39  1  0.87782182  0.51603477  0.84805663  1
  H+  H40  1  0.86080608  0.96322469  0.81997351  1
  H+  H41  1  0.08481385  0.91310607  0.73002789  1
  H+  H42  1  0.13884393  0.36748323  0.00061693  1
  H+  H43  1  0.88049200  0.34863141  0.65844759  1
  H+  H44  1  0.61395095  0.97916023  0.34199879  1
  H+  H45  1  0.13178839  0.73204151  0.49389612  1
  H+  H46  1  0.37639453  0.26346432  0.84240894  1
  H+  H47  1  0.27666101  0.13728451  0.33536415  1
  H+  H48  1  0.38976246  0.27045836  0.31110138  1
  H+  H49  1  0.75801604  0.54071588  0.78377824  1
  H+  H50  1  0.28662046  0.14367560  0.67755375  1
  H+  H51  1  0.37763165  0.85891162  0.17989961  1
  H+  H52  1  0.71801286  0.61084534  0.32858098  1
  H+  H53  1  0.14846715  0.25213989  0.34617649  1
  H+  H54  1  0.63622920  0.29346108  0.83536168  1
  H+  H55  1  0.14902423  0.78405001  0.64426771  1
  H+  H56  1  0.37171209  0.60004900  0.33059796  1
  H+  H57  1  0.83090933  0.66149140  0.10499356  1
  H+  H58  1  0.58595425  0.66641371  0.07082984  1
  H+  H59  1  0.38549507  0.36799027  0.50450613  1
  H+  H60  1  0.11338979  0.88305096  0.33643911  1
  H+  H61  1  0.89186784  0.77138762  0.17396965  1
  H+  H62  1  0.77661468  0.88516029  0.34040560  1
  H+  H63  1  0.27054469  0.87614798  0.34180900  1
  H+  H64  1  0.52137619  0.63812988  0.67141734  1
  H+  H65  1  0.66637500  0.82770069  0.90280442  1
  H+  H66  1  0.11279118  0.47954574  0.16521577  1
  H+  H67  1  0.22677978  0.10837782  0.99891788  1
  H+  H68  1  0.12432192  0.51682605  0.49879764  1
  H+  H69  1  0.54833063  0.89497509  0.00009561  1
  H+  H70  1  0.27837424  0.14297194  0.48890949  1
  H+  H71  1  0.84877418  0.49552593  0.50301819  1
  H+  H72  1  0.13944598  0.76016603  0.82845057  1
  H+  H73  1  0.38296775  0.01087368  0.34553714  1
  H+  H74  1  0.36526407  0.71863049  0.83448832  1
  H+  H75  1  0.72313800  0.85715548  0.84169730  1
  H+  H76  1  0.02383360  0.88242472  0.33556648  1
  H+  H77  1  0.77431497  0.12647125  0.83800464  1
  H+  H78  1  0.60390621  0.45613169  0.49024113  1
  H+  H79  1  0.46440783  0.10116227  -0.00104002  1
  H+  H80  1  0.78967915  0.14963580  0.01220726  1
  H+  H81  1  0.61456612  0.64103077  0.16454590  1
  H+  H82  1  0.91685399  0.58358444  0.26937329  1
  H+  H83  1  0.39990774  1.02708769  0.82719064  1
  H+  H84  1  0.35614075  0.37699237  0.00779948  1
  H+  H85  1  0.85706697  0.39108107  0.83505902  1
  H+  H86  1  0.77663667  0.63745832  0.16653801  1
  H+  H87  1  0.26677655  0.62530137  0.68467957  1
  H+  H88  1  0.62883928  0.61251074  0.32918627  1
  H+  H89  1  0.15703967  0.58210066  0.27618653  1
  H+  H90  1  0.22287667  0.60744982  0.49868306  1
  H+  H91  1  0.85918497  0.88371920  0.49755466  1
  H+  H92  1  -0.03729606  0.85465361  -0.00525075  1
  H+  H93  1  0.85716019  0.24438906  0.48713869  1
  H+  H94  1  0.38736789  0.10703997  0.83736674  1
  H+  H95  1  0.35564392  0.37798072  0.82577981  1
  H+  H96  1  0.89846435  0.28449282  0.99598320  1
  H+  H97  1  0.09984964  0.64395227  0.01615597  1
  H+  H98  1  0.38169268  0.85711934  0.65883755  1
  H+  H99  1  0.88700239  0.28763307  0.84535814  1
  H+  H100  1  0.53573847  0.14764872  0.15310168  1
  H+  H101  1  0.68590758  0.12210103  0.84004019  1
  H+  H102  1  0.62670304  0.03178010  0.55403067  1
  H+  H103  1  0.12366741  0.89386515  0.16453797  1
  H+  H104  1  0.64236955  0.11972316  0.17072887  1
  H+  H105  1  0.63561310  0.77914037  0.32603679  1
  H+  H106  1  0.85503957  0.63068091  0.33502748  1
  H+  H107  1  0.75866587  0.47820618  0.62590987  1
  H+  H108  1  0.51673533  0.87909908  0.67452465  1
  H+  H109  1  0.85374656  0.62407875  0.01303324  1
  H+  H110  1  0.88949743  0.01915511  0.99861612  1
  H+  H111  1  0.53297844  0.63267193  0.00779342  1
  H+  H112  1  0.49839152  0.37454345  0.48719931  1
  H+  H113  1  0.44067440  0.14768355  0.22546005  1
  H+  H114  1  0.39493850  0.75548094  0.01175399  1
  H+  H115  1  0.37735067  0.61138375  0.50743147  1
  H+  H116  1  0.25719731  0.11929412  0.84554252  1
  H+  H117  1  0.35894398  0.47042061  0.16224635  1
  H+  H118  1  0.12803263  0.58766132  0.66391133  1
  H+  H119  1  0.88122289  1.01454968  0.50415225  1
  H+  H120  1  0.28727148  0.90199156  0.49303192  1
  H+  H121  1  0.38417921  0.61135298  0.18028063  1
  H+  H122  1  0.20469080  0.37350611  0.67380394  1
  H+  H123  1  0.64261639  0.87059828  0.33237405  1
  H+  H124  1  0.02705668  0.13834580  0.00949753  1
  H+  H125  1  0.76499460  0.87413428  0.66947476  1
  H+  H126  1  0.35653975  0.12903436  1.01148691  1
  H+  H127  1  0.14839483  0.86759060  0.49541087  1
  H+  H128  1  0.12872458  0.02491358  0.17545234  1
  H+  H129  1  0.87383659  0.25584680  0.65212001  1
  H+  H130  1  -0.01839805  0.86089659  0.17712001  1
  H+  H131  1  0.38502369  0.61650434  0.66414556  1
  H+  H132  1  0.87772498  0.02025528  0.18033918  1
  H+  H133  1  0.13510159  0.36232453  0.16424465  1
  H+  H134  1  0.98293652  0.62081593  0.17555730  1
  H+  H135  1  0.60226171  0.76520145  0.48803331  1
  H+  H136  1  0.86291078  0.13724236  0.17071776  1
  H+  H137  1  0.59783658  0.21193627  0.00046554  1
  H+  H138  1  0.90203168  0.15931350  0.80176277  1
  H+  H139  1  0.84958094  0.86894628  0.82801434  1
  H+  H140  1  0.83213661  0.41061559  0.10643881  1
  H+  H141  1  0.92530921  0.34620348  0.93702138  1
  H+  H142  1  0.94174347  0.33764039  0.48895817  1
  H+  H143  1  0.87946790  0.39995200  0.34596559  1
  H+  H144  1  0.62511580  0.23302692  0.50435823  1
  H+  H145  1  0.43781349  0.83852139  1.05187678  1
  H+  H146  1  0.83071851  0.41880605  0.39945495  1
  H+  H147  1  0.40896438  0.28805686  0.65074804  1
  H+  H148  1  0.65394557  0.90845521  0.50483462  1
  H+  H149  1  0.46293118  0.35569255  0.99502591  1
  H+  H150  1  0.73802488  0.60244443  0.82127978  1
  H+  H151  1  0.04404081  0.64426308  0.61981023  1
  H+  H152  1  0.11995386  0.50212468  0.69084777  1
  H+  H153  1  0.85958850  0.13675046  0.33724063  1
  H+  H154  1  0.89226740  0.52903525  0.33207970  1
  H+  H155  1  0.10377231  0.39001321  0.49697144  1
  H+  H156  1  0.98368417  0.35085128  0.68288756  1
  H+  H157  1  0.52383835  0.63767604  0.16453113  1
  H+  H158  1  0.88292912  0.38721092  0.16462470  1
  H+  H159  1  0.88295497  0.48662615  0.16235084  1
  H+  H160  1  0.08178507  0.92090184  0.10874666  1
  H+  H161  1  0.87438178  0.72409833  0.67586599  1
  H+  H162  1  0.83219178  0.16412495  0.71801124  1
  H+  H163  1  0.10911221  0.22978116  0.52155521  1
  H+  H164  1  0.68537609  0.34065742  1.01204856  1
  H+  H165  1  0.64030599  0.53397011  0.17468699  1
  H+  H166  1  0.60918946  0.72629739  0.82490200  1
  H+  H167  1  0.66305138  0.58398643  0.93748366  1
  H+  H168  1  0.25778549  0.87794607  0.16146844  1
  H+  H169  1  0.51690888  0.38492355  0.33039215  1
  H+  H170  1  0.38285138  0.85585508  0.50524863  1
  H+  H171  1  0.87526161  0.09947171  0.50214309  1
  H+  H172  1  0.12656248  0.22906131  0.83659765  1
  H+  H173  1  -0.09766566  0.06685759  0.59838344  1
  H+  H174  1  0.11487926  0.23113160  0.01064138  1
  H+  H175  1  0.34429319  0.13783091  0.15980951  1
  H+  H176  1  0.36095225  0.72111016  0.34191053  1
  H+  H177  1  0.77827156  0.88548964  0.16017395  1
  H+  H178  1  0.82380690  0.44759133  0.01265309  1
  H+  H179  1  0.36188652  0.62791257  0.83212793  1
  H+  H180  1  0.43173905  0.05070525  0.64694607  1
  H+  H181  1  0.97404877  0.11126343  0.33816603  1
  H+  H182  1  0.92787725  0.07036899  0.76187751  1
  H+  H183  1  0.42857284  0.33369794  0.13042634  1
  H+  H184  1  0.47038082  0.86898307  0.17600499  1
  H+  H185  1  0.52789386  0.39661828  0.16686516  1
  H+  H186  1  0.67226732  0.33278423  0.42216152  1
  H+  H187  1  0.52671268  0.16892301  0.80175890  1
  H+  H188  1  0.31637921  0.99055973  0.69986176  1
  H+  H189  1  0.55406103  0.05245762  0.84143531  1
  H+  H190  1  0.92881939  0.84947654  0.57879221  1
  H+  H191  1  0.35998980  0.37175962  0.33591397  1
  H+  H192  1  0.62356188  0.01958306  0.65499039  1
  H+  H193  1  0.51239526  0.63243428  0.33788959  1
  H+  H194  1  0.12219659  0.74403550  0.17386257  1
  H+  H195  1  0.22602667  0.36294495  0.16540949  1
  H+  H196  1  0.84523548  0.50328453  0.66034268  1
  H+  H197  1  0.61895699  0.68892083  0.48807182  1
  H+  H198  1  0.62883155  0.61683141  0.84057554  1
  H+  H199  1  0.38482798  0.27627719  0.50134244  1
  H+  H200  1  0.62260829  0.57366255  0.51696633  1
  H+  H201  1  0.21759833  0.11648015  0.17316402  1
  H+  H202  1  0.01882170  0.65488144  0.01830634  1
  H+  H203  1  0.76594097  0.62594514  0.00933640  1
  H+  H204  1  0.88965078  0.27412452  0.17354417  1
  H+  H205  1  0.86426922  0.88055264  0.33923163  1
  H+  H206  1  0.14543148  0.11622594  0.51273085  1
  H+  H207  1  0.63807050  0.11050253  0.33266455  1
  H+  H208  1  0.22842346  0.61010847  0.85120627  1
  H+  H209  1  0.27537766  0.61192506  0.00213080  1
  H+  H210  1  0.89082427  0.01729228  0.33775321  1
  H+  H211  1  0.61945969  0.52256310  0.84832238  1
  H+  H212  1  0.40855608  0.05162995  0.21116148  1
  H+  H213  1  0.47888706  0.86307146  0.33872530  1
  H+  H214  1  0.14214449  0.11771611  0.99793530  1
  H+  H215  1  0.13069305  0.78244561  0.98267838  1
  H+  H216  1  0.57263555  0.09315721  0.85974672  1
  H+  H217  1  0.47149013  0.62555043  0.50674330  1
  H+  H218  1  0.76616021  0.39147020  0.83318095  1
  H+  H219  1  0.13595456  0.60444971  0.85113937  1
  H+  H220  1  0.85049941  0.12137175  0.66136403  1
  H+  H221  1  0.62670735  0.97448975  0.82836046  1
  H+  H222  1  0.11784522  0.48833004  0.01026075  1
  H+  H223  1  0.86867803  0.88707976  0.16078792  1
  H+  H224  1  0.64691067  0.37405821  0.13023717  1
  H+  H225  1  0.11009061  0.89119347  0.66497649  1
  H+  H226  1  0.61733970  0.88208943  0.83057967  1
  H+  H227  1  0.27712149  0.87374512  0.82195525  1
  H+  H228  1  0.13260868  0.62061600  0.49839937  1
  H+  H229  1  0.86118359  0.88129425  0.00798582  1
  H+  H230  1  0.14750349  0.03400478  0.68387400  1
  H+  H231  1  0.58049855  0.42587393  0.78093920  1
  H+  H232  1  0.73376745  0.86064903  -0.00287690  1
  H+  H233  1  0.47611082  0.60839809  0.83151454  1
  H+  H234  1  0.89505036  0.81439863  0.90100211  1
  H+  H235  1  0.87454661  0.60169793  0.84620120  1
  H+  H236  1  0.59910075  0.98443011  0.15667840  1
  H+  H237  1  0.12074758  0.27761534  0.66134862  1
  H+  H238  1  0.97521189  0.94037084  0.54976662  1
  H+  H239  1  0.76998355  0.13600205  0.33315754  1
  H+  H240  1  0.63929700  0.61260314  -0.00003956  1
  H+  H241  1  0.37200128  0.51108742  0.33206567  1
  H+  H242  1  0.60495545  0.47625655  0.33803350  1
  H+  H243  1  0.64561453  0.78050111  0.17377319  1
  H+  H244  1  0.87704817  0.14815926  0.01276666  1
  H+  H245  1  0.01675920  0.38754769  0.34174616  1
  H+  H246  1  0.84303716  0.69700674  0.49177730  1
  H+  H247  1  0.36383073  0.73596321  0.18116928  1
  H+  H248  1  0.36228565  0.87853128  0.34249510  1
  H+  H249  1  0.35325971  0.95839949  0.13862625  1
  H+  H250  1  0.45411390  0.08286664  0.30403455  1
  H+  H251  1  0.21157824  0.66817049  0.98967110  1
  H+  H252  1  0.35934979  0.46880591  0.82609889  1
  H+  H253  1  0.72070994  0.87318779  0.50484512  1
  H+  H254  1  0.10785829  0.39250648  0.33740308  1
  H+  H255  1  0.61531623  0.21738748  0.37430106  1
  H+  H256  1  0.60031105  0.47155840  0.00608413  1
  H+  H257  1  0.71566314  0.58525160  0.50594048  1
  H+  H258  1  0.15064694  0.12278948  0.67477440  1
  H+  H259  1  0.96966728  0.36842767  0.82703417  1
  H+  H260  1  0.37372121  1.01521372  -0.00002966  1
  H+  H261  1  0.64051254  0.38091596  0.85096607  1
  H+  H262  1  0.91713842  0.82750826  0.26788642  1
  H+  H263  1  0.48686991  0.86241358  0.84322795  1
  H+  H264  1  0.12449959  0.88077593  0.81526390  1
  H+  H265  1  0.36494509  0.13570641  0.34291526  1
  H+  H266  1  0.41186271  0.12668243  0.64315281  1
  H+  H267  1  0.39981408  0.51062267  0.98982839  1
  H+  H268  1  0.63352812  0.86382761  0.65877509  1
  H+  H269  1  0.71365384  0.10128967  0.64437778  1
  H+  H270  1  0.10421544  0.63199265  0.34646207  1
  H+  H271  1  0.22297030  0.37184224  0.51598439  1
  H+  H272  1  0.60978082  0.72826291  0.66756056  1
  H+  H273  1  0.02885478  0.39993481  0.00790658  1
  H+  H274  1  0.36931643  0.87962456  0.82235143  1
  H+  H275  1  0.85461781  0.75175300  0.84522212  1
  H+  H276  1  0.87893814  0.84766432  0.66812444  1
  H+  H277  1  0.13032770  0.76239281  0.33479626  1
  H+  H278  1  0.34810914  0.71782443  0.49484057  1
  H+  H279  1  0.16253855  0.81629463  0.27264786  1
  H+  H280  1  0.87780093  0.76122141  -0.00322972  1
  H+  H281  1  0.34906187  0.23351197  0.15934170  1
  H+  H282  1  0.26756967  0.63471388  0.34137069  1
  H+  H283  1  0.52944037  0.12468881  0.37496883  1
  H+  H284  1  0.85543097  0.37850109  1.01073060  1
  H+  H285  1  0.11729679  0.96510090  0.82352144  1
  H+  H286  1  0.74976693  0.08060041  0.47590792  1
  H+  H287  1  0.22491349  0.35463524  0.84641205  1
  H+  H288  1  0.84059247  0.60573926  0.49107879  1
  H+  H289  1  0.55639139  0.18059028  0.65258009  1
  H+  H290  1  0.16230471  0.34262106  0.25628524  1
  H+  H291  1  0.70337034  0.36231369  0.23164090  1
  H+  H292  1  0.39899534  1.03604447  0.49132135  1
  H+  H293  1  0.32420493  0.65841141  0.43430134  1
  H+  H294  1  0.33357044  0.41516562  0.06738706  1
  H+  H295  1  0.67855301  0.84283193  0.23066334  1
  H+  H296  1  0.59738069  0.15821973  0.45642710  1
  H+  H297  1  0.22263359  0.86252116  0.97783919  1
  H+  H298  1  0.86144941  0.54898846  0.56269073  1
  H+  H299  1  0.41204326  0.58540719  0.60423090  1
  H+  H300  1  0.53890026  0.39917536  0.68744404  1
  H+  H301  1  0.16700558  0.32329524  0.90685035  1
  H+  H302  1  0.33110734  0.41496283  0.43992936  1
  H+  H303  1  0.97388429  0.85641580  0.66827759  1
  H+  H304  1  0.82851937  0.65017223  0.73402342  1
  H+  H305  1  0.59468208  0.21660301  0.74682908  1
  H+  H306  1  0.83804831  0.91608988  0.06939109  1
  H+  H307  1  0.61445995  0.13184318  -0.00027979  1
  H+  H308  1  0.66727899  0.58973652  0.23568839  1
  H+  H309  1  0.51638317  0.38698135  0.83867692  1
  H+  H310  1  0.37574199  0.76591634  0.66562905  1
  H+  H311  1  0.84266861  0.17258212  0.10894495  1
  H+  H312  1  0.17462861  0.59751769  0.93389688  1
  H+  H313  1  0.41549547  0.32935783  0.25107705  1
  H+  H314  1  0.69812226  0.09384488  0.93774018  1
  H+  H315  1  0.32433908  0.68235845  0.12203126  1
  H+  H316  1  0.09173491  0.68862951  0.11313268  1
  H+  H317  1  0.58564719  0.15828424  0.09097812  1
  H+  H318  1  0.90277982  0.07504656  0.24157876  1
  H+  H319  1  0.91862130  0.07965208  0.94028990  1
  H+  H320  1  0.91404566  0.57644625  0.93748248  1
  H+  H321  1  0.22694173  0.36464090  1.00162253  1
  H+  H322  1  0.01369692  0.96081304  0.05269274  1
  H+  H323  1  0.99547086  0.11309509  0.81375877  1
  H+  H324  1  0.88846187  0.61040887  0.17133542  1
  H+  H325  1  0.82976859  0.90560153  0.43380341  1
  H+  H326  1  0.66863595  0.57353353  0.61293332  1
  H+  H327  1  0.66176892  0.08423537  0.26711643  1
  H+  H328  1  0.40350041  0.81789474  0.56376715  1
  H+  H329  1  0.66256712  0.84219873  0.59602915  1
  H+  H330  1  0.16193623  0.35210981  0.57399647  1
  H+  H331  1  0.37719670  0.19139833  0.71244054  1
  H+  H332  1  0.33120982  0.66358005  0.74003672  1
  H+  H333  1  0.58351984  0.67039694  0.76277744  1
  H+  H334  1  0.16793917  0.82223366  0.88699847  1
  H+  H335  1  0.07541557  0.41571080  0.43492800  1
  H+  H336  1  0.31318831  0.89263948  0.06196128  1
  H+  H337  1  0.08523976  0.66611422  0.43883490  1
  H+  H338  1  0.57204241  0.67754149  0.39512783  1
  H+  H339  1  0.08614538  0.91467571  0.42652744  1
  H+  H340  1  0.81875069  0.35016143  0.48758891  1
  H+  H341  1  0.42285858  0.83617320  0.27704404  1
  H+  H342  1  0.72840110  0.11520252  0.17615944  1
  H+  H343  1  0.23131761  0.87671580  0.65514611  1
  H+  H344  1  0.42521794  0.57263433  0.89362346  1
  H+  H345  1  0.71282463  0.36636840  0.26519625  1
  H+  H346  1  0.85228483  0.42930883  0.74374405  1
  H+  H347  1  0.82097434  0.65335867  0.39512228  1
  H+  H348  1  0.69292970  0.37459731  0.56208419  1
  H+  H349  1  0.81671796  0.14244263  0.42577876  1
  H+  H350  1  0.35268877  0.87408237  1.00370119  1
  H+  H351  1  0.50433420  0.13762978  0.50054335  1
  H+  H352  1  0.63351929  0.89033020  0.00527422  1
  H+  H353  1  0.18026113  0.84574744  0.55691396  1
  H+  H354  1  0.02108481  0.13216782  0.65765381  1
  H+  H355  1  0.41002132  0.57408898  0.23618526  1
  H+  H356  1  0.42574292  0.83614555  0.90098162  1
  H+  H357  1  0.29845554  0.13703883  0.78202641  1
  H+  H358  1  0.57908914  0.91202964  0.73251287  1
  H+  H359  1  0.34393198  0.92294120  0.43409834  1
  H+  H360  1  0.08620473  0.42599991  0.10261856  1
  H+  H361  1  0.15621594  0.06757891  0.90935849  1
  H+  H362  1  0.40292029  0.32300808  0.90103143  1
  H+  H363  1  0.04886181  0.66423865  0.68883836  1
  H+  H364  1  0.12148501  0.17763717  0.77481500  1
  H+  H365  1  0.27020285  0.32329179  0.36862956  1
  H+  H366  1  0.82060538  0.89897847  0.73125580  1
  H+  H367  1  0.08931741  0.16995061  0.09557519  1
  H+  H368  1  0.56523073  0.40936989  0.42102617  1
  H+  H369  1  0.57288346  0.42674409  0.10179206  1
  H+  H370  1  0.22359693  0.37806424  0.31395070  1
  H+  H371  1  0.30948257  0.41350099  0.73474322  1
  H+  H372  1  0.16296922  0.08664078  0.26992371  1
  H+  H373  1  0.06052537  0.60738603  0.77815986  1
  H+  H374  1  0.32187710  0.16246260  0.06764096  1
  H+  H375  1  0.60151685  0.93835299  0.40682645  1
  H+  H376  1  0.33300077  0.92578824  0.73596573  1
  H+  H377  1  0.32983023  0.60222823  0.05457441  1
  H+  H378  1  0.65723817  0.33140128  0.94040068  1
  H+  H379  1  0.91590746  0.33546960  0.26895991  1
  H+  H380  1  0.57974638  0.92519465  0.09835465  1
  H+  H381  1  0.44587024  0.35645240  0.59994545  1
  H+  H382  1  0.64058417  0.17844365  0.65784526  1
  H+  H383  1  0.13328858  0.10182813  0.84865218  1
  O2-  O384  1  0.09221143  0.17249436  0.14247518  1
  O2-  O385  1  0.08379299  0.16744074  0.53050423  1
  O2-  O386  1  0.09976568  0.16789405  0.81645591  1
  O2-  O387  1  0.08488467  0.42011616  0.14793140  1
  O2-  O388  1  0.07295165  0.41879827  0.48032499  1
  O2-  O389  1  0.02221836  0.34684549  0.77216025  1
  O2-  O390  1  0.09138206  0.68411206  0.15823030  1
  O2-  O391  1  0.09778284  0.66951141  0.48350844  1
  O2-  O392  1  0.06891262  0.63970030  0.81548846  1
  O2-  O393  1  0.08731490  0.92093833  0.15372051  1
  O2-  O394  1  0.09349846  0.91724345  0.47191643  1
  O2-  O395  1  0.09454663  0.91088442  0.80035196  1
  O2-  O396  1  0.31214544  0.16548820  0.14608650  1
  O2-  O397  1  0.34081801  0.17750844  0.47437141  1
  O2-  O398  1  0.31537223  0.15095845  0.82443943  1
  O2-  O399  1  0.32571349  0.41151757  0.14479968  1
  O2-  O400  1  0.33255636  0.41861038  0.48499228  1
  O2-  O401  1  0.32411436  0.40783789  0.81271486  1
  O2-  O402  1  0.32996561  0.67413369  0.16520418  1
  O2-  O403  1  0.31909779  0.65536329  0.47962310  1
  O2-  O404  1  0.32994456  0.65835838  0.82036293  1
  O2-  O405  1  0.32022793  0.89587681  0.13822161  1
  O2-  O406  1  0.34853385  0.93283098  0.47887024  1
  O2-  O407  1  0.33792939  0.90786627  0.80685319  1
  O2-  O408  1  0.59341236  0.16882752  0.13621254  1
  O2-  O409  1  0.58645997  0.16987648  0.49927111  1
  O2-  O410  1  0.58496909  0.21688810  0.79128512  1
  O2-  O411  1  0.58389314  0.43168790  0.14677695  1
  O2-  O412  1  0.56247756  0.40121171  0.46823752  1
  O2-  O413  1  0.57812563  0.42473550  0.82793036  1
  O2-  O414  1  0.58294586  0.66908556  0.14759058  1
  O2-  O415  1  0.57607656  0.70260280  0.47360465  1
  O2-  O416  1  0.58027034  0.66650347  0.80843263  1
  O2-  O417  1  0.55471432  0.93065141  0.13678521  1
  O2-  O418  1  0.65511988  0.98722951  0.48064809  1
  O2-  O419  1  0.58866470  0.91463187  0.81548113  1
  O2-  O420  1  0.83823628  0.17338000  0.15395412  1
  O2-  O421  1  0.81058940  0.13003610  0.47036206  1
  O2-  O422  1  0.88199912  0.20021413  0.79071322  1
  O2-  O423  1  0.85380879  0.42283248  0.15013347  1
  O2-  O424  1  0.79601172  0.39071524  0.47899533  1
  O2-  O425  1  0.82863515  0.42260408  0.81856561  1
  O2-  O426  1  0.83670577  0.66337094  0.15018316  1
  O2-  O427  1  0.81087245  0.63944796  0.47463824  1
  O2-  O428  1  0.78658837  0.60047182  0.79755935  1
  O2-  O429  1  0.83957504  0.91716248  0.14370120  1
  O2-  O430  1  0.82510706  0.90733654  0.47920008  1
  O2-  O431  1  0.82224414  0.90186558  0.81042226  1
  O2-  O432  1  0.15565675  0.08687947  0.18849472  1
  O2-  O433  1  0.18205496  0.08958480  0.51179950  1
  O2-  O434  1  0.15809592  0.06662773  0.86390159  1
  O2-  O435  1  0.16337846  0.32951709  0.17854607  1
  O2-  O436  1  0.16202792  0.34458221  0.52929573  1
  O2-  O437  1  0.16527684  0.31736737  0.86210675  1
  O2-  O438  1  0.15842014  0.58317538  0.19657731  1
  O2-  O439  1  0.15981692  0.58011626  0.51246487  1
  O2-  O440  1  0.17062529  0.58286357  0.87138546  1
  O2-  O441  1  0.18499817  0.85826705  0.19205311  1
  O2-  O442  1  0.18151688  0.84068420  0.51171555  1
  O2-  O443  1  0.17298498  0.82068743  0.84091595  1
  O2-  O444  1  0.42731842  0.10724494  0.19206070  1
  O2-  O445  1  0.43088798  0.10057830  0.49760235  1
  O2-  O446  1  0.43099904  0.08948367  0.83422561  1
  O2-  O447  1  0.39932028  0.32206913  0.16961486  1
  O2-  O448  1  0.41922428  0.33853762  0.51443740  1
  O2-  O449  1  0.40636531  0.32453378  0.85563428  1
  O2-  O450  1  0.41285201  0.57828919  0.19086019  1
  O2-  O451  1  0.41277390  0.58600727  0.52210125  1
  O2-  O452  1  0.41670026  0.57606353  0.84910648  1
  O2-  O453  1  0.41306207  0.83547136  0.19771332  1
  O2-  O454  1  0.39568699  0.81123422  0.51925469  1
  O2-  O455  1  0.42516245  0.82975926  0.85693062  1
  O2-  O456  1  0.66713904  0.08610683  0.18947704  1
  O2-  O457  1  0.59400189  0.00086889  0.51694721  1
  O2-  O458  1  0.71635337  0.09378047  0.85558106  1
  O2-  O459  1  0.67541419  0.34674917  0.10949651  1
  O2-  O460  1  0.70368068  0.34436887  0.49332658  1
  O2-  O461  1  0.67076030  0.34833705  0.86083632  1
  O2-  O462  1  0.67230633  0.59434847  0.19033033  1
  O2-  O463  1  0.65741076  0.54739558  0.52555548  1
  O2-  O464  1  0.65735335  0.58607509  0.85880093  1
  O2-  O465  1  0.68224711  0.84129028  0.18588693  1
  O2-  O466  1  0.66144472  0.85641095  0.51819876  1
  O2-  O467  1  0.66261999  0.82817973  0.85741006  1
  O2-  O468  1  0.90019247  0.07898037  0.19696087  1
  O2-  O469  1  0.90860214  0.07389355  0.52122522  1
  O2-  O470  1  0.93116479  0.08053818  0.80566649  1
  O2-  O471  1  0.92007834  0.33702821  0.18658398  1
  O2-  O472  1  0.87875173  0.30676322  0.49011549  1
  O2-  O473  1  0.91987533  0.34909088  0.85648841  1
  O2-  O474  1  0.92093145  0.58121361  0.18525965  1
  O2-  O475  1  0.87718375  0.55567984  0.51898861  1
  O2-  O476  1  0.90964390  0.57823277  0.86303753  1
  O2-  O477  1  0.92007048  0.83126409  0.19020766  1
  O2-  O478  1  0.94428511  0.87975394  0.53837085  1
  O2-  O479  1  0.88807924  0.81216538  0.85587739  1
  O2-  O480  1  0.17128906  0.08682694  0.31461361  1
  O2-  O481  1  0.18333981  0.09662692  0.69165197  1
  O2-  O482  1  0.16434590  0.07932396  0.98532158  1
  O2-  O483  1  0.16296394  0.35024175  0.30127751  1
  O2-  O484  1  0.14112103  0.34053561  0.65832310  1
  O2-  O485  1  0.16507519  0.33242057  0.98868090  1
  O2-  O486  1  0.16043954  0.58428094  0.32147861  1
  O2-  O487  1  0.15920453  0.55660043  0.67055100  1
  O2-  O488  1  0.17835299  0.60617230  0.98308860  1
  O2-  O489  1  0.16428814  0.82267561  0.31745855  1
  O2-  O490  1  0.17419156  0.84553872  0.63448957  1
  O2-  O491  1  0.16479962  0.83485320  0.95865882  1
  O2-  O492  1  0.41889430  0.07566516  0.33953860  1
  O2-  O493  1  0.45416128  0.10918178  0.63202448  1
  O2-  O494  1  0.40225625  0.07742655  0.99157484  1
  O2-  O495  1  0.41851882  0.33120672  0.29630669  1
  O2-  O496  1  0.44569331  0.35021441  0.64428612  1
  O2-  O497  1  0.40221122  0.32396335  0.97989495  1
  O2-  O498  1  0.40225595  0.56956028  0.31536856  1
  O2-  O499  1  0.41429609  0.58516575  0.64938460  1
  O2-  O500  1  0.43476855  0.56996611  0.97184893  1
  O2-  O501  1  0.41883565  0.83100706  0.32226976  1
  O2-  O502  1  0.41006495  0.82499291  0.64749086  1
  O2-  O503  1  0.42228299  0.81887860  1.00982677  1
  O2-  O504  1  0.66595492  0.08090263  0.31236646  1
  O2-  O505  1  0.65264705  0.07435034  0.63187668  1
  O2-  O506  1  0.68878047  0.09382558  0.98213868  1
  O2-  O507  1  0.65523103  0.31625895  0.37829162  1
  O2-  O508  1  0.68399963  0.39145686  0.60416477  1
  O2-  O509  1  0.63660340  0.31798281  0.98340661  1
  O2-  O510  1  0.65682398  0.58009924  0.31400451  1
  O2-  O511  1  0.67604569  0.58968528  0.65608561  1
  O2-  O512  1  0.66526071  0.57895826  0.98268045  1
  O2-  O513  1  0.67223927  0.84075860  0.31539603  1
  O2-  O514  1  0.66375551  0.83472283  0.64116902  1
  O2-  O515  1  0.67331416  0.83086007  0.98150384  1
  O2-  O516  1  0.91515604  0.07862579  0.32369556  1
  O2-  O517  1  0.90472645  0.06775112  0.64418273  1
  O2-  O518  1  0.92147899  0.08129078  0.98456134  1
  O2-  O519  1  0.91655382  0.33542405  0.31399994  1
  O2-  O520  1  0.91221476  0.31965514  0.64587573  1
  O2-  O521  1  0.92438258  0.34589013  0.98236497  1
  O2-  O522  1  0.91659950  0.58955076  0.31409813  1
  O2-  O523  1  0.81810526  0.53097887  0.63689930  1
  O2-  O524  1  0.91723585  0.57285929  0.98335305  1
  O2-  O525  1  0.91776616  0.82868063  0.31354050  1
  O2-  O526  1  0.91214129  0.81945298  0.65371177  1
  O2-  O527  1  0.90328521  0.81995455  0.97866668  1
  O2-  O528  1  0.08710150  0.16966788  0.02561858  1
  O2-  O529  1  0.17626574  0.22953185  0.37314866  1
  O2-  O530  1  0.08410157  0.16887040  0.65183804  1
  O2-  O531  1  0.08889869  0.42855895  0.02456610  1
  O2-  O532  1  0.07753610  0.41975076  0.35733040  1
  O2-  O533  1  0.04332360  0.38132759  0.70936934  1
  O2-  O534  1  0.07912359  0.68149548  0.03224912  1
  O2-  O535  1  0.07632869  0.66455363  0.36203857  1
  O2-  O536  1  0.08340904  0.66514249  0.65436066  1
  O2-  O537  1  0.04803613  0.93678515  0.03712161  1
  O2-  O538  1  0.08494184  0.91572041  0.34988088  1
  O2-  O539  1  0.07741680  0.91611604  0.68388608  1
  O2-  O540  1  0.32486723  0.16125882  0.02230134  1
  O2-  O541  1  0.33822017  0.17194598  0.34873214  1
  O2-  O542  1  0.35121581  0.17146519  0.67260631  1
  O2-  O543  1  0.33256934  0.41465526  0.02169947  1
  O2-  O544  1  0.31937003  0.38324142  0.35963363  1
  O2-  O545  1  0.29724345  0.41648171  0.69094228  1
  O2-  O546  1  0.33536545  0.63538323  0.01802245  1
  O2-  O547  1  0.32860618  0.65970710  0.35522650  1
  O2-  O548  1  0.32862701  0.66460224  0.69473230  1
  O2-  O549  1  0.31878450  0.90036217  0.01654076  1
  O2-  O550  1  0.33145016  0.90943082  0.35612325  1
  O2-  O551  1  0.32621666  0.94255885  0.69294632  1
  O2-  O552  1  0.57603906  0.15203025  0.01582289  1
  O2-  O553  1  0.59219924  0.15261182  0.37932744  1
  O2-  O554  1  0.61707278  0.21627127  0.66712568  1
  O2-  O555  1  0.56484630  0.41275949  0.02365890  1
  O2-  O556  1  0.57213378  0.41564480  0.35370943  1
  O2-  O557  1  0.59233267  0.43135230  0.71209138  1
  O2-  O558  1  0.59182634  0.66772929  0.02524999  1
  O2-  O559  1  0.57351865  0.66670718  0.35091115  1
  O2-  O560  1  0.58261771  0.66934048  0.68545766  1
  O2-  O561  1  0.60675672  0.92620643  0.01673185  1
  O2-  O562  1  0.58664535  0.92211346  0.36320146  1
  O2-  O563  1  0.57806453  0.91177928  0.68745764  1
  O2-  O564  1  0.85075689  0.18212007  0.02691325  1
  O2-  O565  1  0.83023667  0.16861097  0.34958000  1
  O2-  O566  1  0.82117598  0.15394388  0.67358777  1
  O2-  O567  1  0.81728835  0.39584971  0.03218480  1
  O2-  O568  1  0.86546196  0.44279279  0.36239202  1
  O2-  O569  1  0.87636222  0.44097070  0.70121468  1
  O2-  O570  1  0.82649229  0.65711478  0.02585094  1
  O2-  O571  1  0.82304766  0.65988069  0.35011843  1
  O2-  O572  1  0.86139061  0.66588554  0.69416094  1
  O2-  O573  1  0.83798281  0.91817368  0.02311497  1
  O2-  O574  1  0.83685303  0.91260318  0.35654817  1
  O2-  O575  1  0.82528569  0.90074116  0.68586601  1
