# generated using pymatgen
data_H2O
_symmetry_space_group_name_H-M   'P 1'
_cell_length_a   17.99583918
_cell_length_b   17.99438402
_cell_length_c   22.00258898
_cell_angle_alpha   89.99336932
_cell_angle_beta   90.00211202
_cell_angle_gamma   120.03008984
_symmetry_Int_Tables_number   1
_chemical_formula_structural   H2O
_chemical_formula_sum   'H384 O192'
_cell_volume   6168.53086828
_cell_formula_units_Z   192
loop_
 _symmetry_equiv_pos_site_id
 _symmetry_equiv_pos_as_xyz
  1  'x, y, z'
loop_
 _atom_type_symbol
 _atom_type_oxidation_number
  H+  1.0
  O2-  -2.0
loop_
 _atom_site_type_symbol
 _atom_site_label
 _atom_site_symmetry_multiplicity
 _atom_site_fract_x
 _atom_site_fract_y
 _atom_site_fract_z
 _atom_site_occupancy
  H+  H0  1  0.13454423  0.27533988  0.98345372  1
  H+  H1  1  0.38036920  0.67308479  0.82645363  1
  H+  H2  1  0.07410328  0.14918535  0.77429959  1
  H+  H3  1  0.03782718  0.61481455  0.17308650  1
  H+  H4  1  0.13093477  0.11853638  0.66735593  1
  H+  H5  1  0.13287261  0.52413629  0.98096595  1
  H+  H6  1  0.72238722  0.11599313  0.65354679  1
  H+  H7  1  0.33676448  0.42404292  0.43550008  1
  H+  H8  1  0.30120146  0.13818648  0.15585406  1
  H+  H9  1  0.35873321  0.64656735  0.67042562  1
  H+  H10  1  0.84688971  0.45826727  0.33270444  1
  H+  H11  1  0.86316911  0.97531741  0.49864960  1
  H+  H12  1  0.43037902  0.07709322  0.10697807  1
  H+  H13  1  0.01729276  0.62076068  0.81876899  1
  H+  H14  1  0.06313366  0.87536173  0.14931693  1
  H+  H15  1  0.63775359  1.01924724  0.65812502  1
  H+  H16  1  0.17066829  0.09363069  0.57063718  1
  H+  H17  1  0.13552213  0.85345991  0.97751209  1
  H+  H18  1  0.87794537  0.81122030  0.82990474  1
  H+  H19  1  0.87213141  0.12021001  1.00170671  1
  H+  H20  1  0.38471384  0.35924999  0.66130633  1
  H+  H21  1  0.60893618  0.62097559  -0.00518355  1
  H+  H22  1  0.28875967  0.15598049  0.51002054  1
  H+  H23  1  0.11660523  0.61107084  0.82498170  1
  H+  H24  1  0.88637613  0.62735583  0.16281879  1
  H+  H25  1  0.62355458  0.48112764  0.15653541  1
  H+  H26  1  0.82527244  0.40290443  0.92984532  1
  H+  H27  1  0.59767900  0.61950002  0.49584135  1
  H+  H28  1  0.37235880  0.73662851  0.50843634  1
  H+  H29  1  0.39944533  0.76654606  0.32658802  1
  H+  H30  1  0.49588097  0.60825283  0.32119212  1
  H+  H31  1  -0.02053013  0.36197214  0.83768971  1
  H+  H32  1  0.12634573  0.76116049  0.52628337  1
  H+  H33  1  0.02771126  0.40011470  0.48855348  1
  H+  H34  1  0.86173476  0.37377280  0.82772225  1
  H+  H35  1  0.12858387  0.62722245  0.15840959  1
  H+  H36  1  0.64580933  0.13015941  0.17200449  1
  H+  H37  1  0.73593704  0.12838552  -0.00708946  1
  H+  H38  1  0.63873249  0.62200412  0.16772757  1
  H+  H39  1  0.64311948  0.38033222  0.16543440  1
  H+  H40  1  0.39357072  0.90905641  0.66620495  1
  H+  H41  1  0.52957631  0.88548128  0.49871009  1
  H+  H42  1  0.39925869  0.28978951  0.31943585  1
  H+  H43  1  0.83208891  0.41294383  0.73361545  1
  H+  H44  1  0.92346035  0.32824420  0.21553910  1
  H+  H45  1  0.03115623  0.39405998  0.00097079  1
  H+  H46  1  0.38518289  0.86509556  0.98371847  1
  H+  H47  1  0.14121506  0.02840938  0.99406850  1
  H+  H48  1  0.20760206  0.64179663  0.32046967  1
  H+  H49  1  0.62540590  0.15609603  0.00587487  1
  H+  H50  1  0.18603051  -0.00562646  0.17715942  1
  H+  H51  1  0.84850621  0.90564103  0.16534069  1
  H+  H52  1  0.35563559  0.46897739  0.66723771  1
  H+  H53  1  0.86552613  0.23216114  0.32804574  1
  H+  H54  1  0.26660065  0.55298413  0.04570952  1
  H+  H55  1  0.36292231  0.13997709  0.67157875  1
  H+  H56  1  0.97068008  0.58024963  0.50945820  1
  H+  H57  1  0.89406992  0.36361164  0.98930274  1
  H+  H58  1  0.74745660  0.61986107  0.48550654  1
  H+  H59  1  0.14166179  0.86090710  0.15538611  1
  H+  H60  1  0.14851851  0.51929199  0.16935536  1
  H+  H61  1  0.14027849  0.36359230  0.50539243  1
  H+  H62  1  0.40346240  0.13114280  0.97796512  1
  H+  H63  1  0.26019215  0.86041609  -0.00448033  1
  H+  H64  1  0.36322994  0.47287132  -0.00264861  1
  H+  H65  1  0.84753906  0.19175986  0.56147286  1
  H+  H66  1  0.63908050  0.37704618  0.01000878  1
  H+  H67  1  0.22781943  0.11810702  0.34603340  1
  H+  H68  1  0.57794261  0.46977087  0.71717326  1
  H+  H69  1  0.02801104  0.88016537  0.35050987  1
  H+  H70  1  0.12103195  0.39466694  -0.00296588  1
  H+  H71  1  0.62209405  0.72550591  0.33973676  1
  H+  H72  1  0.37434666  0.36436733  0.83843716  1
  H+  H73  1  0.88744445  0.51958866  0.97761707  1
  H+  H74  1  0.47941651  0.37071355  -0.00381366  1
  H+  H75  1  0.61285918  0.12777870  0.49263205  1
  H+  H76  1  0.41619076  0.08588648  0.56368266  1
  H+  H77  1  0.38159071  0.39714802  0.15372749  1
  H+  H78  1  1.02786542  0.85594515  0.80975616  1
  H+  H79  1  0.35678661  0.93975579  0.82860079  1
  H+  H80  1  0.53529893  0.11904176  0.34799312  1
  H+  H81  1  0.24849462  0.34208405  0.30862185  1
  H+  H82  1  0.77589123  0.87054466  0.34647082  1
  H+  H83  1  0.12267734  0.21018671  0.32703062  1
  H+  H84  1  0.88585874  0.27617328  0.83917683  1
  H+  H85  1  0.60410618  0.84989517  0.99787966  1
  H+  H86  1  0.21937567  0.61179922  0.98259129  1
  H+  H87  1  0.29303786  0.21333322  0.12821440  1
  H+  H88  1  0.18171033  0.17936264  0.19716513  1
  H+  H89  1  0.86894430  0.40035471  0.66786991  1
  H+  H90  1  0.48031627  0.12633949  0.65529311  1
  H+  H91  1  0.39395609  0.87042285  0.51453046  1
  H+  H92  1  0.14674994  0.11923952  0.50700824  1
  H+  H93  1  0.13096051  0.83746080  0.81962460  1
  H+  H94  1  0.86291077  -0.02578170  0.84531248  1
  H+  H95  1  0.41471395  0.79580486  0.97805487  1
  H+  H96  1  0.63133452  0.12001133  0.84236491  1
  H+  H97  1  0.88610292  0.95986455  0.69392718  1
  H+  H98  1  0.27160338  0.37580577  0.66601364  1
  H+  H99  1  0.88960298  1.00477670  0.00668274  1
  H+  H100  1  0.35811697  0.48258121  0.49512290  1
  H+  H101  1  0.85272761  0.14617701  0.15146316  1
  H+  H102  1  0.45715635  0.21829164  0.37603551  1
  H+  H103  1  0.87725922  0.04804264  0.64452957  1
  H+  H104  1  0.52531193  0.63897329  0.15040840  1
  H+  H105  1  0.99178386  0.13356382  0.66347561  1
  H+  H106  1  0.77419229  0.88456131  0.50269415  1
  H+  H107  1  0.61084723  0.47788584  1.01124684  1
  H+  H108  1  0.86713406  0.61113016  0.69199553  1
  H+  H109  1  0.08118864  0.65561630  0.06773586  1
  H+  H110  1  0.38242558  0.60243972  0.99364817  1
  H+  H111  1  0.97759636  0.60734919  0.99066788  1
  H+  H112  1  0.11431588  -0.02788526  0.50510109  1
  H+  H113  1  0.87068396  0.71722801  0.34177914  1
  H+  H114  1  0.39515554  0.61490824  0.16997312  1
  H+  H115  1  0.88859027  0.85272340  0.34203000  1
  H+  H116  1  0.38542240  0.26854426  0.66473196  1
  H+  H117  1  0.41430507  0.79833825  0.65854768  1
  H+  H118  1  0.63208993  0.26529051  0.32193325  1
  H+  H119  1  0.47427244  0.22221295  0.34443201  1
  H+  H120  1  0.17506258  0.07257566  0.19269436  1
  H+  H121  1  0.87589311  0.35543780  0.30255749  1
  H+  H122  1  0.12411245  0.51442600  0.83173683  1
  H+  H123  1  0.47550782  0.61022030  -0.01567665  1
  H+  H124  1  0.41305693  0.34089270  0.89557104  1
  H+  H125  1  0.26698731  0.86153501  0.34551132  1
  H+  H126  1  0.65336848  0.89129492  0.66361377  1
  H+  H127  1  0.52013339  0.88578107  0.82128497  1
  H+  H128  1  0.72713005  0.11262412  0.51290056  1
  H+  H129  1  0.75049242  0.14709796  0.82077405  1
  H+  H130  1  0.23023227  0.62907457  0.66083180  1
  H+  H131  1  0.03612529  0.88579071  0.00160605  1
  H+  H132  1  0.28578302  0.25056844  0.38662293  1
  H+  H133  1  0.26525870  0.85688452  0.81845357  1
  H+  H134  1  0.39543339  0.03397463  0.65741954  1
  H+  H135  1  0.39472726  0.52504598  0.16502126  1
  H+  H136  1  0.11236348  0.63590507  0.50426757  1
  H+  H137  1  0.76013047  0.13733063  0.32372199  1
  H+  H138  1  0.79171979  0.40460177  0.16523723  1
  H+  H139  1  0.89111413  0.30596875  0.49862196  1
  H+  H140  1  0.69632214  0.68728246  0.71887732  1
  H+  H141  1  0.76364014  0.35169522  0.82090582  1
  H+  H142  1  0.87883971  0.04100693  0.16698429  1
  H+  H143  1  0.61673577  0.67333544  0.85691222  1
  H+  H144  1  0.73462877  0.60933384  0.98090298  1
  H+  H145  1  0.39261443  0.27980395  0.98830642  1
  H+  H146  1  0.51496623  0.38394644  0.68337446  1
  H+  H147  1  0.96844016  0.36846958  0.31352649  1
  H+  H148  1  0.86558438  0.14158473  0.33106587  1
  H+  H149  1  0.28687078  0.64029101  0.16394095  1
  H+  H150  1  0.10959569  0.63238772  1.00448377  1
  H+  H151  1  0.74886950  0.82900475  0.81371320  1
  H+  H152  1  0.66469640  0.80532463  0.67342694  1
  H+  H153  1  0.98300608  0.14354719  0.84728725  1
  H+  H154  1  0.87281551  0.39140390  0.15724786  1
  H+  H155  1  0.88292701  0.85514189  0.51051577  1
  H+  H156  1  0.11322362  0.22212814  0.82562383  1
  H+  H157  1  0.90191823  0.86260716  0.98834841  1
  H+  H158  1  0.64958473  0.27981479  0.63510977  1
  H+  H159  1  0.62970793  0.87459572  0.83321133  1
  H+  H160  1  0.91813183  0.50678995  0.19828871  1
  H+  H161  1  0.52783198  0.87575443  0.34426266  1
  H+  H162  1  0.37330681  0.47537659  0.33650170  1
  H+  H163  1  0.01395170  0.14211949  -0.00566343  1
  H+  H164  1  0.76118090  0.37025916  0.31318375  1
  H+  H165  1  0.96496682  0.13366576  0.16093875  1
  H+  H166  1  0.83597301  0.71044197  0.49047273  1
  H+  H167  1  0.57119139  0.95097056  0.07385838  1
  H+  H168  1  0.13634445  0.26448417  0.64896604  1
  H+  H169  1  0.63228533  0.47913637  0.32769839  1
  H+  H170  1  0.38272665  0.39369024  0.33772299  1
  H+  H171  1  0.60269868  0.77692855  0.83056514  1
  H+  H172  1  0.88791136  0.51432671  0.83396671  1
  H+  H173  1  0.31262079  0.62933837  0.36108332  1
  H+  H174  1  0.78704010  0.89466461  0.67051824  1
  H+  H175  1  0.71279658  0.57499532  0.65435916  1
  H+  H176  1  0.61043146  0.65585558  0.68461570  1
  H+  H177  1  0.89296745  0.53183434  0.41400225  1
  H+  H178  1  0.62787767  0.43022346  0.82907794  1
  H+  H179  1  0.40416146  0.07639678  0.17457167  1
  H+  H180  1  0.47127597  0.61490061  0.51215038  1
  H+  H181  1  0.08972374  0.41897014  0.76521833  1
  H+  H182  1  -0.02198898  0.49816083  0.34851931  1
  H+  H183  1  0.38871933  0.98628371  0.35843347  1
  H+  H184  1  0.26682642  0.87609614  0.51034775  1
  H+  H185  1  0.64887892  0.61553314  0.32269665  1
  H+  H186  1  0.39570740  0.63559888  0.33236881  1
  H+  H187  1  0.09012077  0.88977951  0.75098506  1
  H+  H188  1  0.59886988  0.16465024  0.40162964  1
  H+  H189  1  0.65237241  0.12578669  0.32473284  1
  H+  H190  1  0.13676624  0.38206973  0.34406606  1
  H+  H191  1  0.41615690  0.28294051  0.51724378  1
  H+  H192  1  0.87294905  0.15556138  0.65932134  1
  H+  H193  1  0.00528876  0.63518483  0.36912323  1
  H+  H194  1  0.65363938  0.47762584  0.63949859  1
  H+  H195  1  0.21957813  0.36281223  0.83161405  1
  H+  H196  1  0.76339806  0.66826108  0.15117977  1
  H+  H197  1  0.63105661  0.77711900  0.16581489  1
  H+  H198  1  0.66508485  0.09374425  0.90268228  1
  H+  H199  1  0.23714933  0.37275894  0.15654995  1
  H+  H200  1  0.86286364  0.21971787  0.00745611  1
  H+  H201  1  0.63629330  0.35903179  0.32114942  1
  H+  H202  1  0.34907796  0.48231931  0.81956440  1
  H+  H203  1  0.10919756  -0.02964639  0.66550707  1
  H+  H204  1  0.61467193  0.89781288  0.16347530  1
  H+  H205  1  0.88821128  0.84148650  0.65641256  1
  H+  H206  1  0.23185635  0.36807550  0.50104234  1
  H+  H207  1  0.62052769  0.71194191  0.98869119  1
  H+  H208  1  0.54212706  0.39454224  0.33077414  1
  H+  H209  1  0.13316566  0.39285538  0.67332116  1
  H+  H210  1  0.10344716  0.11630306  0.33794591  1
  H+  H211  1  0.13495849  0.11544848  -0.00739415  1
  H+  H212  1  0.34622927  -0.05710924  0.14005772  1
  H+  H213  1  0.11170303  0.71446024  0.81783727  1
  H+  H214  1  0.52664919  0.13144077  0.48761568  1
  H+  H215  1  0.13175546  0.85094937  0.53414390  1
  H+  H216  1  0.09109480  0.15953955  0.14543222  1
  H+  H217  1  0.89765626  0.77105118  -0.01169141  1
  H+  H218  1  0.97239162  0.11795955  0.32168536  1
  H+  H219  1  0.43625705  0.85085238  0.57228404  1
  H+  H220  1  0.66633481  0.82918989  0.27081301  1
  H+  H221  1  0.73484024  0.36828694  0.64321804  1
  H+  H222  1  0.38842009  0.85142342  0.17175915  1
  H+  H223  1  0.87209428  0.63293828  -0.00318233  1
  H+  H224  1  0.89188735  0.61442358  0.13142591  1
  H+  H225  1  0.73776736  0.61533495  0.31935101  1
  H+  H226  1  0.95501429  0.89010575  0.18252927  1
  H+  H227  1  0.13636671  0.74354682  0.17753171  1
  H+  H228  1  0.51234062  0.88464051  0.65870796  1
  H+  H229  1  0.35502369  0.85699856  0.34793649  1
  H+  H230  1  0.41326237  0.14264323  0.83310477  1
  H+  H231  1  0.28112474  0.64912945  0.50692512  1
  H+  H232  1  0.12992479  0.54721843  0.33145519  1
  H+  H233  1  0.37421045  0.23814698  0.82499910  1
  H+  H234  1  0.11921375  -0.03230068  0.35326082  1
  H+  H235  1  0.87476483  0.15412770  0.50842208  1
  H+  H236  1  0.51434282  0.14949648  0.83151365  1
  H+  H237  1  0.71642959  0.86895352  0.16818623  1
  H+  H238  1  0.09058978  0.63486713  0.35719270  1
  H+  H239  1  0.61926609  0.56038211  0.82852903  1
  H+  H240  1  0.67793422  0.59849263  0.22639256  1
  H+  H241  1  0.02819695  0.38774093  0.14918068  1
  H+  H242  1  0.11922174  0.22759316  0.48690368  1
  H+  H243  1  0.85590533  0.71748004  0.68825110  1
  H+  H244  1  0.63584675  0.05242322  0.99843347  1
  H+  H245  1  -0.01959951  0.11560228  0.49925864  1
  H+  H246  1  0.73989296  0.84552988  0.97151047  1
  H+  H247  1  0.26791528  0.85190271  0.15999454  1
  H+  H248  1  0.29194792  0.14453574  0.82894156  1
  H+  H249  1  0.37685975  0.73094189  0.16068327  1
  H+  H250  1  0.15543309  0.11924599  0.84232729  1
  H+  H251  1  0.11201485  0.38749062  0.82693549  1
  H+  H252  1  0.90538290  0.97717653  0.83907642  1
  H+  H253  1  0.88835915  0.27355691  0.15374820  1
  H+  H254  1  0.41420738  0.29803269  0.16957477  1
  H+  H255  1  0.45698740  0.60770104  0.66201607  1
  H+  H256  1  0.88485040  0.29374228  0.64588854  1
  H+  H257  1  0.17178081  0.32740898  0.59123007  1
  H+  H258  1  0.14209017  0.14853886  0.21503690  1
  H+  H259  1  0.40308026  1.07515203  0.38246898  1
  H+  H260  1  0.61278839  0.71555598  0.49986971  1
  H+  H261  1  1.03125529  0.87531492  0.66024269  1
  H+  H262  1  0.58631044  0.90221425  0.40361502  1
  H+  H263  1  0.36455951  0.38452608  0.99983957  1
  H+  H264  1  0.69583844  0.37352498  0.54416429  1
  H+  H265  1  0.22063544  0.12005922  0.66728573  1
  H+  H266  1  0.37122990  0.82028170  0.82394996  1
  H+  H267  1  0.46423957  0.61256387  0.83747666  1
  H+  H268  1  0.54981906  0.17092919  0.17776257  1
  H+  H269  1  0.60263802  0.98131152  0.83144650  1
  H+  H270  1  0.13915875  0.86085683  0.32906785  1
  H+  H271  1  0.73285247  0.12768265  0.16379348  1
  H+  H272  1  0.87004998  0.51181473  0.68022781  1
  H+  H273  1  0.09725006  0.38598443  0.34854203  1
  H+  H274  1  0.64073217  0.28831666  0.00593239  1
  H+  H275  1  0.63672636  0.85422452  0.51161178  1
  H+  H276  1  0.27958922  0.14182998  -0.00236592  1
  H+  H277  1  0.88722978  0.12191454  0.83698989  1
  H+  H278  1  0.12783267  0.76874278  0.33173789  1
  H+  H279  1  0.13111196  0.48083358  0.67558772  1
  H+  H280  1  0.51003183  0.38713638  0.16706946  1
  H+  H281  1  0.61341156  0.13990559  0.66740151  1
  H+  H282  1  0.87052884  0.79813852  0.17239486  1
  H+  H283  1  0.49481446  0.13497647  -0.01635040  1
  H+  H284  1  0.62075170  -0.02918140  0.49679135  1
  H+  H285  1  0.56155659  0.81729479  -0.01512815  1
  H+  H286  1  0.33922654  0.17095678  0.73359451  1
  H+  H287  1  0.14441334  0.53265984  0.50869161  1
  H+  H288  1  0.40645757  0.58278265  0.59860008  1
  H+  H289  1  0.16900577  0.58880463  0.57001444  1
  H+  H290  1  0.67637471  0.56952107  0.92254663  1
  H+  H291  1  0.92541054  0.09594580  0.56063383  1
  H+  H292  1  0.22727640  0.36208569  0.98664169  1
  H+  H293  1  0.08807156  0.90977683  0.44824499  1
  H+  H294  1  0.40304426  0.58788172  0.89382002  1
  H+  H295  1  0.58635961  0.37597623  0.77090960  1
  H+  H296  1  0.34511889  0.41905878  0.09256697  1
  H+  H297  1  0.65627601  0.53909254  0.56124096  1
  H+  H298  1  0.66099299  0.07674604  0.56763241  1
  H+  H299  1  0.10835449  0.25343236  0.14241969  1
  H+  H300  1  0.83612382  0.93519582  0.09941854  1
  H+  H301  1  0.09113744  0.42577908  0.09111052  1
  H+  H302  1  0.91005593  0.09957808  0.93849002  1
  H+  H303  1  0.34584115  0.92129084  0.72182254  1
  H+  H304  1  0.34377819  0.69264146  0.72738105  1
  H+  H305  1  0.42022023  0.82919470  0.26939701  1
  H+  H306  1  0.13652759  0.61855933  0.65775343  1
  H+  H307  1  0.90260351  0.40305219  0.49105589  1
  H+  H308  1  0.09693978  0.41997622  0.43546421  1
  H+  H309  1  0.78779239  0.73789789  0.09966070  1
  H+  H310  1  0.62586403  0.30383117  0.82785229  1
  H+  H311  1  0.58281789  0.42299180  0.07611647  1
  H+  H312  1  0.63680080  0.85493335  0.33263497  1
  H+  H313  1  0.37216575  0.14631905  0.50043518  1
  H+  H314  1  0.43673684  0.34861910  0.25846783  1
  H+  H315  1  0.94525021  0.97376721  0.04236003  1
  H+  H316  1  0.32547455  0.41921668  0.76194716  1
  H+  H317  1  0.48375404  0.86596137  0.17662109  1
  H+  H318  1  0.80980238  0.84429511  0.75853589  1
  H+  H319  1  0.87667896  0.59360893  0.36482629  1
  H+  H320  1  0.31717035  0.89466609  0.44667718  1
  H+  H321  1  0.43214702  0.09725889  0.26572823  1
  H+  H322  1  0.18771868  0.09578513  0.90154586  1
  H+  H323  1  0.16510641  0.81069421  0.23629120  1
  H+  H324  1  0.15835697  0.80821093  0.88312864  1
  H+  H325  1  0.58952299  0.17761323  0.06666542  1
  H+  H326  1  0.19851852  0.06481020  0.28424516  1
  H+  H327  1  0.07518710  0.17919324  0.05102974  1
  H+  H328  1  0.91928595  0.83335209  0.27985991  1
  H+  H329  1  0.43937586  0.33949995  0.58336748  1
  H+  H330  1  0.64647838  0.43500474  0.49718557  1
  H+  H331  1  0.76148204  0.43106091  0.49197423  1
  H+  H332  1  0.91637261  0.10015800  0.26155644  1
  H+  H333  1  0.83830910  0.66571228  0.05366227  1
  H+  H334  1  0.01475542  0.47652255  0.40459865  1
  H+  H335  1  0.70521089  0.58043477  0.79791074  1
  H+  H336  1  0.43598467  0.58005933  0.26072152  1
  H+  H337  1  0.60279390  0.66740140  0.78470616  1
  H+  H338  1  0.15005918  0.37978999  0.16004201  1
  H+  H339  1  0.90673951  0.80171526  0.59836983  1
  H+  H340  1  0.96861774  0.84936738  0.50986783  1
  H+  H341  1  0.63307817  0.25774981  0.15953186  1
  H+  H342  1  0.59548869  0.18467352  0.72384372  1
  H+  H343  1  0.93242353  0.82352823  0.88918279  1
  H+  H344  1  0.94167983  0.58451273  0.24396018  1
  H+  H345  1  0.68381017  0.10360043  0.25922812  1
  H+  H346  1  0.44499844  0.13161005  0.24165754  1
  H+  H347  1  0.68274776  0.81730618  0.91210553  1
  H+  H348  1  0.07929593  0.67163864  0.44957744  1
  H+  H349  1  0.61725908  -0.01097891  0.16696590  1
  H+  H350  1  0.92444916  0.57929758  0.88996356  1
  H+  H351  1  0.44713161  0.11523687  0.89824115  1
  H+  H352  1  0.96049930  0.61555699  0.67288807  1
  H+  H353  1  0.34393856  0.17400959  0.05338110  1
  H+  H354  1  0.82452100  0.16670816  0.08394942  1
  H+  H355  1  0.18873894  0.31512918  0.24936433  1
  H+  H356  1  0.51675091  0.92675226  0.01132064  1
  H+  H357  1  0.38490675  0.62274006  0.51502504  1
  H+  H358  1  0.77434502  0.22688444  0.78137778  1
  H+  H359  1  0.82072013  0.65794093  0.39903464  1
  H+  H360  1  0.37854496  0.02151498  0.50729897  1
  H+  H361  1  0.51041779  0.38674594  0.52022264  1
  H+  H362  1  0.91505182  0.36165793  0.59099915  1
  H+  H363  1  0.76800427  0.38905616  0.98766486  1
  H+  H364  1  0.12073785  0.76797795  0.62727858  1
  H+  H365  1  0.07388641  0.66161327  0.72537869  1
  H+  H366  1  0.58399894  0.66714969  0.09027341  1
  H+  H367  1  0.16373009  0.33240738  0.89264784  1
  H+  H368  1  0.10654060  0.91190930  0.05511680  1
  H+  H369  1  0.67046898  0.34398861  0.22504263  1
  H+  H370  1  0.83174537  0.90040002  0.40738089  1
  H+  H371  1  0.67131967  0.83269589  0.57211166  1
  H+  H372  1  0.15619136  0.58245166  0.89051278  1
  H+  H373  1  0.05339703  0.21082354  0.71226788  1
  H+  H374  1  0.12466094  0.76007088  0.98543712  1
  H+  H375  1  0.83300325  0.18326823  0.71547220  1
  H+  H376  1  0.32550432  0.20195279  0.42110630  1
  H+  H377  1  0.58942242  0.66310692  0.39817160  1
  H+  H378  1  0.18052428  0.57461477  0.23135827  1
  H+  H379  1  0.32345217  0.64398794  0.07375396  1
  H+  H380  1  0.31374747  0.87683671  0.05714167  1
  H+  H381  1  0.92905126  0.33270623  0.93616988  1
  H+  H382  1  0.60068621  0.93097916  0.72256175  1
  H+  H383  1  0.08911368  0.16506450  0.42873951  1
  O2-  O384  1  0.06709535  0.19251395  0.12751786  1
  O2-  O385  1  0.09028695  0.16604501  0.47414189  1
  O2-  O386  1  0.08064892  0.15851419  0.81869694  1
  O2-  O387  1  0.09074533  0.42280335  0.13651440  1
  O2-  O388  1  0.09137962  0.42605845  0.47901617  1
  O2-  O389  1  0.08241285  0.41862819  0.81136483  1
  O2-  O390  1  0.09087205  0.65136018  0.14714824  1
  O2-  O391  1  0.07484268  0.66121735  0.49413578  1
  O2-  O392  1  0.07943178  0.65051994  0.80191816  1
  O2-  O393  1  0.12277859  0.90151326  0.13653760  1
  O2-  O394  1  0.08347254  0.91071925  0.49334133  1
  O2-  O395  1  0.08865550  0.88160203  0.79599190  1
  O2-  O396  1  0.33322400  0.19217406  0.13195824  1
  O2-  O397  1  0.34922283  0.18702016  0.49378918  1
  O2-  O398  1  0.35179423  0.17688231  0.81074848  1
  O2-  O399  1  0.34517045  0.42122119  0.13810087  1
  O2-  O400  1  0.32830088  0.42229970  0.48011220  1
  O2-  O401  1  0.32108225  0.42106321  0.80712227  1
  O2-  O402  1  0.34551790  0.66946813  0.14535284  1
  O2-  O403  1  0.34252305  0.67490924  0.49610691  1
  O2-  O404  1  0.35738830  0.70784949  0.80664121  1
  O2-  O405  1  0.32424013  0.88003800  0.13838992  1
  O2-  O406  1  0.32422118  0.90925779  0.49080880  1
  O2-  O407  1  0.32818011  0.88500045  0.80715440  1
  O2-  O408  1  0.59827174  0.19199318  0.15003283  1
  O2-  O409  1  0.58661242  0.15926285  0.47333940  1
  O2-  O410  1  0.59812655  0.18366398  0.80735421  1
  O2-  O411  1  0.59087565  0.42078391  0.14354513  1
  O2-  O412  1  0.59699183  0.45290521  0.49374215  1
  O2-  O413  1  0.59836577  0.37057626  0.81415571  1
  O2-  O414  1  0.58620660  0.67216888  0.13537910  1
  O2-  O415  1  0.57625270  0.65738976  0.48148142  1
  O2-  O416  1  0.57389510  0.64425930  0.82511656  1
  O2-  O417  1  0.58366598  0.92872134  0.15175052  1
  O2-  O418  1  0.59014638  0.90919012  0.48407209  1
  O2-  O419  1  0.58159684  0.92375172  0.81222380  1
  O2-  O420  1  0.82355220  0.17539981  0.13313197  1
  O2-  O421  1  0.84530827  0.18801086  0.51715448  1
  O2-  O422  1  0.79964756  0.19310087  0.79577184  1
  O2-  O423  1  0.85375884  0.43450144  0.15495784  1
  O2-  O424  1  0.87719973  0.47642246  0.47164076  1
  O2-  O425  1  0.82401969  0.39580674  0.81156259  1
  O2-  O426  1  0.81487750  0.71613968  0.12724209  1
  O2-  O427  1  0.80608005  0.65437298  0.46933990  1
  O2-  O428  1  0.74105317  0.62640445  0.71972861  1
  O2-  O429  1  0.82149655  0.93445625  0.14332739  1
  O2-  O430  1  0.83487109  0.91320131  0.48790332  1
  O2-  O431  1  0.78732559  0.81058463  0.79623855  1
  O2-  O432  1  0.21504016  0.05125446  0.19848554  1
  O2-  O433  1  0.17943883  0.09357763  0.52574528  1
  O2-  O434  1  0.19471496  0.09972992  0.85685994  1
  O2-  O435  1  0.17615918  0.34355729  0.17097357  1
  O2-  O436  1  0.16993210  0.33167663  0.51631427  1
  O2-  O437  1  0.15897207  0.32944643  0.84722413  1
  O2-  O438  1  0.18259758  0.57914944  0.18622856  1
  O2-  O439  1  0.16988023  0.59215951  0.52433967  1
  O2-  O440  1  0.15092500  0.57778603  0.84464079  1
  O2-  O441  1  0.16923836  0.80624345  0.19105104  1
  O2-  O442  1  0.15845554  0.81730129  0.54814737  1
  O2-  O443  1  0.16164056  0.80491320  0.83801901  1
  O2-  O444  1  0.38155919  0.05087872  0.13471147  1
  O2-  O445  1  0.41207147  0.08372374  0.51802427  1
  O2-  O446  1  0.44899930  0.11648537  0.84876636  1
  O2-  O447  1  0.44265715  0.35747356  0.18450086  1
  O2-  O448  1  0.44886547  0.34279075  0.53635830  1
  O2-  O449  1  0.40570634  0.33487326  0.85083254  1
  O2-  O450  1  0.42712441  0.58477205  0.18181421  1
  O2-  O451  1  0.41183101  0.58652260  0.52893700  1
  O2-  O452  1  0.40371988  0.59309885  0.84839590  1
  O2-  O453  1  0.42273961  0.82698519  0.19020323  1
  O2-  O454  1  0.42833159  0.84342124  0.52647574  1
  O2-  O455  1  0.40765399  0.79351552  0.83343075  1
  O2-  O456  1  0.67465467  0.09823023  0.18572308  1
  O2-  O457  1  0.66517763  0.07587408  0.52168488  1
  O2-  O458  1  0.65872256  0.08619564  0.85679434  1
  O2-  O459  1  0.67727193  0.35048298  0.18002784  1
  O2-  O460  1  0.69965614  0.39828290  0.50275325  1
  O2-  O461  1  0.65380506  0.26753606  0.83779770  1
  O2-  O462  1  0.67860007  0.60147793  0.18058933  1
  O2-  O463  1  0.63553901  0.54189697  0.51682357  1
  O2-  O464  1  0.66811055  0.55096104  0.83393761  1
  O2-  O465  1  0.65776095  0.83475151  0.18554096  1
  O2-  O466  1  0.66701177  0.82366802  0.52712153  1
  O2-  O467  1  0.65035944  0.83249649  0.84320618  1
  O2-  O468  1  0.90888058  0.10135743  0.18213645  1
  O2-  O469  1  0.92042774  0.08900093  0.51477252  1
  O2-  O470  1  0.93359596  0.14506656  0.86651749  1
  O2-  O471  1  0.92731399  0.33361807  0.17040587  1
  O2-  O472  1  0.92946983  0.36807735  0.50570848  1
  O2-  O473  1  0.92121106  0.33438411  0.85708217  1
  O2-  O474  1  0.96712910  0.55538322  0.22269077  1
  O2-  O475  1  0.91345875  0.53415080  0.52421384  1
  O2-  O476  1  0.92635591  0.57490587  0.84492449  1
  O2-  O477  1  0.89758406  0.85236372  0.19814884  1
  O2-  O478  1  0.90701239  0.81745747  0.52180425  1
  O2-  O479  1  0.92899213  0.81007058  0.84567755  1
  O2-  O480  1  0.17772557  0.07026652  0.32447917  1
  O2-  O481  1  0.16159749  0.09113333  0.64983589  1
  O2-  O482  1  0.17184636  0.09032093  0.98263272  1
  O2-  O483  1  0.19982685  0.29330838  0.28747182  1
  O2-  O484  1  0.17306664  0.32564257  0.63709730  1
  O2-  O485  1  0.16734256  0.33729934  0.97069374  1
  O2-  O486  1  0.18626337  0.58157701  0.31099115  1
  O2-  O487  1  0.17008979  0.59102313  0.64592924  1
  O2-  O488  1  0.16083816  0.58527217  0.96523348  1
  O2-  O489  1  0.16394517  0.82583248  0.31221166  1
  O2-  O490  1  0.10869236  0.75744768  0.67180874  1
  O2-  O491  1  0.15725394  0.81535941  0.96309455  1
  O2-  O492  1  0.42519523  0.05015483  0.35357081  1
  O2-  O493  1  0.41919413  0.09488447  0.64151563  1
  O2-  O494  1  0.43921517  0.10835667  0.96071216  1
  O2-  O495  1  0.43578219  0.34871618  0.30475338  1
  O2-  O496  1  0.41845851  0.33052387  0.64939320  1
  O2-  O497  1  0.42033685  0.34181481  0.97721703  1
  O2-  O498  1  0.43505120  0.57685393  0.30595384  1
  O2-  O499  1  0.39912249  0.57788729  0.64547052  1
  O2-  O500  1  0.41419998  0.57957532  0.97048274  1
  O2-  O501  1  0.41868119  0.82766272  0.31476847  1
  O2-  O502  1  0.44823532  0.85805460  0.64403580  1
  O2-  O503  1  0.43235239  0.85480849  0.96772885  1
  O2-  O504  1  0.68830665  0.10279395  0.30515665  1
  O2-  O505  1  0.66103030  0.08261339  0.64216503  1
  O2-  O506  1  0.67545954  0.10806552  0.97632106  1
  O2-  O507  1  0.66027694  0.32314124  0.30271596  1
  O2-  O508  1  0.68392916  0.33762990  0.61710817  1
  O2-  O509  1  0.67413091  0.35085328  0.99706955  1
  O2-  O510  1  0.67842613  0.58826379  0.30161854  1
  O2-  O511  1  0.69259091  0.53265658  0.61939137  1
  O2-  O512  1  0.67392170  0.57882596  0.96648820  1
  O2-  O513  1  0.66850844  0.82529196  0.31553827  1
  O2-  O514  1  0.68973679  0.85962095  0.65070305  1
  O2-  O515  1  0.69978231  0.79541418  0.94821225  1
  O2-  O516  1  0.91349476  0.09752056  0.30658478  1
  O2-  O517  1  0.92001413  0.10684577  0.63463135  1
  O2-  O518  1  0.90879067  0.09034632  0.98325585  1
  O2-  O519  1  0.91368705  0.32815416  0.29459230  1
  O2-  O520  1  0.91032582  0.35553485  0.63565782  1
  O2-  O521  1  0.93071881  0.33764223  0.98138619  1
  O2-  O522  1  0.90803409  0.56072338  0.37142603  1
  O2-  O523  1  0.89599253  0.58068538  0.67033548  1
  O2-  O524  1  0.92031568  0.58354395  0.97048027  1
  O2-  O525  1  0.92440745  0.82769413  0.32394388  1
  O2-  O526  1  0.91102150  0.80369365  0.64390303  1
  O2-  O527  1  0.93306530  0.83290469  0.97624207  1
  O2-  O528  1  0.07685590  0.17066937  0.00640502  1
  O2-  O529  1  0.08238395  0.15566193  0.34911413  1
  O2-  O530  1  0.05747062  0.16656538  0.68929362  1
  O2-  O531  1  0.09432968  0.42855362  0.01236149  1
  O2-  O532  1  0.02482594  0.48831850  0.36105550  1
  O2-  O533  1  0.10891499  0.42403300  0.69496957  1
  O2-  O534  1  0.07794267  0.65930860  0.02254529  1
  O2-  O535  1  0.07073069  0.67365281  0.37044383  1
  O2-  O536  1  0.06765634  0.66379745  0.67963019  1
  O2-  O537  1  0.09906494  0.91902548  0.01136286  1
  O2-  O538  1  0.08852537  0.90626233  0.36600068  1
  O2-  O539  1  0.09138381  0.90989484  0.67381037  1
  O2-  O540  1  0.34204780  0.17205994  0.00837430  1
  O2-  O541  1  0.30663655  0.21054399  0.37998615  1
  O2-  O542  1  0.33337567  0.17074258  0.68805674  1
  O2-  O543  1  0.33198537  0.41372118  0.01471996  1
  O2-  O544  1  0.34414717  0.41523911  0.35249138  1
  O2-  O545  1  0.33157779  0.40939632  0.68315044  1
  O2-  O546  1  0.30313041  0.61270124  0.03336312  1
  O2-  O547  1  0.37179465  0.67032053  0.35066076  1
  O2-  O548  1  0.33593698  0.68452354  0.68264448  1
  O2-  O549  1  0.31887912  0.88844319  0.01297774  1
  O2-  O550  1  0.32178706  0.88192828  0.36796652  1
  O2-  O551  1  0.35828658  0.93525474  0.67849411  1
  O2-  O552  1  0.58883062  0.18007259  0.02181279  1
  O2-  O553  1  0.59697816  0.16227210  0.35506076  1
  O2-  O554  1  0.58888766  0.17718866  0.67901573  1
  O2-  O555  1  0.57642746  0.41968055  0.02840476  1
  O2-  O556  1  0.60275148  0.41961550  0.34381515  1
  O2-  O557  1  0.57395109  0.41744148  0.70116863  1
  O2-  O558  1  0.58180449  0.65492011  0.00809197  1
  O2-  O559  1  0.59396152  0.66335849  0.35315144  1
  O2-  O560  1  0.64617467  0.69853938  0.71471380  1
  O2-  O561  1  0.56313797  0.97435827  0.03542700  1
  O2-  O562  1  0.58772630  0.89976354  0.35852703  1
  O2-  O563  1  0.60401301  0.92950066  0.67806319  1
  O2-  O564  1  0.82869400  0.15981488  0.02129014  1
  O2-  O565  1  0.83279428  0.17226692  0.34486325  1
  O2-  O566  1  0.83837177  0.18489660  0.67074904  1
  O2-  O567  1  0.83146743  0.41311066  -0.02642843  1
  O2-  O568  1  0.82582665  0.39999220  0.31658917  1
  O2-  O569  1  0.83694215  0.42747397  0.68943913  1
  O2-  O570  1  0.84101560  0.66472757  0.00902007  1
  O2-  O571  1  0.83409216  0.65593453  0.35416449  1
  O2-  O572  1  0.83553298  0.66863040  0.71850254  1
  O2-  O573  1  0.88647530  0.95066990  0.02792840  1
  O2-  O574  1  0.83479204  0.89376166  0.36282960  1
  O2-  O575  1  0.84362198  0.90045268  0.68556198  1
