# generated using pymatgen
data_H2O
_symmetry_space_group_name_H-M   'P 1'
_cell_length_a   18.00988612
_cell_length_b   17.99569046
_cell_length_c   22.01939989
_cell_angle_alpha   89.96295719
_cell_angle_beta   89.96652759
_cell_angle_gamma   120.00987607
_symmetry_Int_Tables_number   1
_chemical_formula_structural   H2O
_chemical_formula_sum   'H384 O192'
_cell_volume   6179.76604144
_cell_formula_units_Z   192
loop_
 _symmetry_equiv_pos_site_id
 _symmetry_equiv_pos_as_xyz
  1  'x, y, z'
loop_
 _atom_type_symbol
 _atom_type_oxidation_number
  H+  1.0
  O2-  -2.0
loop_
 _atom_site_type_symbol
 _atom_site_label
 _atom_site_symmetry_multiplicity
 _atom_site_fract_x
 _atom_site_fract_y
 _atom_site_fract_z
 _atom_site_occupancy
  H+  H0  1  0.58215807  0.11590754  0.34202471  1
  H+  H1  1  0.87150987  0.76317898  0.31131112  1
  H+  H2  1  0.97910989  0.12098036  0.84334879  1
  H+  H3  1  0.58327194  0.38525248  0.48805712  1
  H+  H4  1  0.64157550  0.86595516  0.65962013  1
  H+  H5  1  0.38851337  0.53955867  0.66884221  1
  H+  H6  1  0.13528873  0.28512106  0.16288827  1
  H+  H7  1  0.01977440  0.12590616  0.00196031  1
  H+  H8  1  0.87558677  0.61276875  0.32200055  1
  H+  H9  1  0.84867505  0.37550940  -0.00375532  1
  H+  H10  1  0.84260977  0.70290609  0.67391252  1
  H+  H11  1  0.35990590  0.37290992  0.50422758  1
  H+  H12  1  0.37430254  0.85664054  -0.00766423  1
  H+  H13  1  0.51712120  0.64633133  0.00812011  1
  H+  H14  1  0.47682575  0.62568225  0.16789898  1
  H+  H15  1  0.72242604  0.85514834  0.32958544  1
  H+  H16  1  0.87106580  0.60215221  0.16563505  1
  H+  H17  1  0.62774950  0.91196792  0.49718557  1
  H+  H18  1  0.62758514  0.52623331  0.64582144  1
  H+  H19  1  0.12515968  0.13791334  0.50053574  1
  H+  H20  1  0.62896409  0.52231265  0.82856210  1
  H+  H21  1  0.99437926  0.34559086  0.50969682  1
  H+  H22  1  0.58191567  -0.01659148  0.32069683  1
  H+  H23  1  0.01953494  0.87532026  0.82997340  1
  H+  H24  1  0.73141293  0.45265098  0.68941683  1
  H+  H25  1  0.61506169  0.46908861  -0.00198135  1
  H+  H26  1  0.27018399  0.11443694  0.68714894  1
  H+  H27  1  0.40037424  0.50663963  0.51535840  1
  H+  H28  1  0.89692121  0.48892761  0.67405462  1
  H+  H29  1  0.04303681  0.23793021  0.38851915  1
  H+  H30  1  0.60188652  0.21904113  1.03158449  1
  H+  H31  1  0.12844310  0.14611471  0.68216431  1
  H+  H32  1  0.60486056  0.47479035  0.33344586  1
  H+  H33  1  0.72678178  0.44186798  0.72276816  1
  H+  H34  1  0.16207160  0.37977232  0.50903866  1
  H+  H35  1  0.15693660  0.46509025  0.43231283  1
  H+  H36  1  0.57255953  0.41948489  0.76008496  1
  H+  H37  1  0.10596344  0.63536386  0.01190073  1
  H+  H38  1  0.39187152  0.85283005  0.51341704  1
  H+  H39  1  0.61667625  0.73226806  0.83250255  1
  H+  H40  1  0.50768089  0.84675241  0.35565933  1
  H+  H41  1  0.09716030  0.92515125  0.18301446  1
  H+  H42  1  0.35318034  0.72380827  -0.03249348  1
  H+  H43  1  0.65972372  0.32524833  0.66633244  1
  H+  H44  1  0.84503566  0.62470231  0.83249309  1
  H+  H45  1  0.68483526  0.37004096  0.51852328  1
  H+  H46  1  0.45383448  0.08077067  0.33639303  1
  H+  H47  1  0.86938131  0.97810795  0.83205111  1
  H+  H48  1  0.80617550  0.37325559  0.48623026  1
  H+  H49  1  0.13786518  0.27834091  0.51247093  1
  H+  H50  1  0.57627538  0.68184658  0.77162332  1
  H+  H51  1  0.75885351  0.62859829  0.82552590  1
  H+  H52  1  0.39237908  0.37106335  -0.00789077  1
  H+  H53  1  0.80405981  0.18384080  0.15893724  1
  H+  H54  1  0.11420367  0.54734913  0.84242670  1
  H+  H55  1  0.22768857  0.37198499  0.16597305  1
  H+  H56  1  0.11460342  0.25978157  0.34079434  1
  H+  H57  1  0.86520659  0.22420229  0.49720325  1
  H+  H58  1  0.39627943  0.72828809  0.49585704  1
  H+  H59  1  0.36405626  0.67113527  0.33104542  1
  H+  H60  1  0.56943828  0.15640703  0.10986888  1
  H+  H61  1  0.72419307  0.86756003  0.17661135  1
  H+  H62  1  0.61821882  0.89287305  0.83030026  1
  H+  H63  1  1.01986123  0.38963605  0.34066052  1
  H+  H64  1  0.68110120  0.05989150  0.16484304  1
  H+  H65  1  0.86714446  0.71745552  0.00191472  1
  H+  H66  1  0.90090363  1.00317639  0.33906030  1
  H+  H67  1  0.62584653  0.84697353  0.17826807  1
  H+  H68  1  0.58306953  0.38447877  0.66649623  1
  H+  H69  1  0.89103335  0.53130337  0.32533423  1
  H+  H70  1  0.75397947  0.12380734  0.00152027  1
  H+  H71  1  0.35768431  0.95595436  0.49858307  1
  H+  H72  1  0.90674551  0.40737228  0.34283000  1
  H+  H73  1  0.56464019  0.32422242  0.31640508  1
  H+  H74  1  0.23382695  0.38743066  0.31557338  1
  H+  H75  1  0.61475416  0.72722378  0.16408881  1
  H+  H76  1  0.03555998  0.40574368  0.82777100  1
  H+  H77  1  0.25264067  0.10282150  0.33947655  1
  H+  H78  1  0.10566927  0.87675918  0.28000157  1
  H+  H79  1  0.97520521  0.60799696  1.00276834  1
  H+  H80  1  0.58654226  0.93189921  0.43918003  1
  H+  H81  1  0.92342056  0.87246727  0.99133321  1
  H+  H82  1  0.88764851  0.64554033  0.48436434  1
  H+  H83  1  0.99901627  0.11430638  0.51516948  1
  H+  H84  1  0.93477342  0.29880821  0.18721565  1
  H+  H85  1  1.00983494  0.62603474  0.15813406  1
  H+  H86  1  0.52108462  0.13267169  0.83781771  1
  H+  H87  1  0.22664429  0.09992920  0.84813716  1
  H+  H88  1  0.97355309  0.12335468  0.16841565  1
  H+  H89  1  0.45386250  0.07920545  0.65856822  1
  H+  H90  1  0.46524124  0.09418495  0.51383711  1
  H+  H91  1  1.01747932  0.39386516  1.01249672  1
  H+  H92  1  0.36292017  0.38467796  0.83046119  1
  H+  H93  1  0.87601927  0.21854156  0.66939011  1
  H+  H94  1  0.46373517  0.11124746  0.00884218  1
  H+  H95  1  0.13768634  1.02039818  0.52927600  1
  H+  H96  1  0.37700174  0.82135333  0.16579901  1
  H+  H97  1  0.73861064  0.88503269  0.66090465  1
  H+  H98  1  0.82054259  0.93041053  0.09955854  1
  H+  H99  1  0.37693352  0.25411469  0.51275238  1
  H+  H100  1  0.56417185  0.19596641  0.34028399  1
  H+  H101  1  0.93624803  0.07825434  0.58172521  1
  H+  H102  1  0.71805423  0.61078930  0.16955300  1
  H+  H103  1  0.95236871  0.85171210  0.15575726  1
  H+  H104  1  0.18147752  0.10981129  0.22250103  1
  H+  H105  1  0.62815984  0.60686205  0.32711576  1
  H+  H106  1  0.02784804  0.37462152  0.67218911  1
  H+  H107  1  0.90571952  0.36208061  0.66324700  1
  H+  H108  1  0.54071560  0.79316430  0.70690332  1
  H+  H109  1  0.88972616  0.86089167  0.31319070  1
  H+  H110  1  0.89446871  0.60977151  0.66411540  1
  H+  H111  1  0.57634966  0.92981997  0.16133483  1
  H+  H112  1  0.10628810  0.24575402  0.83261574  1
  H+  H113  1  0.79104963  0.12500558  0.67651198  1
  H+  H114  1  0.48641193  0.60990556  0.84381084  1
  H+  H115  1  0.23156362  0.37603406  0.84270857  1
  H+  H116  1  0.14631537  0.26305813  0.98976715  1
  H+  H117  1  0.90196272  0.01833713  0.66382112  1
  H+  H118  1  0.84572137  0.71375535  0.14697637  1
  H+  H119  1  0.84936006  0.46490243  -0.00237775  1
  H+  H120  1  0.62665842  0.35247913  0.02239486  1
  H+  H121  1  0.14147901  0.41276523  0.33607968  1
  H+  H122  1  0.01394062  0.63996823  0.32863358  1
  H+  H123  1  0.86971193  0.89103141  0.49796512  1
  H+  H124  1  0.12872772  0.76879902  0.31378857  1
  H+  H125  1  0.60796809  0.39271936  0.15414660  1
  H+  H126  1  0.12308335  0.73483900  0.64563602  1
  H+  H127  1  0.66445710  0.33178029  0.10769945  1
  H+  H128  1  0.34636624  0.18196187  0.34211820  1
  H+  H129  1  0.09294148  0.90789724  0.46998920  1
  H+  H130  1  0.62808870  0.52485595  0.17283845  1
  H+  H131  1  0.95979733  0.97388096  0.37037562  1
  H+  H132  1  0.13821319  0.51189709  0.55080737  1
  H+  H133  1  0.85351518  0.89379176  0.15238232  1
  H+  H134  1  0.90399802  1.02142961  0.51283129  1
  H+  H135  1  0.36490409  0.40018681  0.16037405  1
  H+  H136  1  0.04793401  0.42125100  0.16747327  1
  H+  H137  1  0.39596271  0.96208612  0.15942440  1
  H+  H138  1  0.58295577  0.47432457  0.48345514  1
  H+  H139  1  0.73481362  0.89000625  0.50128368  1
  H+  H140  1  0.12254263  0.52180392  -0.00404698  1
  H+  H141  1  0.13749136  0.01100790  0.84614035  1
  H+  H142  1  0.60039273  0.73063270  0.67346278  1
  H+  H143  1  0.84859551  -0.01309379  1.00140747  1
  H+  H144  1  0.29433732  0.15319385  0.16589745  1
  H+  H145  1  0.41792440  0.60278492  0.50930722  1
  H+  H146  1  0.10154830  0.61671849  0.47628607  1
  H+  H147  1  0.60775181  0.63569480  0.16005332  1
  H+  H148  1  0.34977441  0.79876334  0.34318180  1
  H+  H149  1  0.23406785  0.86190611  0.67334035  1
  H+  H150  1  0.27553347  0.40391933  0.68527861  1
  H+  H151  1  0.99483849  0.64874308  0.84764545  1
  H+  H152  1  0.88109295  0.76534953  0.84004628  1
  H+  H153  1  0.37736993  0.60670937  0.97893824  1
  H+  H154  1  0.03842873  0.14251540  0.67553943  1
  H+  H155  1  0.13022890  0.76070759  0.99977885  1
  H+  H156  1  0.38123345  0.38106376  0.66365565  1
  H+  H157  1  0.48778581  0.87055835  0.51735393  1
  H+  H158  1  0.27440792  0.88286168  0.83065970  1
  H+  H159  1  0.11455503  0.15329744  0.15494647  1
  H+  H160  1  0.32085060  0.65871915  -0.08687161  1
  H+  H161  1  0.61645011  0.77449309  -0.00465401  1
  H+  H162  1  0.49644943  0.83154117  0.16217265  1
  H+  H163  1  0.97219917  0.85832574  0.53065359  1
  H+  H164  1  0.63439169  0.61514877  0.83261700  1
  H+  H165  1  0.39402200  0.28258724  0.17805416  1
  H+  H166  1  0.35771747  0.95767698  0.67874492  1
  H+  H167  1  0.50312190  0.39761476  0.67008369  1
  H+  H168  1  0.47409484  0.63622678  0.32219240  1
  H+  H169  1  0.12826354  0.57113140  0.59865480  1
  H+  H170  1  0.15983452  0.81385951  0.90657566  1
  H+  H171  1  0.40895082  0.66114999  0.81271988  1
  H+  H172  1  0.22731947  0.63359317  0.32525367  1
  H+  H173  1  0.59556448  0.22028135  0.49614417  1
  H+  H174  1  0.37108324  0.47834346  0.83321460  1
  H+  H175  1  0.88648663  0.48884307  0.83304824  1
  H+  H176  1  0.64440968  0.12652822  0.50835339  1
  H+  H177  1  0.21890084  0.85326729  0.32037497  1
  H+  H178  1  0.84246449  0.12070984  0.15908527  1
  H+  H179  1  0.87926907  0.26728619  0.99305109  1
  H+  H180  1  0.11637969  0.86659027  0.52327509  1
  H+  H181  1  0.75150838  0.13419566  0.49986564  1
  H+  H182  1  0.10928121  0.89126823  0.68066444  1
  H+  H183  1  0.12124190  0.96642610  0.01068925  1
  H+  H184  1  0.12797197  0.36818384  0.66555540  1
  H+  H185  1  0.61315157  0.71686360  0.35187933  1
  H+  H186  1  0.70044400  0.87084576  -0.00419817  1
  H+  H187  1  0.56529322  0.41470817  0.39294783  1
  H+  H188  1  0.88990832  0.51882550  0.50748771  1
  H+  H189  1  0.75968288  0.63226829  0.33354163  1
  H+  H190  1  0.36441036  0.22127902  0.83214703  1
  H+  H191  1  0.28008693  0.38542779  0.51094356  1
  H+  H192  1  0.87171973  0.14734538  0.33931914  1
  H+  H193  1  0.76737836  0.74973974  0.62874554  1
  H+  H194  1  0.00050570  0.85695766  -0.00400666  1
  H+  H195  1  0.22700011  0.10593060  0.51913819  1
  H+  H196  1  0.61163328  0.39310965  0.81717544  1
  H+  H197  1  0.64487403  0.28762987  0.83765028  1
  H+  H198  1  0.84644709  0.87671317  0.67729965  1
  H+  H199  1  0.48290691  0.87840531  0.84164613  1
  H+  H200  1  0.46597675  0.83636632  0.67347453  1
  H+  H201  1  0.64761442  0.99681433  0.67458598  1
  H+  H202  1  0.38298191  0.52131251  -0.00604173  1
  H+  H203  1  0.36797324  0.13419282  0.83844493  1
  H+  H204  1  0.51522611  0.13459639  0.17599580  1
  H+  H205  1  0.54223318  0.60096310  0.50620521  1
  H+  H206  1  0.66612070  0.82478609  0.26919506  1
  H+  H207  1  0.59316473  0.12401880  0.02405669  1
  H+  H208  1  0.98013808  0.13985446  0.32249647  1
  H+  H209  1  0.72128255  0.35713542  0.16984038  1
  H+  H210  1  0.90255937  0.10858400  0.65972196  1
  H+  H211  1  0.16459961  0.06540836  0.93402118  1
  H+  H212  1  0.49896751  0.66099962  0.68115671  1
  H+  H213  1  0.16644470  0.05823664  0.16179807  1
  H+  H214  1  0.72856186  0.59560773  0.98351779  1
  H+  H215  1  0.33003502  0.89424500  0.43973514  1
  H+  H216  1  0.30107952  0.88299241  0.15824598  1
  H+  H217  1  0.19030119  0.89360691  0.16373324  1
  H+  H218  1  0.36445711  0.43398066  0.32941383  1
  H+  H219  1  0.64943972  0.58530273  0.55044917  1
  H+  H220  1  0.87958502  0.11192284  0.98985718  1
  H+  H221  1  0.37801314  0.85314579  0.67008755  1
  H+  H222  1  0.62189616  -0.01672507  0.81920460  1
  H+  H223  1  0.92872909  0.29812809  0.34202666  1
  H+  H224  1  0.28785880  0.67298889  0.15965898  1
  H+  H225  1  0.59491195  0.22963394  0.64794688  1
  H+  H226  1  0.11373660  0.70927076  0.48703770  1
  H+  H227  1  0.37476838  0.10885988  0.00100436  1
  H+  H228  1  0.67021219  0.06295762  0.31029559  1
  H+  H229  1  0.72384932  0.37319929  0.29472969  1
  H+  H230  1  0.88590504  0.03190233  0.17211461  1
  H+  H231  1  0.85618431  0.38150159  0.18876706  1
  H+  H232  1  0.39234004  0.63381065  0.16509471  1
  H+  H233  1  0.23989381  0.51413720  0.47308492  1
  H+  H234  1  0.64537508  0.12460816  0.83244330  1
  H+  H235  1  0.36180978  0.07267689  0.33180793  1
  H+  H236  1  0.47257477  0.38958706  0.32651346  1
  H+  H237  1  0.36297280  0.48856532  0.15807250  1
  H+  H238  1  0.56710201  0.10873276  0.60319052  1
  H+  H239  1  0.13672891  0.26936436  0.66695647  1
  H+  H240  1  0.41624986  0.07623263  0.90890734  1
  H+  H241  1  0.36658885  0.88858793  0.83136655  1
  H+  H242  1  0.47396086  0.36080895  0.83712889  1
  H+  H243  1  0.35372833  -0.03158774  1.01185235  1
  H+  H244  1  1.13659777  0.70164596  0.84427027  1
  H+  H245  1  0.31870268  0.13855345  0.44251489  1
  H+  H246  1  0.23121830  0.83647383  0.51003145  1
  H+  H247  1  0.89222431  0.77598901  0.50479581  1
  H+  H248  1  0.72662001  0.33255158  0.29309060  1
  H+  H249  1  0.36564143  0.08310858  0.66982575  1
  H+  H250  1  1.03801562  0.64295982  0.64294074  1
  H+  H251  1  0.81239690  0.40021267  0.68167394  1
  H+  H252  1  0.80292261  0.17899224  0.33767903  1
  H+  H253  1  0.89971395  0.37190693  0.84393598  1
  H+  H254  1  0.45860855  0.34867190  0.50511485  1
  H+  H255  1  0.27684613  0.38064720  1.00354678  1
  H+  H256  1  0.14939562  0.38834532  0.84501204  1
  H+  H257  1  0.22135860  0.10244753  0.99484129  1
  H+  H258  1  0.66085855  0.83963094  0.90178684  1
  H+  H259  1  0.91636427  0.36329711  0.50333993  1
  H+  H260  1  0.82077310  0.88685353  0.00082899  1
  H+  H261  1  0.39265335  0.10707181  0.18010465  1
  H+  H262  1  0.12960767  0.41073967  0.15884834  1
  H+  H263  1  0.01310617  0.87078544  0.27722752  1
  H+  H264  1  0.41833386  0.33247492  0.89858767  1
  H+  H265  1  0.85806437  0.17641099  0.76453409  1
  H+  H266  1  0.40561253  0.74656022  0.81473471  1
  H+  H267  1  1.01506458  0.57964478  0.86655935  1
  H+  H268  1  0.12288166  0.08775816  0.31840423  1
  H+  H269  1  0.22283163  0.84880395  -0.00199978  1
  H+  H270  1  0.41273796  0.06622475  0.23874525  1
  H+  H271  1  0.78926966  0.15261141  0.81695315  1
  H+  H272  1  0.73263540  0.37605026  0.83504420  1
  H+  H273  1  0.16833114  0.77748931  0.56369411  1
  H+  H274  1  0.47971199  0.36562949  0.99269542  1
  H+  H275  1  0.35551510  0.18059447  0.10967963  1
  H+  H276  1  0.86553146  0.88644761  0.83156226  1
  H+  H277  1  0.13803600  0.50160366  0.33851369  1
  H+  H278  1  0.59064377  0.87667834  0.00842296  1
  H+  H279  1  0.35289624  0.51529438  0.32465738  1
  H+  H280  1  0.72409989  0.59751425  0.64391544  1
  H+  H281  1  0.60245098  0.86546356  0.34348047  1
  H+  H282  1  0.13257491  0.62044088  0.31946072  1
  H+  H283  1  0.10689711  0.64375672  0.15996206  1
  H+  H284  1  0.12350512  0.00555012  0.28997491  1
  H+  H285  1  0.60554141  0.00185560  1.00929725  1
  H+  H286  1  0.38813374  0.01893389  0.84769890  1
  H+  H287  1  0.13088055  0.02158896  0.67552020  1
  H+  H288  1  0.57832472  0.68019103  0.06630873  1
  H+  H289  1  0.55906248  0.87838699  0.74278607  1
  H+  H290  1  0.82830948  0.16754570  0.43516107  1
  H+  H291  1  0.64392478  0.03494461  0.50421289  1
  H+  H292  1  0.81959830  0.65051633  0.09074259  1
  H+  H293  1  0.89481446  0.82260504  0.21513163  1
  H+  H294  1  0.67667091  0.05109988  0.61430028  1
  H+  H295  1  0.61691136  0.31609520  0.56814029  1
  H+  H296  1  0.88787645  0.11313749  0.84165331  1
  H+  H297  1  0.42233555  0.61840399  0.25873422  1
  H+  H298  1  0.85854560  0.79949559  0.59777849  1
  H+  H299  1  0.72835845  0.86930082  0.84546542  1
  H+  H300  1  0.71804583  0.35221660  0.01900189  1
  H+  H301  1  0.16527472  0.33299709  0.60455952  1
  H+  H302  1  0.86690980  0.42073503  0.43040076  1
  H+  H303  1  0.41965724  0.84342967  0.89976181  1
  H+  H304  1  0.65939348  0.58233798  0.26484143  1
  H+  H305  1  0.27843602  0.20662198  0.05013774  1
  H+  H306  1  0.42880732  0.58455543  0.60596906  1
  H+  H307  1  0.08354207  0.18379809  0.77557947  1
  H+  H308  1  0.90407702  0.28523888  0.83824486  1
  H+  H309  1  0.60707999  0.10200225  0.66337942  1
  H+  H310  1  0.92952299  0.32760326  0.60296394  1
  H+  H311  1  0.44809742  0.70610317  0.45057375  1
  H+  H312  1  0.09596911  0.94897303  0.39264592  1
  H+  H313  1  0.33706884  0.68231779  0.39677123  1
  H+  H314  1  0.97690771  0.60582029  0.50657076  1
  H+  H315  1  0.56961247  0.15412876  0.44072584  1
  H+  H316  1  0.92937645  0.58266690  0.93905772  1
  H+  H317  1  0.36273292  0.24811742  0.01120248  1
  H+  H318  1  0.10844680  0.93005361  0.10780698  1
  H+  H319  1  0.35156020  0.95044979  0.34429456  1
  H+  H320  1  0.07673235  0.16830850  0.09445630  1
  H+  H321  1  0.59936088  0.05066274  0.95233512  1
  H+  H322  1  0.92220491  0.82470384  0.89868956  1
  H+  H323  1  0.10737475  0.45855992  0.64770940  1
  H+  H324  1  0.55713950  0.89011937  0.07332903  1
  H+  H325  1  0.69332697  0.10286939  0.88385478  1
  H+  H326  1  0.59080691  0.28684561  0.26129990  1
  H+  H327  1  0.33955377  0.90734158  0.06887478  1
  H+  H328  1  0.41415176  0.34856124  0.23336185  1
  H+  H329  1  0.16824879  0.34347578  0.25837086  1
  H+  H330  1  0.94592488  0.72270260  0.44239141  1
  H+  H331  1  0.84797340  0.46574545  0.18511639  1
  H+  H332  1  0.33656447  0.42887595  0.74323268  1
  H+  H333  1  0.60894041  0.23601037  0.16063602  1
  H+  H334  1  0.84071255  0.92206162  0.73930440  1
  H+  H335  1  0.82722193  0.64871231  0.73430876  1
  H+  H336  1  0.33600794  0.42030827  0.06335851  1
  H+  H337  1  0.42430379  0.57921665  0.90192521  1
  H+  H338  1  0.19624213  0.88362571  0.61653664  1
  H+  H339  1  0.81369173  0.39579921  0.33816654  1
  H+  H340  1  0.41604921  0.82823131  0.60532646  1
  H+  H341  1  0.83022618  0.66990021  0.38834373  1
  H+  H342  1  0.16034805  0.55251932  0.16823344  1
  H+  H343  1  0.18276599  0.60863157  0.22804871  1
  H+  H344  1  0.16871098  0.08517015  0.61794956  1
  H+  H345  1  0.21262879  0.60958137  0.97823733  1
  H+  H346  1  0.19336008  0.83911242  0.21924991  1
  H+  H347  1  0.46200460  0.85430099  -0.00270042  1
  H+  H348  1  0.33402240  0.14141657  0.74379606  1
  H+  H349  1  0.09416114  0.17285061  0.44229339  1
  H+  H350  1  0.08342238  0.43379198  0.06807864  1
  H+  H351  1  0.95093486  0.35287981  0.24740403  1
  H+  H352  1  0.35409393  0.11390578  0.50115484  1
  H+  H353  1  0.67958157  0.86316603  0.56200139  1
  H+  H354  1  0.86103563  0.43228752  0.77339539  1
  H+  H355  1  0.15141219  0.65207131  0.69292716  1
  H+  H356  1  0.57653274  0.42226836  0.06250324  1
  H+  H357  1  0.07338288  0.66471851  0.38789531  1
  H+  H358  1  0.85965822  0.93513955  0.43759808  1
  H+  H359  1  0.66748377  0.56824783  0.92534417  1
  H+  H360  1  0.39972838  0.05762842  0.57137914  1
  H+  H361  1  0.51952951  0.39422401  0.16109673  1
  H+  H362  1  0.13772661  0.94856392  0.39501251  1
  H+  H363  1  0.80952112  0.14706134  0.06093339  1
  H+  H364  1  0.91954046  0.09790404  0.26275612  1
  H+  H365  1  0.61489439  0.03957483  0.21851818  1
  H+  H366  1  0.07437136  0.66517743  0.07246870  1
  H+  H367  1  0.10456193  0.11723165  0.00427840  1
  H+  H368  1  0.12198277  0.87691466  0.01336412  1
  H+  H369  1  0.58569100  0.64904979  0.40654614  1
  H+  H370  1  0.90546457  0.58447114  0.22789559  1
  H+  H371  1  0.91948294  0.33053216  0.93627403  1
  H+  H372  1  0.12695632  0.58709448  0.90953678  1
  H+  H373  1  0.37340894  0.32259283  0.33639203  1
  H+  H374  1  0.10840532  0.87539574  0.83091438  1
  H+  H375  1  0.40405292  0.33867002  0.60687606  1
  H+  H376  1  0.33410933  0.90394828  0.74226901  1
  H+  H377  1  0.86618990  0.62797485  0.00247700  1
  H+  H378  1  0.09766667  0.44204539  0.77023866  1
  H+  H379  1  0.91686842  0.57943445  0.60154498  1
  H+  H380  1  0.17463679  0.33164439  0.93572947  1
  H+  H381  1  0.91239534  0.08238717  0.93116642  1
  H+  H382  1  0.07749298  0.91585605  0.73914135  1
  H+  H383  1  0.56977689  0.16731877  0.77556216  1
  O2-  O384  1  0.07706833  0.17536755  0.13989596  1
  O2-  O385  1  0.09288689  0.16779780  0.48711021  1
  O2-  O386  1  0.07059237  0.18515859  0.81877481  1
  O2-  O387  1  0.10470953  0.44765802  0.14743643  1
  O2-  O388  1  0.17832924  0.47361397  0.47546669  1
  O2-  O389  1  0.09641665  0.44460608  0.81474111  1
  O2-  O390  1  0.06879694  0.66293851  0.14232080  1
  O2-  O391  1  0.07423753  0.65099820  0.46885200  1
  O2-  O392  1  0.11122478  0.73784890  0.83236893  1
  O2-  O393  1  0.13466596  0.95552386  0.14799155  1
  O2-  O394  1  0.08810662  0.90094891  0.51432823  1
  O2-  O395  1  0.08055890  0.90743579  0.81621352  1
  O2-  O396  1  0.35608927  0.17542369  0.15466778  1
  O2-  O397  1  0.32398119  0.14502232  0.48721989  1
  O2-  O398  1  0.33493277  0.15921122  0.82029456  1
  O2-  O399  1  0.33289361  0.42763316  0.14402956  1
  O2-  O400  1  0.33765936  0.41202135  0.49291984  1
  O2-  O401  1  0.33505418  0.41797042  0.81692722  1
  O2-  O402  1  0.34868417  0.70367029  0.14316344  1
  O2-  O403  1  0.39115448  0.68131846  0.46887770  1
  O2-  O404  1  0.41486255  0.70892517  0.78748743  1
  O2-  O405  1  0.36249648  0.90388323  0.14244996  1
  O2-  O406  1  0.33072446  0.89452269  0.48532877  1
  O2-  O407  1  0.33401776  0.91747248  0.81533364  1
  O2-  O408  1  0.57586437  0.16855938  0.15624671  1
  O2-  O409  1  0.57667438  0.15928433  0.48626346  1
  O2-  O410  1  0.58038432  0.16513712  0.81873284  1
  O2-  O411  1  0.57897393  0.42575157  0.14378415  1
  O2-  O412  1  0.55391542  0.41311098  0.46865891  1
  O2-  O413  1  0.57569611  0.41914250  0.80553862  1
  O2-  O414  1  0.57977147  0.66885865  0.14626258  1
  O2-  O415  1  0.60207024  0.63105164  0.48807428  1
  O2-  O416  1  0.58854876  0.67353674  0.81471586  1
  O2-  O417  1  0.55688284  0.86909479  0.14741903  1
  O2-  O418  1  0.59262711  0.94093290  0.48368781  1
  O2-  O419  1  0.58662269  0.92083804  0.81213112  1
  O2-  O420  1  0.79719175  0.13130713  0.14095232  1
  O2-  O421  1  0.82310753  0.16550486  0.48076297  1
  O2-  O422  1  0.85188812  0.18024749  0.80916843  1
  O2-  O423  1  0.81570709  0.40263484  0.19391366  1
  O2-  O424  1  0.86596807  0.41380830  0.47642156  1
  O2-  O425  1  0.85122753  0.42908442  0.81781897  1
  O2-  O426  1  0.81707459  0.65206308  0.13652595  1
  O2-  O427  1  0.88870597  0.69372839  0.46053112  1
  O2-  O428  1  0.82275470  0.65841789  0.81327795  1
  O2-  O429  1  0.82703690  0.93006623  0.14460012  1
  O2-  O430  1  0.85095085  0.93157519  0.48231088  1
  O2-  O431  1  0.83631134  0.91764766  0.81646809  1
  O2-  O432  1  0.18863167  0.11812521  0.17789475  1
  O2-  O433  1  0.16681013  0.08331175  0.53486496  1
  O2-  O434  1  0.16806712  0.06837646  0.86575596  1
  O2-  O435  1  0.16692256  0.34373346  0.18101595  1
  O2-  O436  1  0.16529841  0.33455771  0.53351830  1
  O2-  O437  1  0.17118606  0.34990490  0.85793358  1
  O2-  O438  1  0.18676637  0.61321290  0.18297885  1
  O2-  O439  1  0.10270277  0.51139989  0.58489954  1
  O2-  O440  1  0.11238813  0.59351272  0.86593079  1
  O2-  O441  1  0.20962320  0.85341679  0.17609742  1
  O2-  O442  1  0.16901357  0.80197397  0.52365564  1
  O2-  O443  1  0.16583066  0.82208134  0.86036153  1
  O2-  O444  1  0.42367009  0.07698364  0.19413146  1
  O2-  O445  1  0.40395603  0.05935118  0.52555857  1
  O2-  O446  1  0.42218936  0.07896753  0.86390074  1
  O2-  O447  1  0.41729537  0.34433510  0.18837628  1
  O2-  O448  1  0.40340133  0.31419371  0.52731204  1
  O2-  O449  1  0.41403144  0.32831062  0.85337579  1
  O2-  O450  1  0.41585853  0.59897696  0.18280693  1
  O2-  O451  1  0.44133958  0.56894377  0.52761950  1
  O2-  O452  1  0.42488131  0.57782074  0.85642628  1
  O2-  O453  1  0.39213408  0.77887801  0.18356809  1
  O2-  O454  1  0.42812007  0.83069309  0.53171844  1
  O2-  O455  1  0.42158833  0.84814931  0.85432908  1
  O2-  O456  1  0.61956377  0.03012941  0.17494681  1
  O2-  O457  1  0.67797877  0.09735948  0.52100064  1
  O2-  O458  1  0.68163971  0.09737859  0.84033242  1
  O2-  O459  1  0.65949619  0.32989667  0.15401497  1
  O2-  O460  1  0.62516858  0.32502705  0.52288680  1
  O2-  O461  1  0.67061140  0.34982202  0.84331101  1
  O2-  O462  1  0.65986561  0.58525653  0.18873123  1
  O2-  O463  1  0.63955338  0.57743959  0.50504391  1
  O2-  O464  1  0.66360463  0.58232197  0.84493023  1
  O2-  O465  1  0.66715593  0.82969659  0.19573219  1
  O2-  O466  1  0.67631987  0.86846053  0.51690441  1
  O2-  O467  1  0.66635966  0.84103229  0.85630222  1
  O2-  O468  1  0.91432764  0.09303302  0.18676690  1
  O2-  O469  1  0.93796816  0.08131744  0.53241881  1
  O2-  O470  1  0.91697498  0.08249701  0.85764151  1
  O2-  O471  1  0.94397514  0.35357720  0.20231510  1
  O2-  O472  1  0.93451890  0.32327623  0.52128570  1
  O2-  O473  1  0.93282125  0.34355785  0.85679530  1
  O2-  O474  1  0.90198666  0.57408941  0.18336479  1
  O2-  O475  1  0.91638318  0.57902514  0.52143490  1
  O2-  O476  1  0.96411647  0.58930606  0.86317994  1
  O2-  O477  1  0.89305324  0.82529445  0.16950751  1
  O2-  O478  1  0.90868039  0.82941185  0.52854797  1
  O2-  O479  1  0.91461497  0.82617810  0.85403795  1
  O2-  O480  1  0.15981224  0.06931784  0.29928458  1
  O2-  O481  1  0.16620977  0.08464679  0.66289438  1
  O2-  O482  1  0.16174892  0.06518595  0.98142856  1
  O2-  O483  1  0.17077401  0.34724632  0.30394288  1
  O2-  O484  1  0.16300090  0.33266617  0.65099766  1
  O2-  O485  1  0.18332002  0.32415170  0.97940016  1
  O2-  O486  1  0.16907725  0.59527430  0.30763017  1
  O2-  O487  1  0.19525842  0.64287531  0.71522960  1
  O2-  O488  1  0.14924405  0.58313016  0.97864598  1
  O2-  O489  1  0.16379567  0.82906317  0.29836572  1
  O2-  O490  1  0.17820730  0.84596750  0.65190141  1
  O2-  O491  1  0.16333554  0.82092230  0.98119444  1
  O2-  O492  1  0.39606352  0.04704518  0.31649033  1
  O2-  O493  1  0.39291521  0.05023078  0.64729811  1
  O2-  O494  1  0.40605391  0.07982586  0.98881336  1
  O2-  O495  1  0.41223670  0.36976897  0.31026283  1
  O2-  O496  1  0.41063459  0.34904879  0.65111604  1
  O2-  O497  1  0.41820878  0.33557214  0.97789024  1
  O2-  O498  1  0.41866229  0.62325676  0.30410302  1
  O2-  O499  1  0.41874140  0.59624441  0.64825726  1
  O2-  O500  1  0.41548104  0.58160605  0.97806437  1
  O2-  O501  1  0.38135382  0.86232669  0.33770220  1
  O2-  O502  1  0.40938917  0.82335580  0.65128089  1
  O2-  O503  1  0.40618966  0.82910220  0.97476834  1
  O2-  O504  1  0.60959483  0.04306355  0.30392771  1
  O2-  O505  1  0.67626650  0.05574676  0.65875816  1
  O2-  O506  1  0.63107404  0.06204656  0.99031630  1
  O2-  O507  1  0.55543984  0.26968070  0.29777300  1
  O2-  O508  1  0.60914011  0.29027308  0.64150960  1
  O2-  O509  1  0.65586854  0.31953779  1.03505112  1
  O2-  O510  1  0.66012073  0.57891967  0.31059802  1
  O2-  O511  1  0.66806340  0.58206347  0.62601351  1
  O2-  O512  1  0.66860255  0.55966741  0.96968386  1
  O2-  O513  1  0.66326507  0.82258235  0.31554678  1
  O2-  O514  1  0.68374755  0.85586820  0.63779689  1
  O2-  O515  1  0.64299974  0.83637978  0.97721439  1
  O2-  O516  1  0.92012104  0.09918211  0.30884077  1
  O2-  O517  1  0.93369785  0.07827683  0.64500792  1
  O2-  O518  1  0.90908770  0.07995936  0.97737312  1
  O2-  O519  1  0.95796268  0.35701355  0.32513872  1
  O2-  O520  1  0.92814255  0.32431912  0.64800241  1
  O2-  O521  1  0.91145052  0.32847001  0.98120929  1
  O2-  O522  1  0.91214570  0.58894520  0.30726273  1
  O2-  O523  1  0.92700427  0.58263629  0.64620339  1
  O2-  O524  1  0.91647392  0.57751467  0.98327234  1
  O2-  O525  1  0.90222377  0.82106977  0.29058125  1
  O2-  O526  1  0.82856594  0.78405032  0.63802314  1
  O2-  O527  1  0.94060677  0.83188447  0.97767615  1
  O2-  O528  1  0.07868005  0.15189821  0.01886522  1
  O2-  O529  1  0.06937576  0.20986258  0.36647900  1
  O2-  O530  1  0.09796329  0.18002590  0.69031103  1
  O2-  O531  1  0.07863742  0.43097224  0.02322589  1
  O2-  O532  1  0.11734254  0.44420547  0.35948856  1
  O2-  O533  1  0.09166847  0.41202638  0.67937080  1
  O2-  O534  1  0.07572584  0.66660074  0.02571331  1
  O2-  O535  1  0.07514512  0.66794265  0.34293394  1
  O2-  O536  1  0.10115307  0.67346459  0.63550500  1
  O2-  O537  1  0.09213434  0.90750205  0.02981039  1
  O2-  O538  1  0.07427073  0.90607717  0.26461119  1
  O2-  O539  1  0.07923395  0.92147359  0.69389485  1
  O2-  O540  1  0.32131405  0.19309318  0.03488856  1
  O2-  O541  1  0.30987314  0.12526734  0.35962348  1
  O2-  O542  1  0.32952565  0.13012354  0.69911762  1
  O2-  O543  1  0.33873396  0.41800416  0.01832635  1
  O2-  O544  1  0.32429898  0.45468576  0.33889796  1
  O2-  O545  1  0.33591232  0.43477502  0.69748120  1
  O2-  O546  1  0.32126711  0.66060057  -0.04256648  1
  O2-  O547  1  0.32877219  0.69130275  0.35350317  1
  O2-  O548  1  0.24486560  0.64306252  0.66948918  1
  O2-  O549  1  0.32730262  0.90738022  0.02420930  1
  O2-  O550  1  0.32174323  0.88956083  0.36163236  1
  O2-  O551  1  0.33278768  0.89766584  0.69630770  1
  O2-  O552  1  0.56423370  0.15467837  0.04066013  1
  O2-  O553  1  0.55433590  0.14378656  0.36395319  1
  O2-  O554  1  0.57078822  0.12400316  0.64608930  1
  O2-  O555  1  0.57789582  0.41040388  0.01851041  1
  O2-  O556  1  0.56577873  0.41409422  0.34732952  1
  O2-  O557  1  0.56736261  0.42546872  0.68225318  1
  O2-  O558  1  0.57700471  0.68607616  0.02155344  1
  O2-  O559  1  0.57776291  0.65525335  0.36247518  1
  O2-  O560  1  0.55323072  0.70880434  0.70278813  1
  O2-  O561  1  0.55995146  0.90453399  0.02883429  1
  O2-  O562  1  0.56791606  0.89134743  0.35881718  1
  O2-  O563  1  0.54911675  0.85345155  0.70057676  1
  O2-  O564  1  0.81385952  0.15268782  0.01594502  1
  O2-  O565  1  0.85166108  0.18436914  0.36074040  1
  O2-  O566  1  0.85317315  0.15886906  0.68543816  1
  O2-  O567  1  0.81259664  0.40212213  0.00329598  1
  O2-  O568  1  0.86990189  0.43174967  0.35758621  1
  O2-  O569  1  0.87325694  0.42855283  0.69148686  1
  O2-  O570  1  0.83323544  0.65731855  0.01564059  1
  O2-  O571  1  0.82324153  0.66608640  0.34367174  1
  O2-  O572  1  0.83110099  0.64616420  0.68915316  1
  O2-  O573  1  0.80913837  0.92798355  0.02113406  1
  O2-  O574  1  0.89968664  0.95296452  0.36036027  1
  O2-  O575  1  0.84086993  0.92542359  0.69355345  1
