# generated using pymatgen
data_H2O
_symmetry_space_group_name_H-M   'P 1'
_cell_length_a   17.98686917
_cell_length_b   17.98149775
_cell_length_c   21.99773791
_cell_angle_alpha   89.99303541
_cell_angle_beta   89.98580748
_cell_angle_gamma   119.99895095
_symmetry_Int_Tables_number   1
_chemical_formula_structural   H2O
_chemical_formula_sum   'H384 O192'
_cell_volume   6161.61635214
_cell_formula_units_Z   192
loop_
 _symmetry_equiv_pos_site_id
 _symmetry_equiv_pos_as_xyz
  1  'x, y, z'
loop_
 _atom_type_symbol
 _atom_type_oxidation_number
  H+  1.0
  O2-  -2.0
loop_
 _atom_site_type_symbol
 _atom_site_label
 _atom_site_symmetry_multiplicity
 _atom_site_fract_x
 _atom_site_fract_y
 _atom_site_fract_z
 _atom_site_occupancy
  H+  H0  1  0.12713193  0.11256486  0.80806072  1
  H+  H1  1  0.63676272  1.02533071  0.48964827  1
  H+  H2  1  0.62868594  0.01957028  1.01274859  1
  H+  H3  1  0.66892004  0.32573217  0.73199532  1
  H+  H4  1  0.88199671  0.50708166  0.67562638  1
  H+  H5  1  0.27363530  0.14114493  0.80133825  1
  H+  H6  1  0.14146852  0.61967076  0.32474985  1
  H+  H7  1  0.50547731  0.38740754  0.33786486  1
  H+  H8  1  0.41162364  0.32232077  0.93591767  1
  H+  H9  1  -0.03424915  0.59310404  0.81380358  1
  H+  H10  1  0.22541833  0.61289828  0.84052264  1
  H+  H11  1  0.27863917  0.14012782  0.03035750  1
  H+  H12  1  0.71614549  0.10714112  1.00295107  1
  H+  H13  1  0.48687399  0.37286530  0.65557686  1
  H+  H14  1  0.88837935  0.86690985  0.84830278  1
  H+  H15  1  0.75727750  0.86968029  0.18467648  1
  H+  H16  1  0.37991235  0.87064678  0.99651459  1
  H+  H17  1  0.36824681  0.22875995  0.17190462  1
  H+  H18  1  0.13868662  0.22381616  0.14390353  1
  H+  H19  1  0.61316257  0.63200991  0.15093961  1
  H+  H20  1  0.61898789  0.89528789  0.82347760  1
  H+  H21  1  0.85906798  0.22189015  0.45455754  1
  H+  H22  1  0.38156852  0.89143267  0.16448130  1
  H+  H23  1  0.41440642  0.56872690  0.41148416  1
  H+  H24  1  0.13833913  0.53049786  0.50607303  1
  H+  H25  1  0.21147527  0.85742858  0.84801240  1
  H+  H26  1  0.38657177  0.86169435  0.33011926  1
  H+  H27  1  0.36213419  0.12868241  1.01723994  1
  H+  H28  1  0.19163437  0.80506903  0.08245525  1
  H+  H29  1  0.88941393  0.61040701  0.50270447  1
  H+  H30  1  0.59869889  0.91624545  0.72461406  1
  H+  H31  1  0.74586728  0.38481092  0.69022468  1
  H+  H32  1  0.55869128  0.13598398  0.66506800  1
  H+  H33  1  0.38939848  0.60484473  0.33124788  1
  H+  H34  1  0.98075036  0.61471878  0.50292433  1
  H+  H35  1  0.11580787  0.22749649  0.48165594  1
  H+  H36  1  0.22604097  0.61758258  0.50166579  1
  H+  H37  1  0.93548934  0.59824873  0.59346050  1
  H+  H38  1  0.13662025  0.62356863  0.83751019  1
  H+  H39  1  0.72466816  0.61738365  0.84458639  1
  H+  H40  1  0.34093977  0.71412326  0.16571291  1
  H+  H41  1  0.12331412  0.85687724  0.83991156  1
  H+  H42  1  0.36658596  0.72440809  0.33697017  1
  H+  H43  1  0.27118025  0.13009881  0.34582846  1
  H+  H44  1  0.36393136  0.72103419  0.68411820  1
  H+  H45  1  0.38612656  0.12038002  0.32926163  1
  H+  H46  1  0.12032992  0.52121450  0.84417388  1
  H+  H47  1  0.11981864  0.63870904  0.49223851  1
  H+  H48  1  0.09764786  0.72467838  0.01186632  1
  H+  H49  1  0.78282609  0.90752643  0.69017435  1
  H+  H50  1  0.35890173  0.47124136  0.00780073  1
  H+  H51  1  0.11237761  0.96864380  0.17064654  1
  H+  H52  1  0.77502324  0.62851987  0.48124281  1
  H+  H53  1  0.36952821  1.01788420  0.84057247  1
  H+  H54  1  0.32950528  0.66415708  0.42622876  1
  H+  H55  1  0.10836450  0.13616618  0.48661860  1
  H+  H56  1  0.48174123  0.86156358  0.83516861  1
  H+  H57  1  0.01523822  0.88112671  0.82426692  1
  H+  H58  1  0.61164978  0.23659467  0.15856748  1
  H+  H59  1  0.86234980  0.63800785  0.82278417  1
  H+  H60  1  0.89325609  0.44826516  0.13467904  1
  H+  H61  1  0.85726198  0.13131602  -0.03014332  1
  H+  H62  1  0.27423514  0.89027230  0.33313288  1
  H+  H63  1  0.03264188  0.40880318  0.35212730  1
  H+  H64  1  0.58412915  0.08428151  0.17651666  1
  H+  H65  1  0.52061837  0.13410080  0.48647115  1
  H+  H66  1  0.09955242  0.23022800  -0.01205087  1
  H+  H67  1  0.73292724  0.87585794  0.84666395  1
  H+  H68  1  1.03443066  0.38757274  0.48767675  1
  H+  H69  1  0.62835571  0.77245682  0.49313267  1
  H+  H70  1  0.14158397  0.11965608  1.00572650  1
  H+  H71  1  0.48636051  0.86169877  0.67897634  1
  H+  H72  1  0.33184683  0.16720049  0.43759019  1
  H+  H73  1  0.90270772  0.12472272  0.13412907  1
  H+  H74  1  0.22977491  0.36033862  0.16695037  1
  H+  H75  1  0.11172004  0.11034911  0.65957201  1
  H+  H76  1  0.60848915  0.47355459  0.00905917  1
  H+  H77  1  0.97902995  0.14087416  0.50639120  1
  H+  H78  1  0.03929363  0.65391096  0.19141125  1
  H+  H79  1  0.22293369  0.36130882  -0.00890231  1
  H+  H80  1  0.58066428  0.95088850  0.17085195  1
  H+  H81  1  0.48751427  0.13343049  0.17809754  1
  H+  H82  1  0.62774516  0.51146854  0.48045861  1
  H+  H83  1  0.35310867  0.22771188  0.34252895  1
  H+  H84  1  0.16777254  0.08334387  0.85849876  1
  H+  H85  1  0.77858804  0.64570765  0.33708585  1
  H+  H86  1  0.87131310  -0.01098062  0.84168194  1
  H+  H87  1  0.35908650  0.63966234  0.01143851  1
  H+  H88  1  0.36186840  0.97930769  0.33810872  1
  H+  H89  1  0.42517638  0.33956316  0.59553316  1
  H+  H90  1  0.39312119  0.51501901  0.17714033  1
  H+  H91  1  0.88025767  0.42274362  0.69917895  1
  H+  H92  1  0.23501321  0.10346211  0.18562466  1
  H+  H93  1  0.63512887  0.87096368  0.30032688  1
  H+  H94  1  0.61171310  0.64293044  0.83745847  1
  H+  H95  1  0.37937525  0.51227593  0.66022321  1
  H+  H96  1  0.10285536  0.72313770  0.82774918  1
  H+  H97  1  0.60611145  0.87657023  0.18102119  1
  H+  H98  1  0.38272394  0.11002683  0.50202944  1
  H+  H99  1  0.86121989  0.88794222  0.33872195  1
  H+  H100  1  0.23527914  0.61132676  0.67395967  1
  H+  H101  1  0.36069290  0.73014182  1.01136981  1
  H+  H102  1  0.51770864  0.38490888  0.00720413  1
  H+  H103  1  0.66644594  0.02572263  0.64367452  1
  H+  H104  1  0.64344708  0.62187171  0.32011240  1
  H+  H105  1  0.35884787  0.38150707  0.00501007  1
  H+  H106  1  0.36805866  0.38613231  0.82665230  1
  H+  H107  1  0.27662150  0.63653701  0.33419513  1
  H+  H108  1  0.63229605  0.11510323  0.32629003  1
  H+  H109  1  0.64899237  0.10506754  0.75606171  1
  H+  H110  1  0.52074459  0.38176501  0.49063031  1
  H+  H111  1  0.41803734  0.03950485  0.65174522  1
  H+  H112  1  0.88959607  0.35858656  0.49505925  1
  H+  H113  1  0.38538162  0.52021957  0.84173584  1
  H+  H114  1  0.38678893  0.26755210  -0.00159646  1
  H+  H115  1  0.23031570  0.85880530  0.50188426  1
  H+  H116  1  0.79419937  0.15765796  0.66941492  1
  H+  H117  1  0.10302584  0.96863180  0.80922473  1
  H+  H118  1  0.38857684  0.35682996  0.50229193  1
  H+  H119  1  0.60064834  0.38198445  0.16131639  1
  H+  H120  1  0.35955424  0.62911460  0.67365455  1
  H+  H121  1  -0.03093446  0.11182598  0.31925222  1
  H+  H122  1  0.85218631  0.37239880  0.85963143  1
  H+  H123  1  0.10848078  0.47272457  0.16668344  1
  H+  H124  1  0.75182498  0.36202959  0.99629072  1
  H+  H125  1  0.37560688  0.89962388  0.67502856  1
  H+  H126  1  0.38764285  0.26785611  0.50831492  1
  H+  H127  1  0.79736613  0.29113670  0.15779174  1
  H+  H128  1  0.63495531  0.36736588  0.84598929  1
  H+  H129  1  0.60805153  0.97599785  0.32828519  1
  H+  H130  1  0.92579267  0.64409894  0.65424269  1
  H+  H131  1  -0.02690577  0.87276794  0.65677122  1
  H+  H132  1  0.39245475  0.77041818  0.84160681  1
  H+  H133  1  0.88918527  0.52900245  0.76959721  1
  H+  H134  1  0.97193561  0.60977414  1.03024378  1
  H+  H135  1  0.85530905  0.63379845  0.02777489  1
  H+  H136  1  0.14090326  0.36407317  0.31744273  1
  H+  H137  1  0.89550556  0.55116480  0.18381443  1
  H+  H138  1  0.09651236  0.94044904  0.42629431  1
  H+  H139  1  0.90105043  0.64319982  0.18397684  1
  H+  H140  1  0.72128150  0.61062302  0.99975237  1
  H+  H141  1  0.75489227  0.37890962  0.86145317  1
  H+  H142  1  0.75792929  0.12910907  0.12608563  1
  H+  H143  1  0.87631179  0.34552348  -0.01032810  1
  H+  H144  1  0.35550726  0.62546581  0.83548334  1
  H+  H145  1  0.36034616  0.87408031  0.82555797  1
  H+  H146  1  0.13605022  0.36602124  0.99020370  1
  H+  H147  1  0.12954968  0.60573613  0.19021631  1
  H+  H148  1  0.51712882  0.88160491  0.01744792  1
  H+  H149  1  0.63076453  0.60804376  0.99542241  1
  H+  H150  1  0.88155529  0.07312594  0.50426415  1
  H+  H151  1  0.77379569  0.88743116  0.32426889  1
  H+  H152  1  0.63319247  0.76224609  0.66108994  1
  H+  H153  1  0.11611392  0.89349079  0.01619188  1
  H+  H154  1  0.75815276  0.87144779  0.01414040  1
  H+  H155  1  0.89117819  0.62481124  0.33340464  1
  H+  H156  1  0.09769791  0.22012543  0.33002398  1
  H+  H157  1  0.56590155  0.40750795  0.10278728  1
  H+  H158  1  0.13898391  0.51730641  0.67996428  1
  H+  H159  1  0.48299591  0.61421836  0.32999396  1
  H+  H160  1  0.42844064  0.83848280  0.73622111  1
  H+  H161  1  0.84230092  0.00283026  0.17598461  1
  H+  H162  1  0.52549741  0.63132673  0.15487330  1
  H+  H163  1  0.71821923  0.10479852  0.14516620  1
  H+  H164  1  0.10502645  -0.03011307  0.66858788  1
  H+  H165  1  0.52432823  0.63691316  0.46366818  1
  H+  H166  1  0.39630728  0.24492950  0.66176996  1
  H+  H167  1  0.32722697  0.65383190  0.77460166  1
  H+  H168  1  0.37951262  0.86407509  0.49635854  1
  H+  H169  1  0.62232093  0.39232599  0.67991016  1
  H+  H170  1  0.70724178  0.37696136  0.33563688  1
  H+  H171  1  0.13890825  0.02917142  0.50015212  1
  H+  H172  1  0.84621207  0.95740507  0.02450773  1
  H+  H173  1  0.21828395  0.61866337  1.00647790  1
  H+  H174  1  0.47146014  0.61265762  0.84743915  1
  H+  H175  1  0.85561647  0.46923499  0.84677148  1
  H+  H176  1  0.61437982  0.63942652  0.46949753  1
  H+  H177  1  0.09330380  0.37139534  0.71652907  1
  H+  H178  1  0.71455755  0.64111305  0.67183688  1
  H+  H179  1  0.01933611  0.38142537  0.00661258  1
  H+  H180  1  0.13881760  0.35613625  0.16472355  1
  H+  H181  1  0.86773671  0.90199956  0.68095606  1
  H+  H182  1  0.22689009  0.35204045  0.83554898  1
  H+  H183  1  0.50736916  0.63858291  0.68196140  1
  H+  H184  1  -0.01920263  0.87333316  0.18391773  1
  H+  H185  1  0.88539405  0.78741498  0.66120066  1
  H+  H186  1  0.61162235  0.13654912  0.48624635  1
  H+  H187  1  0.36908746  0.38726177  0.66849605  1
  H+  H188  1  0.62513427  0.11073807  0.82340836  1
  H+  H189  1  0.57036506  0.17191830  0.09998807  1
  H+  H190  1  0.02722023  0.37870921  0.17322709  1
  H+  H191  1  0.72076448  0.36330805  0.50084453  1
  H+  H192  1  0.51995577  0.89064725  0.47775753  1
  H+  H193  1  0.04252528  0.64331845  0.66509292  1
  H+  H194  1  0.59244028  0.63423063  0.68871431  1
  H+  H195  1  0.57745040  0.67315783  0.78075065  1
  H+  H196  1  0.60207112  0.21359392  0.85340450  1
  H+  H197  1  0.63255038  0.27535195  0.49858649  1
  H+  H198  1  0.87880658  0.74573982  0.17235055  1
  H+  H199  1  0.95972137  0.22305207  0.11474760  1
  H+  H200  1  0.86786098  0.47503722  0.49308132  1
  H+  H201  1  0.90727156  0.76377949  0.50675248  1
  H+  H202  1  0.72795686  0.38304271  0.17351507  1
  H+  H203  1  0.60691497  0.23266772  0.33825196  1
  H+  H204  1  0.36532340  0.46096408  0.46499669  1
  H+  H205  1  0.00667175  0.39907213  0.84151724  1
  H+  H206  1  1.02085510  0.07029065  0.21969810  1
  H+  H207  1  0.13562959  0.26683074  0.65337127  1
  H+  H208  1  0.89487007  0.04174261  0.65475052  1
  H+  H209  1  0.61716968  0.73583631  0.31458038  1
  H+  H210  1  0.38078579  -0.01933091  0.16665345  1
  H+  H211  1  0.43415701  0.13468583  0.65147995  1
  H+  H212  1  0.09066583  0.67172999  0.76488511  1
  H+  H213  1  0.88514563  0.26005027  -0.01260283  1
  H+  H214  1  0.97427767  0.12058858  0.94110171  1
  H+  H215  1  0.47777588  0.36114672  0.84158507  1
  H+  H216  1  0.14608396  0.87765989  0.31233144  1
  H+  H217  1  0.87239630  0.28276330  0.21589030  1
  H+  H218  1  0.61900914  0.48004991  0.67637266  1
  H+  H219  1  0.88339329  0.85667324  1.00083701  1
  H+  H220  1  0.14009174  0.61409358  0.67159492  1
  H+  H221  1  0.23368230  0.87239509  0.65458347  1
  H+  H222  1  0.41765017  0.83959918  0.94156824  1
  H+  H223  1  0.02727518  0.64505449  0.34220873  1
  H+  H224  1  0.98438161  0.87948939  0.33056015  1
  H+  H225  1  0.36302661  0.72080480  0.48638118  1
  H+  H226  1  0.38916171  0.27237676  0.83509945  1
  H+  H227  1  0.80474098  0.88796847  0.11851642  1
  H+  H228  1  0.87636063  0.26930209  0.84150998  1
  H+  H229  1  0.86934473  0.73618707  0.33996926  1
  H+  H230  1  0.82334922  0.40358071  0.30821170  1
  H+  H231  1  0.61181360  0.38307878  0.48666002  1
  H+  H232  1  0.76679133  0.91876796  0.48765599  1
  H+  H233  1  0.23427074  0.35870204  0.49096684  1
  H+  H234  1  0.00640966  0.02575627  0.23074773  1
  H+  H235  1  1.01738769  0.38715940  0.68959229  1
  H+  H236  1  0.82320481  0.16697939  0.36198000  1
  H+  H237  1  0.37129417  0.00465039  0.99785859  1
  H+  H238  1  0.11191137  0.97953640  0.03029343  1
  H+  H239  1  0.64743907  0.22085629  0.67625789  1
  H+  H240  1  0.85102388  0.11900692  0.31335226  1
  H+  H241  1  0.21636989  0.60185578  0.17671895  1
  H+  H242  1  0.16217642  0.83658576  0.94502472  1
  H+  H243  1  0.50663525  0.12489983  0.01127347  1
  H+  H244  1  0.47646542  0.86213763  0.32559161  1
  H+  H245  1  0.62059518  0.51532748  0.17342011  1
  H+  H246  1  0.47026753  0.60712961  0.99832687  1
  H+  H247  1  0.66536462  0.11265517  0.64433729  1
  H+  H248  1  0.60579848  0.88590347  0.48129198  1
  H+  H249  1  0.60410382  0.71582641  0.00503675  1
  H+  H250  1  0.86785703  0.73070395  0.83300979  1
  H+  H251  1  0.32602507  0.14836067  0.64853705  1
  H+  H252  1  0.61976726  0.35274669  0.99848006  1
  H+  H253  1  0.87321564  0.51034788  0.09510032  1
  H+  H254  1  1.04284956  0.89414499  0.48629087  1
  H+  H255  1  0.13290744  0.73055004  0.66867537  1
  H+  H256  1  0.12624102  0.39144810  0.49170596  1
  H+  H257  1  0.11618570  0.73264782  0.33883525  1
  H+  H258  1  0.81228956  0.62367653  0.68105874  1
  H+  H259  1  0.86180050  0.13718277  0.83269385  1
  H+  H260  1  0.10297676  0.63800211  0.01466058  1
  H+  H261  1  0.82989037  0.29948229  0.13303805  1
  H+  H262  1  0.46778403  0.84168743  0.17777456  1
  H+  H263  1  0.88324678  0.29198987  0.68058506  1
  H+  H264  1  0.19667418  0.10930309  0.66974202  1
  H+  H265  1  0.62905504  0.85798987  1.00179019  1
  H+  H266  1  0.92162045  0.40169484  0.34914040  1
  H+  H267  1  0.88490691  0.52466111  1.00604787  1
  H+  H268  1  0.63639417  0.53005491  0.32660381  1
  H+  H269  1  0.27109437  0.13676180  0.49648147  1
  H+  H270  1  0.16431608  0.32481484  0.89217955  1
  H+  H271  1  0.61470439  0.48162120  0.83162097  1
  H+  H272  1  0.33649259  0.92029913  0.05741020  1
  H+  H273  1  0.35760648  0.37708100  0.16093514  1
  H+  H274  1  0.15783698  0.12642286  1.07393069  1
  H+  H275  1  0.62325787  0.88401318  0.66413034  1
  H+  H276  1  0.13472295  0.50291235  0.34398156  1
  H+  H277  1  0.64275231  0.78685230  0.84597297  1
  H+  H278  1  0.01427078  0.14475634  0.66455133  1
  H+  H279  1  0.76561123  0.14028546  0.45953232  1
  H+  H280  1  0.40284027  0.07778884  0.94275489  1
  H+  H281  1  0.27692121  0.38117007  0.66810036  1
  H+  H282  1  0.01754938  0.13517767  0.82604579  1
  H+  H283  1  0.23623382  0.87491794  0.99767052  1
  H+  H284  1  0.47693070  0.12135935  0.32943772  1
  H+  H285  1  0.46541824  0.35532382  0.18195109  1
  H+  H286  1  0.59963940  0.12985321  0.01587942  1
  H+  H287  1  0.13968916  0.86309661  0.65488048  1
  H+  H288  1  0.07615175  0.90464782  0.72487413  1
  H+  H289  1  0.58668064  0.42236610  0.77158822  1
  H+  H290  1  0.32372684  0.91555559  0.42936439  1
  H+  H291  1  0.60735393  0.05365201  0.23785365  1
  H+  H292  1  0.83553845  0.41936346  0.43284921  1
  H+  H293  1  0.82759119  0.94901131  0.43123928  1
  H+  H294  1  0.16277959  0.82784603  0.25941546  1
  H+  H295  1  0.66624542  0.58465400  0.90490324  1
  H+  H296  1  0.93696042  0.33981633  0.30194375  1
  H+  H297  1  0.61007305  0.97863219  0.80569522  1
  H+  H298  1  0.87679308  0.22735482  0.27041672  1
  H+  H299  1  0.92367080  0.59998561  0.27241158  1
  H+  H300  1  0.33991720  0.38254736  0.41969430  1
  H+  H301  1  0.07518090  0.90458265  0.11475259  1
  H+  H302  1  0.90896868  0.32260142  0.90547687  1
  H+  H303  1  0.88077195  0.01885841  0.32108048  1
  H+  H304  1  0.61701311  0.37027573  0.32532095  1
  H+  H305  1  0.11064267  0.22241114  0.82216447  1
  H+  H306  1  0.92255664  0.10665864  0.59589315  1
  H+  H307  1  0.37547061  0.10867260  0.83509166  1
  H+  H308  1  0.38540813  0.42919850  0.32377508  1
  H+  H309  1  0.41176510  0.57670662  0.60308413  1
  H+  H310  1  0.13195575  0.13523177  0.16145180  1
  H+  H311  1  0.66939258  0.34788127  0.23364575  1
  H+  H312  1  0.93031535  0.83077165  0.56044302  1
  H+  H313  1  0.13268528  0.72399064  0.16548224  1
  H+  H314  1  0.51325026  0.12547655  0.85398311  1
  H+  H315  1  0.38914667  0.13265162  0.17811630  1
  H+  H316  1  0.92349337  0.84346932  0.27264081  1
  H+  H317  1  0.84513505  0.93172448  0.78164184  1
  H+  H318  1  0.57536498  0.90004390  0.07706464  1
  H+  H319  1  0.90496623  0.29316175  0.53570100  1
  H+  H320  1  0.07455891  0.17237070  0.72647257  1
  H+  H321  1  0.07769548  0.05376828  0.92089092  1
  H+  H322  1  0.07623689  0.40973281  0.06702226  1
  H+  H323  1  0.18000147  0.32983873  0.55292399  1
  H+  H324  1  0.13633680  0.75538904  0.50247698  1
  H+  H325  1  0.09072524  0.67465063  0.43287408  1
  H+  H326  1  0.68060845  0.08520474  0.54761870  1
  H+  H327  1  0.57605183  0.65561592  0.06504645  1
  H+  H328  1  0.85144594  0.68214124  0.73962603  1
  H+  H329  1  0.64547259  0.82476051  0.55517538  1
  H+  H330  1  0.03901623  0.16062289  0.03611223  1
  H+  H331  1  0.83912340  0.18493437  0.73643990  1
  H+  H332  1  0.66422367  0.83909205  0.93998966  1
  H+  H333  1  0.71695425  0.10790215  0.30930720  1
  H+  H334  1  0.10986080  0.43912354  0.40812143  1
  H+  H335  1  0.16176765  0.32576490  0.25908495  1
  H+  H336  1  0.35466280  0.97457598  0.48980081  1
  H+  H337  1  0.17011089  0.06582042  0.24181132  1
  H+  H338  1  0.61297130  0.25854414  0.99642917  1
  H+  H339  1  0.77147235  0.13544435  0.81699585  1
  H+  H340  1  0.14477439  0.35881117  0.63832712  1
  H+  H341  1  0.84246351  0.68210261  0.11432854  1
  H+  H342  1  0.64987157  0.32789451  0.90872016  1
  H+  H343  1  0.35142315  0.17505306  0.75430707  1
  H+  H344  1  0.42789185  0.56404847  0.23888098  1
  H+  H345  1  0.86781238  0.15642192  0.03977913  1
  H+  H346  1  0.84199498  0.66626213  0.42789999  1
  H+  H347  1  0.34706071  0.16883654  0.10954254  1
  H+  H348  1  0.42448228  0.09943439  0.24348833  1
  H+  H349  1  0.86036359  0.72387082  0.01299047  1
  H+  H350  1  0.33924891  0.41603350  0.76685209  1
  H+  H351  1  0.34511657  0.93959644  0.72454738  1
  H+  H352  1  0.16589944  0.57945927  0.26584686  1
  H+  H353  1  0.57018180  0.41507806  0.39513162  1
  H+  H354  1  0.40327236  0.32719967  0.24226364  1
  H+  H355  1  0.88149813  0.07237122  0.22796507  1
  H+  H356  1  0.17082343  0.82560564  0.56611916  1
  H+  H357  1  0.91935550  0.83418185  0.90551560  1
  H+  H358  1  0.31279002  0.65915002  0.10510674  1
  H+  H359  1  0.66029364  0.57750557  0.53371515  1
  H+  H360  1  0.59781145  0.68869399  0.38001235  1
  H+  H361  1  0.33320750  0.41001266  0.09971219  1
  H+  H362  1  0.97605467  0.86399964  1.00157288  1
  H+  H363  1  0.40871498  0.82199278  0.23651046  1
  H+  H364  1  0.06721991  0.15993066  0.38860757  1
  H+  H365  1  0.25142410  0.85513109  0.13704750  1
  H+  H366  1  0.15893643  0.08448102  0.56197813  1
  H+  H367  1  0.91967100  0.36753193  0.62839739  1
  H+  H368  1  0.06852487  0.43001846  0.78326767  1
  H+  H369  1  0.58156505  0.17234874  0.39738173  1
  H+  H370  1  0.66439205  0.58238239  0.22672079  1
  H+  H371  1  0.81401408  0.39583682  0.05236581  1
  H+  H372  1  0.40779349  0.57774463  0.94095443  1
  H+  H373  1  0.71962708  0.81479282  0.62246132  1
  H+  H374  1  0.27923950  0.83821948  0.78422355  1
  H+  H375  1  0.41707239  0.83879794  0.55272760  1
  H+  H376  1  0.87336267  0.49951177  0.33548066  1
  H+  H377  1  0.58553267  0.91378604  0.38523293  1
  H+  H378  1  0.11567478  0.09873611  0.92201941  1
  H+  H379  1  0.42546005  0.08437047  0.55675608  1
  H+  H380  1  0.88564653  0.86803524  0.18631645  1
  H+  H381  1  0.38435314  0.60158527  0.46847290  1
  H+  H382  1  0.13100926  0.52979527  1.00503489  1
  H+  H383  1  0.65175035  0.60256369  0.61774692  1
  O2-  O384  1  0.12097852  0.16547731  0.12816569  1
  O2-  O385  1  0.07843286  0.16618754  0.47081405  1
  O2-  O386  1  0.07493723  0.16211692  0.80445815  1
  O2-  O387  1  0.07931963  0.41182377  0.14929883  1
  O2-  O388  1  0.09689992  0.42405021  0.47839594  1
  O2-  O389  1  0.06743332  0.43733443  0.82755348  1
  O2-  O390  1  0.10167922  0.67547225  0.19509883  1
  O2-  O391  1  0.09032109  0.67295408  0.47887388  1
  O2-  O392  1  0.08090932  0.66418383  0.80958754  1
  O2-  O393  1  0.07333873  0.90766267  0.15964355  1
  O2-  O394  1  0.10029191  0.93810675  0.47072184  1
  O2-  O395  1  0.07291309  0.90502970  0.80392283  1
  O2-  O396  1  0.34576403  0.16727363  0.15602561  1
  O2-  O397  1  0.33320338  0.16575043  0.48304665  1
  O2-  O398  1  0.33753137  0.17047253  0.79836836  1
  O2-  O399  1  0.33131211  0.41051308  0.14513681  1
  O2-  O400  1  0.33621895  0.39676267  0.46322746  1
  O2-  O401  1  0.33904704  0.41790347  0.81189803  1
  O2-  O402  1  0.30556292  0.65468880  0.14996161  1
  O2-  O403  1  0.33081661  0.66053377  0.47211186  1
  O2-  O404  1  0.32488880  0.65637682  0.81954553  1
  O2-  O405  1  0.35755455  0.92610090  0.14548227  1
  O2-  O406  1  0.32324941  0.91295538  0.47528168  1
  O2-  O407  1  0.31916385  0.89030483  0.80615406  1
  O2-  O408  1  0.57199392  0.17623897  0.14629532  1
  O2-  O409  1  0.58145007  0.16799086  0.47264066  1
  O2-  O410  1  0.57628865  0.15119052  0.85803441  1
  O2-  O411  1  0.56262730  0.40419250  0.14820305  1
  O2-  O412  1  0.57927528  0.41297308  0.47174455  1
  O2-  O413  1  0.58660740  0.42061364  0.81674969  1
  O2-  O414  1  0.58153581  0.65951377  0.13294277  1
  O2-  O415  1  0.58807949  0.67516332  0.45936731  1
  O2-  O416  1  0.58059888  0.67393932  0.82569303  1
  O2-  O417  1  0.57080802  0.89396383  0.15556964  1
  O2-  O418  1  0.58033354  0.91956896  0.46354523  1
  O2-  O419  1  0.58244290  0.91445862  0.80138276  1
  O2-  O420  1  0.93076891  0.16562240  0.09766733  1
  O2-  O421  1  0.81742174  0.16937155  0.43357041  1
  O2-  O422  1  0.83496942  0.17030561  0.81416614  1
  O2-  O423  1  0.84874923  0.46313667  0.12777935  1
  O2-  O424  1  0.83767401  0.41478448  0.47734359  1
  O2-  O425  1  0.82267214  0.40974687  0.86578852  1
  O2-  O426  1  0.85759593  0.68571398  0.15778851  1
  O2-  O427  1  0.83759827  0.65749625  0.47339639  1
  O2-  O428  1  0.83564713  0.67290479  0.81227038  1
  O2-  O429  1  0.81465543  0.89704125  0.16275634  1
  O2-  O430  1  0.82372188  0.96341575  0.47398720  1
  O2-  O431  1  0.84146242  0.92686301  0.82671436  1
  O2-  O432  1  0.17378223  0.07392904  0.19713026  1
  O2-  O433  1  0.16804902  0.09027914  0.51763503  1
  O2-  O434  1  0.16243880  0.08228545  0.81422815  1
  O2-  O435  1  0.16757570  0.32464553  0.17899971  1
  O2-  O436  1  0.17532065  0.33555100  0.50846292  1
  O2-  O437  1  0.16566690  0.31862291  0.84732277  1
  O2-  O438  1  0.15587812  0.56716570  0.19627762  1
  O2-  O439  1  0.16613004  0.59219164  0.51721425  1
  O2-  O440  1  0.16308700  0.58906120  0.85370415  1
  O2-  O441  1  0.19082459  0.81307134  0.12634048  1
  O2-  O442  1  0.17027228  0.82065197  0.52026547  1
  O2-  O443  1  0.14978401  0.82403939  0.85768765  1
  O2-  O444  1  0.42532285  0.10131601  0.19617470  1
  O2-  O445  1  0.41313110  0.07731722  0.51228132  1
  O2-  O446  1  0.40036990  0.07676238  0.85577831  1
  O2-  O447  1  0.40421936  0.32210438  0.19620380  1
  O2-  O448  1  0.41973850  0.32970473  0.52193471  1
  O2-  O449  1  0.41654195  0.33001285  0.85477070  1
  O2-  O450  1  0.43028544  0.57270023  0.19494444  1
  O2-  O451  1  0.41584267  0.57070131  0.45731624  1
  O2-  O452  1  0.40924345  0.57983751  0.85835813  1
  O2-  O453  1  0.40695196  0.82030456  0.19130916  1
  O2-  O454  1  0.41241322  0.83465032  0.50861842  1
  O2-  O455  1  0.41997973  0.83341152  0.84796130  1
  O2-  O456  1  0.57378480  0.03311853  0.19935754  1
  O2-  O457  1  0.66794955  0.08636437  0.50357896  1
  O2-  O458  1  0.65574831  0.08749187  0.79708955  1
  O2-  O459  1  0.66942401  0.34436970  0.18820139  1
  O2-  O460  1  0.65958670  0.33623540  0.51217778  1
  O2-  O461  1  0.66245487  0.33505783  0.86297374  1
  O2-  O462  1  0.65634010  0.57718335  0.18230607  1
  O2-  O463  1  0.66027486  0.57650192  0.48974395  1
  O2-  O464  1  0.66425819  0.58577609  0.85879010  1
  O2-  O465  1  0.66539711  0.84208726  0.21998138  1
  O2-  O466  1  0.65049260  0.83120550  0.51080546  1
  O2-  O467  1  0.67070741  0.84825973  0.85821000  1
  O2-  O468  1  0.85614877  0.06225170  0.18638302  1
  O2-  O469  1  0.92312482  0.12724124  0.52483528  1
  O2-  O470  1  0.91816680  0.09219307  0.85830375  1
  O2-  O471  1  0.91330573  0.28104310  0.24410497  1
  O2-  O472  1  0.92393270  0.32870424  0.49930971  1
  O2-  O473  1  0.90327406  0.32921978  0.85945614  1
  O2-  O474  1  0.92770156  0.60808882  0.20300244  1
  O2-  O475  1  0.92172001  0.58277066  0.52034489  1
  O2-  O476  1  0.90204377  0.55795122  0.81019226  1
  O2-  O477  1  0.92024551  0.84270221  0.20224543  1
  O2-  O478  1  0.95427693  0.81637597  0.52522430  1
  O2-  O479  1  0.91713489  0.83322792  0.85973586  1
  O2-  O480  1  0.16033106  0.03577073  0.32164329  1
  O2-  O481  1  0.14258180  0.07741666  0.64808326  1
  O2-  O482  1  0.16985904  0.10204612  1.03627083  1
  O2-  O483  1  0.15933978  0.32393520  0.30436316  1
  O2-  O484  1  0.17543929  0.32698149  0.63538678  1
  O2-  O485  1  0.16415394  0.33478117  0.97295113  1
  O2-  O486  1  0.17095178  0.58746172  0.31269118  1
  O2-  O487  1  0.17010499  0.57790982  0.66348525  1
  O2-  O488  1  0.15700344  0.59099835  0.99406792  1
  O2-  O489  1  0.16845776  0.83797436  0.30331158  1
  O2-  O490  1  0.17330189  0.83473020  0.64117636  1
  O2-  O491  1  0.16935864  0.84337598  0.98933988  1
  O2-  O492  1  0.41675854  0.09088462  0.31224002  1
  O2-  O493  1  0.45591912  0.09775695  0.63455414  1
  O2-  O494  1  0.40391189  0.07397265  0.98739995  1
  O2-  O495  1  0.40417097  0.33000421  0.31865761  1
  O2-  O496  1  0.42575143  0.34063938  0.64176397  1
  O2-  O497  1  0.41345349  0.32688695  0.98108486  1
  O2-  O498  1  0.42005900  0.57159226  0.33346668  1
  O2-  O499  1  0.40789372  0.57570311  0.64738650  1
  O2-  O500  1  0.40775353  0.57708039  0.98603685  1
  O2-  O501  1  0.41334713  0.82814041  0.31589759  1
  O2-  O502  1  0.42394403  0.83309296  0.69176623  1
  O2-  O503  1  0.41323694  0.83833496  0.98602153  1
  O2-  O504  1  0.65214340  0.07794124  0.30741867  1
  O2-  O505  1  0.69736377  0.08480699  0.62729426  1
  O2-  O506  1  0.65324513  0.08027105  0.99970337  1
  O2-  O507  1  0.65385074  0.34400858  0.31263633  1
  O2-  O508  1  0.68305041  0.34125808  0.68932942  1
  O2-  O509  1  0.64540981  0.31935766  0.98011640  1
  O2-  O510  1  0.67470646  0.58987931  0.31251775  1
  O2-  O511  1  0.65708202  0.59387329  0.66050990  1
  O2-  O512  1  0.66281221  0.57846869  0.98077019  1
  O2-  O513  1  0.66711024  0.84113414  0.28659874  1
  O2-  O514  1  0.67172361  0.81857571  0.64002807  1
  O2-  O515  1  0.66125141  0.83012240  0.98473266  1
  O2-  O516  1  0.90699002  0.07788782  0.30360749  1
  O2-  O517  1  0.92706066  0.10204944  0.64174166  1
  O2-  O518  1  0.91359008  0.08737027  0.92612133  1
  O2-  O519  1  0.95237697  0.36925068  0.34349763  1
  O2-  O520  1  0.92146748  0.36028733  0.67223701  1
  O2-  O521  1  0.91451993  0.32322803  0.97569802  1
  O2-  O522  1  0.92221691  0.59414348  0.31911334  1
  O2-  O523  1  0.94511897  0.60463495  0.63934094  1
  O2-  O524  1  0.90545712  0.57157665  1.03570922  1
  O2-  O525  1  0.92384297  0.84256906  0.31928082  1
  O2-  O526  1  0.91087196  0.84711090  0.64664794  1
  O2-  O527  1  0.91698647  0.83135378  0.98349810  1
  O2-  O528  1  0.05927293  0.16692357  -0.00598147  1
  O2-  O529  1  0.06223689  0.15936072  0.34376428  1
  O2-  O530  1  0.07820229  0.17405172  0.68097888  1
  O2-  O531  1  0.07948399  0.41247898  0.02195772  1
  O2-  O532  1  0.10494118  0.44069074  0.36161106  1
  O2-  O533  1  0.08079943  0.41530485  0.70220383  1
  O2-  O534  1  0.06735635  0.66483120  0.02655546  1
  O2-  O535  1  0.08849301  0.67397103  0.35668801  1
  O2-  O536  1  0.10184585  0.66974228  0.68402358  1
  O2-  O537  1  0.07877643  0.91602207  0.03229213  1
  O2-  O538  1  0.11654869  0.95500590  0.33985451  1
  O2-  O539  1  0.08031981  0.90792479  0.67941618  1
  O2-  O540  1  0.34228426  0.16760767  0.03617533  1
  O2-  O541  1  0.33167349  0.16692231  0.35820379  1
  O2-  O542  1  0.37505753  0.18294053  0.67500870  1
  O2-  O543  1  0.32706312  0.40946978  0.02108070  1
  O2-  O544  1  0.35604618  0.37171176  0.34211326  1
  O2-  O545  1  0.33703260  0.41595381  0.68376634  1
  O2-  O546  1  0.32820214  0.66933671  0.02566138  1
  O2-  O547  1  0.33605421  0.66297377  0.35108908  1
  O2-  O548  1  0.32881623  0.65771271  0.69173840  1
  O2-  O549  1  0.33067317  0.91777671  0.01290997  1
  O2-  O550  1  0.33164979  0.91902847  0.35320095  1
  O2-  O551  1  0.34716301  0.93457057  0.67989977  1
  O2-  O552  1  0.56736019  0.16086158  0.02689193  1
  O2-  O553  1  0.57901897  0.17178527  0.35150704  1
  O2-  O554  1  0.61784180  0.15810366  0.68148875  1
  O2-  O555  1  0.57736417  0.41269219  0.02414799  1
  O2-  O556  1  0.56889049  0.41836033  0.34973773  1
  O2-  O557  1  0.58655848  0.41941108  0.68891353  1
  O2-  O558  1  0.57440914  0.65456521  0.01747529  1
  O2-  O559  1  0.59115832  0.67875526  0.33530756  1
  O2-  O560  1  0.56712993  0.67073527  0.69836391  1
  O2-  O561  1  0.57777591  0.90669155  0.03177283  1
  O2-  O562  1  0.58216427  0.91368025  0.33988834  1
  O2-  O563  1  0.59490959  0.91527992  0.67887487  1
  O2-  O564  1  0.83855795  0.15841904  0.00106226  1
  O2-  O565  1  0.82117020  0.15481643  0.31678175  1
  O2-  O566  1  0.84102781  0.20398179  0.69359993  1
  O2-  O567  1  0.81387544  0.38931288  0.00801646  1
  O2-  O568  1  0.84292333  0.43443704  0.34665739  1
  O2-  O569  1  0.85360722  0.45950836  0.70592665  1
  O2-  O570  1  0.82368355  0.66595489  0.03120826  1
  O2-  O571  1  0.83894649  0.67453372  0.35328091  1
  O2-  O572  1  0.85571696  0.68135781  0.69330877  1
  O2-  O573  1  0.81722816  0.89605054  0.03314415  1
  O2-  O574  1  0.82720078  0.91648347  0.34842744  1
  O2-  O575  1  0.84379878  0.93607248  0.70057233  1
