# generated using pymatgen
data_H2O
_symmetry_space_group_name_H-M   'P 1'
_cell_length_a   17.99114223
_cell_length_b   17.99529721
_cell_length_c   22.00612438
_cell_angle_alpha   89.97632486
_cell_angle_beta   90.01296776
_cell_angle_gamma   120.02017637
_symmetry_Int_Tables_number   1
_chemical_formula_structural   H2O
_chemical_formula_sum   'H384 O192'
_cell_volume   6168.84113364
_cell_formula_units_Z   192
loop_
 _symmetry_equiv_pos_site_id
 _symmetry_equiv_pos_as_xyz
  1  'x, y, z'
loop_
 _atom_type_symbol
 _atom_type_oxidation_number
  H+  1.0
  O2-  -2.0
loop_
 _atom_site_type_symbol
 _atom_site_label
 _atom_site_symmetry_multiplicity
 _atom_site_fract_x
 _atom_site_fract_y
 _atom_site_fract_z
 _atom_site_occupancy
  H+  H0  1  0.39084199  0.86451738  0.66419284  1
  H+  H1  1  0.22776819  0.87189340  -0.00012270  1
  H+  H2  1  0.89129618  0.60678046  0.32948383  1
  H+  H3  1  0.71911583  0.85137832  0.83830109  1
  H+  H4  1  0.74990349  0.35586255  0.68269313  1
  H+  H5  1  0.97905820  0.36420404  0.66073157  1
  H+  H6  1  0.14561336  0.77430010  0.17438236  1
  H+  H7  1  0.36665365  0.73114724  0.67686952  1
  H+  H8  1  0.64812705  0.26047465  0.48889038  1
  H+  H9  1  0.10173531  0.94420425  0.67403871  1
  H+  H10  1  0.22873116  0.61668272  0.83867406  1
  H+  H11  1  0.63252978  0.04038344  0.83435876  1
  H+  H12  1  0.42503339  0.83130966  0.60765965  1
  H+  H13  1  0.03028274  0.13870645  -0.01147645  1
  H+  H14  1  0.85782940  -0.02423309  0.83383547  1
  H+  H15  1  0.96970437  0.87812741  0.50777950  1
  H+  H16  1  0.27617202  0.64241806  0.67594529  1
  H+  H17  1  0.27347740  0.39774617  0.15427178  1
  H+  H18  1  0.70467653  0.36921815  0.17762925  1
  H+  H19  1  0.00962462  0.85907221  0.32426653  1
  H+  H20  1  0.61908197  0.97815414  0.49581475  1
  H+  H21  1  0.93086914  0.87082424  0.33212270  1
  H+  H22  1  0.36103416  0.48226401  0.99829157  1
  H+  H23  1  -0.00243161  0.13781942  0.67237472  1
  H+  H24  1  0.89089001  0.27318226  0.50563278  1
  H+  H25  1  0.86307466  0.97836491  0.00625899  1
  H+  H26  1  0.47072035  0.10503629  0.83576016  1
  H+  H27  1  0.36459442  0.40488963  0.66749986  1
  H+  H28  1  0.14206112  0.35389771  0.50473144  1
  H+  H29  1  0.14264903  0.75566692  0.66413877  1
  H+  H30  1  0.88735125  0.36382860  0.14450939  1
  H+  H31  1  0.47387768  0.13324039  0.68549412  1
  H+  H32  1  0.87216446  0.91267745  0.51509529  1
  H+  H33  1  0.16420512  0.60919814  0.50429850  1
  H+  H34  1  0.87465108  0.72083154  0.34048211  1
  H+  H35  1  0.04035158  0.38417323  0.50083574  1
  H+  H36  1  0.14097607  0.36970631  0.16836360  1
  H+  H37  1  0.68577315  0.30170198  0.55298245  1
  H+  H38  1  0.26614969  0.16223785  0.48279852  1
  H+  H39  1  0.66440213  0.35611812  0.62411206  1
  H+  H40  1  0.83364103  0.88068816  0.29143279  1
  H+  H41  1  0.11165709  0.86407551  0.66458034  1
  H+  H42  1  0.14438644  0.62438124  -0.00752459  1
  H+  H43  1  0.36451823  0.40278409  0.15516057  1
  H+  H44  1  0.39328901  0.16280053  0.48302774  1
  H+  H45  1  0.64529648  0.32404869  0.89940756  1
  H+  H46  1  0.12412833  0.14810990  0.16875592  1
  H+  H47  1  0.38691580  0.85179664  0.33554467  1
  H+  H48  1  0.11953113  0.71817948  0.34576951  1
  H+  H49  1  0.88875813  0.26753378  0.33967921  1
  H+  H50  1  0.64641857  0.14175718  0.00274732  1
  H+  H51  1  0.06762693  0.87642079  0.76620444  1
  H+  H52  1  0.61337106  0.14578573  0.82502751  1
  H+  H53  1  0.22797778  0.37612937  0.98752502  1
  H+  H54  1  0.48930484  0.38887770  0.65878369  1
  H+  H55  1  0.03140531  0.61417699  0.50145995  1
  H+  H56  1  0.72284086  0.60181683  0.64907002  1
  H+  H57  1  0.10644131  0.48653604  0.67692872  1
  H+  H58  1  0.56973448  0.07515937  0.13613858  1
  H+  H59  1  0.36889191  -0.02559280  0.34183432  1
  H+  H60  1  0.60711614  0.88234569  0.33997033  1
  H+  H61  1  0.11801982  0.23021181  -0.01136685  1
  H+  H62  1  0.66805942  0.58802482  0.23525628  1
  H+  H63  1  0.87660655  0.00343441  0.67969555  1
  H+  H64  1  0.29624273  0.61394181  0.49855716  1
  H+  H65  1  0.38392502  0.52936020  0.83608206  1
  H+  H66  1  0.36526763  0.64368134  0.00620425  1
  H+  H67  1  0.52345697  0.15390464  0.47401708  1
  H+  H68  1  0.13720395  0.37550771  0.99090627  1
  H+  H69  1  0.63446106  0.11333318  0.50367382  1
  H+  H70  1  0.14449093  0.28159094  0.17273195  1
  H+  H71  1  0.79390457  0.65105213  0.03457152  1
  H+  H72  1  0.23103245  0.06082938  0.62985437  1
  H+  H73  1  0.72153334  0.10660473  0.32238316  1
  H+  H74  1  0.23814195  0.11334886  0.17082218  1
  H+  H75  1  0.52608761  0.89455631  0.00527227  1
  H+  H76  1  0.87320728  0.47768546  0.34588863  1
  H+  H77  1  0.52736671  0.89080539  0.67745478  1
  H+  H78  1  0.85607440  0.12859066  0.15554260  1
  H+  H79  1  0.61358164  0.73349560  0.16098692  1
  H+  H80  1  0.37615053  0.23536988  0.33179111  1
  H+  H81  1  0.61285966  0.41348435  0.16551945  1
  H+  H82  1  0.22532178  0.83223078  0.85217831  1
  H+  H83  1  0.51183564  0.63547369  0.83518454  1
  H+  H84  1  0.14960106  0.37131591  0.32597753  1
  H+  H85  1  0.02678928  0.64428859  0.16175166  1
  H+  H86  1  0.39107587  0.78085784  0.99858324  1
  H+  H87  1  0.11340860  -0.02217910  1.01767426  1
  H+  H88  1  0.61643369  0.25304845  0.66595728  1
  H+  H89  1  0.27554532  0.88755708  0.66722768  1
  H+  H90  1  0.39531282  0.11719729  0.99127569  1
  H+  H91  1  0.51970582  0.40321725  0.15668602  1
  H+  H92  1  0.89840769  0.04765599  0.51637639  1
  H+  H93  1  0.27758270  0.62753177  0.35122513  1
  H+  H94  1  0.45902543  0.61955739  0.48697600  1
  H+  H95  1  0.14005620  0.25729243  0.49178105  1
  H+  H96  1  0.65250149  0.56783194  0.59280387  1
  H+  H97  1  0.72544406  0.09775845  0.16938136  1
  H+  H98  1  0.62350902  0.37098206  0.83464462  1
  H+  H99  1  0.72938823  0.11913720  0.66135561  1
  H+  H100  1  0.40830056  0.30687452  0.83398289  1
  H+  H101  1  0.16643033  0.82584734  0.94314976  1
  H+  H102  1  0.37890192  0.41300061  0.82004424  1
  H+  H103  1  0.63273197  0.85518688  0.51013483  1
  H+  H104  1  0.13914734  0.61460859  0.17832045  1
  H+  H105  1  0.72125067  0.63053505  0.83661685  1
  H+  H106  1  0.91638920  0.57943049  1.04424372  1
  H+  H107  1  0.38291463  0.85698667  0.84290199  1
  H+  H108  1  0.64241011  0.12300756  0.66147975  1
  H+  H109  1  0.89251883  0.11532569  0.99188159  1
  H+  H110  1  0.69601648  0.62555453  0.51071771  1
  H+  H111  1  0.73810231  0.11527765  -0.01112020  1
  H+  H112  1  0.23884706  0.85404169  0.33166432  1
  H+  H113  1  -0.03331391  0.12291812  0.83741453  1
  H+  H114  1  0.38825461  0.76461092  0.17955773  1
  H+  H115  1  1.05071951  0.67152905  0.67119320  1
  H+  H116  1  0.38431729  0.62134059  0.65361341  1
  H+  H117  1  0.75067938  0.62750894  0.17341230  1
  H+  H118  1  0.35572909  0.96096699  0.82885735  1
  H+  H119  1  0.61617701  0.21797217  0.18774443  1
  H+  H120  1  0.97666218  0.86676232  1.00143272  1
  H+  H121  1  0.38389836  0.36926941  0.98885334  1
  H+  H122  1  0.77327325  0.88937225  0.00650773  1
  H+  H123  1  0.38610993  0.08571029  0.44730238  1
  H+  H124  1  0.38018846  0.12921483  0.16048117  1
  H+  H125  1  0.36742152  0.71668272  0.35384888  1
  H+  H126  1  0.91474329  0.57849412  0.23619745  1
  H+  H127  1  0.41798553  0.34422490  0.23644665  1
  H+  H128  1  0.28079093  0.14268371  0.00909348  1
  H+  H129  1  0.10126448  0.95285636  0.81058994  1
  H+  H130  1  0.86333995  0.73016130  0.99630311  1
  H+  H131  1  0.61308105  0.64473947  0.15978715  1
  H+  H132  1  0.61943459  0.26866620  0.83423107  1
  H+  H133  1  0.88703085  0.86083631  0.66864995  1
  H+  H134  1  0.60926817  0.38733592  0.68699942  1
  H+  H135  1  0.87703917  0.11959736  0.84015271  1
  H+  H136  1  0.12820088  0.37857092  0.83882429  1
  H+  H137  1  -0.02707945  0.85671498  0.84247062  1
  H+  H138  1  0.02442642  0.39044600  0.15677870  1
  H+  H139  1  0.39785569  0.84126476  0.51281619  1
  H+  H140  1  0.40333742  0.30219429  0.65615211  1
  H+  H141  1  0.03959843  0.39343393  0.35748492  1
  H+  H142  1  0.60861694  0.63287255  0.83393756  1
  H+  H143  1  0.38522797  0.52935509  0.16865945  1
  H+  H144  1  0.86831478  0.23124350  1.00260327  1
  H+  H145  1  0.63812395  0.77766518  0.99361991  1
  H+  H146  1  0.88076129  0.34223938  0.66056728  1
  H+  H147  1  0.61959775  0.39608435  0.33968555  1
  H+  H148  1  0.77120861  0.14299716  0.49432109  1
  H+  H149  1  0.77990830  0.89004423  0.68404317  1
  H+  H150  1  0.02282168  0.59760522  0.79427025  1
  H+  H151  1  0.13399607  -0.02770686  0.33594332  1
  H+  H152  1  0.86483590  0.88750670  0.15906822  1
  H+  H153  1  0.36829956  0.46825170  0.33628490  1
  H+  H154  1  0.61755802  0.48024589  0.67424139  1
  H+  H155  1  0.11370395  0.40162443  0.67574807  1
  H+  H156  1  0.27756390  0.64520725  1.00628467  1
  H+  H157  1  0.88916468  0.58971760  0.51588338  1
  H+  H158  1  0.85792505  0.72436680  0.16941848  1
  H+  H159  1  0.19113494  0.09628188  0.83548236  1
  H+  H160  1  0.23414979  0.86237646  0.17447049  1
  H+  H161  1  0.84663336  0.21352849  0.15297432  1
  H+  H162  1  0.11444156  0.48739799  1.00235838  1
  H+  H163  1  0.52007942  0.13241599  0.32990235  1
  H+  H164  1  0.97750179  0.85644011  0.17107458  1
  H+  H165  1  0.64396040  0.02786680  0.99134994  1
  H+  H166  1  0.47005810  0.61359576  0.98975904  1
  H+  H167  1  0.53269190  0.63764752  0.66718140  1
  H+  H168  1  0.86911569  0.22127951  0.67156857  1
  H+  H169  1  0.10117220  0.67555885  0.76315507  1
  H+  H170  1  0.11127135  0.70666805  0.49891004  1
  H+  H171  1  0.48577859  0.08167795  0.13372644  1
  H+  H172  1  0.13241287  1.01676638  0.48651746  1
  H+  H173  1  0.64224531  0.52670082  0.32332096  1
  H+  H174  1  0.36451060  0.72972156  0.82927000  1
  H+  H175  1  0.17230779  0.09520768  0.65150035  1
  H+  H176  1  0.88721737  0.86700570  0.99898288  1
  H+  H177  1  0.14149899  0.11832228  0.99169886  1
  H+  H178  1  0.61443139  0.62960453  0.66676460  1
  H+  H179  1  0.34226876  0.43670774  0.76156728  1
  H+  H180  1  0.73003594  0.36121305  0.33455995  1
  H+  H181  1  0.78109181  0.63704015  0.33517931  1
  H+  H182  1  0.67860974  0.37665324  0.24419734  1
  H+  H183  1  0.77870066  0.36602743  0.49044466  1
  H+  H184  1  0.92270063  0.33254750  0.56680131  1
  H+  H185  1  0.61923075  0.34825996  -0.00827210  1
  H+  H186  1  0.63531708  0.53282151  0.17040135  1
  H+  H187  1  0.35993325  0.49036634  0.66474826  1
  H+  H188  1  0.88883087  0.02825215  0.16830960  1
  H+  H189  1  1.07296982  0.16977564  0.38168564  1
  H+  H190  1  0.77263297  0.15407555  0.82707595  1
  H+  H191  1  0.56265631  0.15586575  0.62899534  1
  H+  H192  1  0.16156500  0.51985230  0.51141107  1
  H+  H193  1  0.89946116  0.51024324  0.52614818  1
  H+  H194  1  0.12761200  0.48342992  0.35040470  1
  H+  H195  1  0.86177218  0.64166276  0.67770522  1
  H+  H196  1  0.36001318  -0.02567086  0.68716236  1
  H+  H197  1  0.33668753  0.93368706  0.51413553  1
  H+  H198  1  0.39540582  0.22314075  0.15062634  1
  H+  H199  1  0.11623812  0.88685920  0.16611489  1
  H+  H200  1  0.48978035  0.85314726  0.51635327  1
  H+  H201  1  0.53732707  0.40288685  0.83115986  1
  H+  H202  1  0.17618148  0.58387523  0.27438535  1
  H+  H203  1  0.87943111  0.37399353  0.49513733  1
  H+  H204  1  0.13168081  0.29755847  0.66066913  1
  H+  H205  1  0.84752855  0.43342109  0.68251380  1
  H+  H206  1  0.35270736  0.28813606  0.18499896  1
  H+  H207  1  0.36053405  0.46172905  0.50604218  1
  H+  H208  1  0.85123046  0.42963916  0.07332333  1
  H+  H209  1  0.61444504  0.88175924  0.16219693  1
  H+  H210  1  0.87478052  0.38835294  0.34591443  1
  H+  H211  1  0.85141839  0.47218312  0.98995854  1
  H+  H212  1  0.59236047  0.71463631  0.49298589  1
  H+  H213  1  0.13325622  0.74691662  0.85407616  1
  H+  H214  1  0.19414063  0.83817859  0.49325545  1
  H+  H215  1  0.60827276  0.72986342  0.83341843  1
  H+  H216  1  0.34906088  0.17226236  0.06235371  1
  H+  H217  1  0.60854624  0.13057921  0.32637825  1
  H+  H218  1  0.32305110  0.90008724  0.77028134  1
  H+  H219  1  0.61507259  0.23440950  0.15636247  1
  H+  H220  1  0.38576087  0.28005807  -0.01033559  1
  H+  H221  1  0.41990729  0.94826135  0.12662330  1
  H+  H222  1  0.39024038  0.86972481  0.99702499  1
  H+  H223  1  0.85414345  0.12562192  0.67992407  1
  H+  H224  1  0.38392043  0.61951725  0.83919724  1
  H+  H225  1  -0.03068359  0.84788690  0.66199090  1
  H+  H226  1  0.86490771  0.88938486  0.83753618  1
  H+  H227  1  0.38475517  -0.01466607  0.17382673  1
  H+  H228  1  0.65405463  0.88641546  0.66794643  1
  H+  H229  1  0.89833652  0.41224170  0.81951267  1
  H+  H230  1  -0.01886926  0.60701787  0.33000501  1
  H+  H231  1  0.39830852  0.10303322  0.63953483  1
  H+  H232  1  0.23816771  0.10667866  0.32660578  1
  H+  H233  1  0.85111501  0.73152148  0.82739703  1
  H+  H234  1  0.38585468  0.11193241  0.32800120  1
  H+  H235  1  0.18006173  0.82543006  0.27158664  1
  H+  H236  1  0.28014159  0.38018717  0.33396204  1
  H+  H237  1  0.58322375  0.62122527  0.49341404  1
  H+  H238  1  0.52238355  0.87813775  0.16879940  1
  H+  H239  1  0.88864857  0.52947557  0.17147810  1
  H+  H240  1  0.36878944  -0.01354263  1.00689604  1
  H+  H241  1  1.03107075  0.14461205  0.48053186  1
  H+  H242  1  0.86296390  0.14691872  0.48996776  1
  H+  H243  1  0.39205882  0.60506483  0.32823535  1
  H+  H244  1  0.32201720  0.17853221  0.87669144  1
  H+  H245  1  0.71133148  0.35401347  0.98277025  1
  H+  H246  1  0.36116292  0.63608285  0.16097248  1
  H+  H247  1  0.51987403  0.88324143  0.34508002  1
  H+  H248  1  0.43059086  0.98018089  0.49270304  1
  H+  H249  1  0.63158279  0.42045377  0.48927344  1
  H+  H250  1  0.70851004  0.85515440  0.32146876  1
  H+  H251  1  0.63268651  0.01442744  0.32356489  1
  H+  H252  1  0.35033935  0.64144921  0.43120519  1
  H+  H253  1  0.30623960  0.19954849  0.71439605  1
  H+  H254  1  0.09312114  0.15854209  0.67122264  1
  H+  H255  1  0.93400660  0.56542914  0.69636085  1
  H+  H256  1  0.03582645  0.14824797  0.16512662  1
  H+  H257  1  0.11240253  0.48108588  0.16162838  1
  H+  H258  1  0.52351668  0.90663056  0.83011062  1
  H+  H259  1  0.75587942  0.54702019  0.47088249  1
  H+  H260  1  0.03531934  0.64977829  0.00664881  1
  H+  H261  1  0.11288028  0.88865845  0.01221620  1
  H+  H262  1  0.52578494  0.63160130  0.33675650  1
  H+  H263  1  0.11402290  0.13240603  0.47641669  1
  H+  H264  1  0.63748031  0.53836937  0.83964214  1
  H+  H265  1  0.66689435  0.09040891  0.56595336  1
  H+  H266  1  0.85352138  0.13539718  0.33697982  1
  H+  H267  1  0.11877171  0.48753450  0.82774278  1
  H+  H268  1  0.85418788  0.63053089  0.17220795  1
  H+  H269  1  0.09579816  0.87441183  0.49150446  1
  H+  H270  1  0.14891526  0.63048495  0.65683920  1
  H+  H271  1  0.83326011  0.91724608  0.10038700  1
  H+  H272  1  0.14508783  0.61224471  0.33382695  1
  H+  H273  1  0.58189336  0.93647247  0.77001006  1
  H+  H274  1  0.88989034  0.28889264  0.83422314  1
  H+  H275  1  0.61346625  0.98216277  0.67459291  1
  H+  H276  1  0.48632370  0.37276183  0.32418159  1
  H+  H277  1  -0.01570991  0.37493575  0.83617799  1
  H+  H278  1  0.47465575  0.61822132  0.17260325  1
  H+  H279  1  0.88118569  1.03151179  0.31784014  1
  H+  H280  1  0.37693803  0.17063975  0.71301519  1
  H+  H281  1  0.12401930  0.28203597  0.84044009  1
  H+  H282  1  0.88580604  0.61809336  0.99425003  1
  H+  H283  1  0.73021978  0.86666829  0.17246025  1
  H+  H284  1  0.62967382  -0.00375421  0.17319801  1
  H+  H285  1  0.85101423  0.72297761  0.66927574  1
  H+  H286  1  0.71698535  0.85145540  0.52093626  1
  H+  H287  1  0.63808837  0.86626786  -0.00833971  1
  H+  H288  1  0.08433242  0.42706215  0.06162992  1
  H+  H289  1  0.17850456  0.58969769  0.60337289  1
  H+  H290  1  0.58304937  0.41631241  0.05868502  1
  H+  H291  1  0.15919032  0.34555172  0.90500029  1
  H+  H292  1  0.17092384  0.59177132  0.93241893  1
  H+  H293  1  0.08088208  0.90719993  0.42794440  1
  H+  H294  1  0.16187398  0.82769986  0.56374143  1
  H+  H295  1  0.84774128  0.41159337  0.43055416  1
  H+  H296  1  0.83505024  0.40663746  0.76417178  1
  H+  H297  1  0.88264814  0.33023419  0.20986120  1
  H+  H298  1  0.32672669  0.17163440  0.80359169  1
  H+  H299  1  0.41557931  0.81641230  0.27860940  1
  H+  H300  1  0.96795067  0.12506851  0.31933523  1
  H+  H301  1  0.85387115  0.38360789  -0.01173616  1
  H+  H302  1  0.17816064  0.07487427  0.26860057  1
  H+  H303  1  0.57937027  0.66318890  0.39839734  1
  H+  H304  1  0.33307338  0.92630824  0.06602612  1
  H+  H305  1  0.33107865  0.42360840  0.05779731  1
  H+  H306  1  0.47686508  0.04091559  0.58311931  1
  H+  H307  1  0.14676830  0.02777287  0.17265093  1
  H+  H308  1  0.17325925  0.34373222  0.26217156  1
  H+  H309  1  0.82517064  0.87564452  0.36265800  1
  H+  H310  1  0.91306529  0.08209736  0.93112406  1
  H+  H311  1  0.40609260  0.07348675  0.26805980  1
  H+  H312  1  0.87209274  0.04065736  0.61637210  1
  H+  H313  1  0.82218299  0.16336198  0.39796032  1
  H+  H314  1  0.62517482  0.22891591  0.00542830  1
  H+  H315  1  0.66882583  0.09936907  0.89423554  1
  H+  H316  1  -0.02359515  0.37144804  -0.00989886  1
  H+  H317  1  0.91522837  0.84821236  0.57027433  1
  H+  H318  1  0.41113314  0.58737484  0.93010627  1
  H+  H319  1  0.93080051  0.58376491  0.62302434  1
  H+  H320  1  0.58092924  0.16997249  0.76411133  1
  H+  H321  1  0.60678999  0.44184096  0.39751041  1
  H+  H322  1  0.13300922  0.88058266  0.34014978  1
  H+  H323  1  0.91978260  0.33993173  0.92953296  1
  H+  H324  1  0.82821521  0.62695424  0.43597656  1
  H+  H325  1  0.48049719  0.13189339  0.20401845  1
  H+  H326  1  0.64256671  0.61631162  0.32534656  1
  H+  H327  1  0.94468286  0.48119083  0.10019344  1
  H+  H328  1  0.17726569  0.07233900  0.94759341  1
  H+  H329  1  0.10056160  0.23202549  0.32471052  1
  H+  H330  1  0.33271515  0.66925366  0.10210299  1
  H+  H331  1  0.58538442  0.16397228  0.41910919  1
  H+  H332  1  0.08683483  0.65534556  0.40437703  1
  H+  H333  1  0.08572289  0.42724561  0.76669402  1
  H+  H334  1  0.91811611  0.83621029  0.90467955  1
  H+  H335  1  0.67021267  0.83024549  0.62000704  1
  H+  H336  1  0.66562664  0.06804741  0.23558226  1
  H+  H337  1  0.45641363  0.06609713  0.57176374  1
  H+  H338  1  0.33474919  0.67123153  0.76848850  1
  H+  H339  1  0.82751026  0.94244147  0.46411178  1
  H+  H340  1  0.94892188  0.33272492  0.28945367  1
  H+  H341  1  0.83347432  0.17755371  0.76900841  1
  H+  H342  1  0.91102738  0.08949994  0.22634714  1
  H+  H343  1  0.59282983  0.42640800  0.76828951  1
  H+  H344  1  0.57753770  0.14122479  0.05644354  1
  H+  H345  1  0.58826079  0.91841744  0.43669138  1
  H+  H346  1  0.42673926  0.35129764  0.90003349  1
  H+  H347  1  0.08495032  0.91414127  0.10620313  1
  H+  H348  1  0.94996000  0.13389581  0.55765906  1
  H+  H349  1  0.63983801  0.27476127  0.32469546  1
  H+  H350  1  0.22455393  0.38160531  0.66240732  1
  H+  H351  1  0.83420048  0.16692091  0.06049319  1
  H+  H352  1  0.92671964  0.82936106  0.23299564  1
  H+  H353  1  0.09615256  0.04941182  0.86277828  1
  H+  H354  1  0.81867219  0.67280181  0.76792953  1
  H+  H355  1  0.22706008  0.61324181  0.17558695  1
  H+  H356  1  0.37687113  0.09287941  0.84574105  1
  H+  H357  1  0.39443299  0.85610374  0.18757253  1
  H+  H358  1  0.41844608  0.83354285  0.90225245  1
  H+  H359  1  0.63495663  0.52066365  0.49172595  1
  H+  H360  1  0.62329288  0.76321113  0.32547210  1
  H+  H361  1  0.13716145  0.61277881  0.83568413  1
  H+  H362  1  0.83589402  0.91104088  0.74709069  1
  H+  H363  1  0.66431958  0.83260572  0.23064560  1
  H+  H364  1  0.42280491  0.07925219  0.93606027  1
  H+  H365  1  0.66108152  0.82638907  0.89685576  1
  H+  H366  1  0.23372650  0.34915055  0.51737998  1
  H+  H367  1  0.16020629  0.07271722  0.54584103  1
  H+  H368  1  0.10247623  0.41701333  0.44254869  1
  H+  H369  1  0.06770700  0.19189618  0.76413680  1
  H+  H370  1  0.40560912  0.59206566  0.59051979  1
  H+  H371  1  0.12316679  0.73976963  0.01161090  1
  H+  H372  1  0.40608425  0.36906838  0.56287310  1
  H+  H373  1  0.34055068  0.26208905  0.48739120  1
  H+  H374  1  0.34912186  0.91968650  0.40307347  1
  H+  H375  1  0.10125877  0.15331091  0.81486368  1
  H+  H376  1  0.52195211  0.38453773  0.00096298  1
  H+  H377  1  0.39301795  0.36659170  0.32527092  1
  H+  H378  1  0.34036121  0.18836186  0.39445106  1
  H+  H379  1  0.08728413  0.67182190  0.10206978  1
  H+  H380  1  0.41914778  0.58093577  0.26527132  1
  H+  H381  1  0.58596766  0.92119382  0.06384922  1
  H+  H382  1  0.57558171  0.67245732  0.07037045  1
  H+  H383  1  0.21278785  0.92111400  0.61368218  1
  O2-  O384  1  0.09744994  0.18198644  0.15541806  1
  O2-  O385  1  0.09044696  0.17051065  0.46384057  1
  O2-  O386  1  0.07408950  0.18942343  0.80908621  1
  O2-  O387  1  0.08394414  0.42298586  0.14177420  1
  O2-  O388  1  0.10149454  0.41099487  0.48842586  1
  O2-  O389  1  0.08699126  0.42544319  0.81284802  1
  O2-  O390  1  0.08709748  0.67042662  0.14789053  1
  O2-  O391  1  0.09039950  0.64682558  0.48378860  1
  O2-  O392  1  0.07951649  0.65096236  0.80398957  1
  O2-  O393  1  0.08349724  0.91457830  0.15200139  1
  O2-  O394  1  0.07536728  0.91156304  0.47307679  1
  O2-  O395  1  0.07007181  0.89014565  0.81007531  1
  O2-  O396  1  0.35343903  0.16364629  0.14075699  1
  O2-  O397  1  0.32609721  0.20481586  0.47125605  1
  O2-  O398  1  0.30222509  0.13861495  0.84242611  1
  O2-  O399  1  0.33375469  0.43045765  0.13733543  1
  O2-  O400  1  0.33108124  0.40767076  0.52960956  1
  O2-  O401  1  0.34327673  0.43733776  0.80692233  1
  O2-  O402  1  0.33072116  0.66749768  0.14774926  1
  O2-  O403  1  0.35732180  0.64006632  0.48008489  1
  O2-  O404  1  0.33140473  0.66892573  0.81405291  1
  O2-  O405  1  0.36898393  0.92879985  0.15261889  1
  O2-  O406  1  0.37426973  0.93106644  0.48331870  1
  O2-  O407  1  0.32472962  0.89996318  0.81552653  1
  O2-  O408  1  0.52610989  0.07114694  0.10751857  1
  O2-  O409  1  0.58324217  0.16639604  0.46474921  1
  O2-  O410  1  0.57800310  0.17199298  0.80861699  1
  O2-  O411  1  0.58001634  0.43664205  0.14319278  1
  O2-  O412  1  0.64671003  0.46957024  0.46309254  1
  O2-  O413  1  0.59677914  0.42331940  0.81475664  1
  O2-  O414  1  0.57997421  0.67241754  0.14695992  1
  O2-  O415  1  0.55684460  0.65601035  0.47503039  1
  O2-  O416  1  0.57387938  0.66487344  0.82057297  1
  O2-  O417  1  0.58226955  0.91295853  0.15113268  1
  O2-  O418  1  0.59006345  0.91749994  0.48191287  1
  O2-  O419  1  0.58048398  0.94971559  0.81378433  1
  O2-  O420  1  0.81763082  0.15193370  0.14089927  1
  O2-  O421  1  0.83066527  0.17559726  0.47632874  1
  O2-  O422  1  0.83465435  0.18325078  0.81427598  1
  O2-  O423  1  0.88475784  0.44811715  0.11322073  1
  O2-  O424  1  0.84365968  0.40250416  0.47784541  1
  O2-  O425  1  0.87447648  0.44738819  0.79722863  1
  O2-  O426  1  0.82224381  0.66082611  0.15853886  1
  O2-  O427  1  0.81398395  0.59917414  0.47615720  1
  O2-  O428  1  0.81560120  0.67168149  0.81289368  1
  O2-  O429  1  0.83380614  0.91760600  0.14641550  1
  O2-  O430  1  0.83942189  0.94691760  0.50753488  1
  O2-  O431  1  0.83089695  0.91521399  0.82025146  1
  O2-  O432  1  0.17952469  0.08786132  0.18784384  1
  O2-  O433  1  0.16072542  0.07827734  0.50126056  1
  O2-  O434  1  0.12941893  0.07470724  0.82585217  1
  O2-  O435  1  0.17538557  0.34500537  0.18467286  1
  O2-  O436  1  0.16779081  0.31568831  0.51502277  1
  O2-  O437  1  0.15406945  0.34287496  0.85738903  1
  O2-  O438  1  0.16752654  0.58266956  0.19324954  1
  O2-  O439  1  0.19756081  0.58246336  0.52020239  1
  O2-  O440  1  0.16798181  0.58412965  0.85422476  1
  O2-  O441  1  0.17628511  0.83377032  0.19192840  1
  O2-  O442  1  0.14212401  0.81055811  0.51771808  1
  O2-  O443  1  0.17579500  0.79530888  0.87856339  1
  O2-  O444  1  0.42435591  0.08608459  0.19084440  1
  O2-  O445  1  0.41743713  0.12344257  0.48112859  1
  O2-  O446  1  0.41340432  0.06782974  0.85466117  1
  O2-  O447  1  0.40765652  0.34097367  0.19015684  1
  O2-  O448  1  0.38507120  0.36798636  0.52034461  1
  O2-  O449  1  0.43772053  0.36209354  0.85449745  1
  O2-  O450  1  0.41431092  0.58792942  0.18792666  1
  O2-  O451  1  0.39238700  0.58371703  0.49727198  1
  O2-  O452  1  0.41373814  0.58905758  0.85552654  1
  O2-  O453  1  0.42299317  0.82293688  0.19945266  1
  O2-  O454  1  0.43088028  0.81908053  0.53354345  1
  O2-  O455  1  0.41807167  0.83118888  0.85704698  1
  O2-  O456  1  0.66437184  0.06307173  0.18792100  1
  O2-  O457  1  0.66864476  0.08853589  0.52032583  1
  O2-  O458  1  0.66752763  0.10391220  0.84945594  1
  O2-  O459  1  0.68943013  0.40380777  0.20307122  1
  O2-  O460  1  0.68879597  0.31692571  0.51017199  1
  O2-  O461  1  0.64748210  0.32862455  0.85302032  1
  O2-  O462  1  0.67206726  0.59278761  0.18852101  1
  O2-  O463  1  0.63699213  0.58109652  0.51960650  1
  O2-  O464  1  0.65906925  0.59814135  0.85180973  1
  O2-  O465  1  0.66812487  0.83675407  0.18522186  1
  O2-  O466  1  0.65422053  0.81658899  0.52371573  1
  O2-  O467  1  0.65843582  0.82004688  0.85204937  1
  O2-  O468  1  0.91371723  0.08940383  0.18089156  1
  O2-  O469  1  0.93346485  0.11348930  0.51603298  1
  O2-  O470  1  0.90729668  0.08833737  0.85327334  1
  O2-  O471  1  0.90108440  0.32512462  0.16917638  1
  O2-  O472  1  0.92451306  0.33457149  0.52053190  1
  O2-  O473  1  0.92275956  0.34994707  0.84954244  1
  O2-  O474  1  0.91229330  0.58626815  0.19101116  1
  O2-  O475  1  0.92727004  0.57116600  0.53694523  1
  O2-  O476  1  0.94740533  0.51124407  0.75753661  1
  O2-  O477  1  0.91725717  0.82611610  0.18814493  1
  O2-  O478  1  0.91313336  0.86086532  0.52609094  1
  O2-  O479  1  0.91426966  0.83750016  0.85950843  1
  O2-  O480  1  0.17858652  0.06666693  0.31322194  1
  O2-  O481  1  0.17236614  0.05021632  0.62700452  1
  O2-  O482  1  0.17332513  0.08350419  0.99035671  1
  O2-  O483  1  0.17253979  0.33672708  0.30745473  1
  O2-  O484  1  0.16382357  0.35807113  0.64866171  1
  O2-  O485  1  0.16677699  0.34643973  0.97211421  1
  O2-  O486  1  0.17800204  0.58368367  0.31983450  1
  O2-  O487  1  0.17149767  0.59069036  0.64789239  1
  O2-  O488  1  0.17192138  0.59124415  0.97806040  1
  O2-  O489  1  0.17821620  0.82189342  0.31691849  1
  O2-  O490  1  0.18953420  0.86141823  0.62578268  1
  O2-  O491  1  0.16586130  0.83913256  0.98822578  1
  O2-  O492  1  0.41107385  0.07608669  0.31388511  1
  O2-  O493  1  0.40849183  0.10433927  0.68326755  1
  O2-  O494  1  0.42357203  0.08348730  0.98102555  1
  O2-  O495  1  0.42687089  0.33976837  0.30713359  1
  O2-  O496  1  0.43027416  0.36036059  0.63984616  1
  O2-  O497  1  0.41466889  0.33976609  0.97271901  1
  O2-  O498  1  0.42384577  0.57850422  0.31060720  1
  O2-  O499  1  0.40927024  0.58798621  0.63474517  1
  O2-  O500  1  0.40944681  0.58544051  0.97612374  1
  O2-  O501  1  0.41515355  0.81795195  0.32413049  1
  O2-  O502  1  0.42301345  0.83471374  0.65334734  1
  O2-  O503  1  0.42280208  0.84139415  0.98312756  1
  O2-  O504  1  0.66285525  0.07307036  0.30342928  1
  O2-  O505  1  0.66973075  0.09160897  0.64419287  1
  O2-  O506  1  0.67596502  0.08899447  0.97621183  1
  O2-  O507  1  0.67213088  0.33775676  0.31673969  1
  O2-  O508  1  0.66071522  0.33304853  0.66471960  1
  O2-  O509  1  0.64902070  0.31699573  0.97259557  1
  O2-  O510  1  0.67290484  0.58789781  0.30688513  1
  O2-  O511  1  0.66146228  0.56304046  0.63780227  1
  O2-  O512  1  0.60907091  0.61831072  1.01047449  1
  O2-  O513  1  0.64826912  0.82351743  0.30792390  1
  O2-  O514  1  0.69929779  0.87753474  0.64897372  1
  O2-  O515  1  0.67020824  0.83759809  0.97815073  1
  O2-  O516  1  0.90411370  0.09126543  0.30480246  1
  O2-  O517  1  0.89634370  0.06174563  0.65656345  1
  O2-  O518  1  0.91902638  0.08198653  0.97637297  1
  O2-  O519  1  0.92820186  0.33118770  0.33063227  1
  O2-  O520  1  0.92075726  0.32555486  0.64179284  1
  O2-  O521  1  0.91575353  0.33768457  0.97486252  1
  O2-  O522  1  0.92063795  0.57496129  0.31444139  1
  O2-  O523  1  0.93972002  0.60814636  0.66453512  1
  O2-  O524  1  0.91717146  0.58399301  1.00006987  1
  O2-  O525  1  0.94582991  0.83203901  0.31167022  1
  O2-  O526  1  0.91062961  0.82884198  0.64598676  1
  O2-  O527  1  0.91763566  0.83701105  0.98378278  1
  O2-  O528  1  0.09400465  0.16755315  -0.00907372  1
  O2-  O529  1  0.05964958  0.17224602  0.33855807  1
  O2-  O530  1  0.05735871  0.18128591  0.68568580  1
  O2-  O531  1  0.08201690  0.42576129  0.01630334  1
  O2-  O532  1  0.10126067  0.42399215  0.36824952  1
  O2-  O533  1  0.07701196  0.42603172  0.69205597  1
  O2-  O534  1  0.09361739  0.67712084  0.02471042  1
  O2-  O535  1  0.08618568  0.65665211  0.35881950  1
  O2-  O536  1  0.11318136  0.69706875  0.68078080  1
  O2-  O537  1  0.08121117  0.91637498  0.03021953  1
  O2-  O538  1  0.10050606  0.91007883  0.35198130  1
  O2-  O539  1  0.07374021  0.88338158  0.68549943  1
  O2-  O540  1  0.34387113  0.17605906  0.01727772  1
  O2-  O541  1  0.34687746  0.17692102  0.35112441  1
  O2-  O542  1  0.36005681  0.21058868  0.73296804  1
  O2-  O543  1  0.32944127  0.42063907  0.01241242  1
  O2-  O544  1  0.33985002  0.40756653  0.34977937  1
  O2-  O545  1  0.33142045  0.43107099  0.68321805  1
  O2-  O546  1  0.33699828  0.67496798  0.02349827  1
  O2-  O547  1  0.33810328  0.65487298  0.36747383  1
  O2-  O548  1  0.33665951  0.66983659  0.69088195  1
  O2-  O549  1  0.33566703  0.92428547  0.02153287  1
  O2-  O550  1  0.34329951  0.91440623  0.35836327  1
  O2-  O551  1  0.33142306  0.91159850  0.69125866  1
  O2-  O552  1  0.62671139  0.17961301  0.02779555  1
  O2-  O553  1  0.58209011  0.16349559  0.34262495  1
  O2-  O554  1  0.57693755  0.17664917  0.67080666  1
  O2-  O555  1  0.58072642  0.40159163  0.01527002  1
  O2-  O556  1  0.59179680  0.42939362  0.35201167  1
  O2-  O557  1  0.58216619  0.42270165  0.69722670  1
  O2-  O558  1  0.57625657  0.67240459  0.02440212  1
  O2-  O559  1  0.58612565  0.66603263  0.35282485  1
  O2-  O560  1  0.59402059  0.66969206  0.67679384  1
  O2-  O561  1  0.58797254  0.92598039  0.01914022  1
  O2-  O562  1  0.58248025  0.91766973  0.35578447  1
  O2-  O563  1  0.58779927  0.92414531  0.69280334  1
  O2-  O564  1  0.83815836  0.16958961  0.01534687  1
  O2-  O565  1  0.82255583  0.16581660  0.35247351  1
  O2-  O566  1  0.83117028  0.16413217  0.69076624  1
  O2-  O567  1  0.81945374  0.41039192  0.00257060  1
  O2-  O568  1  0.84436067  0.41717215  0.36309121  1
  O2-  O569  1  0.81261929  0.37377099  0.69582206  1
  O2-  O570  1  0.83352245  0.66616328  0.00066662  1
  O2-  O571  1  0.84029893  0.65932637  0.35139386  1
  O2-  O572  1  0.82109308  0.66276756  0.68490936  1
  O2-  O573  1  0.83276313  0.91920254  0.02404133  1
  O2-  O574  1  0.82649069  0.90885603  0.32713221  1
  O2-  O575  1  0.84052881  0.91344100  0.70119310  1
