# generated using pymatgen
data_H2O
_symmetry_space_group_name_H-M   'P 1'
_cell_length_a   17.98144048
_cell_length_b   17.98107785
_cell_length_c   21.99501534
_cell_angle_alpha   90.01426684
_cell_angle_beta   89.99866411
_cell_angle_gamma   119.99591621
_symmetry_Int_Tables_number   1
_chemical_formula_structural   H2O
_chemical_formula_sum   'H384 O192'
_cell_volume   6159.03902284
_cell_formula_units_Z   192
loop_
 _symmetry_equiv_pos_site_id
 _symmetry_equiv_pos_as_xyz
  1  'x, y, z'
loop_
 _atom_type_symbol
 _atom_type_oxidation_number
  H+  1.0
  O2-  -2.0
loop_
 _atom_site_type_symbol
 _atom_site_label
 _atom_site_symmetry_multiplicity
 _atom_site_fract_x
 _atom_site_fract_y
 _atom_site_fract_z
 _atom_site_occupancy
  H+  H0  1  0.02336463  0.14257080  0.16418718  1
  H+  H1  1  0.90845571  0.81951626  0.60441075  1
  H+  H2  1  0.52167617  0.88717295  0.81867709  1
  H+  H3  1  0.37811361  0.01608910  0.84249801  1
  H+  H4  1  0.81556860  0.53668154  0.95946722  1
  H+  H5  1  0.88533385  0.11552695  0.17834037  1
  H+  H6  1  0.84536896  0.95891436  0.33453019  1
  H+  H7  1  0.48851675  0.61237641  1.00815608  1
  H+  H8  1  0.63878986  0.85573471  0.15287940  1
  H+  H9  1  0.85392104  0.11574494  0.50975934  1
  H+  H10  1  0.90133342  0.32801017  0.92736896  1
  H+  H11  1  0.30402818  0.73450947  0.97676031  1
  H+  H12  1  0.15746883  0.00303432  0.51402329  1
  H+  H13  1  0.96289868  0.37452363  0.83834151  1
  H+  H14  1  0.64640803  0.92129103  0.00355331  1
  H+  H15  1  0.46815432  0.11186251  0.16724263  1
  H+  H16  1  0.37704619  0.87150840  0.32357169  1
  H+  H17  1  0.17881771  0.28000683  0.30327914  1
  H+  H18  1  0.27034001  0.89017843  0.67370765  1
  H+  H19  1  0.13112489  0.77413006  0.65104963  1
  H+  H20  1  0.49047413  0.39378199  0.00351875  1
  H+  H21  1  0.30858744  0.39264082  0.31936073  1
  H+  H22  1  0.62672843  0.48453267  0.01335662  1
  H+  H23  1  0.10296646  0.72371337  0.81667928  1
  H+  H24  1  0.50949649  0.89557971  0.35024864  1
  H+  H25  1  0.84743101  0.17884180  0.76429489  1
  H+  H26  1  0.39540911  0.61966622  0.85088706  1
  H+  H27  1  0.13210959  0.87301034  0.34131908  1
  H+  H28  1  0.26188373  0.89336966  0.33472957  1
  H+  H29  1  0.61101744  0.49147219  0.47970063  1
  H+  H30  1  0.35672881  0.73580405  0.34659893  1
  H+  H31  1  0.42948637  0.60145136  0.60078963  1
  H+  H32  1  0.41132821  0.37505458  0.31878997  1
  H+  H33  1  0.82292111  0.86236266  0.32852218  1
  H+  H34  1  0.86584630  0.97281343  0.18133022  1
  H+  H35  1  0.37412352  0.23445035  0.33742953  1
  H+  H36  1  0.35690502  0.96739513  0.01267398  1
  H+  H37  1  0.61911460  0.36145487  0.49385244  1
  H+  H38  1  0.66083526  0.08023590  0.89655445  1
  H+  H39  1  0.23083817  0.62712317  0.50538170  1
  H+  H40  1  0.10410214  0.87935345  0.67166689  1
  H+  H41  1  0.35897698  0.73108130  0.49268271  1
  H+  H42  1  0.36332936  0.89677512  0.67235480  1
  H+  H43  1  -0.04282377  0.07268992  0.51756319  1
  H+  H44  1  0.61211504  0.39225105  0.82490373  1
  H+  H45  1  0.62340470  0.10725530  0.84048199  1
  H+  H46  1  0.13032872  0.66591509  0.49769597  1
  H+  H47  1  0.59842731  0.61819749  0.69054656  1
  H+  H48  1  0.02526129  0.04297982  0.71195245  1
  H+  H49  1  0.11660457  0.77676948  0.32652510  1
  H+  H50  1  0.85643033  0.41013103  0.33324309  1
  H+  H51  1  0.86507123  0.23373427  1.00508912  1
  H+  H52  1  0.10813518  0.65164797  0.33313546  1
  H+  H53  1  0.39391344  0.12751387  0.50924620  1
  H+  H54  1  0.38921873  0.11928910  0.66420636  1
  H+  H55  1  0.98720343  0.88575421  0.29078676  1
  H+  H56  1  0.63911738  0.77148981  0.66830675  1
  H+  H57  1  0.88120619  0.26758389  0.51001349  1
  H+  H58  1  0.52204530  0.40101813  0.48550811  1
  H+  H59  1  0.29487656  0.17129261  0.00100010  1
  H+  H60  1  0.85215072  0.46917262  0.82293514  1
  H+  H61  1  0.61738764  0.37595442  0.33724892  1
  H+  H62  1  0.49464329  0.62167903  0.31239033  1
  H+  H63  1  0.85904023  0.14078628  0.00714552  1
  H+  H64  1  0.96279483  0.09694107  0.66055580  1
  H+  H65  1  0.85765865  0.46691900  0.00740900  1
  H+  H66  1  0.89278833  0.56865755  0.23645868  1
  H+  H67  1  0.72000085  0.10103112  0.51223587  1
  H+  H68  1  0.84938212  0.18984928  0.35789629  1
  H+  H69  1  0.38301093  0.10843437  0.84543014  1
  H+  H70  1  0.07226281  0.29343892  0.35019173  1
  H+  H71  1  0.35718648  0.13487616  0.16002625  1
  H+  H72  1  0.87662155  0.60680310  0.65548879  1
  H+  H73  1  0.62606235  0.27167803  0.84008373  1
  H+  H74  1  0.61617216  0.97676872  0.66903592  1
  H+  H75  1  0.02652330  0.88728321  0.82415355  1
  H+  H76  1  0.88573196  0.60597978  0.83454641  1
  H+  H77  1  0.83171705  0.45752017  0.49167238  1
  H+  H78  1  0.47578562  0.87741325  0.65669631  1
  H+  H79  1  0.58493146  0.68478354  0.38863804  1
  H+  H80  1  0.16281844  0.04374070  1.00442806  1
  H+  H81  1  0.39322927  0.12041055  0.32484777  1
  H+  H82  1  0.39994036  0.63669670  0.50426815  1
  H+  H83  1  0.72460408  0.11732120  0.66183400  1
  H+  H84  1  0.72174015  0.36716833  0.33132650  1
  H+  H85  1  0.07195146  0.81147564  -0.01960391  1
  H+  H86  1  0.24627551  0.88688454  0.16906131  1
  H+  H87  1  0.42388470  0.35095988  0.90368707  1
  H+  H88  1  0.35422418  0.27289919  0.51100006  1
  H+  H89  1  0.98017103  0.41996554  0.31488739  1
  H+  H90  1  0.88360918  0.15337406  0.82289202  1
  H+  H91  1  0.30627098  0.86452942  0.00648305  1
  H+  H92  1  0.88647038  0.36160146  -0.00805730  1
  H+  H93  1  0.09644405  0.69909949  0.01102492  1
  H+  H94  1  0.13538180  0.55325231  0.32101810  1
  H+  H95  1  0.61464111  0.64248875  0.33455859  1
  H+  H96  1  0.14443135  0.28597389  0.69517358  1
  H+  H97  1  0.11138279  0.64224575  0.82151311  1
  H+  H98  1  0.84413226  0.70846880  0.67345483  1
  H+  H99  1  0.63864918  0.72806870  1.05043572  1
  H+  H100  1  0.85698010  0.38555654  0.15803391  1
  H+  H101  1  0.21483663  0.69070322  0.89181193  1
  H+  H102  1  0.63339748  0.27193197  0.33091278  1
  H+  H103  1  0.57008274  0.91454863  0.41047494  1
  H+  H104  1  0.60084209  0.46226864  0.73624332  1
  H+  H105  1  0.66262257  0.33429132  0.93159198  1
  H+  H106  1  0.47107855  0.85133715  -0.00242526  1
  H+  H107  1  0.86066630  0.34372958  0.50741943  1
  H+  H108  1  0.86365336  0.72000794  0.49410409  1
  H+  H109  1  0.94058366  0.57658239  0.48434308  1
  H+  H110  1  0.60772465  0.97961664  0.82509665  1
  H+  H111  1  0.61606373  0.26349864  0.49509786  1
  H+  H112  1  0.87904751  0.08941963  0.33667215  1
  H+  H113  1  0.52695893  0.39835387  0.82729642  1
  H+  H114  1  0.46784231  0.86074656  0.50404620  1
  H+  H115  1  0.61473746  0.38961403  1.00594411  1
  H+  H116  1  0.51244670  0.12288784  0.67811832  1
  H+  H117  1  0.80477671  0.26624095  0.34463152  1
  H+  H118  1  0.14880223  0.01843118  0.65948447  1
  H+  H119  1  0.13592076  0.52735421  0.65875266  1
  H+  H120  1  0.17750933  0.32421890  0.52761569  1
  H+  H121  1  0.84676371  0.37826216  0.82405380  1
  H+  H122  1  0.77124322  0.89145027  0.00047096  1
  H+  H123  1  0.52439701  0.13359034  0.33570496  1
  H+  H124  1  0.77464286  0.65774063  0.33151405  1
  H+  H125  1  0.77181275  0.62215277  0.83093511  1
  H+  H126  1  0.98492018  0.84986471  0.51325918  1
  H+  H127  1  0.63545577  0.87460582  0.82909442  1
  H+  H128  1  0.28287693  0.14743154  0.34273513  1
  H+  H129  1  0.15964385  0.84398006  0.59696939  1
  H+  H130  1  0.18536073  0.40553362  0.46569067  1
  H+  H131  1  0.01877132  0.37295180  -0.03924129  1
  H+  H132  1  0.12574670  0.58865695  1.00061157  1
  H+  H133  1  0.87208918  0.73892720  0.33089677  1
  H+  H134  1  0.84793425  0.88481462  0.83175915  1
  H+  H135  1  0.16718858  0.08545324  0.28105674  1
  H+  H136  1  0.37807184  0.24128280  0.68163567  1
  H+  H137  1  0.10881797  0.11914525  0.35671092  1
  H+  H138  1  0.35342964  0.97781792  0.16327756  1
  H+  H139  1  0.16021955  0.25611667  0.84595342  1
  H+  H140  1  0.26993601  0.63000234  0.68421887  1
  H+  H141  1  0.26942074  0.90959138  0.48766847  1
  H+  H142  1  0.75699605  0.84685020  0.48486231  1
  H+  H143  1  0.87861838  0.62297430  0.33167040  1
  H+  H144  1  0.35443695  0.62498204  0.15326667  1
  H+  H145  1  0.04627475  0.90833751  0.38049426  1
  H+  H146  1  0.22467812  0.11995395  0.18270207  1
  H+  H147  1  0.60099001  0.85844890  0.48679183  1
  H+  H148  1  0.85883203  0.13831105  0.67060310  1
  H+  H149  1  0.35768403  0.62785462  0.00707987  1
  H+  H150  1  0.61067642  -0.04754674  0.50200728  1
  H+  H151  1  0.64019520  0.86070549  0.66487244  1
  H+  H152  1  0.82720662  0.14260456  0.44916985  1
  H+  H153  1  0.61078391  0.79380726  0.97281245  1
  H+  H154  1  1.02576161  0.82402113  0.29043749  1
  H+  H155  1  0.41306262  0.84966618  0.59951636  1
  H+  H156  1  0.77938638  0.88311259  0.17148452  1
  H+  H157  1  0.37496671  0.40134459  0.83058860  1
  H+  H158  1  0.59155448  0.25808245  0.66704848  1
  H+  H159  1  0.49273258  0.38561707  0.65901585  1
  H+  H160  1  0.13662067  0.36622924  0.67439400  1
  H+  H161  1  0.79308268  0.76373844  0.88090040  1
  H+  H162  1  0.32897953  0.67041711  0.43340160  1
  H+  H163  1  0.52212172  0.13442625  1.00064523  1
  H+  H164  1  0.14005893  0.10425340  0.84754169  1
  H+  H165  1  1.02407013  0.38839660  0.67548277  1
  H+  H166  1  0.51891445  0.13674678  0.49537083  1
  H+  H167  1  0.37621383  0.40140639  0.67746585  1
  H+  H168  1  0.51778467  0.63407911  0.67858425  1
  H+  H169  1  0.13929089  0.08191013  0.51213091  1
  H+  H170  1  0.38427310  0.02769509  0.32291685  1
  H+  H171  1  0.28524983  0.39852865  0.68128241  1
  H+  H172  1  0.40548169  0.52345821  0.30863609  1
  H+  H173  1  0.88823696  0.85907208  0.17232638  1
  H+  H174  1  0.10251471  0.50285847  0.82643780  1
  H+  H175  1  0.63342993  0.60818550  0.16072836  1
  H+  H176  1  0.64245117  0.12818314  -0.00327657  1
  H+  H177  1  0.48169282  0.35796257  0.17128164  1
  H+  H178  1  0.32858396  0.91339651  0.76742261  1
  H+  H179  1  -0.00344413  0.42558622  0.48767311  1
  H+  H180  1  0.89346257  0.78089914  1.00213605  1
  H+  H181  1  0.89050211  0.02894729  0.84161980  1
  H+  H182  1  0.85607289  0.96657351  0.67653542  1
  H+  H183  1  0.66229851  0.08184143  0.60375788  1
  H+  H184  1  0.88362371  0.81868132  0.91069431  1
  H+  H185  1  0.61380131  0.13416927  0.33888186  1
  H+  H186  1  0.18202960  0.07656285  0.60018272  1
  H+  H187  1  0.10864392  0.10206004  0.67569836  1
  H+  H188  1  0.88606008  0.27597515  0.83421800  1
  H+  H189  1  0.87722864  0.85047226  0.66306722  1
  H+  H190  1  0.76832524  0.87633327  0.67989077  1
  H+  H191  1  0.97828998  0.36598379  0.17741999  1
  H+  H192  1  0.12347654  0.48540800  0.18748478  1
  H+  H193  1  0.04990283  0.67416769  0.51326516  1
  H+  H194  1  0.09847750  0.41816271  0.35977281  1
  H+  H195  1  0.14705167  0.40312665  0.48192034  1
  H+  H196  1  0.28048443  0.13597548  0.49248755  1
  H+  H197  1  0.11465407  0.23070058  0.15662599  1
  H+  H198  1  0.76867472  0.14061635  0.16141918  1
  H+  H199  1  0.47888067  0.77436913  0.22575867  1
  H+  H200  1  0.40171707  0.75170508  0.18129862  1
  H+  H201  1  0.60502860  0.22560529  0.15506798  1
  H+  H202  1  0.54380295  0.68324080  0.48792538  1
  H+  H203  1  0.72220559  0.35871990  0.99209256  1
  H+  H204  1  0.11004532  0.45870107  -0.03566984  1
  H+  H205  1  0.72375077  0.35751931  0.17146791  1
  H+  H206  1  0.74118171  0.62522157  0.00558743  1
  H+  H207  1  0.38883773  0.76156654  0.84196325  1
  H+  H208  1  0.09266652  0.12324380  0.00972630  1
  H+  H209  1  0.15271847  0.03131697  0.34423875  1
  H+  H210  1  0.13499726  0.61592267  0.65766168  1
  H+  H211  1  0.28125935  0.64360477  0.83881532  1
  H+  H212  1  0.42077556  0.56063917  0.49989439  1
  H+  H213  1  0.64877040  0.61559090  1.01537599  1
  H+  H214  1  0.61479877  0.38357001  0.16208084  1
  H+  H215  1  0.36032542  0.63313445  0.68264752  1
  H+  H216  1  0.08313412  0.51897942  0.48896712  1
  H+  H217  1  0.61049858  -0.02307470  0.16116797  1
  H+  H218  1  0.86668543  0.60014086  0.49387512  1
  H+  H219  1  0.71581868  0.36005056  0.83679034  1
  H+  H220  1  0.86275404  0.47247551  0.66941879  1
  H+  H221  1  0.96585664  0.08523320  0.33716752  1
  H+  H222  1  0.89067765  0.36788296  0.66212716  1
  H+  H223  1  0.86123516  0.89774199  0.01068630  1
  H+  H224  1  0.39521432  0.51677800  0.15835807  1
  H+  H225  1  0.39437731  0.53337314  0.65678665  1
  H+  H226  1  0.28135074  0.14244191  0.83616571  1
  H+  H227  1  0.13284252  0.85626229  0.83432446  1
  H+  H228  1  0.08691799  0.19382563  0.37182492  1
  H+  H229  1  0.03796794  -0.06443314  0.98318785  1
  H+  H230  1  0.14496390  1.01864370  0.84246550  1
  H+  H231  1  0.32485111  0.65721685  0.06453910  1
  H+  H232  1  0.44877508  0.82816271  0.89409664  1
  H+  H233  1  0.43389225  0.33485734  0.26021680  1
  H+  H234  1  0.39042361  0.11466887  -0.00431524  1
  H+  H235  1  0.24414658  0.35479877  0.84714260  1
  H+  H236  1  0.87208408  0.64908697  0.00513690  1
  H+  H237  1  0.87605025  0.02721843  0.99604239  1
  H+  H238  1  0.38923378  0.26918574  0.17401645  1
  H+  H239  1  0.12073569  0.34702065  0.96971920  1
  H+  H240  1  0.17264923  0.60008222  0.56642575  1
  H+  H241  1  0.37316200  0.38267766  0.15719370  1
  H+  H242  1  0.12962475  0.80564151  0.49489000  1
  H+  H243  1  0.21914848  0.85233693  0.83776439  1
  H+  H244  1  0.63322712  0.51930909  0.16917653  1
  H+  H245  1  0.36281514  0.99088992  0.48933513  1
  H+  H246  1  0.61604114  0.72818563  0.13988900  1
  H+  H247  1  0.64335776  0.52620796  0.84839123  1
  H+  H248  1  0.62245197  0.00484542  0.34302216  1
  H+  H249  1  0.21571722  0.58966621  0.99757874  1
  H+  H250  1  0.23749424  0.36950482  0.15171815  1
  H+  H251  1  0.63568805  0.62672608  0.48591929  1
  H+  H252  1  0.64526526  0.53389949  0.31970716  1
  H+  H253  1  0.26707667  0.65161630  0.34160662  1
  H+  H254  1  1.02338265  0.61133603  1.03735779  1
  H+  H255  1  0.41100821  0.46535223  -0.00334196  1
  H+  H256  1  0.61362400  0.74660538  0.82188816  1
  H+  H257  1  0.74175684  0.13659805  -0.00200033  1
  H+  H258  1  0.65461775  0.03331548  1.00624783  1
  H+  H259  1  0.13646769  0.12072204  0.18352304  1
  H+  H260  1  0.08379930  0.40874584  0.23686884  1
  H+  H261  1  0.76070560  0.10413632  0.35531909  1
  H+  H262  1  0.12222800  0.25737214  -0.00457884  1
  H+  H263  1  0.40181074  0.53443289  0.84708521  1
  H+  H264  1  0.11436198  -0.01236288  0.16562467  1
  H+  H265  1  0.91734812  0.08729009  0.90178209  1
  H+  H266  1  0.38330973  0.86995270  0.49956867  1
  H+  H267  1  0.76819062  0.63411058  0.15368111  1
  H+  H268  1  1.01852323  0.63739109  0.66245908  1
  H+  H269  1  0.10540764  0.30629663  0.37544595  1
  H+  H270  1  0.02880289  0.13034314  0.83676150  1
  H+  H271  1  0.37697839  0.02411729  0.66201393  1
  H+  H272  1  0.63124959  0.10116249  0.50757686  1
  H+  H273  1  0.30819999  0.44238821  0.46834478  1
  H+  H274  1  0.83638659  0.28236816  0.37066884  1
  H+  H275  1  0.13963458  0.88427860  0.17026525  1
  H+  H276  1  0.10314249  0.17896245  0.52033609  1
  H+  H277  1  0.16758278  0.60513143  0.25873727  1
  H+  H278  1  0.33293518  0.65707499  0.77531800  1
  H+  H279  1  0.51664120  0.13247214  0.83209500  1
  H+  H280  1  0.58131159  0.41605356  0.39588556  1
  H+  H281  1  0.39282032  0.28285081  0.84876602  1
  H+  H282  1  0.70115565  0.85857707  0.30391661  1
  H+  H283  1  0.48922954  0.88478380  0.97281108  1
  H+  H284  1  0.52111003  0.38044329  0.32993933  1
  H+  H285  1  0.85614345  0.71180973  0.82622458  1
  H+  H286  1  0.62198109  0.11506158  0.16267506  1
  H+  H287  1  0.35969324  0.88328661  0.82603397  1
  H+  H288  1  0.33119540  0.79983628  0.92238313  1
  H+  H289  1  0.82994499  0.16915103  0.10350013  1
  H+  H290  1  0.83319936  0.91837954  0.76713872  1
  H+  H291  1  0.38159996  0.25554208  0.01130407  1
  H+  H292  1  0.66331628  0.32753982  0.23113627  1
  H+  H293  1  0.08961341  0.42189925  0.86105506  1
  H+  H294  1  0.89525408  0.85122556  0.50527015  1
  H+  H295  1  0.91774909  0.08617278  0.23696018  1
  H+  H296  1  0.17469208  0.31157327  0.92923456  1
  H+  H297  1  0.66576050  0.85119932  0.91809612  1
  H+  H298  1  0.71865286  0.61634210  0.48950949  1
  H+  H299  1  0.84243848  0.67248517  0.06876531  1
  H+  H300  1  0.14358098  0.05900650  0.93577824  1
  H+  H301  1  0.36341057  0.43699289  0.38240539  1
  H+  H302  1  0.86501039  0.23082178  0.66964361  1
  H+  H303  1  0.80828185  0.40504762  0.42909351  1
  H+  H304  1  0.03082425  0.89736928  0.14987485  1
  H+  H305  1  0.96551692  0.11542424  0.99866590  1
  H+  H306  1  0.33141894  0.17214641  0.10273865  1
  H+  H307  1  0.67772443  0.58338243  0.90874780  1
  H+  H308  1  0.16346803  0.84866965  0.23152870  1
  H+  H309  1  0.57598119  0.67122936  0.76139322  1
  H+  H310  1  0.08220665  0.42256533  0.73561092  1
  H+  H311  1  0.07972544  0.91306757  0.76215761  1
  H+  H312  1  0.62039431  0.76695116  0.30390808  1
  H+  H313  1  0.86999360  0.59993925  0.17488946  1
  H+  H314  1  0.58617850  0.41451903  0.10232762  1
  H+  H315  1  0.82755030  0.40991126  0.06818910  1
  H+  H316  1  0.57556174  0.16901148  0.09331974  1
  H+  H317  1  0.82382888  0.89378737  0.43329966  1
  H+  H318  1  0.36005873  0.40932441  0.09127236  1
  H+  H319  1  0.92031397  0.33827276  0.60252390  1
  H+  H320  1  0.83189154  0.67362649  0.42964869  1
  H+  H321  1  0.53234944  0.87944673  0.16005617  1
  H+  H322  1  0.72732492  0.87543268  0.83022734  1
  H+  H323  1  0.82367089  0.65071188  0.73282176  1
  H+  H324  1  0.08419163  0.14440678  0.77651566  1
  H+  H325  1  0.41737234  0.83480757  0.27360008  1
  H+  H326  1  0.08055506  0.67622643  0.39666458  1
  H+  H327  1  0.71467398  0.35952494  0.49173240  1
  H+  H328  1  0.89835034  0.06233224  0.60390427  1
  H+  H329  1  0.84196825  0.48666951  0.34714797  1
  H+  H330  1  0.60919646  0.22803972  -0.00011952  1
  H+  H331  1  0.12815417  0.61896311  0.11972506  1
  H+  H332  1  0.05888951  0.46421315  0.40074308  1
  H+  H333  1  0.58318635  0.91721789  0.72710619  1
  H+  H334  1  0.57415973  0.16060480  0.77173064  1
  H+  H335  1  0.41446564  0.08521500  0.22963475  1
  H+  H336  1  0.61407211  0.94251816  0.06971713  1
  H+  H337  1  0.26945037  0.63352985  0.15881949  1
  H+  H338  1  0.96411122  0.61591440  0.33204980  1
  H+  H339  1  0.66579361  0.58934074  0.25918901  1
  H+  H340  1  0.32198066  0.92528268  0.39398899  1
  H+  H341  1  0.57718700  0.16200846  0.43428792  1
  H+  H342  1  0.84865342  0.47061684  0.16214481  1
  H+  H343  1  0.97481263  0.60588271  0.83412402  1
  H+  H344  1  0.91871919  0.37711906  0.25605750  1
  H+  H345  1  0.09952452  0.42098351  0.07578249  1
  H+  H346  1  0.43998682  0.58758749  0.94366989  1
  H+  H347  1  0.28853280  0.15255863  0.67959952  1
  H+  H348  1  0.29813998  0.30605701  0.54464226  1
  H+  H349  1  0.41635300  0.08932306  0.56820325  1
  H+  H350  1  0.15235638  0.37348242  0.17518295  1
  H+  H351  1  0.07019976  0.12877063  0.45671597  1
  H+  H352  1  0.34248939  0.18025444  0.43476571  1
  H+  H353  1  0.34298130  0.17777973  0.77778564  1
  H+  H354  1  0.85982971  0.72288401  0.15234919  1
  H+  H355  1  0.48010838  0.60934599  0.15195771  1
  H+  H356  1  0.12869102  0.79865349  0.93170274  1
  H+  H357  1  0.63668799  0.35756341  0.66714302  1
  H+  H358  1  0.64454579  0.09211029  0.22633089  1
  H+  H359  1  0.43589264  0.58397953  0.24384558  1
  H+  H360  1  0.90208292  0.57359670  0.92519155  1
  H+  H361  1  0.34713681  0.43472565  0.77224135  1
  H+  H362  1  0.07741707  0.66687646  0.72205941  1
  H+  H363  1  0.41061680  0.07591032  0.93682260  1
  H+  H364  1  0.14682583  0.45160342  0.07919484  1
  H+  H365  1  0.11229695  0.91869615  0.43415961  1
  H+  H366  1  0.01406870  0.87806841  0.67319014  1
  H+  H367  1  0.93229122  0.81780749  0.21171022  1
  H+  H368  1  0.88741233  0.27717497  0.17273726  1
  H+  H369  1  0.21105791  0.32897651  0.24038987  1
  H+  H370  1  0.42022327  0.34642457  0.60717712  1
  H+  H371  1  0.90419094  0.57751902  0.59476754  1
  H+  H372  1  0.60453972  0.12871291  0.67845061  1
  H+  H373  1  0.65521194  0.81571021  0.21257670  1
  H+  H374  1  0.16865132  0.59694527  0.90987695  1
  H+  H375  1  0.86459771  -0.01164332  0.51201705  1
  H+  H376  1  0.68567336  0.04731222  0.28494866  1
  H+  H377  1  0.52209611  0.64979494  0.83187558  1
  H+  H378  1  0.82871450  0.41179753  0.72750836  1
  H+  H379  1  0.32087144  0.91132194  0.10513411  1
  H+  H380  1  0.36818173  0.40517979  0.48525192  1
  H+  H381  1  0.07650027  0.16245549  0.07115252  1
  H+  H382  1  0.70554914  0.58190007  0.67904931  1
  H+  H383  1  0.17442188  0.29813664  0.59587873  1
  O2-  O384  1  0.08283998  0.16790379  0.14695998  1
  O2-  O385  1  0.06853900  0.12130453  0.50169607  1
  O2-  O386  1  0.08955003  0.15380438  0.82117929  1
  O2-  O387  1  0.09061764  0.41684430  0.19301719  1
  O2-  O388  1  0.03166507  0.47918063  0.46452906  1
  O2-  O389  1  0.07890107  0.44111731  0.82132187  1
  O2-  O390  1  0.10885782  0.60026743  0.16151358  1
  O2-  O391  1  0.09554923  0.69312891  0.48311857  1
  O2-  O392  1  0.07533018  0.66264246  0.80152055  1
  O2-  O393  1  0.09414006  0.93185053  0.14477235  1
  O2-  O394  1  0.10319424  0.90150226  0.49546919  1
  O2-  O395  1  0.08501705  0.91615702  0.80830883  1
  O2-  O396  1  0.32844782  0.16822544  0.14780656  1
  O2-  O397  1  0.34030535  0.18058736  0.48020607  1
  O2-  O398  1  0.34257190  0.17556474  0.82329839  1
  O2-  O399  1  0.34867283  0.41423192  0.13494398  1
  O2-  O400  1  0.36532782  0.45073157  0.46014939  1
  O2-  O401  1  0.34476910  0.43280206  0.81769372  1
  O2-  O402  1  0.33106364  0.66283935  0.14263514  1
  O2-  O403  1  0.33233276  0.66953327  0.47966941  1
  O2-  O404  1  0.34000420  0.66471671  0.82216608  1
  O2-  O405  1  0.31771372  0.91551736  0.15164040  1
  O2-  O406  1  0.32839831  0.93186301  0.47167586  1
  O2-  O407  1  0.32682100  0.91098772  0.81341756  1
  O2-  O408  1  0.57262177  0.16539704  0.13884085  1
  O2-  O409  1  0.57995564  0.16850144  0.47937811  1
  O2-  O410  1  0.57708506  0.16545910  0.81756327  1
  O2-  O411  1  0.58369003  0.41383255  0.14787850  1
  O2-  O412  1  0.57975686  0.42545056  0.46841212  1
  O2-  O413  1  0.58723999  0.42882474  0.81215182  1
  O2-  O414  1  0.58595704  0.66318830  0.12431077  1
  O2-  O415  1  0.59914489  0.70599605  0.46467866  1
  O2-  O416  1  0.58041164  0.68296897  0.81020962  1
  O2-  O417  1  0.58958035  0.91975357  0.14183206  1
  O2-  O418  1  0.57336866  0.89554328  0.48327060  1
  O2-  O419  1  0.58271242  0.91908068  0.80671847  1
  O2-  O420  1  0.82965828  0.16783006  0.14891729  1
  O2-  O421  1  0.82886262  0.15062827  0.49404673  1
  O2-  O422  1  0.85710901  0.18699174  0.80894038  1
  O2-  O423  1  0.82106095  0.41016869  0.14363616  1
  O2-  O424  1  0.80064209  0.39731606  0.47507832  1
  O2-  O425  1  0.81686217  0.40894702  0.80825843  1
  O2-  O426  1  0.82884323  0.66070074  0.13951017  1
  O2-  O427  1  0.82871702  0.66227551  0.47421675  1
  O2-  O428  1  0.83099893  0.65261124  0.81067146  1
  O2-  O429  1  0.83873175  0.90992475  0.18691327  1
  O2-  O430  1  0.82136776  0.88548202  0.47790625  1
  O2-  O431  1  0.82972541  0.92350134  0.81296335  1
  O2-  O432  1  0.16677218  0.09235005  0.20205100  1
  O2-  O433  1  0.18366288  0.06680791  0.52394270  1
  O2-  O434  1  0.17201989  0.07546884  0.86340823  1
  O2-  O435  1  0.18126031  0.33784008  0.17305818  1
  O2-  O436  1  0.18410256  0.28363488  0.55361742  1
  O2-  O437  1  0.19009009  0.31211563  0.86777541  1
  O2-  O438  1  0.17211892  0.57828140  0.18580676  1
  O2-  O439  1  0.17113027  0.60723327  0.52130991  1
  O2-  O440  1  0.18578524  0.63353802  0.87165856  1
  O2-  O441  1  0.17063301  0.85330255  0.18670251  1
  O2-  O442  1  0.15747415  0.86384758  0.51386521  1
  O2-  O443  1  0.15701834  0.82048689  0.84906886  1
  O2-  O444  1  0.40855560  0.08189091  0.18424580  1
  O2-  O445  1  0.42003369  0.09255260  0.52242858  1
  O2-  O446  1  0.41003781  0.07502941  0.86049632  1
  O2-  O447  1  0.42222249  0.33011980  0.18943983  1
  O2-  O448  1  0.35776634  0.32496166  0.53138507  1
  O2-  O449  1  0.42224034  0.34549214  0.85884448  1
  O2-  O450  1  0.42401872  0.57789444  0.17379490  1
  O2-  O451  1  0.44040959  0.61684006  0.51934657  1
  O2-  O452  1  0.43233356  0.59483740  0.86365618  1
  O2-  O453  1  0.44978131  0.80047151  0.20471319  1
  O2-  O454  1  0.40671080  0.83533242  0.51726675  1
  O2-  O455  1  0.41544083  0.82365519  0.85779656  1
  O2-  O456  1  0.65178724  0.08609732  0.18283337  1
  O2-  O457  1  0.65813634  0.06935804  0.52450868  1
  O2-  O458  1  0.64829151  0.07071363  0.85302450  1
  O2-  O459  1  0.66175919  0.32669872  0.18620104  1
  O2-  O460  1  0.64838382  0.32855133  0.50611233  1
  O2-  O461  1  0.65639187  0.33280034  0.85472050  1
  O2-  O462  1  0.66253519  0.58117610  0.18224369  1
  O2-  O463  1  0.65503421  0.58494304  0.49388616  1
  O2-  O464  1  0.68179546  0.58562976  0.86404741  1
  O2-  O465  1  0.65989190  0.81641659  0.16580046  1
  O2-  O466  1  0.64945201  0.79716784  0.48374085  1
  O2-  O467  1  0.66553316  0.84305761  0.84504397  1
  O2-  O468  1  0.91998569  0.08926578  0.19173875  1
  O2-  O469  1  0.89556591  0.04836066  0.52853271  1
  O2-  O470  1  0.92658803  0.08889076  0.85685494  1
  O2-  O471  1  0.91495791  0.33931115  0.18288917  1
  O2-  O472  1  0.90380243  0.32874031  0.52132065  1
  O2-  O473  1  0.90363527  0.33556929  0.85256986  1
  O2-  O474  1  0.89029705  0.56215525  0.19178880  1
  O2-  O475  1  0.89021303  0.56244108  0.50915219  1
  O2-  O476  1  0.91512808  0.57511970  0.85111485  1
  O2-  O477  1  0.92007838  0.82559858  0.16922040  1
  O2-  O478  1  0.92280916  0.82037525  0.52398620  1
  O2-  O479  1  0.85336045  0.80141099  0.87016916  1
  O2-  O480  1  0.17319153  0.08963116  0.32657697  1
  O2-  O481  1  0.17964595  0.07943484  0.64586596  1
  O2-  O482  1  0.12050899  0.04777342  0.97901244  1
  O2-  O483  1  0.23065437  0.31991889  0.28158144  1
  O2-  O484  1  0.16902018  0.33413419  0.66686077  1
  O2-  O485  1  0.15622663  0.31627242  0.97548426  1
  O2-  O486  1  0.16550001  0.61259492  0.30427505  1
  O2-  O487  1  0.16810745  0.58769170  0.64420575  1
  O2-  O488  1  0.15662740  0.56202289  0.97960240  1
  O2-  O489  1  0.13875347  0.83634074  0.30942570  1
  O2-  O490  1  0.16065373  0.83710157  0.64162871  1
  O2-  O491  1  0.10965934  0.78708620  0.97448722  1
  O2-  O492  1  0.42093760  0.08831821  0.30833600  1
  O2-  O493  1  0.41133793  0.08387170  0.64517435  1
  O2-  O494  1  0.41569625  0.07964285  0.98251521  1
  O2-  O495  1  0.43812356  0.33945590  0.30688513  1
  O2-  O496  1  0.42988552  0.35104171  0.65155276  1
  O2-  O497  1  0.42913636  0.36390438  0.98667311  1
  O2-  O498  1  0.43526769  0.58483668  0.29097472  1
  O2-  O499  1  0.42582108  0.59566590  0.64593947  1
  O2-  O500  1  0.43289452  0.57523510  0.98821190  1
  O2-  O501  1  0.41137203  0.84251291  0.31752415  1
  O2-  O502  1  0.41545178  0.85666538  0.64423712  1
  O2-  O503  1  0.28540967  0.76871339  0.95243775  1
  O2-  O504  1  0.66767693  0.06663172  0.32068515  1
  O2-  O505  1  0.66298386  0.08361371  0.64907030  1
  O2-  O506  1  0.67792650  0.10067352  0.98373660  1
  O2-  O507  1  0.65883464  0.33312424  0.31680451  1
  O2-  O508  1  0.58916259  0.30694904  0.64859507  1
  O2-  O509  1  0.66158060  0.33267924  0.97753537  1
  O2-  O510  1  0.66881190  0.59311465  0.30498087  1
  O2-  O511  1  0.64166733  0.55662643  0.67469319  1
  O2-  O512  1  0.67873670  0.58964523  0.99431774  1
  O2-  O513  1  0.64658676  0.82263200  0.28209922  1
  O2-  O514  1  0.67427548  0.83194090  0.65613692  1
  O2-  O515  1  0.66152276  0.84908375  0.96434356  1
  O2-  O516  1  0.90971586  0.06267518  0.31616524  1
  O2-  O517  1  0.90188402  0.07185592  0.64913148  1
  O2-  O518  1  0.90661320  0.08858179  0.98106460  1
  O2-  O519  1  0.92617536  0.40835988  0.29483232  1
  O2-  O520  1  0.92381839  0.33854522  0.64764702  1
  O2-  O521  1  0.91175995  0.32881723  0.97268213  1
  O2-  O522  1  0.90222293  0.58537768  0.32016690  1
  O2-  O523  1  0.91226497  0.58259085  0.63923841  1
  O2-  O524  1  0.87708269  0.56471062  0.96778964  1
  O2-  O525  1  0.97113009  0.82526119  0.28994404  1
  O2-  O526  1  0.90664921  0.81828851  0.64969777  1
  O2-  O527  1  0.91781043  0.84052600  0.98286563  1
  O2-  O528  1  0.07275671  0.16234220  0.02521446  1
  O2-  O529  1  0.06601800  0.13243500  0.37711614  1
  O2-  O530  1  0.06092212  0.10297724  0.69976155  1
  O2-  O531  1  0.08017450  0.39860849  -0.05258647  1
  O2-  O532  1  0.07473250  0.45625931  0.35717784  1
  O2-  O533  1  0.08539697  0.41867301  0.69098943  1
  O2-  O534  1  0.08543772  0.64476391  0.03218064  1
  O2-  O535  1  0.07332720  0.67605767  0.35215995  1
  O2-  O536  1  0.07968916  0.66907935  0.67662470  1
  O2-  O537  1  0.01049852  0.87201517  -0.01268125  1
  O2-  O538  1  0.10812486  0.93236538  0.38532518  1
  O2-  O539  1  0.07505038  0.91078887  0.68797657  1
  O2-  O540  1  0.35002738  0.19279229  0.02134005  1
  O2-  O541  1  0.34448642  0.17588038  0.35541088  1
  O2-  O542  1  0.34684126  0.18153300  0.69775265  1
  O2-  O543  1  0.38480470  0.40603898  0.01437019  1
  O2-  O544  1  0.36751699  0.43394192  0.33712125  1
  O2-  O545  1  0.34690310  0.43329127  0.69195636  1
  O2-  O546  1  0.32061377  0.65135906  0.01907414  1
  O2-  O547  1  0.32481893  0.67513471  0.36030701  1
  O2-  O548  1  0.32419174  0.64927092  0.70688689  1
  O2-  O549  1  0.33268603  0.91271530  0.03536302  1
  O2-  O550  1  0.32230873  0.92400402  0.34823995  1
  O2-  O551  1  0.32888091  0.92247286  0.69127726  1
  O2-  O552  1  0.58322494  0.16755513  0.01571971  1
  O2-  O553  1  0.58443629  0.16526250  0.35265624  1
  O2-  O554  1  0.57094397  0.15374333  0.69659059  1
  O2-  O555  1  0.58912366  0.42257691  0.02475450  1
  O2-  O556  1  0.58528194  0.41193987  0.34961371  1
  O2-  O557  1  0.60261226  0.46542171  0.69050786  1
  O2-  O558  1  0.59397440  0.66775697  0.05687524  1
  O2-  O559  1  0.57906683  0.66953192  0.34401736  1
  O2-  O560  1  0.57568387  0.65785261  0.69981491  1
  O2-  O561  1  0.63993604  0.96413670  0.02844060  1
  O2-  O562  1  0.56979700  0.92579073  0.36570788  1
  O2-  O563  1  0.58445231  0.91509265  0.68195905  1
  O2-  O564  1  0.83118758  0.17398495  0.02290505  1
  O2-  O565  1  0.82199327  0.12975790  0.37065407  1
  O2-  O566  1  0.83089399  0.17066954  0.68534935  1
  O2-  O567  1  0.82872533  0.40688663  0.02221382  1
  O2-  O568  1  0.81476984  0.42346782  0.35692890  1
  O2-  O569  1  0.83701132  0.41206815  0.68279646  1
  O2-  O570  1  0.84622864  0.68193199  0.02279899  1
  O2-  O571  1  0.83231762  0.68447246  0.35125919  1
  O2-  O572  1  0.81630039  0.64757418  0.68756496  1
  O2-  O573  1  0.82758140  0.92596918  0.01993701  1
  O2-  O574  1  0.80486317  0.89880428  0.34888992  1
  O2-  O575  1  0.83160236  0.90735497  0.69340540  1
