# generated using pymatgen
data_H2O
_symmetry_space_group_name_H-M   'P 1'
_cell_length_a   17.99542316
_cell_length_b   17.99728433
_cell_length_c   21.99686897
_cell_angle_alpha   90.01148426
_cell_angle_beta   90.01198276
_cell_angle_gamma   119.99991684
_symmetry_Int_Tables_number   1
_chemical_formula_structural   H2O
_chemical_formula_sum   'H384 O192'
_cell_volume   6169.65484430
_cell_formula_units_Z   192
loop_
 _symmetry_equiv_pos_site_id
 _symmetry_equiv_pos_as_xyz
  1  'x, y, z'
loop_
 _atom_type_symbol
 _atom_type_oxidation_number
  H+  1.0
  O2-  -2.0
loop_
 _atom_site_type_symbol
 _atom_site_label
 _atom_site_symmetry_multiplicity
 _atom_site_fract_x
 _atom_site_fract_y
 _atom_site_fract_z
 _atom_site_occupancy
  H+  H0  1  0.90235921  0.26855959  0.32146488  1
  H+  H1  1  0.14049113  0.77344343  0.50826873  1
  H+  H2  1  -0.08932409  0.61680655  0.67900240  1
  H+  H3  1  0.85545184  0.90310926  0.81387651  1
  H+  H4  1  0.11990574  0.17110635  0.80542587  1
  H+  H5  1  0.09504610  0.22661722  0.66679019  1
  H+  H6  1  0.60821225  0.65740345  0.17671756  1
  H+  H7  1  0.36833512  0.98094668  0.50529210  1
  H+  H8  1  0.76557178  0.85397455  0.45858597  1
  H+  H9  1  0.73244709  0.35069142  -0.00368174  1
  H+  H10  1  0.93993807  0.05822891  0.49657147  1
  H+  H11  1  0.72199484  0.85385537  0.68039275  1
  H+  H12  1  0.53424027  0.24348563  0.43918711  1
  H+  H13  1  0.75048050  0.16389029  0.63460338  1
  H+  H14  1  0.42005397  0.32875443  0.65358504  1
  H+  H15  1  0.96844055  0.12034080  0.16496068  1
  H+  H16  1  0.85148971  0.16846477  0.40137203  1
  H+  H17  1  0.17821896  0.67158796  0.82373929  1
  H+  H18  1  0.19749562  1.02816069  0.34383375  1
  H+  H19  1  0.02151896  0.38957633  0.68102985  1
  H+  H20  1  0.43177774  0.37190189  0.27924140  1
  H+  H21  1  0.63359740  0.25915580  0.84094125  1
  H+  H22  1  0.06921921  0.49005015  0.98005362  1
  H+  H23  1  0.84548974  0.71395552  0.48061033  1
  H+  H24  1  0.37355532  0.51870285  0.33894555  1
  H+  H25  1  0.12201422  0.88716866  0.50513563  1
  H+  H26  1  0.52923103  0.63883390  0.47387824  1
  H+  H27  1  -0.05386481  0.84506880  0.48724745  1
  H+  H28  1  0.11331583  0.63847862  0.49867782  1
  H+  H29  1  0.27841988  0.40366586  0.14926973  1
  H+  H30  1  0.13370651  0.37636426  0.84336772  1
  H+  H31  1  0.55614937  0.40312888  0.67778356  1
  H+  H32  1  0.12971621  0.39587692  0.49123979  1
  H+  H33  1  0.81532749  0.65721288  0.11150698  1
  H+  H34  1  0.88858438  0.52883827  0.18212543  1
  H+  H35  1  0.59758414  0.88637207  0.30797532  1
  H+  H36  1  0.23150947  0.86387163  0.51063173  1
  H+  H37  1  0.29064515  0.16452690  0.26410450  1
  H+  H38  1  0.62827148  0.02652751  0.13766311  1
  H+  H39  1  0.37775510  0.89997627  0.36176336  1
  H+  H40  1  0.73289047  0.86291040  -0.00322412  1
  H+  H41  1  0.51178872  0.38610850  0.01434298  1
  H+  H42  1  0.88536566  0.91473593  0.41599369  1
  H+  H43  1  0.66205557  0.16112786  0.63685761  1
  H+  H44  1  0.52783407  0.13546616  0.82377256  1
  H+  H45  1  0.94441766  0.68420286  0.79965866  1
  H+  H46  1  0.40783312  0.10157553  0.17544467  1
  H+  H47  1  0.62232664  0.89241011  -0.01648593  1
  H+  H48  1  0.13886754  -0.00300457  0.83908484  1
  H+  H49  1  0.28692794  0.14055562  0.48363178  1
  H+  H50  1  0.33491746  0.44622970  0.67573787  1
  H+  H51  1  0.08804368  0.13142123  0.15676973  1
  H+  H52  1  0.12333535  0.13004864  0.00574781  1
  H+  H53  1  0.16981762  0.84589364  0.24279571  1
  H+  H54  1  0.01937523  0.88316589  0.80636539  1
  H+  H55  1  0.78600952  0.38539065  0.68325247  1
  H+  H56  1  0.15564219  0.86540660  -0.00184868  1
  H+  H57  1  0.22414674  0.34459670  0.99010169  1
  H+  H58  1  0.38330395  0.49423110  0.50242489  1
  H+  H59  1  0.26035536  0.37137522  0.82334917  1
  H+  H60  1  0.67482788  0.58120768  0.59664963  1
  H+  H61  1  0.13559385  0.37196095  0.32956478  1
  H+  H62  1  0.21701860  0.35618580  0.66843131  1
  H+  H63  1  0.61134641  0.20933380  0.14504678  1
  H+  H64  1  0.61602380  0.38677282  0.50767304  1
  H+  H65  1  0.12726260  -0.02212773  1.02056991  1
  H+  H66  1  0.37791655  0.61105772  0.33750107  1
  H+  H67  1  0.87281183  0.39078654  0.16696960  1
  H+  H68  1  0.37326267  0.64542369  0.67330521  1
  H+  H69  1  0.40430847  0.74300953  0.00978444  1
  H+  H70  1  0.82380176  0.62870374  0.32574289  1
  H+  H71  1  0.36481515  0.72762520  0.50368027  1
  H+  H72  1  0.27761284  0.13299691  0.82737552  1
  H+  H73  1  0.88861788  0.52463675  1.01240971  1
  H+  H74  1  0.85346111  0.22663027  0.82244843  1
  H+  H75  1  0.88323421  0.02778358  0.83939470  1
  H+  H76  1  0.89275219  0.77161709  0.65114948  1
  H+  H77  1  0.24840575  0.61144957  0.84150514  1
  H+  H78  1  0.14336707  0.77319678  0.99729861  1
  H+  H79  1  0.48666576  0.86508118  0.35062906  1
  H+  H80  1  0.18373212  0.12226443  0.20569956  1
  H+  H81  1  0.62667733  0.51122617  0.85032315  1
  H+  H82  1  0.71189626  0.87071190  0.83832811  1
  H+  H83  1  0.50660921  0.15685868  0.47482885  1
  H+  H84  1  0.15147487  0.75400943  0.82991215  1
  H+  H85  1  1.00499811  0.56794466  0.82780418  1
  H+  H86  1  0.13008382  0.25823188  0.16890828  1
  H+  H87  1  0.67708081  0.89215565  0.21151253  1
  H+  H88  1  0.91974270  0.83190664  1.08462987  1
  H+  H89  1  0.08611489  0.67127094  0.07723784  1
  H+  H90  1  0.52294278  0.38256368  0.35390154  1
  H+  H91  1  0.76418251  0.65194762  0.82252949  1
  H+  H92  1  0.63468535  0.34943171  0.84591753  1
  H+  H93  1  0.80451001  0.65489133  0.42137704  1
  H+  H94  1  0.76556180  0.64209108  0.17576125  1
  H+  H95  1  0.87237190  0.49728331  0.32081796  1
  H+  H96  1  0.61352633  0.59089234  0.84279176  1
  H+  H97  1  0.22836662  0.61785062  0.51516674  1
  H+  H98  1  0.47772360  0.86285661  0.51408446  1
  H+  H99  1  0.62494094  0.97377314  0.34129917  1
  H+  H100  1  0.12100308  0.61094114  0.18166894  1
  H+  H101  1  0.73425733  0.62697789  0.31142637  1
  H+  H102  1  0.79455532  0.63604992  0.66078781  1
  H+  H103  1  0.38270522  0.49804603  0.82676394  1
  H+  H104  1  0.50608261  0.71051436  0.63625576  1
  H+  H105  1  0.48010306  0.87873390  0.98032301  1
  H+  H106  1  0.13895343  0.62629628  0.33539128  1
  H+  H107  1  0.22796060  0.29311571  0.56250379  1
  H+  H108  1  0.78241985  0.15970393  0.16536320  1
  H+  H109  1  0.63858916  0.98335910  0.66400352  1
  H+  H110  1  0.12921730  0.07609643  0.85584211  1
  H+  H111  1  0.59564906  0.88462245  0.84202395  1
  H+  H112  1  0.28030954  0.89605590  0.66756182  1
  H+  H113  1  0.14043849  0.81142939  0.90498135  1
  H+  H114  1  0.37332361  0.23175458  0.48248661  1
  H+  H115  1  0.65580266  0.14672324  0.19276385  1
  H+  H116  1  0.36654742  0.89110422  0.67140973  1
  H+  H117  1  0.66621573  0.32391286  0.57929175  1
  H+  H118  1  0.24760980  0.88051802  0.33148840  1
  H+  H119  1  0.13408061  0.44893786  0.10768684  1
  H+  H120  1  0.38057995  0.35736822  0.83686997  1
  H+  H121  1  0.83459724  0.50441489  0.32090474  1
  H+  H122  1  0.40438892  0.26902838  0.99404231  1
  H+  H123  1  0.86066096  0.75713988  0.31254798  1
  H+  H124  1  0.87764726  0.60229368  0.48318038  1
  H+  H125  1  0.59977582  0.36399791  0.34371031  1
  H+  H126  1  0.38914943  0.11462865  0.50545157  1
  H+  H127  1  0.38883728  0.86439179  0.51369088  1
  H+  H128  1  0.11991114  0.88395555  0.17373293  1
  H+  H129  1  0.05492273  0.90888327  0.53298686  1
  H+  H130  1  0.39476700  1.03627924  0.83264485  1
  H+  H131  1  0.11944198  0.49039416  0.82963254  1
  H+  H132  1  0.64826285  0.57840624  0.93886333  1
  H+  H133  1  0.16753970  0.58111527  0.60517386  1
  H+  H134  1  0.33854695  0.34404081  0.65423219  1
  H+  H135  1  0.61795193  0.13392080  0.82731975  1
  H+  H136  1  0.36019069  0.72588250  0.35747151  1
  H+  H137  1  0.87820307  0.11749935  0.16983524  1
  H+  H138  1  0.82623833  0.32122341  0.31334072  1
  H+  H139  1  0.53080748  0.13918041  0.67237969  1
  H+  H140  1  0.48745055  0.61490201  0.32650675  1
  H+  H141  1  0.97766396  0.11706717  0.83875662  1
  H+  H142  1  0.35162789  0.90599689  0.82677864  1
  H+  H143  1  0.82448812  0.16581265  0.73016154  1
  H+  H144  1  0.63069664  0.52018691  0.50775935  1
  H+  H145  1  0.50856331  0.69379549  0.03441262  1
  H+  H146  1  0.92956364  0.32817945  0.26081021  1
  H+  H147  1  0.65194755  0.02269926  0.64460246  1
  H+  H148  1  0.15908888  0.11938233  0.49254416  1
  H+  H149  1  0.97884306  0.36915455  0.84653405  1
  H+  H150  1  0.95773389  0.72912199  0.30211504  1
  H+  H151  1  0.59451394  0.14892906  0.05319269  1
  H+  H152  1  0.11126895  0.83724486  0.84130340  1
  H+  H153  1  0.40573117  0.12863687  0.83274945  1
  H+  H154  1  0.87382390  0.89634429  0.16529613  1
  H+  H155  1  0.39513598  0.59852175  0.98124648  1
  H+  H156  1  0.32361479  0.69718497  0.13942299  1
  H+  H157  1  0.86058865  0.78732544  0.79384014  1
  H+  H158  1  0.46840849  0.62528972  0.16956030  1
  H+  H159  1  0.14199671  0.52832372  0.50996154  1
  H+  H160  1  0.09466860  0.13585657  0.66382477  1
  H+  H161  1  0.65577995  1.03273313  -0.03348727  1
  H+  H162  1  0.61954989  0.74922269  0.17739662  1
  H+  H163  1  0.11756548  0.02983956  0.18071769  1
  H+  H164  1  0.62415010  0.72454386  0.70953696  1
  H+  H165  1  0.78357827  0.14980344  0.00392995  1
  H+  H166  1  0.60183969  0.42270174  0.18168572  1
  H+  H167  1  0.64378762  1.03446518  0.49816309  1
  H+  H168  1  -0.01432341  0.36245906  0.16435482  1
  H+  H169  1  0.39812309  0.38921914  0.34090846  1
  H+  H170  1  0.88164124  0.39435729  0.01255404  1
  H+  H171  1  0.86771191  0.88426278  0.02110295  1
  H+  H172  1  0.38250935  0.38081795  0.17690941  1
  H+  H173  1  0.88732474  0.77243894  0.17321858  1
  H+  H174  1  0.11038312  0.73132381  0.17341457  1
  H+  H175  1  0.86911904  0.48569264  0.51887173  1
  H+  H176  1  0.84690719  -0.02094063  0.50176419  1
  H+  H177  1  0.62260248  0.22043005  0.00027245  1
  H+  H178  1  0.87483649  0.27381916  0.51481216  1
  H+  H179  1  0.58496388  0.40498774  0.44360471  1
  H+  H180  1  0.11006069  0.38965851  0.68194723  1
  H+  H181  1  0.33566561  0.20070364  0.66400288  1
  H+  H182  1  0.60239525  0.49002186  0.01504992  1
  H+  H183  1  0.14578949  0.77835938  0.66388605  1
  H+  H184  1  0.66289334  0.60096678  0.66881019  1
  H+  H185  1  0.49005077  0.09681107  0.99158687  1
  H+  H186  1  0.02631937  0.39345321  0.33912061  1
  H+  H187  1  0.74919904  0.87427134  0.18799006  1
  H+  H188  1  0.45676039  0.87527831  0.84617359  1
  H+  H189  1  0.86088148  0.38201939  0.83892256  1
  H+  H190  1  0.38405492  0.40356455  0.49458094  1
  H+  H191  1  0.89526926  0.27552726  0.16620747  1
  H+  H192  1  0.21899477  0.86616447  0.17675185  1
  H+  H193  1  0.85723743  0.12692266  0.48885822  1
  H+  H194  1  0.37201524  0.60801904  0.15961836  1
  H+  H195  1  0.40246819  0.88932254  0.00099310  1
  H+  H196  1  0.12445349  0.37509024  0.15025600  1
  H+  H197  1  0.58255838  0.91424078  0.13515664  1
  H+  H198  1  0.56161390  0.81926424  0.12473175  1
  H+  H199  1  0.34823713  0.96181605  0.15643187  1
  H+  H200  1  0.86587204  0.38368550  0.53350051  1
  H+  H201  1  0.11940463  0.21854891  -0.00069548  1
  H+  H202  1  0.01172343  0.58793490  0.85878772  1
  H+  H203  1  0.62003292  0.54703938  0.19194852  1
  H+  H204  1  0.37758176  0.76817300  0.66615625  1
  H+  H205  1  0.32954203  0.86967509  0.13848556  1
  H+  H206  1  0.65077117  0.10522036  0.35694363  1
  H+  H207  1  0.77428070  0.13700852  0.48083273  1
  H+  H208  1  1.02003064  0.64317407  0.16955782  1
  H+  H209  1  0.11351013  0.48525219  0.34230455  1
  H+  H210  1  0.63805762  0.77902414  1.00070695  1
  H+  H211  1  0.24233893  0.60657035  0.14923547  1
  H+  H212  1  0.57140088  0.64858879  0.37893164  1
  H+  H213  1  0.99739722  0.12941313  0.31841741  1
  H+  H214  1  0.04608311  0.54467221  -0.06216859  1
  H+  H215  1  0.24013438  0.09985155  0.99453022  1
  H+  H216  1  0.86154470  0.88361783  0.66373529  1
  H+  H217  1  0.61155140  0.62980300  0.47232341  1
  H+  H218  1  0.38972512  0.35158794  0.99788410  1
  H+  H219  1  0.77477066  0.39197971  0.53296532  1
  H+  H220  1  0.89691679  0.12255034  0.32421057  1
  H+  H221  1  0.64344389  0.27917261  0.51180430  1
  H+  H222  1  0.91055873  0.86349264  0.74865672  1
  H+  H223  1  0.50757843  0.63902526  0.67371895  1
  H+  H224  1  0.39765043  0.11705586  0.65637800  1
  H+  H225  1  0.52797840  0.15229200  0.37408040  1
  H+  H226  1  0.78896646  0.13482165  0.34414025  1
  H+  H227  1  0.37163787  0.29143355  0.20257668  1
  H+  H228  1  0.97277781  0.61980938  1.01233396  1
  H+  H229  1  0.15638393  0.03010156  0.50450904  1
  H+  H230  1  0.33679351  0.16158210  0.72853441  1
  H+  H231  1  0.76965961  0.63432788  0.01312120  1
  H+  H232  1  0.83485103  0.50364974  0.86364628  1
  H+  H233  1  0.27598332  0.62929193  0.67420019  1
  H+  H234  1  0.65277956  0.11833730  0.97084494  1
  H+  H235  1  0.72811751  0.88005633  0.53801626  1
  H+  H236  1  0.85362544  0.13217132  0.67053064  1
  H+  H237  1  0.39843215  0.02900048  0.65294043  1
  H+  H238  1  0.03548186  0.88755536  0.02978830  1
  H+  H239  1  0.36187645  0.45595217  -0.00237429  1
  H+  H240  1  0.88986860  0.76605851  1.03162286  1
  H+  H241  1  0.89840254  1.01565020  -0.01082929  1
  H+  H242  1  0.13708028  0.52222300  0.66586655  1
  H+  H243  1  0.62536680  0.84197505  0.69063062  1
  H+  H244  1  0.63476404  0.34128386  0.13889505  1
  H+  H245  1  0.91245953  0.64795057  0.81950404  1
  H+  H246  1  0.13143807  0.64374581  0.67774922  1
  H+  H247  1  0.38409021  0.99073792  0.35057688  1
  H+  H248  1  0.11091764  0.23415946  0.32881794  1
  H+  H249  1  0.11899933  0.28273104  0.83532836  1
  H+  H250  1  0.85421211  0.84426540  0.50185385  1
  H+  H251  1  0.06282735  0.16546876  0.47939152  1
  H+  H252  1  0.16744250  0.89401311  0.33194260  1
  H+  H253  1  0.04257173  0.67589261  0.34319068  1
  H+  H254  1  0.91141762  0.82670912  0.59022486  1
  H+  H255  1  0.50800650  0.85709611  0.69098286  1
  H+  H256  1  0.26871681  0.39066934  0.35302303  1
  H+  H257  1  0.86895308  -0.01551997  0.16466998  1
  H+  H258  1  0.64667353  0.48514017  0.67242022  1
  H+  H259  1  0.62929084  0.61822570  -0.00143088  1
  H+  H260  1  0.37769125  0.11988529  0.00062459  1
  H+  H261  1  0.82289059  0.93792062  0.76359075  1
  H+  H262  1  0.13666593  0.75136504  0.34826973  1
  H+  H263  1  0.53208313  0.11456036  0.15549320  1
  H+  H264  1  0.99275647  0.10396201  0.98747055  1
  H+  H265  1  0.67869569  0.30782957  0.29526274  1
  H+  H266  1  0.43903316  0.82750976  0.13963303  1
  H+  H267  1  0.65278985  0.36244577  0.66842502  1
  H+  H268  1  0.85955913  0.97199063  0.66510174  1
  H+  H269  1  1.02357371  0.88154004  0.16478564  1
  H+  H270  1  0.83696475  0.90235801  0.35625051  1
  H+  H271  1  0.68414472  0.85556636  0.35775794  1
  H+  H272  1  0.47394213  0.58744933  0.98546320  1
  H+  H273  1  0.15663267  0.23984151  0.48134964  1
  H+  H274  1  0.89147076  0.27133503  0.66812815  1
  H+  H275  1  0.61951001  0.89966222  0.51948176  1
  H+  H276  1  0.76403235  0.13801666  0.82345368  1
  H+  H277  1  0.76645459  0.37028852  0.83477453  1
  H+  H278  1  0.12791497  1.02932875  0.65335923  1
  H+  H279  1  0.66848616  1.02412995  0.13176770  1
  H+  H280  1  0.64406229  0.26839373  0.66784046  1
  H+  H281  1  0.78089688  0.38493869  0.16214211  1
  H+  H282  1  0.36030177  0.22808197  0.82608376  1
  H+  H283  1  0.50455768  0.39974537  0.17233289  1
  H+  H284  1  0.76525982  0.32204466  0.36350372  1
  H+  H285  1  0.72201752  0.67241285  0.76673141  1
  H+  H286  1  0.11809262  0.88969547  0.66546299  1
  H+  H287  1  0.68152840  0.11819284  0.54030285  1
  H+  H288  1  0.92375823  0.09654813  0.25688204  1
  H+  H289  1  0.16948177  0.83239859  0.60157408  1
  H+  H290  1  0.26202564  0.36827729  0.51528180  1
  H+  H291  1  0.33540779  0.65039568  0.77283846  1
  H+  H292  1  0.15411399  0.33757380  0.60934974  1
  H+  H293  1  0.97124148  0.60969760  0.49170838  1
  H+  H294  1  0.38320461  0.80664132  0.19883213  1
  H+  H295  1  0.43237554  0.07278209  0.23636596  1
  H+  H296  1  0.67644444  0.10178861  0.28820821  1
  H+  H297  1  0.71843984  0.60811439  0.50101255  1
  H+  H298  1  0.17456926  0.05838398  0.93945011  1
  H+  H299  1  0.10685112  0.51594883  0.18783408  1
  H+  H300  1  0.09069467  0.91364241  0.75676701  1
  H+  H301  1  0.92141441  0.83144647  0.23150376  1
  H+  H302  1  0.31233918  0.15654692  0.19244305  1
  H+  H303  1  0.85658606  0.62838634  1.02085234  1
  H+  H304  1  0.92835177  0.07717041  0.91373428  1
  H+  H305  1  0.09687038  0.42437003  0.43416265  1
  H+  H306  1  0.52479077  0.38390161  0.82749500  1
  H+  H307  1  0.41974347  0.84295296  0.29902048  1
  H+  H308  1  0.02733530  0.88662858  0.66282413  1
  H+  H309  1  0.41435974  0.82872397  0.60720893  1
  H+  H310  1  0.33580152  0.40805227  0.06134988  1
  H+  H311  1  0.57108062  0.68392475  0.08021054  1
  H+  H312  1  0.42862983  0.09309122  0.56492227  1
  H+  H313  1  0.71202925  0.83794660  0.29410276  1
  H+  H314  1  0.83708432  0.40976648  0.74660054  1
  H+  H315  1  0.33504732  0.93834431  0.76420382  1
  H+  H316  1  0.41894502  0.55623106  0.88512560  1
  H+  H317  1  0.58046541  0.23993216  0.29349618  1
  H+  H318  1  0.16392539  0.59142031  0.27628296  1
  H+  H319  1  0.89538487  0.06536803  0.59257614  1
  H+  H320  1  0.59102693  0.62540002  0.30718786  1
  H+  H321  1  0.92276410  0.33529044  0.90733190  1
  H+  H322  1  0.35108865  0.15283469  0.05735432  1
  H+  H323  1  0.36468303  0.60762825  0.82490611  1
  H+  H324  1  0.33220792  0.42708319  0.41220398  1
  H+  H325  1  0.13006153  0.96618806  0.39328460  1
  H+  H326  1  0.56092655  0.88825463  0.75431602  1
  H+  H327  1  0.64086252  0.31389008  0.20868343  1
  H+  H328  1  0.15978130  0.32296098  0.93453240  1
  H+  H329  1  0.17541689  0.59104387  0.89625185  1
  H+  H330  1  0.09143542  0.16452256  0.37941501  1
  H+  H331  1  0.89281303  0.76781708  0.90965529  1
  H+  H332  1  0.09469586  0.62864716  0.01459191  1
  H+  H333  1  0.04263601  0.64249990  0.69147916  1
  H+  H334  1  0.21926078  0.30049634  0.20098853  1
  H+  H335  1  0.39267255  0.84721423  0.90077048  1
  H+  H336  1  0.66353653  0.83312569  0.89974966  1
  H+  H337  1  0.83035416  0.17519018  0.09790260  1
  H+  H338  1  0.39874805  0.62350061  0.51200885  1
  H+  H339  1  0.02343541  0.36340802  0.03911706  1
  H+  H340  1  0.90874749  0.52725982  0.68505768  1
  H+  H341  1  0.14548250  0.70145118  0.76080348  1
  H+  H342  1  0.33871093  0.92451664  0.44584295  1
  H+  H343  1  0.82357922  0.40805964  0.42180449  1
  H+  H344  1  0.09478935  0.91920363  0.10369784  1
  H+  H345  1  0.83564053  0.92459835  0.06988222  1
  H+  H346  1  0.44996166  0.60950599  0.56592467  1
  H+  H347  1  0.58278988  0.91843006  0.03646222  1
  H+  H348  1  0.78452651  0.41342284  0.42198694  1
  H+  H349  1  0.08333763  0.42657987  0.77255709  1
  H+  H350  1  0.36147348  0.66561734  0.05650994  1
  H+  H351  1  0.91620835  0.85583876  0.32887494  1
  H+  H352  1  0.84573921  0.41784099  0.07260795  1
  H+  H353  1  0.89203398  0.36127803  0.67196712  1
  H+  H354  1  0.87965463  0.61290232  0.17733292  1
  H+  H355  1  0.09184145  0.67551147  0.43859206  1
  H+  H356  1  0.96133559  0.10669430  0.64900478  1
  H+  H357  1  0.16707958  0.33985882  0.27195346  1
  H+  H358  1  0.31112988  0.38617659  0.75965189  1
  H+  H359  1  0.86544874  0.56454527  0.92001355  1
  H+  H360  1  0.47953915  0.36266775  0.50791781  1
  H+  H361  1  0.83225156  0.67579693  0.72408985  1
  H+  H362  1  0.59711355  0.42085773  0.77550101  1
  H+  H363  1  0.87073737  0.24008205  0.01236598  1
  H+  H364  1  0.07489073  0.16696578  0.09208917  1
  H+  H365  1  0.60277285  0.97737765  0.83827868  1
  H+  H366  1  0.40157110  0.32584153  0.55773840  1
  H+  H367  1  0.36918471  0.49251617  0.15020495  1
  H+  H368  1  0.35233640  0.16313107  0.39309015  1
  H+  H369  1  0.67165861  0.32085938  0.93820593  1
  H+  H370  1  0.58977453  0.90109351  0.45109924  1
  H+  H371  1  0.33141202  0.66387043  0.44624786  1
  H+  H372  1  0.26860368  0.63980845  0.35063453  1
  H+  H373  1  0.91115989  0.32500562  0.57840953  1
  H+  H374  1  0.72606102  0.21276284  0.23874728  1
  H+  H375  1  0.59019412  0.16379191  0.73329920  1
  H+  H376  1  0.16346665  0.09192472  0.59647388  1
  H+  H377  1  0.57041325  0.43258996  0.08087224  1
  H+  H378  1  0.06311155  0.17075130  0.75090249  1
  H+  H379  1  0.41882785  0.33583378  0.89670144  1
  H+  H380  1  0.66733382  0.85256616  0.59712957  1
  H+  H381  1  0.40229406  0.12139701  0.32925877  1
  H+  H382  1  0.88555811  0.80393501  0.91883053  1
  H+  H383  1  0.94244757  0.64529208  0.26671945  1
  O2-  O384  1  0.06742687  0.16948831  0.13718740  1
  O2-  O385  1  0.11815404  0.18318434  0.46053785  1
  O2-  O386  1  0.06939878  0.17606499  0.79746399  1
  O2-  O387  1  0.09333525  0.40259560  0.13379073  1
  O2-  O388  1  0.10434634  0.43012976  0.47904032  1
  O2-  O389  1  0.08541619  0.42831584  0.81827253  1
  O2-  O390  1  0.08222319  0.67152137  0.15740488  1
  O2-  O391  1  0.08509225  0.67100983  0.48378931  1
  O2-  O392  1  0.17705457  0.72145020  0.80190396  1
  O2-  O393  1  0.08721265  0.91507490  0.15312208  1
  O2-  O394  1  0.09120961  0.92058838  0.49730273  1
  O2-  O395  1  0.08245534  0.90757999  0.80217001  1
  O2-  O396  1  0.29389901  0.18893242  0.21753577  1
  O2-  O397  1  0.34755839  0.17097775  0.46786203  1
  O2-  O398  1  0.33378127  0.16947302  0.80806589  1
  O2-  O399  1  0.33850844  0.42882601  0.13625875  1
  O2-  O400  1  0.35057043  0.43369050  0.48629739  1
  O2-  O401  1  0.31815556  0.39053908  0.80570262  1
  O2-  O402  1  0.29950444  0.63549865  0.12922685  1
  O2-  O403  1  0.33491378  0.66535410  0.49159232  1
  O2-  O404  1  0.33245853  0.63920540  0.81702748  1
  O2-  O405  1  0.30260591  0.90563627  0.14143575  1
  O2-  O406  1  0.33701302  0.91949940  0.49112161  1
  O2-  O407  1  0.32873275  0.94186488  0.80852751  1
  O2-  O408  1  0.59207635  0.14736347  0.14002527  1
  O2-  O409  1  0.55001949  0.19929183  0.44524776  1
  O2-  O410  1  0.59029002  0.16547629  0.80878297  1
  O2-  O411  1  0.56639407  0.43632128  0.15564882  1
  O2-  O412  1  0.58346303  0.41254624  0.48942146  1
  O2-  O413  1  0.58800912  0.41457776  0.82012746  1
  O2-  O414  1  0.58439895  0.69207775  0.15805056  1
  O2-  O415  1  0.58201270  0.65567565  0.44997621  1
  O2-  O416  1  0.63369856  0.62307956  0.73295204  1
  O2-  O417  1  0.54143798  0.85950859  0.11626507  1
  O2-  O418  1  0.58235854  0.91542803  0.49251125  1
  O2-  O419  1  0.56520681  0.91509614  0.82727519  1
  O2-  O420  1  0.83735853  0.17568104  0.14507023  1
  O2-  O421  1  0.83922246  0.16662028  0.47208700  1
  O2-  O422  1  0.82144819  0.16993464  0.80266594  1
  O2-  O423  1  0.84295312  0.42248094  0.15422649  1
  O2-  O424  1  0.83885363  0.42494048  0.54022875  1
  O2-  O425  1  0.82752102  0.40797961  0.82155170  1
  O2-  O426  1  0.82308714  0.66560216  0.15676442  1
  O2-  O427  1  0.81540308  0.65310162  0.46542819  1
  O2-  O428  1  0.78027630  0.69078611  0.78749109  1
  O2-  O429  1  0.83939035  0.92261383  0.15121520  1
  O2-  O430  1  0.80756224  0.88391824  0.49045314  1
  O2-  O431  1  0.82578797  0.93707094  0.80861734  1
  O2-  O432  1  0.12179434  0.08264212  0.19664845  1
  O2-  O433  1  0.18902651  0.09299390  0.51358337  1
  O2-  O434  1  0.16841989  0.05421782  0.86149105  1
  O2-  O435  1  0.17442665  0.31383572  0.19020326  1
  O2-  O436  1  0.20689802  0.31817335  0.53241807  1
  O2-  O437  1  0.15752577  0.33802315  0.85530466  1
  O2-  O438  1  0.14801266  0.57628879  0.19610093  1
  O2-  O439  1  0.16656597  0.58758264  0.52742050  1
  O2-  O440  1  0.18455247  0.59534880  0.85205808  1
  O2-  O441  1  0.15928854  0.84029038  0.19717871  1
  O2-  O442  1  0.16988693  0.83413991  0.52398555  1
  O2-  O443  1  0.11552266  0.79126824  0.86293722  1
  O2-  O444  1  0.43003031  0.06565864  0.19066562  1
  O2-  O445  1  0.42364540  0.08811034  0.51885528  1
  O2-  O446  1  0.43426447  0.09743200  0.84731112  1
  O2-  O447  1  0.41348320  0.35441861  0.19740885  1
  O2-  O448  1  0.41531929  0.33324268  0.51311685  1
  O2-  O449  1  0.41760647  0.33353727  0.85194948  1
  O2-  O450  1  0.40693821  0.58284468  0.17415112  1
  O2-  O451  1  0.43469916  0.59687532  0.52221665  1
  O2-  O452  1  0.41846635  0.55855684  0.84044834  1
  O2-  O453  1  0.37914128  0.80494198  0.15471539  1
  O2-  O454  1  0.41607262  0.83048711  0.52726942  1
  O2-  O455  1  0.39509085  0.85158751  0.85619995  1
  O2-  O456  1  0.70218355  0.15456403  0.22272831  1
  O2-  O457  1  0.67737605  0.09788925  0.49713905  1
  O2-  O458  1  0.66644071  0.08262761  0.85684796  1
  O2-  O459  1  0.66198620  0.31820666  0.16505745  1
  O2-  O460  1  0.67014368  0.33435342  0.53334094  1
  O2-  O461  1  0.66398862  0.31848461  0.86009474  1
  O2-  O462  1  0.65706229  0.60638524  0.20748220  1
  O2-  O463  1  0.65982363  0.58208747  0.51974713  1
  O2-  O464  1  0.64475637  0.57011646  0.86730439  1
  O2-  O465  1  0.69216903  0.84720766  0.21053273  1
  O2-  O466  1  0.68092488  0.88461817  0.55819044  1
  O2-  O467  1  0.65418875  0.83534766  0.85573617  1
  O2-  O468  1  0.91048223  0.08843126  0.18523989  1
  O2-  O469  1  0.88396306  0.04456380  0.51207215  1
  O2-  O470  1  0.92242787  0.08403694  0.86138923  1
  O2-  O471  1  0.92835503  0.33603814  0.18325549  1
  O2-  O472  1  0.90216904  0.33119152  0.53391336  1
  O2-  O473  1  0.91887656  0.33519388  0.86165020  1
  O2-  O474  1  0.91716460  0.59108658  0.19284811  1
  O2-  O475  1  0.90810705  0.56993033  0.49099410  1
  O2-  O476  1  0.83063219  0.55099636  0.88292388  1
  O2-  O477  1  0.92382363  0.83487518  0.18429482  1
  O2-  O478  1  0.89411758  0.81453109  0.51167175  1
  O2-  O479  1  0.90903041  0.84909666  0.79164259  1
  O2-  O480  1  0.27703200  0.12559708  0.32070612  1
  O2-  O481  1  0.14453364  0.08780325  0.63902781  1
  O2-  O482  1  0.17773716  0.06830028  0.98443518  1
  O2-  O483  1  0.16547657  0.33959744  0.31684272  1
  O2-  O484  1  0.15092417  0.33092286  0.65367958  1
  O2-  O485  1  0.16265627  0.31333595  0.97889132  1
  O2-  O486  1  0.16660259  0.59256034  0.32149718  1
  O2-  O487  1  0.17208950  0.58288063  0.65062338  1
  O2-  O488  1  0.09162511  0.55030067  0.96492641  1
  O2-  O489  1  0.18700067  0.85305219  0.31691441  1
  O2-  O490  1  0.17079303  0.83772182  0.64686939  1
  O2-  O491  1  0.17276548  0.82925503  0.97588381  1
  O2-  O492  1  0.43561276  0.08565298  0.31270436  1
  O2-  O493  1  0.43090930  0.09038140  0.63882810  1
  O2-  O494  1  0.42462693  0.05881297  0.98858330  1
  O2-  O495  1  0.43490922  0.36808003  0.32367195  1
  O2-  O496  1  0.36738216  0.31094817  0.63099487  1
  O2-  O497  1  0.43093507  0.33134125  0.98449591  1
  O2-  O498  1  0.40369778  0.57801719  0.32005875  1
  O2-  O499  1  0.47233465  0.64846964  0.64237171  1
  O2-  O500  1  0.41516788  0.55826609  0.96916695  1
  O2-  O501  1  0.42326926  0.83821030  0.34288800  1
  O2-  O502  1  0.41076281  0.82938077  0.65240774  1
  O2-  O503  1  0.41671973  0.84614317  0.98550281  1
  O2-  O504  1  0.67548912  0.07947107  0.33057027  1
  O2-  O505  1  0.70727204  0.16696239  0.60832454  1
  O2-  O506  1  0.69090174  0.09541391  0.95850497  1
  O2-  O507  1  0.62255209  0.29976932  0.28057557  1
  O2-  O508  1  0.67837388  0.32927339  0.65106950  1
  O2-  O509  1  0.67167650  0.31859609  0.98367976  1
  O2-  O510  1  0.64565616  0.59185135  0.27474437  1
  O2-  O511  1  0.68976484  0.57663054  0.63998269  1
  O2-  O512  1  0.65149291  0.58095358  0.98557623  1
  O2-  O513  1  0.72697678  0.84617098  0.33760415  1
  O2-  O514  1  0.65974836  0.81549043  0.67250084  1
  O2-  O515  1  0.67344833  0.83525923  0.98035365  1
  O2-  O516  1  0.93004626  0.09683623  0.30317575  1
  O2-  O517  1  0.89932039  0.07084864  0.63762798  1
  O2-  O518  1  0.93250908  0.07359470  0.97022240  1
  O2-  O519  1  0.92417338  0.32823255  0.30615806  1
  O2-  O520  1  0.92344589  0.33322063  0.65412135  1
  O2-  O521  1  0.92862975  0.34218878  0.98453472  1
  O2-  O522  1  0.95413549  0.67296847  0.30723842  1
  O2-  O523  1  0.94546445  0.58861345  0.67383007  1
  O2-  O524  1  0.91064142  0.58652868  1.00135317  1
  O2-  O525  1  0.91422832  0.81093422  0.30039937  1
  O2-  O526  1  0.91886282  0.83225127  0.63549078  1
  O2-  O527  1  0.92480005  0.82967246  1.04050294  1
  O2-  O528  1  0.08860432  0.15688932  0.01643022  1
  O2-  O529  1  0.08102214  0.17044012  0.33599440  1
  O2-  O530  1  0.06184951  0.16428651  0.67943687  1
  O2-  O531  1  0.02196189  0.38459592  -0.00155029  1
  O2-  O532  1  0.08653630  0.42357814  0.35464819  1
  O2-  O533  1  0.08263268  0.42325884  0.69624406  1
  O2-  O534  1  0.08105256  0.67143743  0.03219843  1
  O2-  O535  1  0.09956770  0.68976005  0.36036551  1
  O2-  O536  1  0.10796184  0.67846187  0.69683239  1
  O2-  O537  1  0.09764785  0.91939367  0.04117959  1
  O2-  O538  1  0.14694926  0.96913377  0.35089325  1
  O2-  O539  1  0.08662870  0.91968969  0.67962210  1
  O2-  O540  1  0.35110286  0.15553272  0.01310998  1
  O2-  O541  1  0.36268433  0.16239746  0.34787778  1
  O2-  O542  1  0.33735606  0.15272942  0.68403247  1
  O2-  O543  1  0.33536179  0.39759907  0.01645306  1
  O2-  O544  1  0.32927283  0.42482898  0.36662612  1
  O2-  O545  1  0.30192782  0.38552137  0.68598589  1
  O2-  O546  1  0.40608054  0.69166296  0.02483644  1
  O2-  O547  1  0.32803227  0.66400036  0.36762843  1
  O2-  O548  1  0.33543209  0.66496638  0.69088865  1
  O2-  O549  1  0.40194183  0.99104362  0.02779487  1
  O2-  O550  1  0.34692744  0.93209624  0.36831188  1
  O2-  O551  1  0.34145188  0.92856270  0.68048818  1
  O2-  O552  1  0.59167244  0.15558526  0.00885004  1
  O2-  O553  1  0.52747752  0.13858154  0.32939017  1
  O2-  O554  1  0.59119287  0.17036564  0.68766815  1
  O2-  O555  1  0.57226402  0.42971676  0.03477508  1
  O2-  O556  1  0.57548173  0.38648265  0.37351885  1
  O2-  O557  1  0.61380878  0.42742229  0.69414671  1
  O2-  O558  1  0.55861771  0.68421033  0.03582943  1
  O2-  O559  1  0.55892529  0.64882987  0.33316609  1
  O2-  O560  1  0.58453663  0.66679695  0.72879403  1
  O2-  O561  1  0.59243558  0.92552450  -0.00744402  1
  O2-  O562  1  0.59429679  0.90950237  0.34731348  1
  O2-  O563  1  0.56105409  0.86744996  0.71197645  1
  O2-  O564  1  0.83552971  0.18096617  0.02984052  1
  O2-  O565  1  0.85112379  0.16631252  0.35445731  1
  O2-  O566  1  0.83158449  0.16999380  0.68407266  1
  O2-  O567  1  0.84658298  0.42067428  0.02756562  1
  O2-  O568  1  0.76462733  0.30308338  0.32182991  1
  O2-  O569  1  0.84468150  0.41407138  0.70088054  1
  O2-  O570  1  0.82497959  0.65967861  0.03494574  1
  O2-  O571  1  0.78883703  0.65419404  0.33758035  1
  O2-  O572  1  0.85070724  0.67286530  0.68188871  1
  O2-  O573  1  0.83821022  0.91835463  0.02500659  1
  O2-  O574  1  0.89570469  0.92206939  0.37189111  1
  O2-  O575  1  0.83508042  0.91380016  0.68475159  1
