# generated using pymatgen
data_H2O
_symmetry_space_group_name_H-M   'P 1'
_cell_length_a   17.99845791
_cell_length_b   17.99446005
_cell_length_c   22.00761414
_cell_angle_alpha   89.99284464
_cell_angle_beta   90.00767346
_cell_angle_gamma   120.00584469
_symmetry_Int_Tables_number   1
_chemical_formula_structural   H2O
_chemical_formula_sum   'H384 O192'
_cell_volume   6172.37246655
_cell_formula_units_Z   192
loop_
 _symmetry_equiv_pos_site_id
 _symmetry_equiv_pos_as_xyz
  1  'x, y, z'
loop_
 _atom_type_symbol
 _atom_type_oxidation_number
  H+  1.0
  O2-  -2.0
loop_
 _atom_site_type_symbol
 _atom_site_label
 _atom_site_symmetry_multiplicity
 _atom_site_fract_x
 _atom_site_fract_y
 _atom_site_fract_z
 _atom_site_occupancy
  H+  H0  1  0.72619295  0.67354839  0.55241286  1
  H+  H1  1  0.78735070  0.05676449  0.09323691  1
  H+  H2  1  0.90958662  0.25082303  0.16134495  1
  H+  H3  1  0.14747771  0.61564919  -0.01790053  1
  H+  H4  1  0.07774214  0.16222746  0.09520723  1
  H+  H5  1  0.62627362  0.11688561  0.98663330  1
  H+  H6  1  0.38922051  0.40516812  0.66478613  1
  H+  H7  1  0.51404378  0.55204568  0.34151726  1
  H+  H8  1  0.60711941  0.61476453  0.83042945  1
  H+  H9  1  0.14356144  0.24128024  0.82067194  1
  H+  H10  1  0.79614814  0.89008046  0.34497612  1
  H+  H11  1  0.87006520  0.53088673  0.17304889  1
  H+  H12  1  0.96458666  0.86535453  0.15314803  1
  H+  H13  1  0.37763740  0.35878824  0.97197795  1
  H+  H14  1  0.64356375  0.34924654  0.50759361  1
  H+  H15  1  0.77260679  0.87882641  0.67772787  1
  H+  H16  1  0.11890723  0.38580529  0.35296135  1
  H+  H17  1  0.61802365  0.72780828  0.14586618  1
  H+  H18  1  0.14665444  0.12509325  0.82398066  1
  H+  H19  1  0.35568795  0.14526619  0.00686921  1
  H+  H20  1  0.21347330  0.58194467  0.19981061  1
  H+  H21  1  0.85942327  0.63043258  0.00041527  1
  H+  H22  1  0.26003187  0.90782034  0.82228452  1
  H+  H23  1  0.47272885  0.37752604  0.82175996  1
  H+  H24  1  0.17502031  0.84512988  0.57110215  1
  H+  H25  1  0.38416790  0.75751042  0.81733549  1
  H+  H26  1  0.35453751  0.72935712  0.50597229  1
  H+  H27  1  0.34898688  0.46116264  0.36867446  1
  H+  H28  1  0.61185621  0.38990479  0.17507777  1
  H+  H29  1  0.60545660  0.39133870  0.82183044  1
  H+  H30  1  0.31162359  0.41662621  0.68141215  1
  H+  H31  1  0.60996208  0.22681213  0.16263234  1
  H+  H32  1  0.22767405  0.12213962  0.17912300  1
  H+  H33  1  0.12230169  0.73717862  0.63815722  1
  H+  H34  1  0.61464707  0.97666808  0.51125905  1
  H+  H35  1  0.18168719  0.11349475  0.36448257  1
  H+  H36  1  0.88883900  0.11042177  0.16203473  1
  H+  H37  1  0.22635692  0.12124864  0.98428547  1
  H+  H38  1  0.47956604  0.11805225  0.17177363  1
  H+  H39  1  0.89102201  0.36252489  0.19850251  1
  H+  H40  1  1.00001182  0.12859688  0.33591660  1
  H+  H41  1  0.25473407  0.88408404  0.49723530  1
  H+  H42  1  0.76827983  0.15878328  0.98473349  1
  H+  H43  1  0.86092063  0.13406869  0.84787929  1
  H+  H44  1  0.37949982  0.10313048  0.50487998  1
  H+  H45  1  0.93032673  0.40221569  -0.04804691  1
  H+  H46  1  0.37140727  0.88384905  0.68472465  1
  H+  H47  1  0.34311393  0.72426720  0.17802056  1
  H+  H48  1  0.92790329  0.82677772  0.90877674  1
  H+  H49  1  0.85971163  0.24874280  0.99067582  1
  H+  H50  1  0.14879119  0.37638572  0.67657245  1
  H+  H51  1  0.62182646  0.47941018  0.00481137  1
  H+  H52  1  1.04697106  0.38871441  0.82628587  1
  H+  H53  1  0.40154481  0.38557550  0.17873381  1
  H+  H54  1  0.84976792  0.74247003  0.82160417  1
  H+  H55  1  0.45881124  0.86948950  0.33248168  1
  H+  H56  1  0.77993285  0.15046693  0.83398252  1
  H+  H57  1  0.74168255  0.13980191  0.32197850  1
  H+  H58  1  0.63689889  0.85947171  0.51222949  1
  H+  H59  1  0.55666642  0.75606518  0.35512871  1
  H+  H60  1  0.13148789  0.79797092  0.15205223  1
  H+  H61  1  -0.00110532  0.12278789  -0.01373081  1
  H+  H62  1  0.60651733  0.23664815  0.34855306  1
  H+  H63  1  0.21773408  0.61713028  0.35642734  1
  H+  H64  1  0.36320273  0.13298112  0.67066608  1
  H+  H65  1  0.36267255  -0.02101157  0.15895946  1
  H+  H66  1  0.11491573  0.29996928  0.54488706  1
  H+  H67  1  0.40152898  0.32306707  0.91519255  1
  H+  H68  1  0.08699014  0.12554589  0.33361229  1
  H+  H69  1  0.10454546  0.89363890  0.78227671  1
  H+  H70  1  0.32957244  0.39439027  0.83359459  1
  H+  H71  1  -0.07052585  0.38121728  0.51187747  1
  H+  H72  1  0.35466780  0.65024663  0.35447430  1
  H+  H73  1  0.90388799  0.57218288  0.89367209  1
  H+  H74  1  0.56594791  0.91555674  0.05236173  1
  H+  H75  1  0.90478394  0.87524443  0.31567722  1
  H+  H76  1  0.72803372  0.87019974  0.15454900  1
  H+  H77  1  0.81849484  0.14898476  0.06980699  1
  H+  H78  1  0.72692031  0.61252638  0.16842996  1
  H+  H79  1  0.38360571  0.62522420  0.13998796  1
  H+  H80  1  0.13548312  0.38081412  0.16321168  1
  H+  H81  1  0.62082880  0.83528934  0.83669634  1
  H+  H82  1  0.02741919  0.38927242  0.67346109  1
  H+  H83  1  0.37427799  0.61510198  0.51627662  1
  H+  H84  1  0.77332802  0.38950394  0.67819599  1
  H+  H85  1  0.39155972  0.12161992  0.17599246  1
  H+  H86  1  0.64255553  0.36785016  -0.00053871  1
  H+  H87  1  0.45941975  0.60681263  0.51763683  1
  H+  H88  1  0.97917547  0.11571318  0.16894772  1
  H+  H89  1  0.27824606  0.40207999  0.99202117  1
  H+  H90  1  0.45922349  0.86172734  0.97257663  1
  H+  H91  1  0.40739082  0.78292268  0.66247685  1
  H+  H92  1  0.88368733  0.65371491  0.33603459  1
  H+  H93  1  0.37513581  0.12254577  0.83963970  1
  H+  H94  1  0.80800188  0.43127692  0.41701766  1
  H+  H95  1  0.74340363  0.58487938  0.50349390  1
  H+  H96  1  0.63392761  0.37133919  0.67050895  1
  H+  H97  1  0.61005986  0.72766784  -0.00459167  1
  H+  H98  1  0.27079511  0.89587698  0.16126368  1
  H+  H99  1  0.66647657  0.58878304  0.59035425  1
  H+  H100  1  0.59814178  0.89937470  0.34916122  1
  H+  H101  1  0.11348791  0.72770307  -0.02974275  1
  H+  H102  1  0.57654551  0.91876164  0.45221371  1
  H+  H103  1  0.84022092  0.16617338  0.74314366  1
  H+  H104  1  0.85195547  0.12115860  0.34232627  1
  H+  H105  1  0.65257135  0.52273202  0.32651896  1
  H+  H106  1  0.00950143  0.39130174  -0.00310484  1
  H+  H107  1  0.88402972  0.51942826  -0.00273838  1
  H+  H108  1  0.12906119  0.88039398  0.16872966  1
  H+  H109  1  0.97304817  0.60713999  0.98366325  1
  H+  H110  1  0.83630424  0.36690112  0.33058558  1
  H+  H111  1  0.27010509  0.12736826  0.49039998  1
  H+  H112  1  0.13922819  0.52224026  -0.01440560  1
  H+  H113  1  0.13629714  -0.00963480  1.00042958  1
  H+  H114  1  0.13355051  0.61591577  0.83442999  1
  H+  H115  1  0.39176876  0.27219795  0.65270763  1
  H+  H116  1  0.47825617  0.11413744  0.65794103  1
  H+  H117  1  0.10154799  0.72571169  0.50389736  1
  H+  H118  1  0.88643454  0.77513638  0.66207793  1
  H+  H119  1  0.14721361  0.54183935  0.67532578  1
  H+  H120  1  0.50705373  0.85816398  0.82654163  1
  H+  H121  1  0.13230232  0.22087796  0.48084672  1
  H+  H122  1  0.89660548  0.77268815  0.99962021  1
  H+  H123  1  0.46940887  0.86306815  0.51589848  1
  H+  H124  1  1.03372296  0.65061116  0.64368157  1
  H+  H125  1  0.34705395  0.88743114  0.34713931  1
  H+  H126  1  0.12758178  0.48295382  0.82134400  1
  H+  H127  1  0.72704007  0.61134727  0.98276196  1
  H+  H128  1  0.52034894  0.63664926  0.68402710  1
  H+  H129  1  0.11152373  0.47288876  0.35683072  1
  H+  H130  1  0.27730667  0.62496955  -0.00984938  1
  H+  H131  1  0.70253831  0.37909193  0.34351637  1
  H+  H132  1  0.13510998  0.86593606  0.51086263  1
  H+  H133  1  0.88967822  0.36330100  0.66084630  1
  H+  H134  1  0.86119490  0.98394800  0.49524578  1
  H+  H135  1  0.38192818  0.50120548  0.12637424  1
  H+  H136  1  0.25080137  0.89362658  -0.00552908  1
  H+  H137  1  0.47458478  0.63293176  0.12423405  1
  H+  H138  1  0.83801160  0.40390404  0.16385568  1
  H+  H139  1  0.78036759  0.37717898  0.83187475  1
  H+  H140  1  0.37639786  0.86078967  0.17377751  1
  H+  H141  1  0.33775650  0.47468105  0.51561716  1
  H+  H142  1  0.21148345  0.38057086  0.52100105  1
  H+  H143  1  0.49268819  0.61788771  -0.01482293  1
  H+  H144  1  0.36964611  0.03498814  0.99211803  1
  H+  H145  1  0.98910213  0.83505267  0.85450986  1
  H+  H146  1  0.89260908  0.27727809  0.66450625  1
  H+  H147  1  0.90443392  0.78817158  0.30678845  1
  H+  H148  1  0.97225963  0.12055912  0.51503711  1
  H+  H149  1  0.54352516  0.22892458  0.79449126  1
  H+  H150  1  0.38888084  0.35953720  0.33993554  1
  H+  H151  1  0.72430259  0.11544047  0.51590592  1
  H+  H152  1  0.88638712  0.52743681  0.67043194  1
  H+  H153  1  0.15374935  0.58148513  0.41029955  1
  H+  H154  1  0.07095307  0.15794414  0.43137478  1
  H+  H155  1  0.22879101  0.10792256  0.66348868  1
  H+  H156  1  0.89553087  0.86728152  0.66880672  1
  H+  H157  1  -0.03146999  0.59812055  0.51107008  1
  H+  H158  1  0.61181516  0.23623324  0.67579860  1
  H+  H159  1  0.13505470  0.01550818  0.50602900  1
  H+  H160  1  0.61260883  0.13863941  0.15639230  1
  H+  H161  1  0.37081617  0.97257505  0.67884617  1
  H+  H162  1  0.39622716  0.52135400  0.97775972  1
  H+  H163  1  0.76870108  0.38245184  0.01213725  1
  H+  H164  1  0.85743560  0.64299445  0.15908785  1
  H+  H165  1  0.61177731  0.36529267  0.33381602  1
  H+  H166  1  0.01958393  0.88506233  0.49693358  1
  H+  H167  1  0.35247847  -0.02216043  0.49234324  1
  H+  H168  1  0.63419000  0.76981975  0.50453479  1
  H+  H169  1  0.12640382  0.76917521  0.32273265  1
  H+  H170  1  0.09736911  0.17947241  0.76466986  1
  H+  H171  1  0.24213445  0.87310185  0.66286245  1
  H+  H172  1  0.74283299  0.61599281  0.32551380  1
  H+  H173  1  0.61889234  0.15499399  0.34195258  1
  H+  H174  1  0.49087773  0.14015131  0.82947601  1
  H+  H175  1  0.87909244  0.39947218  0.34424390  1
  H+  H176  1  0.88579092  0.12454298  0.51336318  1
  H+  H177  1  1.01503990  0.63591102  0.34099902  1
  H+  H178  1  0.59997522  0.61722692  0.68218723  1
  H+  H179  1  0.39140862  0.26869779  0.50099277  1
  H+  H180  1  0.90181742  0.27073539  0.84009653  1
  H+  H181  1  0.59789297  0.87910226  0.14877135  1
  H+  H182  1  0.85545409  0.63915354  0.67545285  1
  H+  H183  1  0.10403769  0.63702590  0.35326981  1
  H+  H184  1  0.63826236  0.61172383  0.98290677  1
  H+  H185  1  0.48519392  0.37401866  0.33509377  1
  H+  H186  1  0.85701570  -0.00881169  0.67378720  1
  H+  H187  1  0.60206995  0.76473877  0.35477190  1
  H+  H188  1  0.35158470  0.23040707  0.99991030  1
  H+  H189  1  0.61607167  0.85456821  0.98403383  1
  H+  H190  1  0.88575394  0.51417312  0.83575370  1
  H+  H191  1  0.87285213  0.21618365  0.34284926  1
  H+  H192  1  0.03257034  0.89648165  0.32877426  1
  H+  H193  1  0.51301827  0.13759691  0.00299684  1
  H+  H194  1  0.13217753  0.10726787  0.97423368  1
  H+  H195  1  0.63912926  0.28083751  0.84990866  1
  H+  H196  1  0.14086530  0.26385280  0.17313502  1
  H+  H197  1  0.12324196  0.26361358  0.33702600  1
  H+  H198  1  0.12381981  0.14660694  0.67460597  1
  H+  H199  1  0.36764508  0.23726014  0.16837559  1
  H+  H200  1  0.37873671  0.23465820  0.33520534  1
  H+  H201  1  0.60224991  0.62942347  0.51161546  1
  H+  H202  1  0.41307126  0.07439055  0.60196470  1
  H+  H203  1  0.14050027  0.02175238  0.33369516  1
  H+  H204  1  0.71610881  0.09673803  0.15205830  1
  H+  H205  1  0.45349722  0.60996761  0.37026196  1
  H+  H206  1  0.73263323  0.96486401  0.35769835  1
  H+  H207  1  0.89439065  0.87250706  0.51226719  1
  H+  H208  1  1.01547540  0.63089101  0.83202162  1
  H+  H209  1  0.76384702  0.88882006  0.82935029  1
  H+  H210  1  0.46196063  0.85452474  0.17361761  1
  H+  H211  1  0.13492995  0.10376726  0.50747029  1
  H+  H212  1  0.84514726  0.98340678  0.83870820  1
  H+  H213  1  0.87156432  0.45555686  0.50245320  1
  H+  H214  1  0.63154718  0.05894540  0.81581268  1
  H+  H215  1  0.62578953  0.50322499  0.67079881  1
  H+  H216  1  0.40886497  0.58098212  0.30702874  1
  H+  H217  1  0.75854372  0.65609642  0.81635492  1
  H+  H218  1  0.83782423  0.98885679  -0.01671872  1
  H+  H219  1  0.64162591  0.12646924  0.66942233  1
  H+  H220  1  0.55964670  0.47345979  0.38094701  1
  H+  H221  1  0.90848925  0.33605065  0.30228291  1
  H+  H222  1  0.26672651  0.14055251  0.81567304  1
  H+  H223  1  0.12220777  0.69379999  0.20403828  1
  H+  H224  1  0.39576271  0.61415588  0.97361134  1
  H+  H225  1  0.58784514  0.97926206  0.35520285  1
  H+  H226  1  0.11329067  0.13725560  0.15454446  1
  H+  H227  1  0.86892363  0.57177494  0.50815575  1
  H+  H228  1  0.12677192  0.85021304  0.96566491  1
  H+  H229  1  0.92480355  0.84280746  0.57102844  1
  H+  H230  1  0.09942906  0.72349974  0.82375617  1
  H+  H231  1  0.11951157  0.46433367  0.17886311  1
  H+  H232  1  0.84788388  0.23728991  0.48908227  1
  H+  H233  1  0.23161702  0.33764634  0.19788318  1
  H+  H234  1  0.35466433  0.58368108  0.81913745  1
  H+  H235  1  0.62429118  0.49516269  0.17222950  1
  H+  H236  1  0.11798211  0.97365627  0.68708500  1
  H+  H237  1  0.67533579  0.58451267  0.23293935  1
  H+  H238  1  0.62803331  0.14185550  0.82991520  1
  H+  H239  1  0.86233244  0.98125564  0.14997688  1
  H+  H240  1  0.70972011  0.86568254  0.98535662  1
  H+  H241  1  0.35308678  0.73915960  0.34564762  1
  H+  H242  1  0.17654947  0.58841258  0.88703553  1
  H+  H243  1  0.60303417  0.97835576  -0.00493508  1
  H+  H244  1  0.59785106  0.93495168  0.85504842  1
  H+  H245  1  0.87334173  0.12966231  -0.04313889  1
  H+  H246  1  0.10757611  0.49234669  0.49045593  1
  H+  H247  1  0.07139183  0.41273975  0.43965125  1
  H+  H248  1  0.64839858  0.75922106  0.66370242  1
  H+  H249  1  0.88585798  0.01530390  0.32190248  1
  H+  H250  1  1.03612512  0.35430985  0.16435389  1
  H+  H251  1  0.46748508  0.09952144  0.50679117  1
  H+  H252  1  0.99541498  0.34580267  0.32463487  1
  H+  H253  1  0.13276228  0.23962409  0.67704096  1
  H+  H254  1  0.26696840  0.37036871  0.35915969  1
  H+  H255  1  0.60904721  0.63504546  0.15276335  1
  H+  H256  1  0.82106749  0.68008009  0.72764031  1
  H+  H257  1  0.98984753  0.85312865  1.00122110  1
  H+  H258  1  0.63506083  0.27453353  -0.00448185  1
  H+  H259  1  0.61321019  0.60530113  0.34587163  1
  H+  H260  1  0.86754944  0.10359851  0.67020250  1
  H+  H261  1  0.11726614  0.88998900  0.33583231  1
  H+  H262  1  0.77114282  0.49309603  0.41456169  1
  H+  H263  1  0.13617571  0.37805999  0.98449897  1
  H+  H264  1  0.62017773  0.45753799  0.49397927  1
  H+  H265  1  0.10601268  0.98455606  0.15709355  1
  H+  H266  1  1.03216437  0.88362291  0.68620094  1
  H+  H267  1  -0.03463076  0.61007954  0.18258917  1
  H+  H268  1  0.85328503  0.92230257  0.40415368  1
  H+  H269  1  0.42504717  0.33103867  0.59323821  1
  H+  H270  1  0.09119990  0.93135872  0.09534289  1
  H+  H271  1  0.39812298  0.12682502  0.32171684  1
  H+  H272  1  0.25550624  0.88204432  0.34485863  1
  H+  H273  1  0.92328824  0.38841972  0.17380512  1
  H+  H274  1  0.61988101  0.51151703  0.82987329  1
  H+  H275  1  0.18413948  0.38301470  0.82671734  1
  H+  H276  1  0.59542221  -0.03421866  0.15322563  1
  H+  H277  1  0.26442689  0.63128413  0.80339775  1
  H+  H278  1  0.29685565  0.41253226  0.13066889  1
  H+  H279  1  0.12639133  0.61874219  0.49458500  1
  H+  H280  1  0.88864971  0.72063938  0.38596752  1
  H+  H281  1  0.16557731  0.07257379  0.60718609  1
  H+  H282  1  0.77592232  0.14161040  0.68621641  1
  H+  H283  1  0.33804776  0.18126169  0.10726714  1
  H+  H284  1  0.29885239  0.92265847  0.05984101  1
  H+  H285  1  0.63216939  0.10795858  0.51694184  1
  H+  H286  1  0.60555087  0.21435756  0.50448525  1
  H+  H287  1  0.48893550  0.87396039  0.67555283  1
  H+  H288  1  0.31253042  0.91283572  0.42571525  1
  H+  H289  1  0.32694725  0.65220927  0.74589758  1
  H+  H290  1  0.71117575  0.37051920  0.18036567  1
  H+  H291  1  0.08842638  0.41999323  0.73280701  1
  H+  H292  1  0.56682048  0.63287719  0.44692532  1
  H+  H293  1  0.59365937  0.41172576  0.42922010  1
  H+  H294  1  0.19721993  0.36659169  0.62207400  1
  H+  H295  1  0.82467452  0.65767460  0.05837048  1
  H+  H296  1  0.37985572  0.76933849  0.97202704  1
  H+  H297  1  0.35054680  0.65141227  0.04182815  1
  H+  H298  1  0.40321296  0.83962373  0.27080134  1
  H+  H299  1  0.57715997  0.15995436  0.44306036  1
  H+  H300  1  0.32863729  0.67511003  0.44560907  1
  H+  H301  1  0.52340419  0.39955028  0.17375384  1
  H+  H302  1  0.65431430  0.33825520  0.24268535  1
  H+  H303  1  0.66774759  0.83107784  0.21266073  1
  H+  H304  1  0.91241318  0.84155513  0.21421295  1
  H+  H305  1  0.33458725  0.16862210  0.72761977  1
  H+  H306  1  0.77576906  0.89104706  0.49163296  1
  H+  H307  1  0.08480495  0.42101259  0.05258792  1
  H+  H308  1  0.90608729  0.07565471  0.26129344  1
  H+  H309  1  0.53253214  0.38803430  0.67382526  1
  H+  H310  1  0.58253160  0.41812568  0.75337268  1
  H+  H311  1  0.87042411  0.37682342  0.82877150  1
  H+  H312  1  0.43009167  0.09461784  0.25874175  1
  H+  H313  1  0.43126031  0.56787399  0.82854863  1
  H+  H314  1  0.80302937  0.62747514  0.44755586  1
  H+  H315  1  0.57597917  0.65196740  0.76745747  1
  H+  H316  1  0.90153292  0.57659994  0.27118908  1
  H+  H317  1  0.35409224  0.23490321  0.81364547  1
  H+  H318  1  0.62098466  0.98858485  0.68824119  1
  H+  H319  1  0.17238767  0.08129433  0.87699971  1
  H+  H320  1  0.10262079  0.64933879  0.14039832  1
  H+  H321  1  0.07122296  0.67803781  0.43934882  1
  H+  H322  1  0.21967492  0.61872206  0.49648777  1
  H+  H323  1  0.72601920  0.33882091  0.51672201  1
  H+  H324  1  0.18474998  0.94618285  0.03014062  1
  H+  H325  1  0.71299732  0.60336963  0.67002018  1
  H+  H326  1  0.09169296  0.68801163  0.03526797  1
  H+  H327  1  0.49173439  0.12598069  0.32523486  1
  H+  H328  1  0.10379609  0.39520697  0.50857184  1
  H+  H329  1  0.82665091  0.92691216  0.74250346  1
  H+  H330  1  0.40388063  0.81771789  0.87701136  1
  H+  H331  1  0.28301863  0.66824516  0.12536122  1
  H+  H332  1  0.38219001  0.86449502  0.50590231  1
  H+  H333  1  0.59265178  0.92207172  0.74341387  1
  H+  H334  1  0.15770043  0.83167643  0.26330572  1
  H+  H335  1  0.65367003  0.57052821  0.89249178  1
  H+  H336  1  0.71845088  0.19330530  0.27819449  1
  H+  H337  1  0.15725214  0.83207077  0.90038028  1
  H+  H338  1  0.11984151  0.56718308  0.20891007  1
  H+  H339  1  0.42443442  0.35323678  0.24239919  1
  H+  H340  1  0.15281786  0.87503396  0.66507797  1
  H+  H341  1  0.37007257  0.02855239  0.83835974  1
  H+  H342  1  0.14296972  0.29272980  0.98107023  1
  H+  H343  1  0.48309830  0.35064278  0.49981683  1
  H+  H344  1  0.90687573  0.57597514  0.60855556  1
  H+  H345  1  0.85119140  0.72827781  0.15044893  1
  H+  H346  1  0.60687971  0.71310276  0.83072793  1
  H+  H347  1  0.29207906  0.14221491  0.32804527  1
  H+  H348  1  0.66301005  0.33429320  0.61212329  1
  H+  H349  1  0.86201015  0.38856836  0.02043736  1
  H+  H350  1  0.93721834  0.33078784  0.89812625  1
  H+  H351  1  0.16239268  0.32618112  0.28107266  1
  H+  H352  1  0.65196824  0.81058490  0.89689491  1
  H+  H353  1  0.86628506  0.53143898  0.33803880  1
  H+  H354  1  0.67332399  0.08585136  0.21800593  1
  H+  H355  1  0.33284181  0.93015383  0.77291274  1
  H+  H356  1  0.40734401  0.60477750  0.60909394  1
  H+  H357  1  0.33262778  0.15722725  0.43160870  1
  H+  H358  1  0.82202662  0.93662314  0.04662609  1
  H+  H359  1  0.57406868  0.16502236  0.06185210  1
  H+  H360  1  0.16216783  0.08896454  0.23478233  1
  H+  H361  1  0.85584939  0.89021576  0.14170670  1
  H+  H362  1  0.45393377  0.56213115  0.23728279  1
  H+  H363  1  0.67895679  0.81764636  0.60288088  1
  H+  H364  1  0.59467308  0.42745074  0.06708951  1
  H+  H365  1  0.20196224  0.35447217  0.88869796  1
  H+  H366  1  0.67233929  0.09144796  0.61412222  1
  H+  H367  1  0.83601025  0.41309343  0.73496405  1
  H+  H368  1  0.72489592  0.95994418  0.28765474  1
  H+  H369  1  0.58560379  0.66499128  0.05367665  1
  H+  H370  1  0.07835724  0.91168325  0.43567468  1
  H+  H371  1  0.82686405  0.16726658  0.43901132  1
  H+  H372  1  0.94833155  0.27901744  0.22815187  1
  H+  H373  1  0.34941487  0.42636615  0.04482400  1
  H+  H374  1  0.14875095  0.62693261  0.65752276  1
  H+  H375  1  0.01173754  0.05736401  0.02269485  1
  H+  H376  1  0.57116955  0.16809424  0.73033116  1
  H+  H377  1  0.81173866  0.42428479  0.10013605  1
  H+  H378  1  0.31215873  0.40415915  0.46277251  1
  H+  H379  1  0.67442302  0.34306135  0.90605174  1
  H+  H380  1  0.40840770  0.09169424  0.93203131  1
  H+  H381  1  0.89469876  0.07190703  0.60771717  1
  H+  H382  1  0.65358654  0.09188585  0.92450547  1
  H+  H383  1  0.41968754  0.57396941  0.23101523  1
  O2-  O384  1  0.08434591  0.16939123  0.14001469  1
  O2-  O385  1  0.08200082  0.16401109  0.47608938  1
  O2-  O386  1  0.10423907  0.18047022  0.81005114  1
  O2-  O387  1  0.09704784  0.40503186  0.15232380  1
  O2-  O388  1  0.07188340  0.42447360  0.48497834  1
  O2-  O389  1  0.10574506  0.42157429  0.80941921  1
  O2-  O390  1  0.08330914  0.64061117  0.18266198  1
  O2-  O391  1  0.07015238  0.66841807  0.48387442  1
  O2-  O392  1  0.07850877  0.66130449  0.82356965  1
  O2-  O393  1  0.07758927  0.92534239  0.14041367  1
  O2-  O394  1  0.08103312  0.91320354  0.48057779  1
  O2-  O395  1  0.10291084  0.88385206  0.82700097  1
  O2-  O396  1  0.33816546  0.17756372  0.15280075  1
  O2-  O397  1  0.33137124  0.15469934  0.47634201  1
  O2-  O398  1  0.33221618  0.17410378  0.80347175  1
  O2-  O399  1  0.35875508  0.43676932  0.12827629  1
  O2-  O400  1  0.29796614  0.41321252  0.50432754  1
  O2-  O401  1  0.39382702  0.42130843  0.83330302  1
  O2-  O402  1  0.30636116  0.66240739  0.16398143  1
  O2-  O403  1  0.32292729  0.66752195  0.49039935  1
  O2-  O404  1  0.32557951  0.65605626  0.79061935  1
  O2-  O405  1  0.32956536  0.91855205  0.14489813  1
  O2-  O406  1  0.31615726  0.91546614  0.47617739  1
  O2-  O407  1  0.32372196  0.94021010  0.81620084  1
  O2-  O408  1  0.57968634  0.16795560  0.14560929  1
  O2-  O409  1  0.57343958  0.15390409  0.48776321  1
  O2-  O410  1  0.55168467  0.18253000  0.80982371  1
  O2-  O411  1  0.58623873  0.42675402  0.15905234  1
  O2-  O412  1  0.59804371  0.40174422  0.47453750  1
  O2-  O413  1  0.57479979  0.41827487  0.80355142  1
  O2-  O414  1  0.58499588  0.66695472  0.13184707  1
  O2-  O415  1  0.56803362  0.65051316  0.48947204  1
  O2-  O416  1  0.57517590  0.65016889  0.81479271  1
  O2-  O417  1  0.56233908  0.90543251  0.13867752  1
  O2-  O418  1  0.58344286  0.91571995  0.49634662  1
  O2-  O419  1  0.57646045  0.89323223  0.82221947  1
  O2-  O420  1  0.80599121  0.11435719  0.10888089  1
  O2-  O421  1  0.82877459  0.17563764  0.48373434  1
  O2-  O422  1  0.83949930  0.16940496  0.82245123  1
  O2-  O423  1  0.80630319  0.43045741  0.14664413  1
  O2-  O424  1  0.83416044  0.39548807  0.48343037  1
  O2-  O425  1  0.83840801  0.40471755  0.81311906  1
  O2-  O426  1  0.82163624  0.66529051  0.14089414  1
  O2-  O427  1  0.78100444  0.57661759  0.47317021  1
  O2-  O428  1  0.80302641  0.70410559  0.79294081  1
  O2-  O429  1  0.82714018  0.92389877  0.13067715  1
  O2-  O430  1  0.83665172  0.92546826  0.47718301  1
  O2-  O431  1  0.81879833  0.93255859  0.81150721  1
  O2-  O432  1  0.16541158  0.09120148  0.19014983  1
  O2-  O433  1  0.16878814  0.07692861  0.51981558  1
  O2-  O434  1  0.17644941  0.09037701  0.83288461  1
  O2-  O435  1  0.17127299  0.32157165  0.19472865  1
  O2-  O436  1  0.14807369  0.36126093  0.53694280  1
  O2-  O437  1  0.21270080  0.35328341  0.84497386  1
  O2-  O438  1  0.15413770  0.53822082  0.21295708  1
  O2-  O439  1  0.15562356  0.58412820  0.48745373  1
  O2-  O440  1  0.16832663  0.58643369  0.84270892  1
  O2-  O441  1  0.15698857  0.84527251  0.18104339  1
  O2-  O442  1  0.16923804  0.83880465  0.52459082  1
  O2-  O443  1  0.15299191  0.84030194  0.83529980  1
  O2-  O444  1  0.42035580  0.08949072  0.19052818  1
  O2-  O445  1  0.40541129  0.06784495  0.51910606  1
  O2-  O446  1  0.40468887  0.09155877  0.85582417  1
  O2-  O447  1  0.42874034  0.35418857  0.19650332  1
  O2-  O448  1  0.42366654  0.32949417  0.51325964  1
  O2-  O449  1  0.41019459  0.34867701  0.83535992  1
  O2-  O450  1  0.41236234  0.60258361  0.11385309  1
  O2-  O451  1  0.39986888  0.58125235  0.53348542  1
  O2-  O452  1  0.37098760  0.54420645  0.83882374  1
  O2-  O453  1  0.40309616  0.82856425  0.19197670  1
  O2-  O454  1  0.40614005  0.82838645  0.51771538  1
  O2-  O455  1  0.41791694  0.81763621  0.83325209  1
  O2-  O456  1  0.66063727  0.07680517  0.17408944  1
  O2-  O457  1  0.66549135  0.08157473  0.53313342  1
  O2-  O458  1  0.65686512  0.10964991  0.84184365  1
  O2-  O459  1  0.65107335  0.33682402  0.19712391  1
  O2-  O460  1  0.66540340  0.31480462  0.52896141  1
  O2-  O461  1  0.67483618  0.34189527  0.86044981  1
  O2-  O462  1  0.66689984  0.57961910  0.18726755  1
  O2-  O463  1  0.68393345  0.61322067  0.54537800  1
  O2-  O464  1  0.64808390  0.57270356  0.84726670  1
  O2-  O465  1  0.66592312  0.83480818  0.16852676  1
  O2-  O466  1  0.67054652  0.82964309  0.51892778  1
  O2-  O467  1  0.65268464  0.80559685  0.85153003  1
  O2-  O468  1  0.91824080  0.08390269  0.18321269  1
  O2-  O469  1  0.91122602  0.08931159  0.52696098  1
  O2-  O470  1  0.89643288  0.08561233  0.88009201  1
  O2-  O471  1  0.96184339  0.27056427  0.18531825  1
  O2-  O472  1  0.88818497  0.35553072  0.47815473  1
  O2-  O473  1  0.93525957  0.33282820  0.85341840  1
  O2-  O474  1  0.90464019  0.58887309  0.19269368  1
  O2-  O475  1  0.90929839  0.55429671  0.52444736  1
  O2-  O476  1  0.90944652  0.57448339  0.84908685  1
  O2-  O477  1  0.90470936  0.83565115  0.16913985  1
  O2-  O478  1  0.92529235  0.84290652  0.52553713  1
  O2-  O479  1  0.92936673  0.81773509  0.86448148  1
  O2-  O480  1  0.16979785  0.08646854  0.32437318  1
  O2-  O481  1  0.16625966  0.07476899  0.65196444  1
  O2-  O482  1  0.16903234  0.08278901  0.96499181  1
  O2-  O483  1  0.16114097  0.32545382  0.32585861  1
  O2-  O484  1  0.18708362  0.35227452  0.66515393  1
  O2-  O485  1  0.17481865  0.35394293  0.97234647  1
  O2-  O486  1  0.15462738  0.57959515  0.36460522  1
  O2-  O487  1  0.18457841  0.60460531  0.67479185  1
  O2-  O488  1  0.17799103  0.58378297  0.97294399  1
  O2-  O489  1  0.15878478  0.83052591  0.30826858  1
  O2-  O490  1  0.18494557  0.85205697  0.64217230  1
  O2-  O491  1  0.15899677  0.82427270  0.94871254  1
  O2-  O492  1  0.43122365  0.09709769  0.30617638  1
  O2-  O493  1  0.41623309  0.07876636  0.64682889  1
  O2-  O494  1  0.41162132  0.09378505  0.97782101  1
  O2-  O495  1  0.42300867  0.33768853  0.31843303  1
  O2-  O496  1  0.42748529  0.33240509  0.63856856  1
  O2-  O497  1  0.39631865  0.31798915  0.95992524  1
  O2-  O498  1  0.39678981  0.57881176  0.35082652  1
  O2-  O499  1  0.42615862  0.63163060  0.65091378  1
  O2-  O500  1  0.43157110  0.58537089  0.96572793  1
  O2-  O501  1  0.39926201  0.83997968  0.31615360  1
  O2-  O502  1  0.42804108  0.84473314  0.66113656  1
  O2-  O503  1  0.40028853  0.82772320  0.95665870  1
  O2-  O504  1  0.69246159  0.13658042  0.29713816  1
  O2-  O505  1  0.67457569  0.09686005  0.65913551  1
  O2-  O506  1  0.65873795  0.08979057  0.96921716  1
  O2-  O507  1  0.64743489  0.33954294  0.32223895  1
  O2-  O508  1  0.66355124  0.33606418  0.65698948  1
  O2-  O509  1  0.67181995  0.33588231  0.98356373  1
  O2-  O510  1  0.68508764  0.58293338  0.30752790  1
  O2-  O511  1  0.65208243  0.57005810  0.65556219  1
  O2-  O512  1  0.66565964  0.57863742  0.96891011  1
  O2-  O513  1  0.70630554  0.92426929  0.32409591  1
  O2-  O514  1  0.69238472  0.81448273  0.64595403  1
  O2-  O515  1  0.64781578  0.82426325  0.97286593  1
  O2-  O516  1  0.90225815  0.07426231  0.30679959  1
  O2-  O517  1  0.88815780  0.06458242  0.65235408  1
  O2-  O518  1  0.89710527  0.09124267  0.94729724  1
  O2-  O519  1  0.94100695  0.30546769  0.30183058  1
  O2-  O520  1  0.92109367  0.33475294  0.64541254  1
  O2-  O521  1  0.92811085  0.36143965  0.98222820  1
  O2-  O522  1  0.90937068  0.58440399  0.31615904  1
  O2-  O523  1  0.91123155  0.58639194  0.65273849  1
  O2-  O524  1  0.90981346  0.57706514  0.97796917  1
  O2-  O525  1  0.93338429  0.84881243  0.29244634  1
  O2-  O526  1  0.92363835  0.83754002  0.65070178  1
  O2-  O527  1  0.93057746  0.83519037  0.99079680  1
  O2-  O528  1  0.04057208  0.11891467  0.01434586  1
  O2-  O529  1  0.06037951  0.15639715  0.35244013  1
  O2-  O530  1  0.09485614  0.17821774  0.68778965  1
  O2-  O531  1  0.08088019  0.41985962  0.00837290  1
  O2-  O532  1  0.08104444  0.40918302  0.36549518  1
  O2-  O533  1  0.08838391  0.42022390  0.68738186  1
  O2-  O534  1  0.08678170  0.67009753  -0.00690940  1
  O2-  O535  1  0.07507510  0.67234810  0.35567299  1
  O2-  O536  1  0.09113250  0.67640048  0.62499493  1
  O2-  O537  1  0.12616864  0.93845103  0.02492279  1
  O2-  O538  1  0.08926473  0.92311780  0.35016814  1
  O2-  O539  1  0.09201740  0.91300457  0.70166758  1
  O2-  O540  1  0.32448756  0.17395132  0.02306971  1
  O2-  O541  1  0.35077557  0.17093495  0.34514591  1
  O2-  O542  1  0.33308185  0.16478635  0.68196711  1
  O2-  O543  1  0.34160202  0.42959817  0.00061828  1
  O2-  O544  1  0.32586369  0.39935333  0.37645538  1
  O2-  O545  1  0.37406047  0.44928323  0.67542256  1
  O2-  O546  1  0.34184955  0.65499309  -0.00162938  1
  O2-  O547  1  0.32373181  0.68095141  0.36505539  1
  O2-  O548  1  0.37604177  0.66442733  0.66777310  1
  O2-  O549  1  0.28124455  0.94231024  0.02359852  1
  O2-  O550  1  0.31322109  0.91275866  0.36465622  1
  O2-  O551  1  0.33808710  0.91399019  0.69619737  1
  O2-  O552  1  0.57472543  0.16589097  0.01690186  1
  O2-  O553  1  0.57968796  0.17378707  0.35887095  1
  O2-  O554  1  0.58107294  0.17222966  0.68596275  1
  O2-  O555  1  0.59916637  0.42148095  0.02349029  1
  O2-  O556  1  0.57791948  0.43645993  0.36115108  1
  O2-  O557  1  0.59117910  0.41964488  0.69152553  1
  O2-  O558  1  0.58258383  0.66492999  0.00836212  1
  O2-  O559  1  0.55965859  0.59418877  0.36744020  1
  O2-  O560  1  0.57903775  0.65594711  0.69923955  1
  O2-  O561  1  0.57078104  0.91692663  0.00755171  1
  O2-  O562  1  0.55982997  0.91873642  0.36633741  1
  O2-  O563  1  0.59221136  0.92695354  0.69877005  1
  O2-  O564  1  0.82914270  0.18554321  -0.00107504  1
  O2-  O565  1  0.82927058  0.15799518  0.35828418  1
  O2-  O566  1  0.83764559  0.16558917  0.69779987  1
  O2-  O567  1  0.82687623  0.41596724  0.03254022  1
  O2-  O568  1  0.78703733  0.45923703  0.38772727  1
  O2-  O569  1  0.83522720  0.41870248  0.68985932  1
  O2-  O570  1  0.82790756  0.66066527  0.01345729  1
  O2-  O571  1  0.85898426  0.69156891  0.34865784  1
  O2-  O572  1  0.82325132  0.67029248  0.68220674  1
  O2-  O573  1  0.80321707  0.93318532  0.00427062  1
  O2-  O574  1  0.85644539  0.92046051  0.35790416  1
  O2-  O575  1  0.83185695  0.92290442  0.69584642  1
