# generated using pymatgen
data_H2O
_symmetry_space_group_name_H-M   'P 1'
_cell_length_a   17.98529656
_cell_length_b   17.98554039
_cell_length_c   21.98850176
_cell_angle_alpha   90.00473300
_cell_angle_beta   90.02046279
_cell_angle_gamma   119.97704238
_symmetry_Int_Tables_number   1
_chemical_formula_structural   H2O
_chemical_formula_sum   'H384 O192'
_cell_volume   6161.23450319
_cell_formula_units_Z   192
loop_
 _symmetry_equiv_pos_site_id
 _symmetry_equiv_pos_as_xyz
  1  'x, y, z'
loop_
 _atom_type_symbol
 _atom_type_oxidation_number
  H+  1.0
  O2-  -2.0
loop_
 _atom_site_type_symbol
 _atom_site_label
 _atom_site_symmetry_multiplicity
 _atom_site_fract_x
 _atom_site_fract_y
 _atom_site_fract_z
 _atom_site_occupancy
  H+  H0  1  0.26913473  0.88485080  0.33646935  1
  H+  H1  1  0.35807268  0.87453549  0.00669114  1
  H+  H2  1  0.37262105  0.14575609  0.48963003  1
  H+  H3  1  0.89152466  0.11764217  0.16766513  1
  H+  H4  1  0.61453361  0.88844721  0.50489104  1
  H+  H5  1  0.60629200  -0.02311792  0.82709444  1
  H+  H6  1  0.69149628  0.80827713  0.51031763  1
  H+  H7  1  0.12320895  0.52458698  0.66474129  1
  H+  H8  1  0.03024997  0.14439001  0.49460133  1
  H+  H9  1  0.41852258  0.08966356  0.92712762  1
  H+  H10  1  0.13233908  0.00421420  0.68473905  1
  H+  H11  1  0.88963162  0.85071083  0.66982268  1
  H+  H12  1  0.63994456  0.61279645  0.66054191  1
  H+  H13  1  0.57244121  0.70184138  0.13493089  1
  H+  H14  1  -0.02526469  0.36856296  0.16876170  1
  H+  H15  1  0.83106744  0.64952768  0.43844088  1
  H+  H16  1  0.87394135  0.09895963  0.32618330  1
  H+  H17  1  0.63538608  0.86843719  0.66761832  1
  H+  H18  1  0.87055857  0.98299227  0.14906837  1
  H+  H19  1  0.12783360  0.86734096  0.50169672  1
  H+  H20  1  0.88209396  0.76819339  0.83224739  1
  H+  H21  1  0.61389256  0.47229288  0.15394512  1
  H+  H22  1  0.55596327  0.41577176  0.44649839  1
  H+  H23  1  0.72563087  0.61017898  0.16496137  1
  H+  H24  1  0.13669511  0.76853452  0.99660016  1
  H+  H25  1  0.39504689  0.52721167  0.98511867  1
  H+  H26  1  0.25891351  0.38530530  0.49929415  1
  H+  H27  1  0.32228815  0.65806778  0.43959621  1
  H+  H28  1  0.33020322  0.66462188  0.09614869  1
  H+  H29  1  0.36655451  -0.02506566  0.15356863  1
  H+  H30  1  0.77669833  0.37472931  0.12705685  1
  H+  H31  1  0.27321053  0.63717910  1.00224035  1
  H+  H32  1  0.89205399  1.01569185  0.32164917  1
  H+  H33  1  0.39011049  0.26928908  0.17147557  1
  H+  H34  1  0.39568457  0.53579662  0.66376966  1
  H+  H35  1  0.37955258  0.85875407  0.50548684  1
  H+  H36  1  0.47360301  0.86112266  0.17007272  1
  H+  H37  1  0.79302609  0.90820682  0.34573936  1
  H+  H38  1  0.89252849  0.33153577  0.34037488  1
  H+  H39  1  0.89005172  0.27064439  -0.01052415  1
  H+  H40  1  0.89242432  0.76691530  0.67760424  1
  H+  H41  1  0.21930663  0.61441515  0.32675291  1
  H+  H42  1  0.74823720  0.88899853  0.16789943  1
  H+  H43  1  0.64230073  0.11824749  0.50851774  1
  H+  H44  1  0.88471401  0.85897422  0.84467959  1
  H+  H45  1  0.63074041  0.76495696  0.99273139  1
  H+  H46  1  0.63711493  0.02634384  0.51050953  1
  H+  H47  1  0.07046621  0.27025519  0.22508141  1
  H+  H48  1  0.47187846  0.86953318  0.83755947  1
  H+  H49  1  1.00249255  0.86111558  0.32217099  1
  H+  H50  1  0.83857928  0.35729481  0.42010190  1
  H+  H51  1  0.59002075  0.68054235  0.28920498  1
  H+  H52  1  0.91956165  0.60898809  0.58459246  1
  H+  H53  1  0.26613351  0.38409615  0.34674202  1
  H+  H54  1  0.35401703  0.71940006  0.49792504  1
  H+  H55  1  0.35575718  0.63110798  0.15546600  1
  H+  H56  1  0.38232941  0.36563698  0.32373449  1
  H+  H57  1  0.39700048  0.31644942  0.74929370  1
  H+  H58  1  0.02340331  0.40698578  0.34210405  1
  H+  H59  1  0.48042377  0.61694410  -0.01640928  1
  H+  H60  1  0.15491160  0.80271511  0.89545629  1
  H+  H61  1  0.86047662  0.63231658  0.50427821  1
  H+  H62  1  0.46736574  0.85688582  0.51015909  1
  H+  H63  1  0.21886926  0.03851903  0.94665679  1
  H+  H64  1  0.10592978  0.38407384  0.15950338  1
  H+  H65  1  0.62543499  0.11638752  0.83642373  1
  H+  H66  1  0.54843504  0.39120314  0.66710407  1
  H+  H67  1  0.38468554  1.02730219  0.50104409  1
  H+  H68  1  0.85818321  0.70878725  0.33444681  1
  H+  H69  1  0.12969470  0.52733200  0.32837618  1
  H+  H70  1  0.88524370  0.05621324  0.59646736  1
  H+  H71  1  0.09607784  0.47959197  0.50065340  1
  H+  H72  1  0.64091085  0.59471927  0.31586575  1
  H+  H73  1  0.85338333  0.43070874  0.34188380  1
  H+  H74  1  0.10905677  0.63373511  0.33687214  1
  H+  H75  1  0.92080371  0.59681285  0.92282119  1
  H+  H76  1  0.36630055  0.50654015  0.32656573  1
  H+  H77  1  0.11213069  0.38998579  0.67813819  1
  H+  H78  1  0.16633714  0.30571749  0.22281473  1
  H+  H79  1  0.62056674  0.98107347  0.67305095  1
  H+  H80  1  0.39267280  1.02736707  -0.01644155  1
  H+  H81  1  0.82972911  0.15712098  0.73789907  1
  H+  H82  1  0.71921265  0.37519604  0.20256112  1
  H+  H83  1  0.88310010  0.77063628  0.99154485  1
  H+  H84  1  0.89003507  0.10129732  0.50236888  1
  H+  H85  1  0.10121265  0.63831995  0.68632560  1
  H+  H86  1  0.03178757  0.14183174  0.33717090  1
  H+  H87  1  0.34648602  0.62481462  0.33959532  1
  H+  H88  1  0.35026298  0.71564311  0.33890161  1
  H+  H89  1  0.87176400  0.80679769  0.56944843  1
  H+  H90  1  0.63002741  0.38434381  0.52368042  1
  H+  H91  1  0.46628595  0.60614884  0.50924100  1
  H+  H92  1  0.83706189  0.74650712  0.51173053  1
  H+  H93  1  0.91401554  1.02520090  0.49815803  1
  H+  H94  1  0.61786391  0.15827055  0.33543268  1
  H+  H95  1  0.77326420  0.12627725  0.49515599  1
  H+  H96  1  0.62473018  0.39356891  0.82140769  1
  H+  H97  1  0.67314601  0.32917846  0.52829215  1
  H+  H98  1  0.35054157  0.63952851  0.67367168  1
  H+  H99  1  0.27021324  0.89114385  0.49104731  1
  H+  H100  1  0.09751166  0.39158717  0.49762794  1
  H+  H101  1  0.36414037  0.89080483  0.66818068  1
  H+  H102  1  0.15392093  0.58466001  0.57396028  1
  H+  H103  1  0.34768220  0.23958828  0.00563400  1
  H+  H104  1  0.50558884  0.63889265  0.66745530  1
  H+  H105  1  0.88646735  0.52265706  0.16815307  1
  H+  H106  1  0.75357527  0.90482270  0.52602749  1
  H+  H107  1  -0.03472303  0.11227530  0.87295976  1
  H+  H108  1  0.61862643  0.13309422  0.67188588  1
  H+  H109  1  0.86126757  0.21273001  0.48219412  1
  H+  H110  1  0.71735972  0.86111556  0.84581808  1
  H+  H111  1  0.61898303  0.89842312  0.16042529  1
  H+  H112  1  0.12206496  0.15111781  0.48677578  1
  H+  H113  1  0.88057209  0.53525716  0.67391743  1
  H+  H114  1  0.64183459  0.03148365  0.16296789  1
  H+  H115  1  0.38024890  0.77117189  0.99285682  1
  H+  H116  1  0.37202300  0.50820570  0.16353251  1
  H+  H117  1  0.60161752  0.37224297  0.34215115  1
  H+  H118  1  0.09935726  0.09785937  -0.01271753  1
  H+  H119  1  0.88445441  0.27318341  0.66984759  1
  H+  H120  1  0.82051672  0.13145420  0.40879820  1
  H+  H121  1  0.52093976  0.63873233  0.81932461  1
  H+  H122  1  0.64697407  0.26467928  0.66750302  1
  H+  H123  1  0.37447549  0.27070639  0.50376599  1
  H+  H124  1  1.02145244  0.39305712  0.82677806  1
  H+  H125  1  0.23103978  0.45903465  0.94617617  1
  H+  H126  1  0.64499161  0.33406807  0.27999747  1
  H+  H127  1  1.05097054  0.15733245  0.63579801  1
  H+  H128  1  0.38978276  0.11255294  0.32213821  1
  H+  H129  1  0.11506896  -0.01535496  0.46808556  1
  H+  H130  1  0.99530085  0.62279813  0.32348841  1
  H+  H131  1  0.71934606  0.59598084  0.50435037  1
  H+  H132  1  0.45295286  0.59311759  0.31613902  1
  H+  H133  1  0.85089507  0.13465628  0.84410340  1
  H+  H134  1  0.52990129  0.13457156  0.66744065  1
  H+  H135  1  0.36046744  0.89520034  0.82374976  1
  H+  H136  1  0.64343101  0.61642777  0.82649892  1
  H+  H137  1  0.12916968  0.85116798  0.31794527  1
  H+  H138  1  -0.02845269  0.85737267  0.16741476  1
  H+  H139  1  0.86641376  0.38069152  0.67468829  1
  H+  H140  1  0.08675655  0.94813224  0.30739308  1
  H+  H141  1  0.36510505  0.40025836  0.68442921  1
  H+  H142  1  0.23444973  0.11634173  -0.01032404  1
  H+  H143  1  0.75572289  0.36616152  0.67137537  1
  H+  H144  1  0.97843553  0.63073129  0.52559957  1
  H+  H145  1  0.13703788  0.85789457  -0.00574597  1
  H+  H146  1  0.38666854  0.52602892  0.83445379  1
  H+  H147  1  0.89251124  0.52946575  0.97758851  1
  H+  H148  1  0.47924315  0.88015201  0.65941373  1
  H+  H149  1  0.16311189  0.28932893  0.66860463  1
  H+  H150  1  0.86569166  0.38398873  0.14830180  1
  H+  H151  1  0.26150862  0.87430445  1.00772624  1
  H+  H152  1  0.13015342  0.28120740  0.50785194  1
  H+  H153  1  0.13247013  0.09943988  0.17093003  1
  H+  H154  1  0.85957466  0.64318502  0.71932881  1
  H+  H155  1  0.78078131  0.40289675  0.82250233  1
  H+  H156  1  0.13501497  0.38164297  0.33591272  1
  H+  H157  1  0.08239992  0.41678045  0.06428226  1
  H+  H158  1  0.21192328  0.61281170  0.66473698  1
  H+  H159  1  0.62013462  0.47675496  -0.00437830  1
  H+  H160  1  0.38461950  0.77050740  0.16632582  1
  H+  H161  1  0.78169327  0.38696153  0.99132324  1
  H+  H162  1  0.24187791  0.12415103  0.48395624  1
  H+  H163  1  0.26755524  0.88336028  0.82149231  1
  H+  H164  1  0.71801112  0.85586600  -0.00862609  1
  H+  H165  1  0.11068051  0.48412890  0.82986715  1
  H+  H166  1  0.66661772  0.80262180  0.18742382  1
  H+  H167  1  0.50067593  0.61126067  0.15611825  1
  H+  H168  1  0.48842556  0.35551432  0.82566448  1
  H+  H169  1  0.29300379  0.39812055  -0.00874073  1
  H+  H170  1  0.11301705  0.64442124  0.50067260  1
  H+  H171  1  0.35985217  0.20189906  0.69668297  1
  H+  H172  1  0.58741837  0.68136321  0.54376885  1
  H+  H173  1  0.13042435  0.36507322  0.83424311  1
  H+  H174  1  0.60725444  0.96886231  0.01014754  1
  H+  H175  1  0.78533644  0.14200233  0.14617567  1
  H+  H176  1  0.13337132  0.52861349  0.99339264  1
  H+  H177  1  0.31637804  0.18283081  0.06656603  1
  H+  H178  1  0.11827629  0.40075367  1.00034223  1
  H+  H179  1  0.39258936  0.35863788  0.16359911  1
  H+  H180  1  0.61525432  0.62804331  -0.00770427  1
  H+  H181  1  0.11038940  0.72423715  0.33584706  1
  H+  H182  1  0.63345509  0.60523647  0.16829561  1
  H+  H183  1  0.11694611  0.01175064  0.82999784  1
  H+  H184  1  0.88254147  0.87965029  0.48660223  1
  H+  H185  1  0.65456730  0.53317566  0.66015487  1
  H+  H186  1  0.09755270  0.20098865  0.14498400  1
  H+  H187  1  0.22327903  0.61165706  0.17034317  1
  H+  H188  1  0.26808281  0.38091559  0.82650723  1
  H+  H189  1  0.88154452  0.01615962  0.66073861  1
  H+  H190  1  0.24344899  0.87854677  0.65649548  1
  H+  H191  1  0.27415480  0.13270275  0.16258470  1
  H+  H192  1  0.07628396  0.66336683  0.06272143  1
  H+  H193  1  0.11494501  0.19032046  -0.01260594  1
  H+  H194  1  0.14054112  0.11889297  0.33226098  1
  H+  H195  1  0.73832873  0.13566345  0.31824983  1
  H+  H196  1  0.64895528  0.06274311  0.29955639  1
  H+  H197  1  0.12267910  0.27134151  0.84156235  1
  H+  H198  1  -0.02714090  0.36253275  0.67002884  1
  H+  H199  1  0.22414124  0.62693263  0.83964064  1
  H+  H200  1  0.16594843  0.59750371  0.89933001  1
  H+  H201  1  0.77626344  0.61560007  0.33510446  1
  H+  H202  1  0.97524361  0.10617829  0.16769604  1
  H+  H203  1  0.60646363  0.73691493  0.67184109  1
  H+  H204  1  0.13668864  0.61880700  0.99420681  1
  H+  H205  1  0.72944459  0.11506784  0.66409627  1
  H+  H206  1  0.61428176  0.27127677  0.33960647  1
  H+  H207  1  0.38562941  0.02102621  0.32472787  1
  H+  H208  1  0.60952783  0.23155679  0.16354398  1
  H+  H209  1  0.46857599  0.86162713  -0.00463355  1
  H+  H210  1  0.60849496  0.91164955  0.34090957  1
  H+  H211  1  0.17828822  0.16012630  0.71124734  1
  H+  H212  1  0.97620237  0.61090036  0.16763394  1
  H+  H213  1  0.52828336  0.13853660  0.49784160  1
  H+  H214  1  -0.04512503  0.35840528  0.47613675  1
  H+  H215  1  0.91490839  0.82780642  0.93152285  1
  H+  H216  1  0.11101693  0.96446310  0.00419277  1
  H+  H217  1  0.28590717  0.14904561  0.33527934  1
  H+  H218  1  0.36063851  0.64323820  0.82673611  1
  H+  H219  1  0.08837593  0.11882099  0.83237087  1
  H+  H220  1  0.76146835  0.04667485  0.37256880  1
  H+  H221  1  0.01863889  0.87852553  0.00388421  1
  H+  H222  1  0.86310956  0.63664721  -0.00177890  1
  H+  H223  1  0.64307329  0.28053388  0.83177997  1
  H+  H224  1  0.13551761  0.68173515  0.84266315  1
  H+  H225  1  0.98342358  0.64079633  0.83644238  1
  H+  H226  1  0.85863352  0.72220382  0.15323834  1
  H+  H227  1  0.02257449  0.87161796  0.67549099  1
  H+  H228  1  0.88645528  0.28136821  0.82972652  1
  H+  H229  1  0.39500161  0.02064141  0.65310103  1
  H+  H230  1  0.51949094  0.13662686  0.33866769  1
  H+  H231  1  0.14018283  0.86680366  0.66049303  1
  H+  H232  1  0.16426100  0.04809482  0.35130292  1
  H+  H233  1  0.36104139  0.35834779  0.50930745  1
  H+  H234  1  0.96852402  0.62237798  0.68447854  1
  H+  H235  1  0.89035729  0.63130115  0.82800617  1
  H+  H236  1  0.39771403  0.10849592  0.65888336  1
  H+  H237  1  0.21467641  0.60923248  0.51468923  1
  H+  H238  1  0.72873772  0.61128264  0.98173480  1
  H+  H239  1  0.60851675  0.47227311  0.33562968  1
  H+  H240  1  0.30756398  0.27513345  0.71619352  1
  H+  H241  1  0.88945008  0.27742054  0.16662549  1
  H+  H242  1  0.84706885  0.42316831  0.04809887  1
  H+  H243  1  0.10898985  0.63144667  0.15705328  1
  H+  H244  1  0.36537577  0.88366610  0.15365810  1
  H+  H245  1  0.86040137  0.63413407  0.15547338  1
  H+  H246  1  0.85944896  0.88281595  -0.00269966  1
  H+  H247  1  0.75786338  0.39562502  0.36065360  1
  H+  H248  1  0.07970875  0.66904454  0.44075762  1
  H+  H249  1  0.01413077  0.87119289  0.82767571  1
  H+  H250  1  0.85429745  0.96862111  -0.01053639  1
  H+  H251  1  0.65203417  0.35913097  0.66312464  1
  H+  H252  1  0.45700696  0.84588981  0.32405133  1
  H+  H253  1  0.76476500  0.13608369  0.83214192  1
  H+  H254  1  0.96855753  0.10104264  0.96467356  1
  H+  H255  1  0.84659469  0.12129590  0.67497825  1
  H+  H256  1  0.88448662  0.86115794  0.16271488  1
  H+  H257  1  0.10968318  0.96668119  0.16058735  1
  H+  H258  1  0.27880149  0.10892295  0.68994616  1
  H+  H259  1  0.88967536  0.36668551  0.98655574  1
  H+  H260  1  0.27813471  0.37085829  0.13517210  1
  H+  H261  1  0.65514736  0.82762270  0.32528888  1
  H+  H262  1  0.64788381  0.36789292  0.98618130  1
  H+  H263  1  0.63150117  0.36862317  0.17968176  1
  H+  H264  1  0.52521666  0.14182421  0.99936596  1
  H+  H265  1  0.37854407  0.38894318  -0.00972202  1
  H+  H266  1  0.50974208  0.38649861  0.33585047  1
  H+  H267  1  0.59067038  0.48045839  0.50414345  1
  H+  H268  1  0.13273083  0.78069589  0.50615300  1
  H+  H269  1  0.11447486  0.47792450  0.15924228  1
  H+  H270  1  0.85569485  0.97466881  0.84711856  1
  H+  H271  1  0.22487221  0.85877332  0.16689141  1
  H+  H272  1  0.23595838  0.38349537  0.66021119  1
  H+  H273  1  0.11002698  0.72103871  0.15675093  1
  H+  H274  1  0.56194173  0.96357100  0.36385194  1
  H+  H275  1  0.75550634  0.85433400  0.69265602  1
  H+  H276  1  0.87667324  0.84700143  0.31738664  1
  H+  H277  1  0.52563096  0.38203475  0.15422292  1
  H+  H278  1  0.41654655  0.08508251  0.56118633  1
  H+  H279  1  0.77982476  0.14327363  1.00479456  1
  H+  H280  1  0.61579973  0.14715345  0.15292410  1
  H+  H281  1  0.67314863  0.08668808  1.06314924  1
  H+  H282  1  0.89256458  0.61237549  0.32285619  1
  H+  H283  1  0.37756511  0.60896121  0.50991960  1
  H+  H284  1  0.36353211  0.63799192  0.00003937  1
  H+  H285  1  0.03411323  0.15419973  0.66752921  1
  H+  H286  1  1.02199422  0.63963931  0.99973700  1
  H+  H287  1  0.48672814  0.36276734  0.98135269  1
  H+  H288  1  0.41467518  0.07481812  0.22777132  1
  H+  H289  1  0.08698556  0.17219659  0.39793104  1
  H+  H290  1  0.57561412  0.90574188  0.44534118  1
  H+  H291  1  0.61203848  0.62740415  0.50289354  1
  H+  H292  1  0.35123890  0.18049176  0.42711944  1
  H+  H293  1  0.41041022  0.25758422  0.83447982  1
  H+  H294  1  0.07632201  0.42980607  0.40577586  1
  H+  H295  1  0.86566527  0.13971820  -0.01184343  1
  H+  H296  1  0.83514874  0.41849190  0.73265570  1
  H+  H297  1  0.58949297  0.17193367  0.44135988  1
  H+  H298  1  0.16355885  0.58234147  0.23043367  1
  H+  H299  1  0.35223471  0.47157707  0.50090634  1
  H+  H300  1  0.97205978  0.93950199  0.45695517  1
  H+  H301  1  0.08408090  0.42049776  0.73792842  1
  H+  H302  1  0.65062178  0.82457010  0.89979575  1
  H+  H303  1  0.87341938  0.93059709  0.39344062  1
  H+  H304  1  0.35522075  0.88123945  0.33589083  1
  H+  H305  1  0.47440015  0.10934261  0.16886673  1
  H+  H306  1  0.83593126  0.92249596  0.08896304  1
  H+  H307  1  0.41544871  0.84406614  0.60193311  1
  H+  H308  1  0.58044594  0.91480036  0.09968280  1
  H+  H309  1  0.89050725  0.37222755  0.82697589  1
  H+  H310  1  0.63705090  0.12042996  1.01288417  1
  H+  H311  1  0.07438626  0.91273598  0.41655436  1
  H+  H312  1  0.58486432  0.92072086  0.73258511  1
  H+  H313  1  0.68499511  0.10809614  0.21224616  1
  H+  H314  1  0.66620014  0.57922840  0.56702171  1
  H+  H315  1  0.17328790  0.84916557  0.59258534  1
  H+  H316  1  0.03319680  0.14372209  0.78700127  1
  H+  H317  1  0.41964318  0.58745019  0.89223494  1
  H+  H318  1  0.67002532  0.56417641  0.25822037  1
  H+  H319  1  0.07855178  0.90820674  0.10020757  1
  H+  H320  1  0.91350156  0.34907064  0.26827544  1
  H+  H321  1  0.52084994  0.14664475  0.81921203  1
  H+  H322  1  0.64421869  0.27735618  0.98725965  1
  H+  H323  1  0.07763080  0.89401387  0.73788950  1
  H+  H324  1  0.59033435  0.41699536  0.05570399  1
  H+  H325  1  0.37483562  0.03354690  0.82942212  1
  H+  H326  1  0.16400316  0.07732129  0.23315758  1
  H+  H327  1  0.37519441  0.23601427  0.33245772  1
  H+  H328  1  0.67428311  0.33761881  0.89224050  1
  H+  H329  1  0.78489176  0.80063750  0.73153260  1
  H+  H330  1  0.13472267  0.85697052  0.16857354  1
  H+  H331  1  0.57445127  0.67290174  0.73380712  1
  H+  H332  1  0.42730361  0.33010456  0.92171752  1
  H+  H333  1  0.39323935  0.56148536  0.22645451  1
  H+  H334  1  0.35571364  0.13054669  0.78002392  1
  H+  H335  1  0.42000281  0.59153391  0.60094230  1
  H+  H336  1  0.64871989  0.08477001  0.89712099  1
  H+  H337  1  0.16636611  0.82460263  0.26178545  1
  H+  H338  1  0.60490127  0.87816764  0.00525269  1
  H+  H339  1  0.89955266  0.81478889  0.25602361  1
  H+  H340  1  0.69244603  0.88399270  0.26694619  1
  H+  H341  1  0.67317755  0.08684123  0.60212062  1
  H+  H342  1  0.17602229  0.21578382  0.76565944  1
  H+  H343  1  0.17717535  0.07920320  0.53728906  1
  H+  H344  1  0.82720360  0.91350702  0.78709394  1
  H+  H345  1  0.40325824  0.82173067  0.26210803  1
  H+  H346  1  0.82941898  0.66083293  0.05866753  1
  H+  H347  1  0.16023213  0.33875787  0.56857877  1
  H+  H348  1  0.87012652  0.49334492  0.81925109  1
  H+  H349  1  0.85140309  0.17324514  0.09064340  1
  H+  H350  1  0.36077958  0.73277263  0.82701383  1
  H+  H351  1  0.31931995  0.66462920  0.73343175  1
  H+  H352  1  0.58785864  0.67363650  0.36049510  1
  H+  H353  1  0.41148125  0.84081757  0.89648093  1
  H+  H354  1  0.32985775  0.91026209  0.07148742  1
  H+  H355  1  0.73491561  0.62001468  0.82320672  1
  H+  H356  1  0.60890681  0.72980792  0.82091126  1
  H+  H357  1  0.91335744  0.08303312  0.25752333  1
  H+  H358  1  0.18089154  0.36627285  0.91974925  1
  H+  H359  1  0.15000931  0.07565150  0.63630677  1
  H+  H360  1  0.19919433  0.41597583  0.28331169  1
  H+  H361  1  0.10130881  0.86718662  0.82822159  1
  H+  H362  1  0.32647529  0.91811129  0.72733913  1
  H+  H363  1  0.32940742  0.91589143  0.43194060  1
  H+  H364  1  0.57840314  0.17816801  0.06182095  1
  H+  H365  1  0.32731715  0.41023358  0.40540568  1
  H+  H366  1  0.36206399  0.13214911  0.15686016  1
  H+  H367  1  0.92679274  0.58713947  0.25835899  1
  H+  H368  1  0.62082493  0.48149832  0.81820291  1
  H+  H369  1  0.34620410  0.41333671  0.08272397  1
  H+  H370  1  0.58361790  0.16820635  0.76218864  1
  H+  H371  1  0.57780708  0.64398952  0.05394783  1
  H+  H372  1  0.41704415  0.34112213  0.26170290  1
  H+  H373  1  0.07284366  0.13757059  0.08725974  1
  H+  H374  1  0.16133297  0.07937527  0.88275652  1
  H+  H375  1  0.98498921  0.36634942  0.99468664  1
  H+  H376  1  0.08899894  0.68453006  0.74445919  1
  H+  H377  1  0.60620555  0.88728204  0.82830834  1
  H+  H378  1  0.35721234  0.38061162  0.82515850  1
  H+  H379  1  0.33531578  0.43708894  0.73606781  1
  H+  H380  1  0.67219913  0.58254490  0.92032923  1
  H+  H381  1  0.67412195  0.84159635  0.61029963  1
  H+  H382  1  0.46167480  0.37051971  0.51066802  1
  H+  H383  1  0.59992308  0.41910991  0.72956162  1
  O2-  O384  1  0.07136463  0.14008806  0.13231853  1
  O2-  O385  1  0.08888144  0.17996585  0.47641712  1
  O2-  O386  1  0.06062240  0.15705447  0.82699457  1
  O2-  O387  1  0.08129678  0.41761239  0.14221156  1
  O2-  O388  1  0.06752930  0.42114223  0.48132817  1
  O2-  O389  1  0.08549124  0.42361804  0.81650301  1
  O2-  O390  1  0.07718082  0.66030034  0.14190601  1
  O2-  O391  1  0.08642459  0.67848286  0.48505964  1
  O2-  O392  1  0.10386704  0.71311174  0.83043092  1
  O2-  O393  1  0.07750628  0.90605127  0.14575114  1
  O2-  O394  1  0.07195246  0.92346394  0.46046639  1
  O2-  O395  1  0.07531386  0.90039243  0.81210522  1
  O2-  O396  1  0.33355892  0.16581858  0.14620785  1
  O2-  O397  1  0.34478898  0.17872543  0.47260388  1
  O2-  O398  1  0.36306441  0.13848059  0.82535636  1
  O2-  O399  1  0.33946328  0.40888776  0.12873842  1
  O2-  O400  1  0.32109093  0.41073985  0.48572907  1
  O2-  O401  1  0.32939424  0.41373276  0.81310648  1
  O2-  O402  1  0.32930155  0.66548531  0.14171341  1
  O2-  O403  1  0.32433817  0.65772364  0.48482969  1
  O2-  O404  1  0.32770219  0.67145516  0.81409883  1
  O2-  O405  1  0.33519549  0.91412451  0.13712636  1
  O2-  O406  1  0.33101959  0.91823435  0.47733685  1
  O2-  O407  1  0.32719276  0.92239418  0.80809149  1
  O2-  O408  1  0.58138098  0.17496710  0.14298883  1
  O2-  O409  1  0.58973341  0.16692849  0.48593095  1
  O2-  O410  1  0.58239948  0.17213721  0.80789224  1
  O2-  O411  1  0.58692343  0.41117309  0.14024963  1
  O2-  O412  1  0.54706124  0.41899606  0.49026245  1
  O2-  O413  1  0.59143645  0.41997216  0.80411024  1
  O2-  O414  1  0.56172988  0.64347634  0.14024986  1
  O2-  O415  1  0.58253007  0.66304192  0.50154443  1
  O2-  O416  1  0.58040096  0.67120627  0.80147741  1
  O2-  O417  1  0.58441978  0.92350618  0.14503536  1
  O2-  O418  1  0.57939214  0.91292885  0.48999465  1
  O2-  O419  1  0.57610448  0.91685359  0.81149379  1
  O2-  O420  1  0.84785063  0.17177607  0.13602751  1
  O2-  O421  1  0.83197027  0.14848273  0.47653520  1
  O2-  O422  1  0.82574101  0.16212409  0.81919122  1
  O2-  O423  1  0.83807547  0.41598351  0.12923719  1
  O2-  O424  1  0.85356037  0.31034796  0.42038568  1
  O2-  O425  1  0.84025894  0.43227902  0.80559564  1
  O2-  O426  1  0.82764005  0.66101237  0.13934309  1
  O2-  O427  1  0.82168494  0.65070031  0.48245918  1
  O2-  O428  1  0.83548852  0.67483719  0.80171067  1
  O2-  O429  1  0.83747450  0.92241242  0.13481364  1
  O2-  O430  1  0.91405143  0.93317477  0.45939909  1
  O2-  O431  1  0.82657480  0.91471347  0.83229826  1
  O2-  O432  1  0.16436197  0.07241348  0.18837886  1
  O2-  O433  1  0.17822643  0.09173305  0.49409288  1
  O2-  O434  1  0.14098204  0.07352496  0.84044058  1
  O2-  O435  1  0.11714034  0.28853648  0.19557417  1
  O2-  O436  1  0.15915814  0.34167730  0.52326483  1
  O2-  O437  1  0.16087126  0.33374226  0.84887335  1
  O2-  O438  1  0.16241634  0.57944974  0.18480080  1
  O2-  O439  1  0.15385157  0.58342751  0.52784108  1
  O2-  O440  1  0.16371236  0.60337214  0.85443743  1
  O2-  O441  1  0.16542056  0.82648728  0.18296577  1
  O2-  O442  1  0.16183808  0.84304396  0.51936697  1
  O2-  O443  1  0.15659190  0.80380534  0.85001131  1
  O2-  O444  1  0.41347027  0.07418804  0.18224669  1
  O2-  O445  1  0.41420030  0.08806940  0.51565396  1
  O2-  O446  1  0.41157534  0.09515826  0.84292347  1
  O2-  O447  1  0.42214774  0.33139815  0.18439040  1
  O2-  O448  1  0.39577925  0.32948515  0.52344870  1
  O2-  O449  1  0.42523050  0.31883397  0.83498640  1
  O2-  O450  1  0.40036130  0.56720667  0.18121578  1
  O2-  O451  1  0.40695067  0.57744916  0.52621248  1
  O2-  O452  1  0.41874215  0.58740037  0.84661775  1
  O2-  O453  1  0.41214487  0.83080436  0.18255394  1
  O2-  O454  1  0.40587105  0.82551271  0.52202235  1
  O2-  O455  1  0.41056519  0.84116886  0.85144155  1
  O2-  O456  1  0.67752016  0.09569135  0.16788245  1
  O2-  O457  1  0.67335891  0.08724086  0.52281040  1
  O2-  O458  1  0.65437313  0.08466405  0.85304276  1
  O2-  O459  1  0.65698376  0.33759163  0.20358217  1
  O2-  O460  1  0.68624918  0.38859044  0.52613315  1
  O2-  O461  1  0.67447655  0.34100139  0.84686657  1
  O2-  O462  1  0.66566633  0.57697744  0.18230978  1
  O2-  O463  1  0.65944985  0.57287505  0.52123741  1
  O2-  O464  1  0.67382355  0.58656957  0.84063125  1
  O2-  O465  1  0.69159569  0.86464294  0.19156279  1
  O2-  O466  1  0.69437262  0.85826803  0.53058968  1
  O2-  O467  1  0.65422974  0.82854108  0.85439703  1
  O2-  O468  1  0.91693067  0.08401757  0.18663295  1
  O2-  O469  1  0.92610908  0.07850182  0.51990526  1
  O2-  O470  1  0.90367116  0.08001560  0.88676446  1
  O2-  O471  1  0.91325640  0.33732135  0.18171171  1
  O2-  O472  1  0.89182578  0.31633311  0.48057070  1
  O2-  O473  1  0.92121495  0.34245461  0.84111604  1
  O2-  O474  1  0.91607004  0.58158622  0.18517065  1
  O2-  O475  1  0.91857299  0.60410608  0.53980445  1
  O2-  O476  1  0.92223494  0.60284790  0.84634470  1
  O2-  O477  1  0.90954772  0.82738594  0.18012063  1
  O2-  O478  1  0.84089996  0.79902465  0.53072545  1
  O2-  O479  1  0.91494985  0.82678952  0.85397738  1
  O2-  O480  1  0.17384828  0.08890274  0.31875507  1
  O2-  O481  1  0.16788718  0.06844635  0.67661108  1
  O2-  O482  1  0.18783170  0.06460536  0.96499033  1
  O2-  O483  1  0.17390756  0.36750178  0.31136758  1
  O2-  O484  1  0.17533202  0.34306482  0.64833053  1
  O2-  O485  1  0.20051735  0.39915804  0.95950319  1
  O2-  O486  1  0.15964679  0.58637135  0.30938386  1
  O2-  O487  1  0.15065951  0.58480987  0.64968493  1
  O2-  O488  1  0.16767751  0.58885846  0.97916778  1
  O2-  O489  1  0.16417538  0.82414931  0.30736502  1
  O2-  O490  1  0.17905678  0.84883369  0.63873542  1
  O2-  O491  1  0.17085428  0.82994071  0.98135165  1
  O2-  O492  1  0.41915724  0.08094068  0.30814763  1
  O2-  O493  1  0.42765576  0.08122318  0.63816976  1
  O2-  O494  1  0.42524582  0.08778292  0.97172308  1
  O2-  O495  1  0.41869872  0.34207859  0.30756152  1
  O2-  O496  1  0.37089383  0.30419944  0.70828219  1
  O2-  O497  1  0.42604470  0.33529142  0.96643875  1
  O2-  O498  1  0.39141886  0.56394779  0.30577896  1
  O2-  O499  1  0.42636320  0.59635263  0.64686015  1
  O2-  O500  1  0.41869937  0.58761576  0.97071150  1
  O2-  O501  1  0.39804538  0.81816079  0.30749133  1
  O2-  O502  1  0.41933460  0.85797414  0.64592001  1
  O2-  O503  1  0.40741565  0.83376666  0.98124541  1
  O2-  O504  1  0.68701177  0.12427239  0.29379615  1
  O2-  O505  1  0.66907619  0.08343929  0.64755071  1
  O2-  O506  1  0.67023033  0.08874908  1.01878285  1
  O2-  O507  1  0.64124516  0.33420757  0.32567888  1
  O2-  O508  1  0.68304014  0.32695758  0.65450590  1
  O2-  O509  1  0.67855887  0.33747352  0.97158989  1
  O2-  O510  1  0.66927522  0.56166039  0.30416084  1
  O2-  O511  1  0.67280272  0.58950566  0.64104743  1
  O2-  O512  1  0.66836628  0.57983074  0.96586065  1
  O2-  O513  1  0.68886688  0.88766466  0.31264816  1
  O2-  O514  1  0.66239609  0.83225068  0.65462592  1
  O2-  O515  1  0.65609729  0.82610294  0.97953433  1
  O2-  O516  1  0.91263845  0.07912853  0.30481121  1
  O2-  O517  1  0.85365167  0.03982566  0.63577497  1
  O2-  O518  1  0.90666550  0.07941061  0.95402496  1
  O2-  O519  1  0.92631334  0.37509689  0.30921221  1
  O2-  O520  1  0.91177814  0.33388196  0.65660860  1
  O2-  O521  1  0.92297140  0.33449552  0.97799672  1
  O2-  O522  1  0.93060843  0.59000536  0.30475647  1
  O2-  O523  1  0.90661913  0.59802620  0.67165650  1
  O2-  O524  1  0.92114223  0.59172965  0.96855179  1
  O2-  O525  1  0.89967830  0.81091930  0.30184743  1
  O2-  O526  1  0.91849248  0.82071485  0.65295243  1
  O2-  O527  1  0.91462933  0.83176313  0.97717553  1
  O2-  O528  1  0.07325179  0.13206744  0.00034456  1
  O2-  O529  1  0.08998190  0.16478976  0.35306661  1
  O2-  O530  1  0.19711572  0.22020908  0.72405839  1
  O2-  O531  1  0.07796021  0.41763993  0.01876115  1
  O2-  O532  1  0.08213127  0.43066732  0.36010822  1
  O2-  O533  1  0.08011617  0.41816676  0.69252889  1
  O2-  O534  1  0.08160638  0.66805418  0.01739957  1
  O2-  O535  1  0.07625694  0.66315257  0.35090940  1
  O2-  O536  1  0.07131620  0.66835904  0.70206277  1
  O2-  O537  1  0.07868247  0.90539285  0.02086898  1
  O2-  O538  1  0.06529473  0.89711861  0.33312352  1
  O2-  O539  1  0.08306518  0.90077750  0.69201806  1
  O2-  O540  1  0.29677585  0.19433976  0.02734208  1
  O2-  O541  1  0.34677489  0.17636752  0.34906410  1
  O2-  O542  1  0.34044112  0.13970818  0.70180656  1
  O2-  O543  1  0.35126287  0.42104671  0.00885221  1
  O2-  O544  1  0.32740759  0.40851277  0.35996455  1
  O2-  O545  1  0.34177451  0.43937666  0.69075132  1
  O2-  O546  1  0.33422868  0.66837126  0.01693600  1
  O2-  O547  1  0.31961474  0.65681553  0.35698381  1
  O2-  O548  1  0.31176824  0.65881490  0.68867126  1
  O2-  O549  1  0.32535658  0.90510782  0.02300367  1
  O2-  O550  1  0.32974068  0.91576860  0.35138860  1
  O2-  O551  1  0.32697883  0.91807894  0.68189893  1
  O2-  O552  1  0.58500492  0.17395575  0.01715019  1
  O2-  O553  1  0.57910203  0.17505696  0.35519829  1
  O2-  O554  1  0.58856651  0.16468357  0.68640472  1
  O2-  O555  1  0.59082062  0.41581794  0.01054725  1
  O2-  O556  1  0.57019947  0.41321468  0.35515393  1
  O2-  O557  1  0.60649197  0.41915440  0.68370432  1
  O2-  O558  1  0.58328973  0.65604053  0.00990840  1
  O2-  O559  1  0.57195574  0.63983723  0.32300600  1
  O2-  O560  1  0.57305408  0.67356791  0.68609871  1
  O2-  O561  1  0.57371329  0.90746248  0.02168883  1
  O2-  O562  1  0.55888427  0.90782604  0.36367241  1
  O2-  O563  1  0.58892553  0.91966341  0.68725514  1
  O2-  O564  1  0.84379216  0.17381133  0.01002829  1
  O2-  O565  1  0.80466823  0.10645123  0.36435989  1
  O2-  O566  1  0.82863034  0.16093015  0.69279644  1
  O2-  O567  1  0.84476065  0.41784621  0.00295764  1
  O2-  O568  1  0.81681135  0.42619594  0.37638355  1
  O2-  O569  1  0.83124315  0.41091712  0.68680124  1
  O2-  O570  1  0.83013818  0.66426181  0.01342161  1
  O2-  O571  1  0.83657778  0.64918087  0.34975153  1
  O2-  O572  1  0.83881098  0.68253853  0.73382877  1
  O2-  O573  1  0.82828843  0.91328005  0.01153524  1
  O2-  O574  1  0.85592859  0.93193724  0.34905153  1
  O2-  O575  1  0.80531001  0.85867148  0.71605772  1
