# generated using pymatgen
data_H2O
_symmetry_space_group_name_H-M   'P 1'
_cell_length_a   17.99805242
_cell_length_b   18.00089054
_cell_length_c   22.01487644
_cell_angle_alpha   90.01038504
_cell_angle_beta   89.99435046
_cell_angle_gamma   120.00636198
_symmetry_Int_Tables_number   1
_chemical_formula_structural   H2O
_chemical_formula_sum   'H384 O192'
_cell_volume   6176.44438338
_cell_formula_units_Z   192
loop_
 _symmetry_equiv_pos_site_id
 _symmetry_equiv_pos_as_xyz
  1  'x, y, z'
loop_
 _atom_type_symbol
 _atom_type_oxidation_number
  H+  1.0
  O2-  -2.0
loop_
 _atom_site_type_symbol
 _atom_site_label
 _atom_site_symmetry_multiplicity
 _atom_site_fract_x
 _atom_site_fract_y
 _atom_site_fract_z
 _atom_site_occupancy
  H+  H0  1  0.34948954  0.93284477  0.30473559  1
  H+  H1  1  0.86279977  0.13336167  0.00834401  1
  H+  H2  1  0.36287937  0.64028234  0.67494963  1
  H+  H3  1  0.87901296  0.53801682  0.66478662  1
  H+  H4  1  0.65181595  0.06850872  0.23576589  1
  H+  H5  1  0.98083447  0.61375860  0.51435082  1
  H+  H6  1  0.18966717  0.32761850  0.92894047  1
  H+  H7  1  0.62928997  0.79066980  0.46325937  1
  H+  H8  1  0.91780715  0.31884676  0.89623149  1
  H+  H9  1  0.13065744  0.78227848  0.51248560  1
  H+  H10  1  0.07465369  0.17725007  0.76323770  1
  H+  H11  1  0.33190068  0.17797500  0.63773933  1
  H+  H12  1  0.85993582  0.36464152  0.15820726  1
  H+  H13  1  0.73878321  0.11512869  0.83828722  1
  H+  H14  1  -0.08671257  0.32462925  0.55351090  1
  H+  H15  1  0.24758701  0.87137000  0.83253044  1
  H+  H16  1  0.97614017  0.35579228  0.17326317  1
  H+  H17  1  0.37150920  0.15574246  0.48862707  1
  H+  H18  1  0.86250084  0.88434482  0.33006995  1
  H+  H19  1  0.89188659  1.02542273  0.50101533  1
  H+  H20  1  0.84608482  0.62901957  0.16337324  1
  H+  H21  1  0.28858940  0.87794641  0.00661001  1
  H+  H22  1  0.71382618  0.60266453  0.98542074  1
  H+  H23  1  0.97489313  0.36229343  0.49817176  1
  H+  H24  1  0.13210601  0.52554500  0.99928333  1
  H+  H25  1  0.61330941  0.65022177  0.15440951  1
  H+  H26  1  0.37413972  0.70468805  0.49274354  1
  H+  H27  1  0.66645853  0.52834160  0.83336968  1
  H+  H28  1  -0.01579531  0.39132659  0.34717787  1
  H+  H29  1  0.14227396  0.87027546  0.18162640  1
  H+  H30  1  0.62699375  0.51221987  0.68413346  1
  H+  H31  1  0.39817534  0.04793952  0.48315314  1
  H+  H32  1  0.85883670  0.55335398  1.00590084  1
  H+  H33  1  0.55143883  0.86917045  0.84179570  1
  H+  H34  1  0.09893334  0.62947599  0.01575888  1
  H+  H35  1  0.86315076  0.88534544  0.67789082  1
  H+  H36  1  0.25690296  0.38629802  0.49750965  1
  H+  H37  1  0.54492513  0.65094155  0.75464330  1
  H+  H38  1  0.39693837  0.53539230  0.98268220  1
  H+  H39  1  0.66458266  0.37559960  0.67185621  1
  H+  H40  1  0.10853091  0.88792033  0.67178108  1
  H+  H41  1  0.34056458  0.95414495  0.67371019  1
  H+  H42  1  0.83637568  0.70722697  -0.05753070  1
  H+  H43  1  0.63685530  0.87247763  0.17325592  1
  H+  H44  1  0.73422575  0.12185376  0.50402335  1
  H+  H45  1  0.89701108  0.65232634  0.48453958  1
  H+  H46  1  0.78342833  0.89334986  0.47617031  1
  H+  H47  1  0.01039429  0.63478641  0.01433194  1
  H+  H48  1  0.39094590  0.35163786  0.82757293  1
  H+  H49  1  0.52996002  0.36082961  0.48476811  1
  H+  H50  1  0.86851441  0.72640442  0.32635050  1
  H+  H51  1  0.11218608  0.88350667  0.34350847  1
  H+  H52  1  0.39227205  0.82236447  0.50970564  1
  H+  H53  1  0.88688205  -0.02355295  0.14477165  1
  H+  H54  1  0.14293983  0.75248612  0.97856028  1
  H+  H55  1  0.72590497  0.61810595  0.31960920  1
  H+  H56  1  0.65538375  0.82731987  0.65066780  1
  H+  H57  1  0.60261890  0.45193932  0.49869797  1
  H+  H58  1  0.67156947  0.29101065  0.66797302  1
  H+  H59  1  0.54505789  0.36313795  0.71016133  1
  H+  H60  1  0.77381447  0.13454608  0.00908162  1
  H+  H61  1  0.61608971  0.66931188  0.46192684  1
  H+  H62  1  0.60863920  0.65015357  0.32435054  1
  H+  H63  1  0.38708527  1.01445466  0.84071078  1
  H+  H64  1  0.21091580  0.85592959  0.66597888  1
  H+  H65  1  0.90924719  0.86773796  1.06546596  1
  H+  H66  1  0.25208379  0.37842262  0.32227852  1
  H+  H67  1  0.55322950  0.91539353  0.75177364  1
  H+  H68  1  0.73047907  0.87694226  -0.00762328  1
  H+  H69  1  0.27947008  0.88963244  0.16959054  1
  H+  H70  1  0.33691222  0.41636176  0.09859363  1
  H+  H71  1  0.63339774  0.25595315  0.51390173  1
  H+  H72  1  0.88582267  0.26070551  -0.00989673  1
  H+  H73  1  0.11526737  0.37599434  0.15794196  1
  H+  H74  1  0.91185448  0.79191917  0.50162383  1
  H+  H75  1  0.60936945  0.97829881  0.16006930  1
  H+  H76  1  0.98103094  0.12420935  0.83791622  1
  H+  H77  1  0.51988596  0.12639497  0.15951757  1
  H+  H78  1  0.01282731  0.13841552  0.01331145  1
  H+  H79  1  0.77335208  0.88119491  0.69589817  1
  H+  H80  1  0.34694815  0.18666316  0.10598883  1
  H+  H81  1  0.47554801  0.34194346  0.82769664  1
  H+  H82  1  0.46821882  0.41746044  0.51129609  1
  H+  H83  1  0.39260739  0.36745141  0.16963677  1
  H+  H84  1  0.16902308  0.42180578  0.31680220  1
  H+  H85  1  0.57098342  0.91602666  0.39318847  1
  H+  H86  1  -0.01847064  0.11131218  0.17428876  1
  H+  H87  1  0.38591773  0.59839030  0.17676849  1
  H+  H88  1  0.11981782  0.64294889  0.50566237  1
  H+  H89  1  0.56409941  0.17294437  0.66695300  1
  H+  H90  1  0.87378011  0.46675254  0.84310972  1
  H+  H91  1  0.29221577  0.63796733  0.14001287  1
  H+  H92  1  0.29529469  0.16750935  1.02079769  1
  H+  H93  1  0.09996458  0.63755677  0.34959975  1
  H+  H94  1  0.43201239  0.31062209  0.65058657  1
  H+  H95  1  0.38731614  0.13949368  0.32663181  1
  H+  H96  1  0.77930934  0.65260530  0.82170136  1
  H+  H97  1  0.61737068  0.89153491  1.00760539  1
  H+  H98  1  0.11483470  0.77501836  0.66361429  1
  H+  H99  1  0.36198716  0.46785090  0.16221392  1
  H+  H100  1  0.26857324  0.14386244  0.33789549  1
  H+  H101  1  0.35718698  0.21768428  0.83883476  1
  H+  H102  1  0.28651712  0.47180741  0.03883657  1
  H+  H103  1  0.35224675  0.87264900  0.67735564  1
  H+  H104  1  0.60125316  0.37724153  0.01258737  1
  H+  H105  1  0.88412987  0.34831017  -0.01254315  1
  H+  H106  1  0.49565769  0.41234496  0.64739836  1
  H+  H107  1  0.38397096  0.11420750  0.17185805  1
  H+  H108  1  0.80645159  0.40617567  0.67892361  1
  H+  H109  1  0.97604027  0.86149007  0.32360987  1
  H+  H110  1  0.51905849  0.12252379  0.99706367  1
  H+  H111  1  0.22742908  0.61458548  0.51499164  1
  H+  H112  1  0.23098551  0.61683969  0.66411065  1
  H+  H113  1  0.87647123  0.77557189  0.65306622  1
  H+  H114  1  0.43688816  0.84066651  0.89224026  1
  H+  H115  1  0.87896058  0.01547033  0.65766460  1
  H+  H116  1  0.12498836  0.27178743  0.66393049  1
  H+  H117  1  0.89357362  0.79093763  1.01978746  1
  H+  H118  1  0.40372901  0.10414906  0.65187917  1
  H+  H119  1  0.11722349  0.89559774  0.49573208  1
  H+  H120  1  0.35916101  0.64222790  0.83014105  1
  H+  H121  1  0.49014611  0.86501416  0.98128444  1
  H+  H122  1  0.89053032  0.52694898  0.50292495  1
  H+  H123  1  0.52943213  0.17017632  0.34422111  1
  H+  H124  1  -0.01247469  0.87415041  0.83686158  1
  H+  H125  1  0.52437018  0.88461344  0.15402802  1
  H+  H126  1  0.51619096  0.39719823  0.33654595  1
  H+  H127  1  0.13207638  0.37717252  0.31012338  1
  H+  H128  1  0.77442952  0.13134408  0.66864445  1
  H+  H129  1  0.26300493  0.62287734  0.34985653  1
  H+  H130  1  0.24625177  0.66629011  0.86098008  1
  H+  H131  1  0.10243368  0.47647758  0.82316647  1
  H+  H132  1  0.89039520  0.90498819  0.83183695  1
  H+  H133  1  0.14578444  0.29081696  0.83448199  1
  H+  H134  1  0.05538064  0.65900281  0.16736061  1
  H+  H135  1  0.46822363  0.60436066  0.48867443  1
  H+  H136  1  0.86177813  0.13031225  0.66726918  1
  H+  H137  1  0.72153119  0.35704692  0.00283018  1
  H+  H138  1  0.58326371  0.92230177  0.06454890  1
  H+  H139  1  0.38173232  0.48576054  0.82687818  1
  H+  H140  1  0.60241150  0.88401321  0.70749492  1
  H+  H141  1  0.93236102  0.56709751  0.16110713  1
  H+  H142  1  0.36885048  0.24331070  0.48739823  1
  H+  H143  1  0.47622684  0.86916132  0.67032217  1
  H+  H144  1  0.39820565  0.28138248  0.17562296  1
  H+  H145  1  0.87545988  0.26892453  0.32465082  1
  H+  H146  1  0.15049317  1.04027655  0.01557525  1
  H+  H147  1  0.97962227  0.85997762  0.17538916  1
  H+  H148  1  0.35411468  0.37494279  0.68253379  1
  H+  H149  1  1.00759983  0.63627661  0.33733029  1
  H+  H150  1  0.35620808  0.85372690  0.32874127  1
  H+  H151  1  0.97812462  0.11648057  0.50636969  1
  H+  H152  1  0.85096604  0.90360298  -0.00530782  1
  H+  H153  1  0.11704675  0.39061852  0.67147599  1
  H+  H154  1  0.37840417  0.72565928  0.15286351  1
  H+  H155  1  0.88876839  0.35287841  0.83873636  1
  H+  H156  1  0.89029413  1.02274358  0.32378702  1
  H+  H157  1  0.63765652  0.78469891  0.17431167  1
  H+  H158  1  0.14976837  0.78448800  0.17397104  1
  H+  H159  1  0.48923769  0.89808293  0.50811780  1
  H+  H160  1  0.37956539  0.28579507  0.32531909  1
  H+  H161  1  0.28213107  0.31535379  0.30455823  1
  H+  H162  1  0.12097371  -0.02177043  0.82046791  1
  H+  H163  1  0.84081229  0.44277445  0.16114819  1
  H+  H164  1  0.71497207  0.58064109  0.48906054  1
  H+  H165  1  0.87259624  0.13763839  0.16020214  1
  H+  H166  1  0.61500633  0.50004985  0.15863405  1
  H+  H167  1  0.14058716  0.11556886  0.17311088  1
  H+  H168  1  0.81593982  0.67835778  0.72032125  1
  H+  H169  1  0.59055895  0.62602902  0.69970030  1
  H+  H170  1  0.64305450  0.38373169  0.31938510  1
  H+  H171  1  0.72337247  0.61509977  0.16851587  1
  H+  H172  1  0.28160466  0.64107142  0.00570605  1
  H+  H173  1  0.64236379  0.35692095  0.51008050  1
  H+  H174  1  0.16992327  0.60509358  -0.04909076  1
  H+  H175  1  0.88917224  0.26384410  0.17310702  1
  H+  H176  1  0.86912743  0.22274545  0.82041220  1
  H+  H177  1  0.57336562  0.56380899  0.52811794  1
  H+  H178  1  0.57870216  0.43121537  0.86551862  1
  H+  H179  1  0.10272118  0.52038841  0.34963935  1
  H+  H180  1  0.63024817  0.01768034  0.32676791  1
  H+  H181  1  0.02860579  0.89955591  0.02719640  1
  H+  H182  1  0.87075702  0.39464669  0.48561964  1
  H+  H183  1  0.84233681  0.17042458  0.10289918  1
  H+  H184  1  0.12181370  0.98159057  0.17021690  1
  H+  H185  1  1.00949913  0.62580973  0.83616910  1
  H+  H186  1  0.51974367  0.39798173  0.16101967  1
  H+  H187  1  0.91099263  0.57499767  0.92439322  1
  H+  H188  1  0.37913007  0.51131132  0.49789484  1
  H+  H189  1  0.88900189  0.61420304  0.31876634  1
  H+  H190  1  0.63312376  0.01490393  0.66583315  1
  H+  H191  1  0.38362649  0.74953311  0.32666027  1
  H+  H192  1  0.62411481  0.73289367  -0.00027903  1
  H+  H193  1  0.78205810  0.38359489  0.83615816  1
  H+  H194  1  0.62289258  0.12929448  0.99652527  1
  H+  H195  1  0.21440889  0.11178101  0.85420703  1
  H+  H196  1  0.13271052  0.36622944  0.51805522  1
  H+  H197  1  0.37128578  0.88434960  0.82615150  1
  H+  H198  1  0.86318327  0.13500299  0.48927743  1
  H+  H199  1  0.15173878  0.87674835  0.83573601  1
  H+  H200  1  0.11414271  0.46245621  0.14577002  1
  H+  H201  1  0.71193655  0.62025076  0.49672253  1
  H+  H202  1  -0.00805317  0.88449136  0.50597661  1
  H+  H203  1  0.22056497  0.83996865  0.32620448  1
  H+  H204  1  0.28016334  0.14758953  0.16226524  1
  H+  H205  1  0.39850109  0.05991733  0.33947537  1
  H+  H206  1  0.62776839  0.76451790  0.70506454  1
  H+  H207  1  0.12257944  -0.01150666  0.49115693  1
  H+  H208  1  0.87145607  0.65839866  -0.01719825  1
  H+  H209  1  0.83454725  0.16426985  0.39476748  1
  H+  H210  1  0.13327859  0.22360145  0.34097237  1
  H+  H211  1  0.46847370  0.61565003  0.66255878  1
  H+  H212  1  0.01679075  0.88517680  0.67392975  1
  H+  H213  1  0.36762687  0.97715670  0.16537625  1
  H+  H214  1  0.10935762  0.23235809  0.49758813  1
  H+  H215  1  0.84031628  0.63955983  0.66301877  1
  H+  H216  1  0.64316031  0.29662407  0.33086835  1
  H+  H217  1  0.61635065  0.99601560  0.48689139  1
  H+  H218  1  0.60550168  0.88284834  0.33647288  1
  H+  H219  1  0.86509871  0.13756304  0.33455399  1
  H+  H220  1  0.28866859  0.40191965  0.83573827  1
  H+  H221  1  0.61369304  0.90601389  0.47783877  1
  H+  H222  1  0.91860891  0.83359045  0.26233354  1
  H+  H223  1  0.01995449  0.38296557  0.82683698  1
  H+  H224  1  0.36050492  0.61221167  0.49288934  1
  H+  H225  1  0.86524030  0.22571392  0.48435196  1
  H+  H226  1  0.60075242  0.41610422  0.76557340  1
  H+  H227  1  0.87191241  0.89165987  0.48784981  1
  H+  H228  1  0.50624886  0.14133564  0.82217047  1
  H+  H229  1  0.86406811  0.57088514  0.85900658  1
  H+  H230  1  0.15186260  0.61549295  0.15303866  1
  H+  H231  1  0.20681402  0.74886862  0.93139679  1
  H+  H232  1  0.85638788  0.72232009  0.16376551  1
  H+  H233  1  0.65026455  0.11323432  0.84159846  1
  H+  H234  1  0.39884350  0.62369432  0.98023689  1
  H+  H235  1  0.64384123  0.36701739  0.85315969  1
  H+  H236  1  0.63701611  0.01979030  0.99501507  1
  H+  H237  1  0.13856942  1.02089271  0.32755619  1
  H+  H238  1  0.66249144  0.83884940  0.52420849  1
  H+  H239  1  0.15216687  0.65578206  0.85695006  1
  H+  H240  1  0.38131359  0.92537922  0.48041063  1
  H+  H241  1  -0.01883665  0.35709948  0.64452886  1
  H+  H242  1  0.11897967  0.22685785  0.16485694  1
  H+  H243  1  0.11712114  0.90053419  0.01240604  1
  H+  H244  1  0.38716356  0.85688326  0.17406151  1
  H+  H245  1  0.97894144  0.11230113  0.32542239  1
  H+  H246  1  0.11777222  0.01443407  0.66121786  1
  H+  H247  1  0.14683967  0.37868549  0.84033367  1
  H+  H248  1  0.08725242  0.71841574  0.82091252  1
  H+  H249  1  0.72282489  0.87037413  0.32178053  1
  H+  H250  1  0.36404590  0.72949240  0.67767504  1
  H+  H251  1  0.27694682  0.39207426  1.00246541  1
  H+  H252  1  0.00411460  0.13402822  0.67125494  1
  H+  H253  1  0.62294522  0.14365900  0.50051228  1
  H+  H254  1  0.77434212  0.40233666  0.33346349  1
  H+  H255  1  0.11872148  0.48865062  0.51158304  1
  H+  H256  1  0.15842347  0.82057963  0.26788192  1
  H+  H257  1  1.02398942  0.38504038  0.99700183  1
  H+  H258  1  0.10346177  0.14183788  0.02055077  1
  H+  H259  1  0.19387642  0.10747552  0.67487750  1
  H+  H260  1  0.64449265  0.10808978  0.66217615  1
  H+  H261  1  0.34045335  0.38125099  0.48389496  1
  H+  H262  1  0.85703101  0.39018992  0.33071236  1
  H+  H263  1  0.53082732  0.14497193  0.49779965  1
  H+  H264  1  0.56997994  0.75065686  0.84763106  1
  H+  H265  1  0.37873692  0.09763762  0.85667483  1
  H+  H266  1  0.11151420  0.15065823  0.81974657  1
  H+  H267  1  0.59330846  0.46100872  0.00323796  1
  H+  H268  1  0.62396510  0.09950242  0.17578531  1
  H+  H269  1  0.09130448  0.13240230  0.67159102  1
  H+  H270  1  0.57669069  0.42620096  0.09588145  1
  H+  H271  1  0.39894818  0.02285649  1.00096210  1
  H+  H272  1  0.87448270  0.67187361  0.80501322  1
  H+  H273  1  0.33408509  0.55110904  0.33507597  1
  H+  H274  1  0.40363706  0.77357693  0.97595914  1
  H+  H275  1  0.62892916  0.60771713  0.98483551  1
  H+  H276  1  0.67481633  0.08632887  0.56493373  1
  H+  H277  1  0.87357738  0.46315432  1.00790172  1
  H+  H278  1  0.87273097  0.01709342  0.99658178  1
  H+  H279  1  0.40331018  0.44865632  0.33471060  1
  H+  H280  1  0.13438217  0.10785084  0.32990078  1
  H+  H281  1  0.64852881  0.28004762  0.85109826  1
  H+  H282  1  0.53420269  0.64544064  -0.00376728  1
  H+  H283  1  0.45701478  0.05581092  0.64049396  1
  H+  H284  1  0.22008183  0.34818423  0.67208147  1
  H+  H285  1  0.72010072  0.10454063  0.32621667  1
  H+  H286  1  0.15457156  0.27161732  0.98987674  1
  H+  H287  1  0.88651972  1.00292250  0.83067331  1
  H+  H288  1  0.90546975  0.56710364  0.23083779  1
  H+  H289  1  0.42185835  0.35071380  0.56014455  1
  H+  H290  1  0.61714851  0.22220123  0.00086210  1
  H+  H291  1  0.42930052  0.07311388  0.93730275  1
  H+  H292  1  0.99745394  0.65073744  0.67106648  1
  H+  H293  1  0.90975854  0.32859669  0.26441146  1
  H+  H294  1  0.58096930  0.42036018  0.39241969  1
  H+  H295  1  0.08966540  0.91440977  0.76319505  1
  H+  H296  1  0.59483163  0.17961751  0.73428334  1
  H+  H297  1  0.53905705  0.23343370  0.79555390  1
  H+  H298  1  0.07247438  0.39701623  0.35896140  1
  H+  H299  1  0.67572940  0.58206874  0.89306203  1
  H+  H300  1  0.36046863  0.19608684  0.70513090  1
  H+  H301  1  0.17226292  0.59215483  0.57817908  1
  H+  H302  1  0.60738545  0.21347714  0.16433040  1
  H+  H303  1  0.32930818  0.18062905  0.39704153  1
  H+  H304  1  0.85183628  0.67214655  0.38628186  1
  H+  H305  1  0.58950848  0.19057653  0.40259874  1
  H+  H306  1  0.91662964  0.07542652  0.22959384  1
  H+  H307  1  0.09654595  0.92289687  0.11157033  1
  H+  H308  1  0.17940470  0.82589534  0.89458827  1
  H+  H309  1  0.84118747  0.91870122  0.39031059  1
  H+  H310  1  0.71550268  0.33803063  0.17020749  1
  H+  H311  1  0.08758875  0.17095577  0.40124689  1
  H+  H312  1  0.84385034  0.43017884  0.42866303  1
  H+  H313  1  0.66468661  0.32809413  0.23087875  1
  H+  H314  1  0.67396476  0.08082747  0.93509263  1
  H+  H315  1  0.63383180  0.53337254  0.32251218  1
  H+  H316  1  0.11389076  0.14587701  0.49549004  1
  H+  H317  1  0.33105575  0.64577037  0.40179267  1
  H+  H318  1  0.37703374  0.54569467  0.23795891  1
  H+  H319  1  0.41357469  0.34316465  0.26410567  1
  H+  H320  1  0.32311026  0.38806671  0.74721741  1
  H+  H321  1  0.14173105  0.52801231  0.66013578  1
  H+  H322  1  0.88964862  0.52331632  0.32361792  1
  H+  H323  1  0.85372539  0.93185120  0.76932022  1
  H+  H324  1  0.15561840  0.84201619  0.57006648  1
  H+  H325  1  0.65999358  0.76672664  0.58123936  1
  H+  H326  1  0.08040065  0.16931064  0.10551086  1
  H+  H327  1  0.83490685  0.40099159  0.06593231  1
  H+  H328  1  0.41238173  0.08424794  0.55061542  1
  H+  H329  1  0.59302757  0.68229287  0.09395399  1
  H+  H330  1  0.12090738  0.06677063  0.88725315  1
  H+  H331  1  0.66061819  0.58400120  0.22771107  1
  H+  H332  1  0.33069938  0.91610369  0.07182548  1
  H+  H333  1  0.81869554  0.66686830  0.47760975  1
  H+  H334  1  0.42600150  0.85337838  0.60687463  1
  H+  H335  1  0.84373092  0.92573251  0.08273375  1
  H+  H336  1  0.07882356  0.41738116  0.72663203  1
  H+  H337  1  0.16368693  0.33207951  0.57479550  1
  H+  H338  1  0.18820720  0.32898340  0.23068135  1
  H+  H339  1  0.19031479  0.11265185  0.96491470  1
  H+  H340  1  0.41538566  0.81947603  0.23000084  1
  H+  H341  1  0.91641773  0.08828322  0.94032876  1
  H+  H342  1  0.66204137  0.84401116  0.26146046  1
  H+  H343  1  0.08520236  0.91918483  0.40078273  1
  H+  H344  1  0.17136343  0.08790549  0.23319222  1
  H+  H345  1  0.35105858  0.93357682  0.41388156  1
  H+  H346  1  0.08581956  0.43524317  0.45058187  1
  H+  H347  1  0.61081630  0.74100458  0.32375446  1
  H+  H348  1  0.65618954  0.83826292  0.83301363  1
  H+  H349  1  0.05841868  0.66463219  0.72794769  1
  H+  H350  1  0.61541979  0.76191554  0.58238495  1
  H+  H351  1  0.11032145  0.73840900  0.33544460  1
  H+  H352  1  0.44175946  0.60241959  0.88947375  1
  H+  H353  1  0.08500001  0.66975821  0.44724282  1
  H+  H354  1  0.41787210  0.58857198  0.59942876  1
  H+  H355  1  0.65550591  0.83628288  0.93821512  1
  H+  H356  1  0.89952037  0.58686589  0.59946802  1
  H+  H357  1  0.66732684  0.33273224  0.94237130  1
  H+  H358  1  0.14528712  0.58004294  0.29215245  1
  H+  H359  1  0.31869822  0.66097390  0.77321407  1
  H+  H360  1  0.89470869  0.26686344  0.64630556  1
  H+  H361  1  0.31018140  0.13213279  0.79977817  1
  H+  H362  1  0.41449898  0.09005523  0.23249264  1
  H+  H363  1  0.59951141  0.53396038  0.58779531  1
  H+  H364  1  0.89365800  0.86304389  0.16556888  1
  H+  H365  1  0.44450959  0.31694187  1.01312348  1
  H+  H366  1  0.23622703  0.35985576  0.16792628  1
  H+  H367  1  0.83703351  0.16275658  0.76025471  1
  H+  H368  1  0.67353226  0.33290021  0.57611965  1
  H+  H369  1  0.16815244  0.09173207  0.56602320  1
  H+  H370  1  0.70089065  0.60423472  0.66254603  1
  H+  H371  1  0.47007556  0.84431724  0.32691117  1
  H+  H372  1  0.08896458  0.67576490  0.09760056  1
  H+  H373  1  0.91916575  0.84342465  0.59863308  1
  H+  H374  1  0.23167995  0.12806084  0.50813299  1
  H+  H375  1  0.33182137  0.90750125  0.76702638  1
  H+  H376  1  0.08011044  0.40639722  0.05629057  1
  H+  H377  1  0.88689748  0.11471887  0.83430884  1
  H+  H378  1  0.85368612  0.43839553  0.74181061  1
  H+  H379  1  0.57203147  0.68011979  0.40108447  1
  H+  H380  1  0.35431354  0.67317780  0.05638232  1
  H+  H381  1  0.18994764  0.57717978  0.20062544  1
  H+  H382  1  0.89245853  0.79429249  0.83284623  1
  H+  H383  1  0.90924386  0.07356545  0.59561071  1
  O2-  O384  1  0.08756644  0.16592449  0.15064175  1
  O2-  O385  1  0.08091115  0.17280136  0.47982908  1
  O2-  O386  1  0.08096266  0.18154992  0.80878169  1
  O2-  O387  1  0.08046249  0.39971994  0.14017794  1
  O2-  O388  1  0.09038006  0.42830467  0.49438483  1
  O2-  O389  1  0.08064326  0.41728803  0.81048686  1
  O2-  O390  1  0.10720739  0.68134019  0.14283665  1
  O2-  O391  1  0.08610107  0.67100272  0.49164887  1
  O2-  O392  1  0.06616992  0.65732158  0.81470591  1
  O2-  O393  1  0.09358484  0.91972970  0.15674675  1
  O2-  O394  1  0.08963922  0.92817023  0.47667568  1
  O2-  O395  1  0.09703685  0.91683327  0.80901932  1
  O2-  O396  1  0.34241789  0.17918459  0.15124179  1
  O2-  O397  1  0.33616204  0.18220694  0.47624443  1
  O2-  O398  1  0.31879091  0.15054628  0.84209622  1
  O2-  O399  1  0.33680907  0.40780732  0.14342873  1
  O2-  O400  1  0.31391757  0.41641155  0.47627063  1
  O2-  O401  1  0.34820805  0.42281552  0.82054927  1
  O2-  O402  1  0.35499530  0.66708855  0.13415837  1
  O2-  O403  1  0.33274490  0.64751186  0.47858217  1
  O2-  O404  1  0.31196453  0.65169812  0.81782267  1
  O2-  O405  1  0.33833240  0.91501285  0.15292692  1
  O2-  O406  1  0.35862173  0.95544031  0.45582516  1
  O2-  O407  1  0.33400921  0.90993211  0.81309147  1
  O2-  O408  1  0.58060467  0.15393723  0.14763655  1
  O2-  O409  1  0.59428040  0.17795607  0.48844876  1
  O2-  O410  1  0.55686212  0.19064187  0.80072418  1
  O2-  O411  1  0.57938006  0.43446659  0.14197991  1
  O2-  O412  1  0.59157293  0.39930921  0.47621849  1
  O2-  O413  1  0.58807958  0.40137334  0.83207415  1
  O2-  O414  1  0.59135818  0.68665748  0.13871688  1
  O2-  O415  1  0.57296319  0.68445354  0.45049034  1
  O2-  O416  1  0.52807632  0.65633725  0.82519839  1
  O2-  O417  1  0.58347879  0.91876019  0.13833248  1
  O2-  O418  1  0.57944589  0.93545363  0.47224077  1
  O2-  O419  1  0.52444095  0.90329446  0.82677769  1
  O2-  O420  1  0.84962295  0.17532720  0.14768290  1
  O2-  O421  1  0.83114745  0.16279293  0.47306171  1
  O2-  O422  1  0.83821033  0.16149425  0.80598171  1
  O2-  O423  1  0.82489229  0.38891367  0.13950748  1
  O2-  O424  1  0.84752624  0.43242729  0.47351970  1
  O2-  O425  1  0.84243266  0.41084060  0.82082431  1
  O2-  O426  1  0.82028344  0.66260816  0.14852442  1
  O2-  O427  1  0.87847425  0.69185543  0.46439030  1
  O2-  O428  1  0.83587930  0.69473887  0.80004648  1
  O2-  O429  1  0.87063988  0.92217608  0.12277009  1
  O2-  O430  1  0.84612241  0.92444054  0.46899525  1
  O2-  O431  1  0.85900402  0.93730000  0.81556231  1
  O2-  O432  1  0.17319017  0.08691164  0.18786476  1
  O2-  O433  1  0.17047813  0.09514319  0.52106658  1
  O2-  O434  1  0.14997988  0.08029959  0.84804379  1
  O2-  O435  1  0.17723088  0.33231325  0.18701929  1
  O2-  O436  1  0.15986959  0.33133502  0.52911880  1
  O2-  O437  1  0.17873153  0.34909021  0.85248151  1
  O2-  O438  1  0.17903261  0.57896887  0.15754261  1
  O2-  O439  1  0.16839524  0.59104744  0.53054856  1
  O2-  O440  1  0.19983020  0.66858343  0.88547299  1
  O2-  O441  1  0.17156675  0.83839260  0.19787542  1
  O2-  O442  1  0.15639724  0.84309888  0.52489598  1
  O2-  O443  1  0.18213006  0.84368360  0.84830393  1
  O2-  O444  1  0.40808338  0.07892887  0.18828587  1
  O2-  O445  1  0.42548120  0.10350501  0.50789618  1
  O2-  O446  1  0.41824041  0.07391246  0.85776387  1
  O2-  O447  1  0.42765691  0.34336188  0.18861251  1
  O2-  O448  1  0.42664882  0.35551468  0.51488174  1
  O2-  O449  1  0.41169230  0.31006844  0.82260341  1
  O2-  O450  1  0.39683073  0.55479071  0.19554090  1
  O2-  O451  1  0.41524836  0.57300656  0.51316826  1
  O2-  O452  1  0.43716938  0.60292783  0.84380809  1
  O2-  O453  1  0.41513244  0.82270670  0.18502397  1
  O2-  O454  1  0.43098763  0.87777409  0.52798309  1
  O2-  O455  1  0.43391897  0.84701762  0.84415772  1
  O2-  O456  1  0.64748062  0.06256399  0.19070075  1
  O2-  O457  1  0.67326669  0.09403801  0.52015461  1
  O2-  O458  1  0.68119425  0.08643257  0.85830849  1
  O2-  O459  1  0.65733465  0.31710336  0.18657072  1
  O2-  O460  1  0.66636794  0.32291716  0.53045824  1
  O2-  O461  1  0.68034114  0.33894420  0.86691989  1
  O2-  O462  1  0.66044292  0.58212246  0.18213773  1
  O2-  O463  1  0.57234190  0.51407479  0.54649640  1
  O2-  O464  1  0.69268674  0.58727053  0.84924566  1
  O2-  O465  1  0.66383079  0.84244918  0.19391843  1
  O2-  O466  1  0.66682941  0.85039903  0.48054744  1
  O2-  O467  1  0.60507617  0.81580715  0.85831230  1
  O2-  O468  1  0.91934329  0.07610088  0.18441163  1
  O2-  O469  1  0.91669033  0.08343061  0.52015384  1
  O2-  O470  1  0.91986763  0.08711142  0.85156991  1
  O2-  O471  1  0.91645100  0.32683707  0.18924416  1
  O2-  O472  1  0.91257448  0.32775580  0.50713432  1
  O2-  O473  1  0.92037549  0.32205632  0.85033680  1
  O2-  O474  1  0.88439788  0.55473926  0.18767368  1
  O2-  O475  1  0.91764724  0.58725807  0.52096453  1
  O2-  O476  1  0.91264070  0.56659721  0.87410848  1
  O2-  O477  1  0.91816155  0.83039183  0.18739704  1
  O2-  O478  1  0.93010354  0.84926618  0.51975971  1
  O2-  O479  1  0.92773480  0.85286645  0.85064743  1
  O2-  O480  1  0.16783466  0.08163773  0.31292676  1
  O2-  O481  1  0.14599114  0.07676742  0.64709785  1
  O2-  O482  1  0.18183962  0.10396463  1.00849521  1
  O2-  O483  1  0.22944931  0.31879804  0.30832953  1
  O2-  O484  1  0.16411192  0.33204819  0.65093726  1
  O2-  O485  1  0.20703353  0.31295757  0.96787081  1
  O2-  O486  1  0.14481148  0.58283868  0.33631744  1
  O2-  O487  1  0.17269983  0.58835406  0.64545710  1
  O2-  O488  1  0.16264342  0.59026106  0.99495288  1
  O2-  O489  1  0.15802366  0.81469526  0.31443008  1
  O2-  O490  1  0.15292458  0.83750876  0.64959743  1
  O2-  O491  1  0.19188776  0.79033423  0.95116890  1
  O2-  O492  1  0.42082532  0.11069574  0.31395130  1
  O2-  O493  1  0.40364819  0.05523521  0.63133894  1
  O2-  O494  1  0.43573619  0.08108516  0.98185171  1
  O2-  O495  1  0.40469193  0.34562715  0.30912365  1
  O2-  O496  1  0.43879482  0.36564146  0.63618706  1
  O2-  O497  1  0.38159601  0.28446221  1.00636469  1
  O2-  O498  1  0.33427487  0.50031407  0.31632900  1
  O2-  O499  1  0.41086799  0.58972985  0.64369375  1
  O2-  O500  1  0.43049000  0.59436992  0.96561382  1
  O2-  O501  1  0.40820364  0.80946191  0.31178158  1
  O2-  O502  1  0.41790406  0.84149744  0.65113538  1
  O2-  O503  1  0.43543090  0.83170690  0.95772701  1
  O2-  O504  1  0.65953103  0.07809202  0.31347042  1
  O2-  O505  1  0.66519725  0.07118641  0.64444420  1
  O2-  O506  1  0.66913866  0.08213086  0.98039652  1
  O2-  O507  1  0.67626508  0.35490820  0.31022376  1
  O2-  O508  1  0.69083965  0.34747543  0.64830898  1
  O2-  O509  1  0.66116853  0.32759610  0.98794418  1
  O2-  O510  1  0.66585265  0.59228261  0.30492853  1
  O2-  O511  1  0.63729172  0.56323821  0.65994241  1
  O2-  O512  1  0.65375063  0.57054091  0.97109165  1
  O2-  O513  1  0.66185384  0.84278063  0.30910898  1
  O2-  O514  1  0.66240636  0.82855059  0.69471779  1
  O2-  O515  1  0.66485696  0.83668799  0.98232694  1
  O2-  O516  1  0.91931316  0.08397412  0.30986330  1
  O2-  O517  1  0.90759842  0.07495364  0.64139629  1
  O2-  O518  1  0.91427605  0.08534479  0.98492054  1
  O2-  O519  1  0.90271929  0.33027045  0.30995616  1
  O2-  O520  1  0.92445524  0.32225518  0.62464736  1
  O2-  O521  1  0.91552369  0.32026095  0.97125596  1
  O2-  O522  1  0.92339878  0.58550145  0.30714164  1
  O2-  O523  1  0.89453327  0.59428895  0.64396274  1
  O2-  O524  1  0.91206355  0.59165613  0.98481427  1
  O2-  O525  1  0.91606738  0.83001546  0.30813863  1
  O2-  O526  1  0.91363459  0.83847797  0.64403899  1
  O2-  O527  1  0.93019248  0.85337075  1.02830377  1
  O2-  O528  1  0.07320468  0.17339691  0.03003407  1
  O2-  O529  1  0.08984921  0.16616682  0.35599364  1
  O2-  O530  1  0.06435640  0.16464428  0.68786599  1
  O2-  O531  1  0.08331722  0.42125775  0.01278494  1
  O2-  O532  1  0.04193321  0.42746940  0.36963100  1
  O2-  O533  1  0.08339959  0.41943644  0.68179964  1
  O2-  O534  1  0.07264058  0.66553889  0.02800004  1
  O2-  O535  1  0.06958241  0.67185863  0.35669573  1
  O2-  O536  1  0.05780706  0.68284599  0.68596662  1
  O2-  O537  1  0.09453228  0.93343462  0.03227704  1
  O2-  O538  1  0.08337879  0.91575670  0.35492135  1
  O2-  O539  1  0.07756518  0.91853988  0.68869916  1
  O2-  O540  1  0.35810365  0.19860347  0.02937372  1
  O2-  O541  1  0.32978367  0.18178548  0.35169772  1
  O2-  O542  1  0.38152464  0.19540369  0.66430831  1
  O2-  O543  1  0.32039593  0.44586299  0.02633815  1
  O2-  O544  1  0.40409466  0.50020443  0.35135062  1
  O2-  O545  1  0.30324443  0.35602870  0.70806034  1
  O2-  O546  1  0.34475543  0.66983999  0.01132579  1
  O2-  O547  1  0.32394826  0.64107171  0.35644435  1
  O2-  O548  1  0.33339298  0.67003799  0.69317481  1
  O2-  O549  1  0.33244690  0.92878420  0.02787647  1
  O2-  O550  1  0.32537250  0.88850588  0.33602044  1
  O2-  O551  1  0.31706380  0.89797093  0.69392596  1
  O2-  O552  1  0.58785452  0.15861344  0.00882419  1
  O2-  O553  1  0.58807803  0.20604282  0.36014455  1
  O2-  O554  1  0.61363734  0.18216337  0.69073901  1
  O2-  O555  1  0.56726044  0.40489038  0.02493034  1
  O2-  O556  1  0.57781579  0.42805320  0.34833181  1
  O2-  O557  1  0.60146594  0.41277788  0.71769310  1
  O2-  O558  1  0.59416557  0.67025365  0.01140082  1
  O2-  O559  1  0.57699285  0.67915732  0.33768291  1
  O2-  O560  1  0.56461746  0.66150555  0.70998230  1
  O2-  O561  1  0.58584118  0.92281556  0.01838270  1
  O2-  O562  1  0.56608380  0.90542620  0.34877046  1
  O2-  O563  1  0.57210448  0.91742003  0.70839155  1
  O2-  O564  1  0.83491119  0.16727961  0.02240679  1
  O2-  O565  1  0.83503614  0.16796973  0.34948444  1
  O2-  O566  1  0.83442516  0.16274338  0.68381121  1
  O2-  O567  1  0.83396823  0.40352641  0.01985226  1
  O2-  O568  1  0.83700524  0.42958518  0.34597053  1
  O2-  O569  1  0.86013014  0.45017629  0.69751802  1
  O2-  O570  1  0.83642832  0.68847932  -0.01601878  1
  O2-  O571  1  0.84048258  0.66533107  0.34168573  1
  O2-  O572  1  0.80930890  0.67155133  0.67549348  1
  O2-  O573  1  0.82115036  0.93149500  0.01196373  1
  O2-  O574  1  0.83497251  0.91712134  0.34528405  1
  O2-  O575  1  0.83735488  0.91734924  0.69846415  1
