# generated using pymatgen
data_H2O
_symmetry_space_group_name_H-M   'P 1'
_cell_length_a   17.99341209
_cell_length_b   17.99006258
_cell_length_c   22.00800485
_cell_angle_alpha   90.00599652
_cell_angle_beta   89.98220440
_cell_angle_gamma   119.98067507
_symmetry_Int_Tables_number   1
_chemical_formula_structural   H2O
_chemical_formula_sum   'H384 O192'
_cell_volume   6170.80781555
_cell_formula_units_Z   192
loop_
 _symmetry_equiv_pos_site_id
 _symmetry_equiv_pos_as_xyz
  1  'x, y, z'
loop_
 _atom_type_symbol
 _atom_type_oxidation_number
  H+  1.0
  O2-  -2.0
loop_
 _atom_site_type_symbol
 _atom_site_label
 _atom_site_symmetry_multiplicity
 _atom_site_fract_x
 _atom_site_fract_y
 _atom_site_fract_z
 _atom_site_occupancy
  H+  H0  1  0.34994525  0.38460938  -0.00243310  1
  H+  H1  1  0.12356553  0.85840348  0.32403521  1
  H+  H2  1  0.97371335  0.85634522  0.84833564  1
  H+  H3  1  0.77120318  0.64949297  0.16154585  1
  H+  H4  1  0.77231102  0.64143638  0.66994809  1
  H+  H5  1  0.61069931  0.21396381  0.49531644  1
  H+  H6  1  0.10487281  0.63504477  0.34398803  1
  H+  H7  1  0.61255870  0.73627882  0.49459034  1
  H+  H8  1  0.58098227  0.69694444  0.07147504  1
  H+  H9  1  0.69920909  0.33064781  1.00703739  1
  H+  H10  1  0.85851382  0.98497518  0.67270040  1
  H+  H11  1  0.37128265  0.53638562  -0.00456243  1
  H+  H12  1  0.88732251  0.60926282  0.51096152  1
  H+  H13  1  0.76596057  0.62493165  0.49996722  1
  H+  H14  1  0.60696454  0.13105104  0.67257381  1
  H+  H15  1  0.60648986  0.88537432  0.49349149  1
  H+  H16  1  0.52274785  0.13685670  0.17056464  1
  H+  H17  1  0.62444070  0.95249984  0.17370631  1
  H+  H18  1  0.03054979  0.37811810  0.81409546  1
  H+  H19  1  0.84983917  0.87010310  0.48400518  1
  H+  H20  1  0.62760635  0.88889924  0.82021349  1
  H+  H21  1  -0.02567335  0.86951086  -0.00323499  1
  H+  H22  1  0.34316540  0.98332551  0.66672603  1
  H+  H23  1  0.63504990  0.10798234  0.50949250  1
  H+  H24  1  0.60558216  0.87094685  -0.00964544  1
  H+  H25  1  0.53619753  0.39154546  0.82800208  1
  H+  H26  1  0.98259268  0.34411900  0.51915459  1
  H+  H27  1  0.87066426  0.48161437  0.03330791  1
  H+  H28  1  0.35241624  0.48858607  0.49088363  1
  H+  H29  1  1.02807273  0.65186952  0.82202638  1
  H+  H30  1  0.61633593  0.96103599  0.01284626  1
  H+  H31  1  0.25325351  0.41919210  0.48155332  1
  H+  H32  1  0.01602697  0.63435072  0.33900410  1
  H+  H33  1  0.87594155  0.11866395  0.32349879  1
  H+  H34  1  0.22746156  0.37168855  0.65540882  1
  H+  H35  1  0.77904264  0.39159073  0.34477557  1
  H+  H36  1  0.10183952  0.21838740  0.14583438  1
  H+  H37  1  0.61508364  0.49182027  0.32969021  1
  H+  H38  1  0.40591162  0.51841153  0.15390666  1
  H+  H39  1  0.13534736  0.56455575  0.27936394  1
  H+  H40  1  0.48621274  0.88566196  0.99410342  1
  H+  H41  1  0.87819265  0.12128297  0.51056203  1
  H+  H42  1  0.14198072  0.35783569  0.16560117  1
  H+  H43  1  0.88661838  0.27805482  0.16388956  1
  H+  H44  1  0.38227605  0.61957308  0.49986487  1
  H+  H45  1  0.38252113  0.61365516  0.82256163  1
  H+  H46  1  0.10516312  0.38342185  0.34941751  1
  H+  H47  1  0.11866999  0.23022636  0.99526658  1
  H+  H48  1  0.37340504  0.22710305  0.34819852  1
  H+  H49  1  0.47770807  0.36995627  0.32412425  1
  H+  H50  1  -0.02425356  0.12215724  0.66320619  1
  H+  H51  1  0.98046353  0.61231719  0.51255813  1
  H+  H52  1  0.78066578  0.38569049  0.67381248  1
  H+  H53  1  0.10908798  0.97338748  0.49061023  1
  H+  H54  1  0.86682977  0.90218797  0.66590900  1
  H+  H55  1  0.21642081  0.10254122  0.98963473  1
  H+  H56  1  0.90040408  0.72501218  0.36382592  1
  H+  H57  1  0.68060867  0.51826545  0.99854751  1
  H+  H58  1  0.83747816  0.39457270  0.43833742  1
  H+  H59  1  0.23445189  0.09749856  0.83184746  1
  H+  H60  1  0.51850818  0.13737118  0.82346505  1
  H+  H61  1  0.44302008  0.32693259  0.09938967  1
  H+  H62  1  0.10607597  0.63787478  0.82784182  1
  H+  H63  1  0.91188853  0.85498268  0.22064058  1
  H+  H64  1  0.57972928  0.34134404  0.01687394  1
  H+  H65  1  0.85729522  0.87364918  0.82371369  1
  H+  H66  1  0.08750195  0.61873073  1.00310070  1
  H+  H67  1  0.50076765  0.86649095  0.84448231  1
  H+  H68  1  0.13815939  0.12689471  0.50117458  1
  H+  H69  1  0.27199371  0.37324977  0.15587972  1
  H+  H70  1  0.37313181  0.09439346  0.82975271  1
  H+  H71  1  0.21662559  0.85548658  0.51005343  1
  H+  H72  1  0.67454148  0.53003208  0.03046346  1
  H+  H73  1  0.57763931  0.16935499  0.76422265  1
  H+  H74  1  0.63861538  0.36593433  0.18207083  1
  H+  H75  1  0.14665584  -0.00162592  0.15606368  1
  H+  H76  1  0.26619829  0.13402631  0.16479802  1
  H+  H77  1  0.64608602  0.64246140  0.18495895  1
  H+  H78  1  0.23613397  0.38198447  0.32290679  1
  H+  H79  1  0.62545265  0.39254748  0.83483938  1
  H+  H80  1  0.18172810  0.56777049  0.97970482  1
  H+  H81  1  0.62045290  0.13922425  0.33172469  1
  H+  H82  1  0.12438477  0.86739076  0.84396308  1
  H+  H83  1  0.37165792  0.65785601  0.00600148  1
  H+  H84  1  0.24382170  0.86695944  0.18378181  1
  H+  H85  1  0.45013371  0.33340119  0.98896644  1
  H+  H86  1  0.97688803  0.11049062  0.83979976  1
  H+  H87  1  0.76981723  0.12953457  0.49863930  1
  H+  H88  1  0.33853622  0.10257031  0.01305523  1
  H+  H89  1  -0.02675364  0.85105148  0.49630731  1
  H+  H90  1  0.63647671  0.62572118  0.33256484  1
  H+  H91  1  0.11584174  0.13142442  -0.00591507  1
  H+  H92  1  0.31206793  0.28449654  0.56392587  1
  H+  H93  1  0.86490259  0.74164888  0.00854227  1
  H+  H94  1  0.62652346  -0.02069982  0.81726622  1
  H+  H95  1  0.62704233  0.63894433  0.99938970  1
  H+  H96  1  0.12242188  0.97446164  0.83241478  1
  H+  H97  1  0.88468431  0.36413441  1.00173285  1
  H+  H98  1  0.88709198  0.40065757  0.82269542  1
  H+  H99  1  0.85883121  0.89699523  1.00560999  1
  H+  H100  1  0.39167916  0.62392822  0.33734758  1
  H+  H101  1  0.72109300  0.11206129  0.32524981  1
  H+  H102  1  0.11509062  0.14359954  0.66995850  1
  H+  H103  1  0.23189339  0.60701099  0.49719949  1
  H+  H104  1  0.11436139  0.23022207  0.66789385  1
  H+  H105  1  0.86408414  0.72667348  0.66893771  1
  H+  H106  1  0.44633705  0.35090011  0.52266469  1
  H+  H107  1  0.12765410  0.76117416  0.65844414  1
  H+  H108  1  0.18825544  0.61419332  0.19466094  1
  H+  H109  1  0.88514139  0.12185829  0.66745591  1
  H+  H110  1  0.56153537  0.15249936  0.07545127  1
  H+  H111  1  0.56544463  0.17865637  0.30673640  1
  H+  H112  1  0.88446227  0.76841465  0.84440464  1
  H+  H113  1  0.63466815  0.86024311  0.65590286  1
  H+  H114  1  1.01435566  0.12591477  0.14543377  1
  H+  H115  1  0.60871688  0.97446759  0.50109286  1
  H+  H116  1  0.82877209  0.16727710  0.39833294  1
  H+  H117  1  0.39153801  0.53466779  0.33126983  1
  H+  H118  1  0.82092737  0.92959206  0.09197547  1
  H+  H119  1  0.96647523  0.35483940  0.32644892  1
  H+  H120  1  0.38162955  0.10275412  0.18688086  1
  H+  H121  1  0.64263786  0.37792457  0.32603964  1
  H+  H122  1  0.36138574  0.37426575  0.14452436  1
  H+  H123  1  0.63518643  1.01932451  0.66253185  1
  H+  H124  1  0.58217014  0.66916710  0.40116530  1
  H+  H125  1  0.11176913  0.37604008  0.65840330  1
  H+  H126  1  0.03901245  0.49058271  0.84634349  1
  H+  H127  1  0.64784696  0.53023310  0.66826145  1
  H+  H128  1  0.61746658  0.72850573  0.66833626  1
  H+  H129  1  0.33425927  0.16207346  0.42570300  1
  H+  H130  1  0.22667635  0.86247634  0.99775047  1
  H+  H131  1  0.66022749  0.35034886  0.50454347  1
  H+  H132  1  0.37936459  0.40391933  0.82133535  1
  H+  H133  1  0.13775278  0.59843712  0.49972901  1
  H+  H134  1  0.76949952  0.66743497  0.00589349  1
  H+  H135  1  0.12101695  0.76556981  0.32520678  1
  H+  H136  1  -0.02162857  0.35750479  0.66253676  1
  H+  H137  1  0.90469408  0.57493574  0.26656950  1
  H+  H138  1  0.12595792  0.01692517  0.98754863  1
  H+  H139  1  0.44607521  0.35530856  0.62200798  1
  H+  H140  1  0.25511587  0.86989625  0.34771950  1
  H+  H141  1  0.48114648  0.62184832  0.65364903  1
  H+  H142  1  0.61344918  0.73273192  0.82271117  1
  H+  H143  1  0.35982425  0.25117842  0.98387801  1
  H+  H144  1  0.11142249  0.88502029  0.49037002  1
  H+  H145  1  0.91811539  0.09979598  0.57724615  1
  H+  H146  1  0.47201773  0.11569292  0.65988818  1
  H+  H147  1  0.85612122  0.22829657  0.33854657  1
  H+  H148  1  0.88140448  0.35983035  0.32472277  1
  H+  H149  1  0.98132358  0.94718106  0.61229711  1
  H+  H150  1  0.58977228  0.52888270  0.52619021  1
  H+  H151  1  0.46555482  0.10593818  0.50350818  1
  H+  H152  1  0.09863388  0.24313553  0.48964589  1
  H+  H153  1  0.61487411  0.64867338  0.49785355  1
  H+  H154  1  0.34338450  0.17619447  0.85857645  1
  H+  H155  1  0.13988368  0.51623180  0.65307681  1
  H+  H156  1  0.37433170  0.15547936  0.68277223  1
  H+  H157  1  0.09828140  0.85690254  0.67865179  1
  H+  H158  1  0.61302436  0.24233123  0.99879808  1
  H+  H159  1  0.97887112  0.13158106  0.51188939  1
  H+  H160  1  0.86804903  0.36085785  0.49574199  1
  H+  H161  1  0.86478219  0.13616661  0.15774925  1
  H+  H162  1  0.12544626  0.63829056  0.66976530  1
  H+  H163  1  0.48945812  0.36310122  0.53676177  1
  H+  H164  1  0.16185009  0.88356674  0.17713296  1
  H+  H165  1  0.84404160  0.89138671  0.15007013  1
  H+  H166  1  0.46332704  0.08536648  0.34264477  1
  H+  H167  1  0.87394977  0.79276923  0.30983810  1
  H+  H168  1  0.76787278  0.88658113  0.33059533  1
  H+  H169  1  0.60968709  0.22804592  0.16472218  1
  H+  H170  1  0.72237546  0.11034457  0.66730232  1
  H+  H171  1  0.32318341  0.87023386  0.77662249  1
  H+  H172  1  0.87895667  0.00579866  0.16383463  1
  H+  H173  1  0.65357228  0.47567169  0.48515440  1
  H+  H174  1  0.86821729  0.61018484  0.17168920  1
  H+  H175  1  0.12004888  0.47991706  0.15839891  1
  H+  H176  1  0.13814785  0.77008984  -0.00300690  1
  H+  H177  1  0.72846347  0.62839326  0.33212173  1
  H+  H178  1  0.62107642  0.09367095  1.02901237  1
  H+  H179  1  0.13636411  0.77312657  0.84306223  1
  H+  H180  1  0.61255918  0.22272828  0.67142769  1
  H+  H181  1  0.25645024  0.15192035  0.66229800  1
  H+  H182  1  0.34124715  -0.08204349  0.11098407  1
  H+  H183  1  0.09377013  0.48474399  0.99240799  1
  H+  H184  1  0.15466702  0.36276113  0.83203833  1
  H+  H185  1  0.35581212  0.88203019  0.50334613  1
  H+  H186  1  0.41166150  0.82713959  0.24539077  1
  H+  H187  1  0.01998421  0.89340145  0.33455620  1
  H+  H188  1  0.51943369  0.63699642  0.34208053  1
  H+  H189  1  0.63878989  0.11437431  0.17147158  1
  H+  H190  1  1.01135361  0.63815419  1.00292759  1
  H+  H191  1  0.28301995  0.63770817  0.34672555  1
  H+  H192  1  0.37019276  0.88234479  0.16988843  1
  H+  H193  1  1.00738109  0.14489998  0.33861516  1
  H+  H194  1  0.27257173  0.63434454  0.66293728  1
  H+  H195  1  0.83231530  0.66980438  0.76662351  1
  H+  H196  1  0.88070293  0.78811355  0.16683368  1
  H+  H197  1  0.85405697  0.98439845  0.99750226  1
  H+  H198  1  0.89448261  0.52794336  0.83304504  1
  H+  H199  1  0.64617236  0.29176783  0.33832125  1
  H+  H200  1  0.36087988  0.21467609  0.15382434  1
  H+  H201  1  0.35380982  0.12209171  0.49365047  1
  H+  H202  1  0.63183645  0.11289282  0.82641170  1
  H+  H203  1  0.88214172  0.60499211  0.32890488  1
  H+  H204  1  0.40039332  0.77923757  0.18096096  1
  H+  H205  1  0.87008487  0.47534591  0.34389053  1
  H+  H206  1  0.09568203  0.59405967  0.17740994  1
  H+  H207  1  0.57804504  0.42716339  0.01609004  1
  H+  H208  1  0.99923742  0.62503644  0.16214162  1
  H+  H209  1  0.20701504  0.85986225  0.65478342  1
  H+  H210  1  0.34497389  -0.04390243  0.35039106  1
  H+  H211  1  0.41682198  0.61151531  0.14708847  1
  H+  H212  1  0.30938031  0.67288161  0.81990437  1
  H+  H213  1  0.47304013  0.86405667  0.51321168  1
  H+  H214  1  0.52345767  0.88546481  0.67489908  1
  H+  H215  1  0.81717490  0.18056128  0.85405740  1
  H+  H216  1  0.35603518  0.72092845  0.49101832  1
  H+  H217  1  0.85943651  0.22687329  0.68001564  1
  H+  H218  1  0.11830187  0.51567194  0.34223531  1
  H+  H219  1  0.28998930  0.40427510  0.82979187  1
  H+  H220  1  0.39308596  0.80599608  0.99640387  1
  H+  H221  1  0.39531880  0.52723640  0.82995288  1
  H+  H222  1  0.31355223  0.63860221  0.15646179  1
  H+  H223  1  0.29346325  0.67804680  0.01284929  1
  H+  H224  1  0.37006004  0.13424047  0.34919764  1
  H+  H225  1  0.18466721  0.05990318  0.64606625  1
  H+  H226  1  0.72540248  0.62178089  0.84086235  1
  H+  H227  1  0.12204261  0.45838141  0.80915145  1
  H+  H228  1  0.35691519  0.38496270  0.34396906  1
  H+  H229  1  0.38000082  0.75615605  0.33570395  1
  H+  H230  1  0.91291954  0.83703619  0.93832921  1
  H+  H231  1  0.56276004  -0.06456781  0.40511333  1
  H+  H232  1  0.63950950  0.53243985  0.84627385  1
  H+  H233  1  0.86244120  0.63631811  0.82315636  1
  H+  H234  1  0.66040803  0.06398394  1.08063767  1
  H+  H235  1  0.63878004  0.76811086  0.32577516  1
  H+  H236  1  0.73159519  0.86603391  0.98412853  1
  H+  H237  1  0.15091926  0.08798413  0.22941724  1
  H+  H238  1  0.85603007  0.71396033  0.49889018  1
  H+  H239  1  0.12791984  0.11184265  0.16278301  1
  H+  H240  1  0.49869614  0.10295444  0.01916377  1
  H+  H241  1  0.90367680  0.13434737  0.83775836  1
  H+  H242  1  0.11584985  0.94906413  0.69875163  1
  H+  H243  1  0.61862748  0.49848854  0.17324194  1
  H+  H244  1  0.12210722  0.34766874  0.99136109  1
  H+  H245  1  0.34118375  0.89463008  0.66374490  1
  H+  H246  1  0.11775935  0.11691397  0.32117996  1
  H+  H247  1  0.38837683  0.28034310  0.82400064  1
  H+  H248  1  0.79141359  0.39285173  0.82631841  1
  H+  H249  1  0.89557865  0.40330097  0.13143133  1
  H+  H250  1  0.65132000  0.36579903  0.66181981  1
  H+  H251  1  0.21789212  0.35901903  0.99387413  1
  H+  H252  1  0.89196443  0.36433533  0.66359727  1
  H+  H253  1  0.86208061  0.21784277  0.50028555  1
  H+  H254  1  0.29204331  0.34164365  0.51999986  1
  H+  H255  1  0.85995058  0.61706327  -0.00851768  1
  H+  H256  1  0.07374363  0.40147585  0.41208132  1
  H+  H257  1  0.72722451  0.85299291  0.82988676  1
  H+  H258  1  0.09630353  0.23303915  0.33940757  1
  H+  H259  1  0.10712528  0.11572102  0.82055770  1
  H+  H260  1  0.41274270  0.29429773  0.67946213  1
  H+  H261  1  0.51375721  0.60404943  0.08542260  1
  H+  H262  1  0.66730533  0.76827276  0.97099287  1
  H+  H263  1  0.39301557  0.84245711  0.71079958  1
  H+  H264  1  0.10876923  0.71667518  0.49564365  1
  H+  H265  1  0.88364671  0.88341457  0.32276369  1
  H+  H266  1  0.38283195  0.77479581  0.66482644  1
  H+  H267  1  0.37960352  0.91155436  1.00739227  1
  H+  H268  1  0.87666760  0.60769725  0.65611038  1
  H+  H269  1  0.38046737  0.83691713  0.81222092  1
  H+  H270  1  0.50335758  0.90049045  0.34609761  1
  H+  H271  1  0.11007084  0.88315951  0.00338808  1
  H+  H272  1  0.26379545  0.13067806  0.48925709  1
  H+  H273  1  0.72559263  0.86461337  0.65590438  1
  H+  H274  1  0.12427519  0.03168835  0.31965554  1
  H+  H275  1  0.89069475  0.27030496  0.82614657  1
  H+  H276  1  0.60955577  0.64069698  0.82390025  1
  H+  H277  1  0.62327339  0.03010888  0.32801551  1
  H+  H278  1  0.85248445  0.98175069  0.33621489  1
  H+  H279  1  0.54375867  0.67114219  0.18653900  1
  H+  H280  1  -0.00162606  0.36205205  0.00473735  1
  H+  H281  1  0.32308059  0.41869551  0.39993046  1
  H+  H282  1  -0.00690219  0.88560017  0.65687324  1
  H+  H283  1  0.63991596  0.27417769  0.83824941  1
  H+  H284  1  0.36954270  0.84142526  0.33320305  1
  H+  H285  1  0.37630504  1.01567808  0.50774395  1
  H+  H286  1  0.87288968  0.10898081  0.98504349  1
  H+  H287  1  0.35021268  0.49590516  0.67246179  1
  H+  H288  1  0.10812282  0.54344106  0.89573762  1
  H+  H289  1  0.12652932  0.46803524  0.50223408  1
  H+  H290  1  0.93928560  0.36049025  0.88567409  1
  H+  H291  1  0.66195497  0.81001509  0.26163636  1
  H+  H292  1  0.08935155  0.40239724  0.72206925  1
  H+  H293  1  0.72271389  0.86130937  0.50000911  1
  H+  H294  1  0.77576841  0.13458675  0.15831455  1
  H+  H295  1  0.67023415  0.33212115  0.23603560  1
  H+  H296  1  0.14892550  0.82339668  0.56490328  1
  H+  H297  1  0.07561673  0.89369340  0.77973430  1
  H+  H298  1  0.41056016  0.09181456  0.60190168  1
  H+  H299  1  0.14400849  0.36319569  0.55326004  1
  H+  H300  1  0.87235146  0.27080244  0.99043061  1
  H+  H301  1  0.66584725  0.63450624  0.93408613  1
  H+  H302  1  0.36325038  0.68834441  0.09708961  1
  H+  H303  1  0.19399086  0.42367373  0.28364967  1
  H+  H304  1  0.17681531  0.10742018  0.55949417  1
  H+  H305  1  0.43975758  0.85348054  0.90184686  1
  H+  H306  1  0.37980813  0.01900271  0.95474867  1
  H+  H307  1  0.66571331  0.83523691  0.56152588  1
  H+  H308  1  0.84045167  0.17401689  0.06154211  1
  H+  H309  1  0.18177000  0.34108553  0.89556532  1
  H+  H310  1  0.90593722  0.08082438  0.92656568  1
  H+  H311  1  0.82364562  0.52763378  0.95956484  1
  H+  H312  1  0.55096578  0.40094064  0.68373203  1
  H+  H313  1  0.66912152  0.08241880  0.22785597  1
  H+  H314  1  0.59437713  0.42973885  0.38617337  1
  H+  H315  1  0.42032422  0.59346618  0.59389247  1
  H+  H316  1  0.91298153  0.58036699  0.58611822  1
  H+  H317  1  0.73945824  0.33626788  0.50921165  1
  H+  H318  1  0.32082601  0.64512543  0.75376912  1
  H+  H319  1  0.20821245  0.30889399  0.59991155  1
  H+  H320  1  0.18391451  0.47263458  0.11407047  1
  H+  H321  1  0.82273589  0.90791017  0.42863963  1
  H+  H322  1  0.91766745  0.31785513  0.57595033  1
  H+  H323  1  0.47210705  0.61852309  0.50092832  1
  H+  H324  1  0.32557813  0.41251714  0.05986732  1
  H+  H325  1  0.66835103  0.32439066  0.90061602  1
  H+  H326  1  0.48521843  0.36717943  0.15985659  1
  H+  H327  1  0.31731428  0.14518553  0.06835084  1
  H+  H328  1  0.32017146  0.90356913  0.44306182  1
  H+  H329  1  0.60187119  0.43587972  0.11759127  1
  H+  H330  1  0.40954697  0.06779572  0.28150438  1
  H+  H331  1  0.10086556  0.67257235  0.72952401  1
  H+  H332  1  0.07485189  0.65888840  0.43638150  1
  H+  H333  1  0.53097720  0.87590271  0.18605455  1
  H+  H334  1  0.66010665  0.57512771  0.57722180  1
  H+  H335  1  0.87893070  0.51610614  0.65746000  1
  H+  H336  1  0.83472122  0.17388223  0.74130046  1
  H+  H337  1  0.82757368  0.67497114  0.10058797  1
  H+  H338  1  0.59051766  0.91420484  0.72948828  1
  H+  H339  1  0.71750961  0.11940663  0.80529286  1
  H+  H340  1  0.39190271  0.01784643  0.81877909  1
  H+  H341  1  0.41354683  0.83447740  0.57200106  1
  H+  H342  1  0.06655961  0.39649806  0.06211995  1
  H+  H343  1  0.61111746  0.81647638  0.15147257  1
  H+  H344  1  0.16892711  0.57493464  0.59361265  1
  H+  H345  1  0.67592656  0.32708872  0.60323420  1
  H+  H346  1  0.58450620  0.67002548  0.72852757  1
  H+  H347  1  0.05989124  0.64731271  0.10400708  1
  H+  H348  1  0.91727783  0.58975570  0.89110511  1
  H+  H349  1  0.16306138  0.32070144  0.22429122  1
  H+  H350  1  0.56921380  0.38811154  0.48096245  1
  H+  H351  1  0.08108222  0.91922173  0.39298277  1
  H+  H352  1  0.32435556  0.43753658  0.73255922  1
  H+  H353  1  0.57774256  0.15802400  0.43484638  1
  H+  H354  1  0.61482905  0.43178866  0.73958562  1
  H+  H355  1  0.16469145  0.83193826  0.90634169  1
  H+  H356  1  0.83417577  0.65947078  0.40966417  1
  H+  H357  1  0.84370129  0.42355771  0.73196885  1
  H+  H358  1  0.34086940  0.17682484  0.74483101  1
  H+  H359  1  0.66908372  0.82951604  0.89077879  1
  H+  H360  1  0.63895841  0.61699179  0.66356565  1
  H+  H361  1  0.66713596  0.08351478  0.57067378  1
  H+  H362  1  0.08065601  0.15924015  0.76934153  1
  H+  H363  1  0.40975276  0.32518153  0.88864660  1
  H+  H364  1  0.76581438  0.13695758  1.01523571  1
  H+  H365  1  0.09323346  0.92227582  0.06231279  1
  H+  H366  1  0.46150802  0.61882637  1.00712672  1
  H+  H367  1  0.38903011  0.01813426  0.18655078  1
  H+  H368  1  0.16294551  0.06747774  0.88892831  1
  H+  H369  1  0.91189754  0.33939386  0.22033882  1
  H+  H370  1  0.92057746  0.83331367  0.55698434  1
  H+  H371  1  0.07947492  0.16158864  0.05594027  1
  H+  H372  1  0.36592330  0.64211795  0.66330412  1
  H+  H373  1  0.20980621  0.98337232  0.11606248  1
  H+  H374  1  0.67244521  0.60321553  0.23907881  1
  H+  H375  1  0.06807003  0.17748541  0.43458794  1
  H+  H376  1  0.48583195  0.62692329  0.82682888  1
  H+  H377  1  0.40641611  0.32697526  0.27287656  1
  H+  H378  1  0.95937146  0.03523095  0.20843579  1
  H+  H379  1  0.90854527  0.08610305  0.26544725  1
  H+  H380  1  0.16951334  0.83645399  0.24474715  1
  H+  H381  1  0.33517575  0.66705553  0.42400196  1
  H+  H382  1  0.82924396  0.90530805  0.76363249  1
  H+  H383  1  0.87633156  0.52514912  0.16342242  1
  O2-  O384  1  0.07355265  0.15998626  0.12692167  1
  O2-  O385  1  0.07194854  0.18115656  0.48018470  1
  O2-  O386  1  0.07774273  0.14870404  0.81334706  1
  O2-  O387  1  0.12797509  0.43760597  0.13312305  1
  O2-  O388  1  0.08924213  0.40300741  0.49280678  1
  O2-  O389  1  0.09076123  0.39781620  0.79635847  1
  O2-  O390  1  0.05956589  0.64624251  0.14878314  1
  O2-  O391  1  0.07771600  0.65563788  0.48161146  1
  O2-  O392  1  0.09090789  0.68123699  0.81280889  1
  O2-  O393  1  0.15284792  0.95138144  0.13449226  1
  O2-  O394  1  0.08055024  0.91450914  0.47391753  1
  O2-  O395  1  0.08456808  0.90383290  0.82445263  1
  O2-  O396  1  0.32479991  0.15158261  0.14826547  1
  O2-  O397  1  0.32596255  0.15543782  0.47603797  1
  O2-  O398  1  0.32151348  0.14782001  0.81954993  1
  O2-  O399  1  0.33054364  0.40664139  0.13791293  1
  O2-  O400  1  0.31171711  0.42850495  0.47536025  1
  O2-  O401  1  0.35066120  0.43718078  0.81097536  1
  O2-  O402  1  0.37073583  0.67835797  0.14130198  1
  O2-  O403  1  0.32878804  0.66200922  0.47461935  1
  O2-  O404  1  0.31344524  0.62791244  0.79807296  1
  O2-  O405  1  0.33769537  0.91269978  0.15589820  1
  O2-  O406  1  0.32349517  0.91071686  0.48840332  1
  O2-  O407  1  0.34276777  0.82876445  0.77545358  1
  O2-  O408  1  0.57939952  0.16628720  0.14991606  1
  O2-  O409  1  0.57333066  0.15376525  0.47937540  1
  O2-  O410  1  0.57956751  0.17085175  0.80971237  1
  O2-  O411  1  0.59294681  0.43623662  0.16145209  1
  O2-  O412  1  0.62686821  0.42021858  0.46334252  1
  O2-  O413  1  0.59848305  0.42559660  0.81864372  1
  O2-  O414  1  0.60501125  0.71606918  0.19183435  1
  O2-  O415  1  0.58215732  0.67383506  0.48057846  1
  O2-  O416  1  0.57982908  0.67047658  0.80669572  1
  O2-  O417  1  0.59069134  0.88995310  0.17728143  1
  O2-  O418  1  0.57359050  0.91538232  0.48448454  1
  O2-  O419  1  0.59599172  0.91789736  0.80418310  1
  O2-  O420  1  0.83578280  0.16548821  0.14159229  1
  O2-  O421  1  0.83097394  0.15737889  0.48332770  1
  O2-  O422  1  0.85419364  0.20404154  0.81851511  1
  O2-  O423  1  0.89713689  0.45515886  0.11141487  1
  O2-  O424  1  0.83090589  0.38405332  0.48277167  1
  O2-  O425  1  0.84943194  0.42787647  0.80872316  1
  O2-  O426  1  0.83108283  0.67463899  0.14591544  1
  O2-  O427  1  0.82542727  0.65198924  0.48509154  1
  O2-  O428  1  0.83153245  0.66763068  0.81166187  1
  O2-  O429  1  0.82052440  0.92935047  0.13773048  1
  O2-  O430  1  0.82005865  0.90175022  0.47363306  1
  O2-  O431  1  0.82025285  0.89522801  0.80775106  1
  O2-  O432  1  0.15967874  0.08688439  0.18350753  1
  O2-  O433  1  0.16623933  0.09451156  0.51534872  1
  O2-  O434  1  0.16572814  0.05946525  0.84457735  1
  O2-  O435  1  0.16241433  0.31803082  0.17923213  1
  O2-  O436  1  0.14092643  0.36269822  0.50784281  1
  O2-  O437  1  0.19825103  0.35296560  0.85250934  1
  O2-  O438  1  0.12939095  0.56672997  0.19676795  1
  O2-  O439  1  0.17041307  0.57035400  0.51336076  1
  O2-  O440  1  0.09680105  0.54160028  0.85146702  1
  O2-  O441  1  0.18119208  0.84465637  0.19694737  1
  O2-  O442  1  0.15362065  0.82527543  0.51941050  1
  O2-  O443  1  0.16187633  0.83400281  0.86056283  1
  O2-  O444  1  0.41491649  0.07710223  0.20403964  1
  O2-  O445  1  0.40506554  0.07862181  0.51876548  1
  O2-  O446  1  0.40970309  0.06873632  0.84366200  1
  O2-  O447  1  0.42709100  0.32717909  0.14202922  1
  O2-  O448  1  0.26502872  0.28916571  0.54624315  1
  O2-  O449  1  0.42156533  0.33648041  0.84429656  1
  O2-  O450  1  0.44905432  0.58025164  0.15088062  1
  O2-  O451  1  0.41196695  0.58765597  0.51624608  1
  O2-  O452  1  0.42255579  0.59269356  0.84102166  1
  O2-  O453  1  0.41898402  0.83621968  0.19912728  1
  O2-  O454  1  0.41150849  0.83344772  0.52748959  1
  O2-  O455  1  0.44138749  0.83161051  0.86110594  1
  O2-  O456  1  0.67088160  0.08431011  0.18230603  1
  O2-  O457  1  0.66933798  0.08247722  0.52510742  1
  O2-  O458  1  0.66935298  0.08728647  0.83285077  1
  O2-  O459  1  0.66011549  0.32648975  0.19162898  1
  O2-  O460  1  0.67722467  0.31219451  0.52468154  1
  O2-  O461  1  0.67395700  0.33319941  0.85618569  1
  O2-  O462  1  0.66856455  0.60296477  0.19352553  1
  O2-  O463  1  0.65153110  0.56717945  0.53097046  1
  O2-  O464  1  0.66536798  0.59456106  0.85637218  1
  O2-  O465  1  0.62187071  0.76891173  0.13689596  1
  O2-  O466  1  0.66177043  0.83406854  0.51618943  1
  O2-  O467  1  0.66504958  0.82681215  0.84503035  1
  O2-  O468  1  0.92958844  0.06174513  0.18882954  1
  O2-  O469  1  0.91843704  0.09959477  0.53016321  1
  O2-  O470  1  0.91726331  0.09170695  0.85386744  1
  O2-  O471  1  0.91503504  0.33929826  0.17553187  1
  O2-  O472  1  0.92096982  0.31256528  0.53046254  1
  O2-  O473  1  0.94403431  0.36677311  0.84135656  1
  O2-  O474  1  0.89503867  0.57708374  0.18855811  1
  O2-  O475  1  0.92021191  0.58412711  0.52981442  1
  O2-  O476  1  0.92169323  0.59035727  0.84637735  1
  O2-  O477  1  0.90510215  0.84997639  0.17613918  1
  O2-  O478  1  0.91374601  0.81798528  0.51331509  1
  O2-  O479  1  0.91293649  0.82800110  0.86129606  1
  O2-  O480  1  0.14627747  0.08884456  0.30089791  1
  O2-  O481  1  0.19942625  0.11923373  0.63996942  1
  O2-  O482  1  0.15738166  0.07757746  0.97210145  1
  O2-  O483  1  0.18008560  0.36819448  0.30103768  1
  O2-  O484  1  0.17760921  0.32717381  0.62927584  1
  O2-  O485  1  0.15781454  0.32220323  0.97789006  1
  O2-  O486  1  0.14675716  0.57373921  0.32355675  1
  O2-  O487  1  0.16952981  0.57704247  0.63891657  1
  O2-  O488  1  0.12037400  0.54620655  0.97626214  1
  O2-  O489  1  0.15320848  0.82666585  0.30909675  1
  O2-  O490  1  0.14477282  0.82202628  0.64313883  1
  O2-  O491  1  0.16707505  0.83062306  0.98175028  1
  O2-  O492  1  0.40468688  0.06422928  0.32711102  1
  O2-  O493  1  0.41088498  0.09292319  0.64704154  1
  O2-  O494  1  0.38197415  0.02636918  0.99946791  1
  O2-  O495  1  0.41433201  0.33148736  0.31683595  1
  O2-  O496  1  0.44966798  0.35528064  0.66613541  1
  O2-  O497  1  0.39271450  0.31148118  0.96990288  1
  O2-  O498  1  0.42485408  0.59567183  0.32038564  1
  O2-  O499  1  0.42063579  0.59533455  0.63941028  1
  O2-  O500  1  0.40429232  0.59878091  0.98794878  1
  O2-  O501  1  0.40538810  0.81863719  0.31685743  1
  O2-  O502  1  0.41121661  0.83904677  0.66750795  1
  O2-  O503  1  0.42323053  0.86729518  0.98395998  1
  O2-  O504  1  0.66278789  0.08752851  0.30694857  1
  O2-  O505  1  0.66373643  0.08110869  0.64913850  1
  O2-  O506  1  0.65995425  0.06984842  1.03647674  1
  O2-  O507  1  0.67622798  0.34832555  0.31828104  1
  O2-  O508  1  0.67611821  0.32953446  0.64870363  1
  O2-  O509  1  0.64362507  0.30460816  0.98645592  1
  O2-  O510  1  0.66999938  0.59761618  0.31538680  1
  O2-  O511  1  0.67226680  0.58876461  0.64844303  1
  O2-  O512  1  0.67901217  0.66545627  0.97347362  1
  O2-  O513  1  0.67217400  0.82452379  0.30477279  1
  O2-  O514  1  0.66549932  0.83035204  0.64040445  1
  O2-  O515  1  0.67332851  0.82545467  0.96549856  1
  O2-  O516  1  0.90879659  0.08943440  0.31053754  1
  O2-  O517  1  0.91505898  0.09336629  0.64752208  1
  O2-  O518  1  0.90021197  0.07564366  0.97242021  1
  O2-  O519  1  0.90850530  0.32686528  0.30800013  1
  O2-  O520  1  0.91605007  0.32731715  0.65051832  1
  O2-  O521  1  0.90744349  0.33309340  0.97824987  1
  O2-  O522  1  0.91278978  0.57681008  0.31171619  1
  O2-  O523  1  0.90484635  0.57623739  0.63935199  1
  O2-  O524  1  0.87753883  0.57514797  0.97467013  1
  O2-  O525  1  0.91584446  0.85368647  0.30649114  1
  O2-  O526  1  0.95054421  0.88900899  0.62875080  1
  O2-  O527  1  0.91331244  0.84041438  0.98383138  1
  O2-  O528  1  0.08857373  0.16630607  0.00974601  1
  O2-  O529  1  0.06724330  0.17518607  0.35657569  1
  O2-  O530  1  0.08082257  0.16975662  0.68307983  1
  O2-  O531  1  0.06165030  0.39077663  0.01738517  1
  O2-  O532  1  0.06965017  0.40562255  0.36727869  1
  O2-  O533  1  0.08489921  0.40688559  0.67640826  1
  O2-  O534  1  0.07023573  0.66050293  0.01744947  1
  O2-  O535  1  0.07557006  0.66832030  0.35587486  1
  O2-  O536  1  0.09891498  0.67186915  0.68467260  1
  O2-  O537  1  0.08246546  0.91612059  0.01793434  1
  O2-  O538  1  0.08099358  0.91842169  0.34765687  1
  O2-  O539  1  0.07077427  0.88912369  0.70117699  1
  O2-  O540  1  0.31590670  0.14120766  0.02295908  1
  O2-  O541  1  0.34446652  0.16823372  0.36576841  1
  O2-  O542  1  0.34823578  0.18889097  0.69981803  1
  O2-  O543  1  0.32146376  0.41504386  0.01457719  1
  O2-  O544  1  0.32532354  0.41519366  0.35446521  1
  O2-  O545  1  0.30615996  0.44087576  0.69068276  1
  O2-  O546  1  0.35337849  0.70045099  0.02342857  1
  O2-  O547  1  0.34182537  0.66924024  0.36227549  1
  O2-  O548  1  0.33197147  0.66786217  0.68022594  1
  O2-  O549  1  0.34040349  0.93706241  0.02411110  1
  O2-  O550  1  0.31343308  0.89603120  0.36560155  1
  O2-  O551  1  0.30721471  0.92121869  0.67646703  1
  O2-  O552  1  0.55914981  0.14324306  0.03002651  1
  O2-  O553  1  0.58673079  0.16917879  0.34509630  1
  O2-  O554  1  0.57651281  0.16215920  0.68575513  1
  O2-  O555  1  0.54544274  0.36822437  0.03141440  1
  O2-  O556  1  0.58420973  0.42929916  0.34190149  1
  O2-  O557  1  0.61423163  0.43224225  0.69410394  1
  O2-  O558  1  0.54976234  0.64027118  0.05103403  1
  O2-  O559  1  0.58266818  0.66564660  0.35606794  1
  O2-  O560  1  0.58689696  0.66735328  0.68307841  1
  O2-  O561  1  0.57520365  0.89915022  0.00763418  1
  O2-  O562  1  0.55256084  0.95230048  0.36450873  1
  O2-  O563  1  0.58639054  0.91421115  0.68357239  1
  O2-  O564  1  0.82953439  0.17279059  0.01707944  1
  O2-  O565  1  0.82594532  0.16681829  0.35336394  1
  O2-  O566  1  0.82936165  0.16655563  0.69629465  1
  O2-  O567  1  0.85136693  0.42532898  0.05285746  1
  O2-  O568  1  0.83949420  0.41466514  0.35847401  1
  O2-  O569  1  0.84235460  0.42187577  0.68611069  1
  O2-  O570  1  0.82709783  0.67944487  0.02073395  1
  O2-  O571  1  0.84570481  0.67120506  0.36480288  1
  O2-  O572  1  0.83417442  0.66786753  0.68407296  1
  O2-  O573  1  0.82380754  0.92363019  0.01646223  1
  O2-  O574  1  0.82774766  0.92077654  0.34879050  1
  O2-  O575  1  0.82967331  0.92276496  0.68311561  1
