# generated using pymatgen
data_H2O
_symmetry_space_group_name_H-M   'P 1'
_cell_length_a   17.98937820
_cell_length_b   17.99748204
_cell_length_c   21.99923252
_cell_angle_alpha   89.98942337
_cell_angle_beta   89.99010347
_cell_angle_gamma   119.99459140
_symmetry_Int_Tables_number   1
_chemical_formula_structural   H2O
_chemical_formula_sum   'H384 O192'
_cell_volume   6168.64392097
_cell_formula_units_Z   192
loop_
 _symmetry_equiv_pos_site_id
 _symmetry_equiv_pos_as_xyz
  1  'x, y, z'
loop_
 _atom_type_symbol
 _atom_type_oxidation_number
  H+  1.0
  O2-  -2.0
loop_
 _atom_site_type_symbol
 _atom_site_label
 _atom_site_symmetry_multiplicity
 _atom_site_fract_x
 _atom_site_fract_y
 _atom_site_fract_z
 _atom_site_occupancy
  H+  H0  1  0.10869152  0.35961684  0.55192301  1
  H+  H1  1  0.11711728  0.65211891  0.50915036  1
  H+  H2  1  0.60972631  0.91780158  0.69412836  1
  H+  H3  1  0.09450053  0.48050590  0.32293808  1
  H+  H4  1  0.12059464  0.26158209  0.84627243  1
  H+  H5  1  0.86612755  0.60983400  0.81836613  1
  H+  H6  1  1.01319735  0.38633315  0.32202172  1
  H+  H7  1  0.63126673  1.04034718  0.51159298  1
  H+  H8  1  0.15927196  0.31498935  0.93705295  1
  H+  H9  1  0.14520946  0.77158654  0.63272013  1
  H+  H10  1  0.90070982  0.79096485  1.00195973  1
  H+  H11  1  0.77518148  0.88371325  0.14553409  1
  H+  H12  1  0.37880807  0.91889276  0.48759308  1
  H+  H13  1  0.24554612  0.72165378  0.71782177  1
  H+  H14  1  0.62218305  0.24132452  0.15753197  1
  H+  H15  1  0.34047034  0.94076801  0.14856351  1
  H+  H16  1  0.76083694  0.13575283  0.18327991  1
  H+  H17  1  0.89020807  0.61868824  -0.01211365  1
  H+  H18  1  0.61294723  0.22547193  0.00625297  1
  H+  H19  1  0.61513344  0.46567587  0.67480096  1
  H+  H20  1  0.91696130  0.57644685  0.23004631  1
  H+  H21  1  0.76610855  0.38493376  0.15567347  1
  H+  H22  1  0.88670123  0.60598041  0.17007551  1
  H+  H23  1  0.88522099  0.35015556  -0.01038273  1
  H+  H24  1  0.77175240  0.13237921  0.68599663  1
  H+  H25  1  0.77613755  0.63679119  0.00046872  1
  H+  H26  1  0.36444642  0.22477153  1.00684222  1
  H+  H27  1  0.34174903  0.17520620  0.09427982  1
  H+  H28  1  0.86529418  0.27421387  0.32545247  1
  H+  H29  1  -0.03483879  0.30171753  0.64911594  1
  H+  H30  1  0.86057852  0.61277237  0.49318488  1
  H+  H31  1  0.36077660  0.78999670  0.50937747  1
  H+  H32  1  0.80934873  0.44944818  0.67319786  1
  H+  H33  1  0.59775071  0.18014480  0.77179676  1
  H+  H34  1  0.34960006  0.62952428  0.16087010  1
  H+  H35  1  0.47298751  0.85362561  0.31524171  1
  H+  H36  1  0.36457445  0.88447737  -0.00337496  1
  H+  H37  1  0.53803493  0.14970289  0.83131613  1
  H+  H38  1  0.17016522  0.07940104  0.57671599  1
  H+  H39  1  0.84659997  0.38449572  0.33678917  1
  H+  H40  1  0.14365602  0.03273832  0.51037211  1
  H+  H41  1  0.71949001  0.88247434  0.31011317  1
  H+  H42  1  0.88292336  0.23148147  0.83115975  1
  H+  H43  1  0.27737840  0.12978765  0.01077479  1
  H+  H44  1  0.52570601  0.88453623  1.00042526  1
  H+  H45  1  0.40360000  0.12879410  0.66564517  1
  H+  H46  1  0.48403603  0.34848335  0.66035349  1
  H+  H47  1  0.62110014  0.86795726  0.98773183  1
  H+  H48  1  0.39216478  0.88945857  0.65765888  1
  H+  H49  1  0.78500971  0.90068928  0.48660043  1
  H+  H50  1  0.85854954  0.47010474  0.15675556  1
  H+  H51  1  0.11387349  0.21319617  0.69642623  1
  H+  H52  1  0.39993256  1.03329466  0.18711236  1
  H+  H53  1  0.90692062  0.88777455  0.49654122  1
  H+  H54  1  0.22758466  0.85899526  -0.00695892  1
  H+  H55  1  0.42639718  0.34033422  0.49329762  1
  H+  H56  1  0.37019387  0.04057267  0.16658544  1
  H+  H57  1  0.87823478  0.36020169  0.16953041  1
  H+  H58  1  0.87792584  0.36371658  0.51127922  1
  H+  H59  1  0.05174886  0.34605382  0.84972604  1
  H+  H60  1  0.93009964  0.83219514  0.21308263  1
  H+  H61  1  0.02469936  0.12912191  0.68635622  1
  H+  H62  1  0.11775705  0.88913104  0.83885788  1
  H+  H63  1  0.65758909  0.82209605  0.70729197  1
  H+  H64  1  0.89925066  0.22270486  1.03407105  1
  H+  H65  1  0.87517327  0.89493118  0.83681701  1
  H+  H66  1  0.62424094  1.02441134  0.16474156  1
  H+  H67  1  0.14168614  0.11316527  0.85246969  1
  H+  H68  1  0.35772045  -0.00318495  0.32707401  1
  H+  H69  1  0.63035549  0.16373400  0.50111905  1
  H+  H70  1  0.98763440  0.85616676  0.31482394  1
  H+  H71  1  0.10137170  0.94350787  0.08497318  1
  H+  H72  1  1.01811893  0.88099767  0.65904376  1
  H+  H73  1  0.63089451  0.15777452  0.67778947  1
  H+  H74  1  0.86120623  0.13892443  0.49493538  1
  H+  H75  1  0.39792805  0.12613356  0.84542666  1
  H+  H76  1  0.12174854  0.50363485  0.52376305  1
  H+  H77  1  0.78478079  0.14405367  0.83518200  1
  H+  H78  1  0.73188984  0.60552677  0.33133643  1
  H+  H79  1  0.02501605  0.42476006  0.53656204  1
  H+  H80  1  0.13690242  1.01139618  0.66214052  1
  H+  H81  1  0.87421648  0.76785512  0.65054017  1
  H+  H82  1  0.33080738  0.17273860  0.41616496  1
  H+  H83  1  0.64782987  0.59113516  0.49715254  1
  H+  H84  1  0.39760962  0.18444562  0.16929864  1
  H+  H85  1  0.21932314  0.63497153  0.56160157  1
  H+  H86  1  0.38308846  0.75451678  0.30446568  1
  H+  H87  1  0.29540741  0.93030192  0.67599122  1
  H+  H88  1  0.88394610  0.52009123  0.32368562  1
  H+  H89  1  0.96923753  0.36326281  0.17463116  1
  H+  H90  1  0.62306577  0.85216375  0.51231054  1
  H+  H91  1  0.63454762  0.51585306  0.83915974  1
  H+  H92  1  0.01139339  0.62701126  0.15310230  1
  H+  H93  1  0.22789596  0.34927671  0.99260720  1
  H+  H94  1  0.90705707  1.03030854  0.12898629  1
  H+  H95  1  0.38643518  0.61891172  -0.00504298  1
  H+  H96  1  0.85646648  0.93829036  0.32265976  1
  H+  H97  1  0.52569509  0.38509379  0.82923172  1
  H+  H98  1  0.12443815  0.34408830  0.69794474  1
  H+  H99  1  0.03925817  0.13907599  0.14098959  1
  H+  H100  1  0.46101460  0.60948101  0.83952967  1
  H+  H101  1  0.87149476  0.72405844  0.15041545  1
  H+  H102  1  0.89232327  0.85794921  0.15524796  1
  H+  H103  1  0.34938857  0.46787740  0.82852097  1
  H+  H104  1  0.86573143  0.13236100  0.68499017  1
  H+  H105  1  1.01584707  0.40564587  1.01050612  1
  H+  H106  1  0.12271347  0.14382389  0.51476631  1
  H+  H107  1  0.94785566  0.58100428  0.66273820  1
  H+  H108  1  0.89253192  0.83933656  0.31061821  1
  H+  H109  1  0.39912758  1.03827208  0.84414385  1
  H+  H110  1  0.73752615  0.86064890  0.84160713  1
  H+  H111  1  0.97354509  0.61363904  0.32304253  1
  H+  H112  1  0.45737827  0.60879524  0.17862468  1
  H+  H113  1  0.15737274  0.40667461  0.30235986  1
  H+  H114  1  0.62270008  0.11421827  0.16878478  1
  H+  H115  1  0.12267640  0.98130216  0.84278139  1
  H+  H116  1  0.15443981  0.61899998  0.97360689  1
  H+  H117  1  0.12892955  0.61057645  0.16503539  1
  H+  H118  1  0.36443017  0.21860689  0.67385855  1
  H+  H119  1  0.89758116  0.05285277  0.91736671  1
  H+  H120  1  0.36472356  0.44680859  0.67145881  1
  H+  H121  1  0.14334120  0.28302813  0.16532759  1
  H+  H122  1  0.66015284  0.56857020  0.57998934  1
  H+  H123  1  0.47273148  0.61482112  -0.00794097  1
  H+  H124  1  0.83398406  0.00960102  0.30969443  1
  H+  H125  1  0.65158048  0.12548651  0.84478013  1
  H+  H126  1  0.41451869  0.82272274  0.78311604  1
  H+  H127  1  0.11099900  0.88276717  0.33374676  1
  H+  H128  1  0.61256408  0.47697935  0.36263534  1
  H+  H129  1  0.49779291  0.14399363  0.50990363  1
  H+  H130  1  0.33808862  0.94161677  0.38607551  1
  H+  H131  1  0.21910108  0.35107751  0.68725661  1
  H+  H132  1  0.88409862  0.10410655  0.86069564  1
  H+  H133  1  0.82712775  0.90944096  0.08302804  1
  H+  H134  1  0.13734498  0.12347135  1.00736164  1
  H+  H135  1  0.63477448  0.51793186  0.99526929  1
  H+  H136  1  0.13060210  0.14405367  0.15818754  1
  H+  H137  1  0.61127547  0.62977768  0.83304801  1
  H+  H138  1  0.51950191  0.87887679  0.15059926  1
  H+  H139  1  0.79492515  0.91049927  0.68931468  1
  H+  H140  1  0.61575517  0.75961458  0.17488829  1
  H+  H141  1  0.60493323  0.69140086  0.49698101  1
  H+  H142  1  0.30080161  0.58681787  0.67506000  1
  H+  H143  1  0.17939365  0.55257499  0.66516417  1
  H+  H144  1  0.85312145  0.22367748  0.18696143  1
  H+  H145  1  0.15992769  0.21150958  0.35589712  1
  H+  H146  1  0.52078593  0.90970237  0.67494833  1
  H+  H147  1  0.90504265  0.79538464  0.86235508  1
  H+  H148  1  0.31081687  0.57926762  0.70729561  1
  H+  H149  1  0.47878474  0.58309302  0.65617204  1
  H+  H150  1  0.60735327  0.61632068  0.66550258  1
  H+  H151  1  0.91604717  0.31730001  0.55383161  1
  H+  H152  1  0.06649294  0.96217817  0.99213421  1
  H+  H153  1  0.71809079  0.85544922  0.51141614  1
  H+  H154  1  0.52979141  0.39032237  0.00648572  1
  H+  H155  1  0.89798335  0.03159116  0.66766330  1
  H+  H156  1  0.20208802  0.35509108  0.84211933  1
  H+  H157  1  0.39028160  0.27713398  0.84271751  1
  H+  H158  1  0.35785139  0.35684734  0.67580321  1
  H+  H159  1  0.66020901  0.34383163  0.22397930  1
  H+  H160  1  1.01821724  0.12305586  0.84551281  1
  H+  H161  1  0.10069341  0.23514896  0.28925385  1
  H+  H162  1  0.59388713  0.89086793  0.48838735  1
  H+  H163  1  0.13827268  0.10081687  0.67258301  1
  H+  H164  1  -0.01261885  0.12488161  0.51466862  1
  H+  H165  1  0.23476154  0.86844272  0.83760768  1
  H+  H166  1  0.30821525  0.34690979  0.48518902  1
  H+  H167  1  0.27925756  0.14474606  0.15648332  1
  H+  H168  1  0.38553784  0.35948918  -0.00296761  1
  H+  H169  1  0.83587145  0.64965875  0.43526831  1
  H+  H170  1  0.61728261  0.38705769  0.82940247  1
  H+  H171  1  0.38912013  0.14125980  0.33320592  1
  H+  H172  1  0.98828878  0.60854052  0.84096076  1
  H+  H173  1  0.06987845  0.43073464  0.69820911  1
  H+  H174  1  0.62298962  0.47355117  0.14608118  1
  H+  H175  1  0.40446610  0.57967240  0.89883677  1
  H+  H176  1  0.24120373  0.39643165  0.31151459  1
  H+  H177  1  0.10702551  0.39162050  0.15546703  1
  H+  H178  1  0.00681016  0.63501572  -0.00046892  1
  H+  H179  1  0.40230462  0.69681703  0.47758926  1
  H+  H180  1  0.38303386  1.00929879  0.48879980  1
  H+  H181  1  0.74909511  0.13141743  0.33724859  1
  H+  H182  1  0.37683146  0.79685054  0.66672172  1
  H+  H183  1  0.07999200  0.69952902  0.54844831  1
  H+  H184  1  0.86459108  0.97723578  0.83754283  1
  H+  H185  1  0.27956517  0.64240580  -0.00123483  1
  H+  H186  1  0.87106360  0.69642175  0.80156280  1
  H+  H187  1  0.38839893  0.77151842  0.99097553  1
  H+  H188  1  0.96420651  0.58718409  0.51304766  1
  H+  H189  1  0.07331949  0.24371212  0.31098648  1
  H+  H190  1  0.63879810  1.04254724  0.66743264  1
  H+  H191  1  0.86280520  0.62328696  0.33499726  1
  H+  H192  1  0.37040276  0.40869910  0.14860406  1
  H+  H193  1  0.64534585  0.77005751  0.83985112  1
  H+  H194  1  0.63695983  0.24908119  0.68000268  1
  H+  H195  1  0.26160289  0.63383653  0.15736122  1
  H+  H196  1  0.12544100  0.72404896  0.82326509  1
  H+  H197  1  0.99888514  0.88210421  0.85440398  1
  H+  H198  1  0.39802055  0.48336159  0.49446689  1
  H+  H199  1  0.13128401  0.86009341  0.15592888  1
  H+  H200  1  0.86289244  0.47169292  1.00280431  1
  H+  H201  1  0.59653526  0.18134497  0.41310084  1
  H+  H202  1  0.20969463  0.61417502  0.32136394  1
  H+  H203  1  0.78134470  0.63737398  0.15745404  1
  H+  H204  1  0.48156728  0.61083234  0.32882120  1
  H+  H205  1  0.72728673  0.11883672  0.50954031  1
  H+  H206  1  0.38819947  0.10937698  0.99829591  1
  H+  H207  1  0.09843138  0.87170190  0.64642978  1
  H+  H208  1  0.41589161  0.33115263  0.93763358  1
  H+  H209  1  0.71356539  0.68086197  0.21089451  1
  H+  H210  1  0.10523707  0.72963679  1.00619285  1
  H+  H211  1  0.21449370  0.39442340  0.46761793  1
  H+  H212  1  0.43688212  0.31969142  0.59682103  1
  H+  H213  1  0.19559224  0.34919956  0.45601170  1
  H+  H214  1  0.88021231  0.38330666  0.84049693  1
  H+  H215  1  0.60918668  0.38917109  0.36076026  1
  H+  H216  1  0.21047477  0.84332890  0.15768198  1
  H+  H217  1  0.92188669  0.11784829  0.10104163  1
  H+  H218  1  0.62413173  0.28503999  0.32535662  1
  H+  H219  1  0.24626375  0.88835645  0.48240462  1
  H+  H220  1  0.50101365  0.18219243  0.17776305  1
  H+  H221  1  0.93573443  0.12146407  0.26468605  1
  H+  H222  1  0.25804549  0.63013436  0.49844419  1
  H+  H223  1  0.15424162  0.03223909  0.16005549  1
  H+  H224  1  0.79394526  0.38968575  0.83814627  1
  H+  H225  1  0.47706161  0.14133585  0.33279207  1
  H+  H226  1  0.63084835  0.63907065  0.00405838  1
  H+  H227  1  0.36896980  0.89861538  0.82470765  1
  H+  H228  1  0.72352522  0.36045578  0.99347937  1
  H+  H229  1  0.60832758  0.09345858  0.32415739  1
  H+  H230  1  0.88432942  0.86091062  0.65958659  1
  H+  H231  1  0.13791992  0.64217310  0.82300198  1
  H+  H232  1  0.63599217  0.36375710  -0.00532145  1
  H+  H233  1  0.27591264  0.12818324  0.67825201  1
  H+  H234  1  0.48118283  0.36644517  0.34356637  1
  H+  H235  1  0.63744941  0.06989542  0.26041772  1
  H+  H236  1  0.22706826  0.87427895  0.31659370  1
  H+  H237  1  0.35979548  0.47390218  0.00087379  1
  H+  H238  1  0.57122136  0.51190266  0.61527469  1
  H+  H239  1  0.37981263  0.84983153  0.16265711  1
  H+  H240  1  0.39245963  0.27908711  0.33943319  1
  H+  H241  1  0.61871278  0.72516654  0.33984891  1
  H+  H242  1  0.92714756  0.32437211  0.93542858  1
  H+  H243  1  0.59426706  0.96821434  0.32843610  1
  H+  H244  1  0.09817905  0.72084663  0.14990359  1
  H+  H245  1  0.15887456  0.00567420  0.30918174  1
  H+  H246  1  0.59723142  0.62831265  0.16800059  1
  H+  H247  1  0.84043947  0.14285875  0.32690899  1
  H+  H248  1  0.63244101  0.37146106  0.15968540  1
  H+  H249  1  0.10025029  0.64563573  0.33752181  1
  H+  H250  1  0.62187174  0.86520450  0.31588223  1
  H+  H251  1  0.71527242  0.37051960  0.32497453  1
  H+  H252  1  0.09983125  0.73254492  0.33304470  1
  H+  H253  1  1.03518442  0.90529999  0.48579877  1
  H+  H254  1  0.64948938  0.28495479  0.84082227  1
  H+  H255  1  0.86524533  0.59075892  0.65267059  1
  H+  H256  1  0.07660552  0.59621003  0.67532399  1
  H+  H257  1  0.62019693  0.89232000  0.84915727  1
  H+  H258  1  0.24862165  0.09134368  0.31680189  1
  H+  H259  1  0.83600219  0.45441299  0.49309133  1
  H+  H260  1  0.03284291  0.89665581  0.13905111  1
  H+  H261  1  0.38682519  0.36402529  0.84387357  1
  H+  H262  1  0.27966376  0.14150843  0.83398468  1
  H+  H263  1  0.62854284  0.77216731  0.98664853  1
  H+  H264  1  0.37338080  0.38217209  0.33752634  1
  H+  H265  1  0.66350195  0.20922574  0.36085638  1
  H+  H266  1  0.36912572  0.52079301  0.17486777  1
  H+  H267  1  0.85907212  0.92946181  0.74268846  1
  H+  H268  1  0.62154801  0.85553431  0.16758514  1
  H+  H269  1  0.72489508  0.60145880  0.83748053  1
  H+  H270  1  0.90161274  0.51562390  0.84640397  1
  H+  H271  1  0.65556334  0.37429989  0.66821493  1
  H+  H272  1  0.27887169  0.14251479  0.50626796  1
  H+  H273  1  0.75715151  0.61945500  0.66075077  1
  H+  H274  1  0.31794766  0.63858819  0.26497863  1
  H+  H275  1  0.38999399  1.01113616  0.67488182  1
  H+  H276  1  0.86897702  0.71383155  0.33515994  1
  H+  H277  1  0.53236923  0.89161682  0.84274831  1
  H+  H278  1  0.67173083  0.34063124  0.90106393  1
  H+  H279  1  0.49890684  0.13833566  0.66566287  1
  H+  H280  1  0.52023148  0.60170932  0.48582723  1
  H+  H281  1  -0.00178349  0.10474763  0.35761993  1
  H+  H282  1  0.98603005  0.06076039  0.36916281  1
  H+  H283  1  0.11071116  0.48766061  0.00666927  1
  H+  H284  1  0.13795778  0.22590288  1.00170701  1
  H+  H285  1  0.66893713  1.08264547  -0.05875616  1
  H+  H286  1  0.89758236  1.03955439  0.51005801  1
  H+  H287  1  0.59760822  0.69918865  0.66730222  1
  H+  H288  1  0.42195641  0.83093802  0.93160583  1
  H+  H289  1  0.10554470  0.50026703  0.61518567  1
  H+  H290  1  0.61632969  0.97790189  0.00031252  1
  H+  H291  1  0.16009786  0.82682478  0.57076771  1
  H+  H292  1  0.66316565  0.83567853  0.58597839  1
  H+  H293  1  0.36571107  0.62927636  0.32059990  1
  H+  H294  1  0.67164274  0.85281225  0.63525689  1
  H+  H295  1  0.34610480  0.94031263  0.76961546  1
  H+  H296  1  0.15319662  0.59197369  0.26224534  1
  H+  H297  1  0.67233605  0.71863398  0.04689973  1
  H+  H298  1  0.11120641  0.16695390  0.06827040  1
  H+  H299  1  0.56658701  0.90884250  0.38876929  1
  H+  H300  1  0.12884278  0.52184901  0.17215582  1
  H+  H301  1  0.19291533  0.07761567  0.22363254  1
  H+  H302  1  0.41531096  0.57338393  0.27257169  1
  H+  H303  1  0.38162086  0.76242561  0.16669500  1
  H+  H304  1  0.81286637  0.41111259  0.39584228  1
  H+  H305  1  0.59083478  0.41911140  0.06873615  1
  H+  H306  1  0.17723499  0.08297708  0.90928832  1
  H+  H307  1  0.83513928  0.66269951  0.05944395  1
  H+  H308  1  0.82253014  0.15825142  0.43450188  1
  H+  H309  1  0.08160311  0.92134260  0.39003379  1
  H+  H310  1  0.83094139  0.41298375  0.06205002  1
  H+  H311  1  0.33178182  0.42285070  0.06304294  1
  H+  H312  1  0.65052885  0.83068207  0.24152704  1
  H+  H313  1  0.42066878  0.08555294  0.93749400  1
  H+  H314  1  0.07845056  0.35770783  0.43076115  1
  H+  H315  1  0.64813674  0.26030113  0.48909075  1
  H+  H316  1  0.64417300  0.60910649  0.33194941  1
  H+  H317  1  0.18002412  0.35945507  0.21722698  1
  H+  H318  1  0.64873101  0.03502940  0.85336094  1
  H+  H319  1  0.38707442  0.57284071  0.64779028  1
  H+  H320  1  0.81468559  0.63975833  0.71968045  1
  H+  H321  1  0.26828550  0.18298913  0.37253587  1
  H+  H322  1  -0.00888698  0.26767237  0.59343367  1
  H+  H323  1  0.82903231  0.94625547  0.42278628  1
  H+  H324  1  0.41631126  0.82724652  0.24777973  1
  H+  H325  1  0.33128115  0.66937513  0.06313387  1
  H+  H326  1  0.56473841  0.41026677  0.46474865  1
  H+  H327  1  0.36712127  0.76481878  0.83735790  1
  H+  H328  1  0.67298528  0.59258004  0.24333152  1
  H+  H329  1  0.62985369  0.10204945  1.00014718  1
  H+  H330  1  0.37239488  0.15137762  0.50315304  1
  H+  H331  1  0.68001971  0.10194915  0.60798997  1
  H+  H332  1  0.06891519  0.66302069  0.06829597  1
  H+  H333  1  0.49102069  0.38854946  0.14837645  1
  H+  H334  1  0.50603599  0.89234940  0.48649525  1
  H+  H335  1  0.74488972  0.60485699  0.50525051  1
  H+  H336  1  0.58275492  0.17520017  0.10084064  1
  H+  H337  1  0.56752255  0.65121084  0.10611334  1
  H+  H338  1  0.58834411  0.66077513  0.39732872  1
  H+  H339  1  0.89809689  0.33304745  0.26517731  1
  H+  H340  1  0.35411779  0.39370735  0.42334848  1
  H+  H341  1  0.06479076  0.64442974  0.73083359  1
  H+  H342  1  0.10927777  0.22667073  0.51819792  1
  H+  H343  1  0.14613875  0.87093678  0.98806024  1
  H+  H344  1  0.93574002  0.85385093  0.94556615  1
  H+  H345  1  0.87694145  0.90264188  -0.00162732  1
  H+  H346  1  0.39662672  0.30786077  0.15366898  1
  H+  H347  1  0.07359073  0.14883139  0.78347088  1
  H+  H348  1  0.20053390  0.60117518  0.91603590  1
  H+  H349  1  0.89698397  0.55058291  0.56787348  1
  H+  H350  1  0.58091047  0.65645462  0.77386564  1
  H+  H351  1  0.66458614  0.57673203  0.93388235  1
  H+  H352  1  0.92469867  0.84842030  0.55554730  1
  H+  H353  1  0.03864568  0.35969019  0.43741826  1
  H+  H354  1  0.16330652  0.83721343  0.25899533  1
  H+  H355  1  0.85374086  0.11709359  0.23303982  1
  H+  H356  1  0.29733749  0.68954773  0.75569258  1
  H+  H357  1  0.43920032  0.10595499  0.56907016  1
  H+  H358  1  0.83477096  0.15789423  0.75774858  1
  H+  H359  1  0.58713699  0.41117025  0.73713525  1
  H+  H360  1  0.52411139  0.13596789  0.00883907  1
  H+  H361  1  0.85074375  0.17622798  0.09395358  1
  H+  H362  1  0.36990490  0.59939777  0.48331708  1
  H+  H363  1  0.40885995  0.84439848  0.56856097  1
  H+  H364  1  0.27261145  0.39655246  0.15120356  1
  H+  H365  1  0.15690656  0.79708630  0.47812901  1
  H+  H366  1  0.13049704  0.31273794  0.60457199  1
  H+  H367  1  0.14729230  0.18272820  0.42466248  1
  H+  H368  1  0.32484074  0.61895276  0.83774664  1
  H+  H369  1  0.17497298  0.82819162  0.89585355  1
  H+  H370  1  0.36278242  0.97359262  0.00199896  1
  H+  H371  1  0.42054731  0.54294518  0.55405239  1
  H+  H372  1  0.32262099  0.89175915  0.08610250  1
  H+  H373  1  0.92575985  0.58768348  0.92956453  1
  H+  H374  1  0.33683337  0.16821899  0.77298848  1
  H+  H375  1  0.44367598  0.16461320  0.24014764  1
  H+  H376  1  0.12535665  0.90693779  0.47837835  1
  H+  H377  1  0.07194349  0.43052738  0.10344455  1
  H+  H378  1  0.66106050  0.83244728  0.92281280  1
  H+  H379  1  0.32631163  0.40329191  0.77266159  1
  H+  H380  1  0.37217207  0.47099745  0.34626191  1
  H+  H381  1  0.92309360  0.09456815  0.60946394  1
  H+  H382  1  0.02975269  0.36829784  0.75561047  1
  H+  H383  1  0.58423176  0.91033375  0.09330397  1
  O2-  O384  1  0.10471796  0.17519029  0.13792459  1
  O2-  O385  1  0.09379371  0.17321796  0.49504303  1
  O2-  O386  1  0.07765308  0.15494380  0.82889682  1
  O2-  O387  1  0.07431444  0.42249627  0.14896591  1
  O2-  O388  1  0.08756017  0.45480961  0.55087065  1
  O2-  O389  1  0.01754907  0.36996631  0.83172864  1
  O2-  O390  1  0.07040827  0.66039101  0.13326463  1
  O2-  O391  1  0.07442085  0.67110573  0.50897467  1
  O2-  O392  1  0.09693911  0.66250183  0.81122903  1
  O2-  O393  1  0.09527543  0.92809097  0.12879038  1
  O2-  O394  1  0.09448699  0.93785893  0.46704847  1
  O2-  O395  1  0.08512291  0.91942430  0.83214654  1
  O2-  O396  1  0.34067423  0.18389058  0.14044850  1
  O2-  O397  1  0.33688918  0.17516055  0.48752564  1
  O2-  O398  1  0.34021387  0.17230744  0.81832636  1
  O2-  O399  1  0.33370265  0.43588758  0.13790525  1
  O2-  O400  1  0.36484754  0.38628927  0.46872762  1
  O2-  O401  1  0.32147152  0.40604281  0.81753006  1
  O2-  O402  1  0.32401551  0.66408693  0.14450293  1
  O2-  O403  1  0.35176824  0.64117433  0.47013710  1
  O2-  O404  1  0.30137831  0.65775518  0.82890331  1
  O2-  O405  1  0.31668703  0.88249380  0.13189871  1
  O2-  O406  1  0.35293206  0.95078952  0.46944789  1
  O2-  O407  1  0.34187188  0.93356570  0.81470650  1
  O2-  O408  1  0.58404278  0.17829497  0.14663922  1
  O2-  O409  1  0.60461315  0.19656839  0.48275288  1
  O2-  O410  1  0.59876074  0.17816822  0.81724491  1
  O2-  O411  1  0.59003136  0.41466733  0.13188707  1
  O2-  O412  1  0.54771779  0.41274711  0.50766205  1
  O2-  O413  1  0.58563870  0.41595253  0.81272923  1
  O2-  O414  1  0.56584630  0.65655916  0.15084187  1
  O2-  O415  1  0.58149415  0.64033296  0.47144422  1
  O2-  O416  1  0.58218545  0.66181582  0.81855485  1
  O2-  O417  1  0.58163323  0.90790541  0.13907046  1
  O2-  O418  1  0.56571460  0.92028309  0.46878188  1
  O2-  O419  1  0.59094999  0.92490020  0.85862168  1
  O2-  O420  1  0.82388092  0.15956123  0.18410736  1
  O2-  O421  1  0.81606449  0.14966418  0.47885196  1
  O2-  O422  1  0.84389273  0.16628726  0.81711335  1
  O2-  O423  1  0.82706936  0.41053013  0.14037083  1
  O2-  O424  1  0.80385401  0.39480252  0.47462345  1
  O2-  O425  1  0.85632687  0.42095076  0.82995406  1
  O2-  O426  1  0.83882525  0.66149330  0.13890506  1
  O2-  O427  1  0.83361708  0.64693873  0.48015940  1
  O2-  O428  1  0.83180043  0.63486286  0.79946104  1
  O2-  O429  1  0.83207030  0.90380093  0.12812127  1
  O2-  O430  1  0.84020893  0.93825710  0.46576059  1
  O2-  O431  1  0.84005618  0.91826630  0.81848042  1
  O2-  O432  1  0.18584718  0.09007392  0.17927798  1
  O2-  O433  1  0.17325364  0.08941679  0.53168005  1
  O2-  O434  1  0.17795253  0.08743070  0.86357783  1
  O2-  O435  1  0.16976640  0.34573165  0.17223684  1
  O2-  O436  1  0.10469306  0.30454723  0.56312766  1
  O2-  O437  1  0.14396045  0.32234995  0.86010408  1
  O2-  O438  1  0.16121336  0.58519627  0.18398688  1
  O2-  O439  1  0.20644802  0.62726244  0.51828224  1
  O2-  O440  1  0.20983259  0.60949721  0.84805604  1
  O2-  O441  1  0.15132128  0.82178981  0.17342234  1
  O2-  O442  1  0.18429918  0.85558925  0.49481017  1
  O2-  O443  1  0.17404831  0.83081122  0.85096361  1
  O2-  O444  1  0.45848085  0.19403545  0.19950112  1
  O2-  O445  1  0.43730474  0.10674208  0.52377619  1
  O2-  O446  1  0.43019007  0.09773653  0.86074943  1
  O2-  O447  1  0.42920721  0.37000004  0.15939810  1
  O2-  O448  1  0.46892338  0.32928598  0.51478840  1
  O2-  O449  1  0.42130392  0.33773124  0.85799960  1
  O2-  O450  1  0.39821246  0.58054623  0.19509079  1
  O2-  O451  1  0.42118125  0.54459103  0.50889985  1
  O2-  O452  1  0.40064245  0.57885421  0.85355848  1
  O2-  O453  1  0.41487782  0.82508768  0.17991957  1
  O2-  O454  1  0.40935173  0.84458765  0.52237503  1
  O2-  O455  1  0.40946118  0.82639793  0.82720916  1
  O2-  O456  1  0.64820845  0.07990943  0.18623753  1
  O2-  O457  1  0.66805838  0.09775452  0.52856820  1
  O2-  O458  1  0.68383325  0.09804975  0.86140889  1
  O2-  O459  1  0.66497133  0.34121280  0.17931136  1
  O2-  O460  1  0.71857225  0.36229421  0.49550937  1
  O2-  O461  1  0.67660419  0.34550290  0.85562994  1
  O2-  O462  1  0.68113256  0.61982354  0.20119948  1
  O2-  O463  1  0.68200361  0.57343932  0.52163539  1
  O2-  O464  1  0.66622040  0.57722554  0.85426487  1
  O2-  O465  1  0.64748801  0.82195960  0.18852043  1
  O2-  O466  1  0.65644746  0.82222841  0.53025734  1
  O2-  O467  1  0.67549434  0.83049316  0.85509374  1
  O2-  O468  1  0.93894530  0.09256036  0.13497666  1
  O2-  O469  1  0.92612594  0.09670447  0.52911777  1
  O2-  O470  1  0.90982112  0.06891289  0.87312888  1
  O2-  O471  1  0.90831793  0.33240213  0.18951188  1
  O2-  O472  1  0.92889868  0.35885944  0.51998758  1
  O2-  O473  1  0.92996220  0.31830782  0.85703732  1
  O2-  O474  1  0.91743724  0.57582638  0.18392182  1
  O2-  O475  1  0.90188865  0.55191600  0.52231528  1
  O2-  O476  1  0.92800249  0.58027268  0.85620866  1
  O2-  O477  1  0.92664539  0.83080811  0.16780821  1
  O2-  O478  1  0.93711517  0.85891128  0.51151138  1
  O2-  O479  1  0.93466626  0.85659507  0.87051624  1
  O2-  O480  1  0.21044720  0.04885362  0.28667952  1
  O2-  O481  1  0.17119373  0.07551927  0.65407088  1
  O2-  O482  1  0.17508397  0.07297780  0.98636691  1
  O2-  O483  1  0.20765052  0.40803072  0.28159365  1
  O2-  O484  1  0.15663240  0.31757251  0.67901232  1
  O2-  O485  1  0.16724294  0.30787821  0.98127609  1
  O2-  O486  1  0.15046405  0.59250046  0.30767424  1
  O2-  O487  1  0.11829926  0.52877739  0.65710720  1
  O2-  O488  1  0.19139921  0.59545882  0.96349860  1
  O2-  O489  1  0.16515827  0.83902711  0.30393190  1
  O2-  O490  1  0.12058633  0.79623884  0.60533051  1
  O2-  O491  1  0.16541909  0.82943313  0.98006228  1
  O2-  O492  1  0.42283929  0.12022387  0.31065601  1
  O2-  O493  1  0.43862951  0.10364107  0.64934941  1
  O2-  O494  1  0.41666452  0.07741289  0.98290789  1
  O2-  O495  1  0.42550121  0.33731447  0.32152918  1
  O2-  O496  1  0.42589677  0.31921747  0.64121865  1
  O2-  O497  1  0.41454467  0.32746562  0.98301156  1
  O2-  O498  1  0.41946099  0.57855812  0.31795071  1
  O2-  O499  1  0.42226497  0.54797930  0.63525635  1
  O2-  O500  1  0.41355741  0.58598915  0.97769386  1
  O2-  O501  1  0.41396970  0.82010443  0.29514460  1
  O2-  O502  1  0.41349152  0.85039254  0.64341649  1
  O2-  O503  1  0.42018914  0.83327522  0.97591726  1
  O2-  O504  1  0.63671140  0.06335905  0.30624000  1
  O2-  O505  1  0.68105061  0.10267717  0.65344904  1
  O2-  O506  1  0.65529328  0.06753506  0.98501395  1
  O2-  O507  1  0.65405736  0.34452177  0.31047342  1
  O2-  O508  1  0.69530055  0.35292028  0.65533487  1
  O2-  O509  1  0.66270477  0.32986151  0.97895426  1
  O2-  O510  1  0.67033117  0.57542851  0.31661005  1
  O2-  O511  1  0.62962990  0.55572258  0.62655793  1
  O2-  O512  1  0.66571330  0.58031141  0.97923150  1
  O2-  O513  1  0.65756796  0.84044230  0.29829208  1
  O2-  O514  1  0.68230133  0.87204916  0.68029213  1
  O2-  O515  1  0.64954673  0.83066374  0.96922163  1
  O2-  O516  1  0.87395879  0.09667698  0.27021738  1
  O2-  O517  1  0.92235198  0.09281401  0.65495324  1
  O2-  O518  1  0.88173352  0.01222649  0.99081241  1
  O2-  O519  1  0.89643739  0.33448602  0.31080917  1
  O2-  O520  1  0.94098632  0.26738034  0.61196669  1
  O2-  O521  1  0.92313541  0.32630869  0.98092193  1
  O2-  O522  1  0.91311222  0.57852638  0.30494940  1
  O2-  O523  1  0.88877014  0.55210509  0.64454539  1
  O2-  O524  1  0.92487907  0.59087388  0.97596477  1
  O2-  O525  1  0.92923963  0.81914027  0.29382347  1
  O2-  O526  1  0.90622497  0.82812948  0.63665933  1
  O2-  O527  1  0.93264897  0.85263721  0.99122214  1
  O2-  O528  1  0.11111609  0.16207955  0.02165581  1
  O2-  O529  1  0.17621320  0.18270442  0.38602774  1
  O2-  O530  1  0.08190063  0.15016696  0.70582256  1
  O2-  O531  1  0.06284710  0.45346140  0.03436892  1
  O2-  O532  1  0.07608949  0.41903721  0.32766813  1
  O2-  O533  1  0.04850400  0.37110635  0.71235836  1
  O2-  O534  1  0.07133646  0.66742580  0.01955893  1
  O2-  O535  1  0.06666567  0.67342324  0.34936089  1
  O2-  O536  1  0.05487319  0.63539531  0.68637272  1
  O2-  O537  1  0.12496808  0.98047919  0.00661960  1
  O2-  O538  1  0.07800451  0.91261254  0.34466913  1
  O2-  O539  1  0.07992818  0.90711687  0.66891058  1
  O2-  O540  1  0.33922413  0.16514963  0.02460451  1
  O2-  O541  1  0.32047357  0.17616720  0.37061028  1
  O2-  O542  1  0.33680064  0.16077002  0.69343805  1
  O2-  O543  1  0.33247915  0.41498922  0.01763800  1
  O2-  O544  1  0.34022612  0.40916723  0.35686160  1
  O2-  O545  1  0.33241252  0.39058857  0.69233544  1
  O2-  O546  1  0.33930916  0.67359715  0.01821269  1
  O2-  O547  1  0.33239687  0.65851741  0.30704195  1
  O2-  O548  1  0.29962152  0.72151968  0.71776244  1
  O2-  O549  1  0.33113153  0.91053089  0.01347447  1
  O2-  O550  1  0.33010953  0.93702421  0.34149024  1
  O2-  O551  1  0.35348733  0.94873460  0.69007582  1
  O2-  O552  1  0.58418950  0.16635135  0.02449711  1
  O2-  O553  1  0.60122648  0.17796478  0.36625729  1
  O2-  O554  1  0.60006141  0.18753648  0.69291472  1
  O2-  O555  1  0.59095490  0.42259197  0.01889565  1
  O2-  O556  1  0.58252361  0.41928325  0.38160804  1
  O2-  O557  1  0.58773249  0.40667515  0.69138114  1
  O2-  O558  1  0.61833461  0.68309071  0.02537120  1
  O2-  O559  1  0.58898320  0.66438518  0.35160605  1
  O2-  O560  1  0.57907942  0.64528056  0.68857346  1
  O2-  O561  1  0.58675916  0.91194153  0.01452116  1
  O2-  O562  1  0.56754414  0.90583368  0.34337240  1
  O2-  O563  1  0.57579000  0.94685979  0.69606162  1
  O2-  O564  1  0.87857965  0.16954764  0.05772690  1
  O2-  O565  1  0.80927899  0.16527409  0.35123762  1
  O2-  O566  1  0.82917124  0.15232831  0.70683974  1
  O2-  O567  1  0.83031853  0.41155254  0.01647244  1
  O2-  O568  1  0.81709941  0.41664275  0.35065557  1
  O2-  O569  1  0.76687318  0.39933448  0.69788696  1
  O2-  O570  1  0.83736719  0.66811130  0.01423144  1
  O2-  O571  1  0.83436359  0.65542377  0.35193879  1
  O2-  O572  1  0.81650890  0.65126209  0.67523228  1
  O2-  O573  1  0.83631913  0.92569156  0.00545566  1
  O2-  O574  1  0.81381932  0.95430118  0.33380410  1
  O2-  O575  1  0.85623785  0.93072373  0.69695755  1
