# generated using pymatgen
data_H2O
_symmetry_space_group_name_H-M   'P 1'
_cell_length_a   17.99556608
_cell_length_b   17.99705889
_cell_length_c   22.00162182
_cell_angle_alpha   90.00098642
_cell_angle_beta   89.98391575
_cell_angle_gamma   119.98962925
_symmetry_Int_Tables_number   1
_chemical_formula_structural   H2O
_chemical_formula_sum   'H384 O192'
_cell_volume   6171.59944862
_cell_formula_units_Z   192
loop_
 _symmetry_equiv_pos_site_id
 _symmetry_equiv_pos_as_xyz
  1  'x, y, z'
loop_
 _atom_type_symbol
 _atom_type_oxidation_number
  H+  1.0
  O2-  -2.0
loop_
 _atom_site_type_symbol
 _atom_site_label
 _atom_site_symmetry_multiplicity
 _atom_site_fract_x
 _atom_site_fract_y
 _atom_site_fract_z
 _atom_site_occupancy
  H+  H0  1  0.36729028  0.11314819  0.18756647  1
  H+  H1  1  0.11143603  0.51416488  0.14617719  1
  H+  H2  1  0.24510397  0.61508822  0.83603798  1
  H+  H3  1  0.88404443  0.81934099  0.63812550  1
  H+  H4  1  0.08393228  0.71760105  0.14349438  1
  H+  H5  1  0.48015851  0.12319760  0.83733573  1
  H+  H6  1  0.10993750  0.22320211  0.82026383  1
  H+  H7  1  0.64069456  0.29186524  0.67502609  1
  H+  H8  1  0.36307767  0.11512784  0.49329065  1
  H+  H9  1  0.43583298  0.51917193  0.34818813  1
  H+  H10  1  0.10705969  0.22625853  0.51112697  1
  H+  H11  1  0.63191210  0.35834045  0.49906595  1
  H+  H12  1  0.40382218  0.11618551  0.30944569  1
  H+  H13  1  0.89773931  0.60806940  0.84168403  1
  H+  H14  1  0.87771555  0.35966139  0.50692044  1
  H+  H15  1  0.39232626  0.58369530  0.11103644  1
  H+  H16  1  0.11661578  0.19356217  0.16994481  1
  H+  H17  1  0.87250318  0.34977037  0.84078709  1
  H+  H18  1  0.92431459  0.57706277  0.23536714  1
  H+  H19  1  0.64248120  0.50847647  -0.02317531  1
  H+  H20  1  0.61139940  0.46817720  0.50229163  1
  H+  H21  1  0.12076548  0.89284105  0.66594439  1
  H+  H22  1  0.01671880  0.88235038  0.51855919  1
  H+  H23  1  0.35781081  0.45151418  0.50483776  1
  H+  H24  1  0.42915078  0.31971080  0.23443469  1
  H+  H25  1  1.02164625  0.38660940  0.50170056  1
  H+  H26  1  0.10631605  -0.01580619  0.81881380  1
  H+  H27  1  0.96679181  0.35121156  0.99104523  1
  H+  H28  1  0.33259107  0.66869884  0.75776601  1
  H+  H29  1  0.80315583  0.87632793  0.49706109  1
  H+  H30  1  0.38102473  0.76593721  0.17182133  1
  H+  H31  1  0.77944736  0.63452173  0.50703829  1
  H+  H32  1  0.58326565  0.67867619  0.72722300  1
  H+  H33  1  0.36803750  0.71259462  0.99759182  1
  H+  H34  1  0.76637154  0.12297868  0.82726265  1
  H+  H35  1  -0.02349288  0.37545971  0.16907954  1
  H+  H36  1  0.50200424  0.12967184  0.49003067  1
  H+  H37  1  0.61487684  0.47455350  0.15275257  1
  H+  H38  1  0.90925184  0.33614044  0.56952468  1
  H+  H39  1  0.97012056  0.35644932  0.66443524  1
  H+  H40  1  0.59793094  0.89851103  0.49550676  1
  H+  H41  1  0.31087854  0.38021419  0.05985118  1
  H+  H42  1  0.51251319  0.73046778  0.36433723  1
  H+  H43  1  0.39171539  0.02341071  0.65481659  1
  H+  H44  1  0.88244593  0.82332297  0.31782961  1
  H+  H45  1  0.09980462  0.22678874  0.35803866  1
  H+  H46  1  0.52554860  0.39657619  0.65416108  1
  H+  H47  1  0.52209204  0.09040148  0.18645913  1
  H+  H48  1  0.13069947  0.59652938  0.98545285  1
  H+  H49  1  0.37844963  0.87553283  0.50489957  1
  H+  H50  1  -0.03003436  0.87925991  0.82892752  1
  H+  H51  1  0.30337433  0.90694437  0.14796018  1
  H+  H52  1  0.89137520  0.10512059  0.16684005  1
  H+  H53  1  0.01517807  0.13842826  0.50931128  1
  H+  H54  1  0.75349436  0.60844570  0.97232457  1
  H+  H55  1  0.34682313  0.43691336  0.24486008  1
  H+  H56  1  0.12712721  0.11416942  0.51133284  1
  H+  H57  1  0.26453327  0.14779102  0.32368494  1
  H+  H58  1  0.10228281  0.72190763  0.34201265  1
  H+  H59  1  0.63472194  0.10609751  0.83821459  1
  H+  H60  1  0.52434336  0.15949096  0.68825236  1
  H+  H61  1  0.89289689  0.52007655  -0.00576219  1
  H+  H62  1  0.89356229  0.02911310  0.84637515  1
  H+  H63  1  0.62817811  0.26765612  0.49802246  1
  H+  H64  1  0.40289486  0.54826767  0.89425499  1
  H+  H65  1  0.61577454  0.50386506  0.81861295  1
  H+  H66  1  0.12118151  0.49571493  -0.01343915  1
  H+  H67  1  0.85489130  0.22789665  0.50601398  1
  H+  H68  1  0.49304392  0.88911562  0.32362907  1
  H+  H69  1  0.35457292  -0.01806686  0.34152310  1
  H+  H70  1  0.11764034  0.34560492  0.84113758  1
  H+  H71  1  0.17211892  0.84378702  0.18865867  1
  H+  H72  1  0.80242885  0.92054581  0.79177454  1
  H+  H73  1  0.86267205  0.62489626  -0.01562342  1
  H+  H74  1  0.88547545  0.11296684  0.84028141  1
  H+  H75  1  0.70887663  0.10096864  0.99396814  1
  H+  H76  1  0.85771071  0.47191991  0.16999315  1
  H+  H77  1  0.10708343  0.64090506  0.14067376  1
  H+  H78  1  0.27864671  0.64298705  0.66119009  1
  H+  H79  1  0.98515218  0.36613515  0.32837016  1
  H+  H80  1  0.62868800  0.85208519  0.17651029  1
  H+  H81  1  0.76955540  0.62734735  0.68840588  1
  H+  H82  1  0.02123496  0.65444025  0.82106594  1
  H+  H83  1  0.64184967  0.14028417  0.15543340  1
  H+  H84  1  0.61306036  0.39466876  0.67041190  1
  H+  H85  1  0.83477728  0.85684022  0.81556517  1
  H+  H86  1  0.71536006  0.84885536  0.17472022  1
  H+  H87  1  0.62477324  0.00649605  0.99088105  1
  H+  H88  1  0.38181533  0.02022722  0.98486163  1
  H+  H89  1  0.52463255  0.88459586  0.15953262  1
  H+  H90  1  0.88750455  0.23411549  0.34333996  1
  H+  H91  1  0.59699619  0.16428828  0.10005064  1
  H+  H92  1  0.36866517  0.64483516  0.66370774  1
  H+  H93  1  0.38551676  0.53713221  0.66729362  1
  H+  H94  1  0.46865058  0.88016979  0.50035450  1
  H+  H95  1  0.23034132  0.33982038  0.19521034  1
  H+  H96  1  0.34861873  0.34782341  0.35543671  1
  H+  H97  1  0.73934929  0.11392240  0.33121181  1
  H+  H98  1  0.76516480  0.61974322  0.16431429  1
  H+  H99  1  0.74003446  0.36231610  0.17889188  1
  H+  H100  1  0.38223115  0.77677525  0.65083750  1
  H+  H101  1  0.84842327  0.46318497  0.48765392  1
  H+  H102  1  0.10101058  0.37417750  1.00854894  1
  H+  H103  1  0.63469439  0.52328911  0.66321049  1
  H+  H104  1  0.11543947  0.44958283  0.69264039  1
  H+  H105  1  0.52174625  0.62542096  1.00413576  1
  H+  H106  1  0.70161886  0.11583703  0.66841073  1
  H+  H107  1  0.96869155  0.59984290  0.16806020  1
  H+  H108  1  0.62193041  0.22220179  0.34327224  1
  H+  H109  1  0.89583458  0.51910339  0.32513453  1
  H+  H110  1  0.22897377  0.35431212  0.52235924  1
  H+  H111  1  0.34851953  0.89318213  0.34240765  1
  H+  H112  1  0.78952226  0.13722216  0.16620002  1
  H+  H113  1  0.41696528  0.83342696  0.22852335  1
  H+  H114  1  0.90809953  0.81961627  0.22078101  1
  H+  H115  1  0.36948456  0.89121528  0.66524704  1
  H+  H116  1  0.80465001  0.91575846  0.07134704  1
  H+  H117  1  0.28358965  0.07667624  0.34884101  1
  H+  H118  1  0.08542401  0.88037608  0.14284409  1
  H+  H119  1  0.12404071  0.25675855  0.00088216  1
  H+  H120  1  0.16579774  0.79088738  0.83452258  1
  H+  H121  1  0.53509425  0.13234801  0.33986529  1
  H+  H122  1  0.37862890  0.61436501  0.50782893  1
  H+  H123  1  0.89656489  0.27810765  0.17273243  1
  H+  H124  1  0.38360083  0.72310838  0.81471624  1
  H+  H125  1  0.63177212  0.36075415  0.83338277  1
  H+  H126  1  0.11801721  0.48000737  0.35593622  1
  H+  H127  1  0.51136109  0.87648454  1.00460509  1
  H+  H128  1  0.73001180  0.35665135  0.32752074  1
  H+  H129  1  0.75852025  0.37333987  0.48499498  1
  H+  H130  1  0.14379466  0.36402493  0.51922314  1
  H+  H131  1  0.58770116  0.61350043  0.81593403  1
  H+  H132  1  0.64803630  0.26308750  0.17618785  1
  H+  H133  1  0.86801490  0.38999227  1.01005339  1
  H+  H134  1  0.71246179  0.11698221  0.51441927  1
  H+  H135  1  0.39366210  0.29321598  0.62787584  1
  H+  H136  1  0.14737699  0.02916736  0.65485065  1
  H+  H137  1  0.83772393  0.13869258  0.67072829  1
  H+  H138  1  0.40384120  0.36754743  -0.00386480  1
  H+  H139  1  0.25444003  0.63920826  0.15105593  1
  H+  H140  1  0.85995545  0.75128120  0.16835508  1
  H+  H141  1  0.41961160  0.69757642  0.34522736  1
  H+  H142  1  0.60718354  0.14920085  0.68002091  1
  H+  H143  1  0.26304601  0.87150225  0.83999697  1
  H+  H144  1  0.38216717  0.50889447  -0.01553720  1
  H+  H145  1  0.62728575  0.26294778  -0.01468785  1
  H+  H146  1  0.26771069  0.87761145  0.99951074  1
  H+  H147  1  0.13100200  0.90866886  -0.00879574  1
  H+  H148  1  0.15589933  0.61274879  0.83885921  1
  H+  H149  1  0.03617420  0.63797907  0.49979159  1
  H+  H150  1  0.13150861  0.71626015  -0.00697480  1
  H+  H151  1  0.85255490  -0.02927741  0.33239054  1
  H+  H152  1  0.39701487  0.12902633  0.16061555  1
  H+  H153  1  0.39918024  0.36607538  0.18996759  1
  H+  H154  1  0.67807206  0.82396974  0.82858722  1
  H+  H155  1  0.80181920  0.64620497  0.84531619  1
  H+  H156  1  0.13646050  0.53950646  0.64092114  1
  H+  H157  1  0.72875023  0.38073160  0.67165200  1
  H+  H158  1  0.57773825  0.69724350  0.82637272  1
  H+  H159  1  0.12758508  1.02460100  0.51077921  1
  H+  H160  1  0.38586229  0.11145651  -0.00923110  1
  H+  H161  1  0.34416235  0.24551940  0.14915144  1
  H+  H162  1  0.40296850  0.26007048  0.32819020  1
  H+  H163  1  0.76324069  0.87337201  0.34069741  1
  H+  H164  1  0.83908072  0.23479610  0.01171132  1
  H+  H165  1  -0.01868916  0.60954016  -0.01240103  1
  H+  H166  1  0.33617781  0.63364156  0.17398019  1
  H+  H167  1  0.02494552  0.13259823  0.81962604  1
  H+  H168  1  0.67437524  0.84231403  0.53502813  1
  H+  H169  1  0.76820621  0.38462309  0.82860350  1
  H+  H170  1  0.20633165  0.34652343  0.98365573  1
  H+  H171  1  0.10545605  0.35855185  0.68250433  1
  H+  H172  1  0.46429164  0.58096101  0.82835962  1
  H+  H173  1  0.14550674  0.12190229  -0.01209261  1
  H+  H174  1  0.23068815  0.86766393  0.50537865  1
  H+  H175  1  0.62829707  0.97719500  0.33814615  1
  H+  H176  1  0.52963397  0.38510076  0.14843709  1
  H+  H177  1  0.13675107  0.52079068  0.50208476  1
  H+  H178  1  0.10559636  0.10175851  0.16340193  1
  H+  H179  1  0.59677506  0.87153803  0.00294019  1
  H+  H180  1  0.13731454  0.32031786  0.17798065  1
  H+  H181  1  0.51950464  0.38271863  0.50982964  1
  H+  H182  1  0.63952531  0.35584743  0.33073788  1
  H+  H183  1  -0.02704499  0.09162999  0.17216958  1
  H+  H184  1  0.85573089  0.62559579  0.16643438  1
  H+  H185  1  0.27836447  0.62125734  0.50357486  1
  H+  H186  1  0.48038485  0.62125876  0.65596528  1
  H+  H187  1  0.23489378  0.12452075  0.16066064  1
  H+  H188  1  0.27895464  0.67475020  0.37152984  1
  H+  H189  1  0.27549882  0.41153430  0.69515757  1
  H+  H190  1  0.50733553  0.86180155  0.67415356  1
  H+  H191  1  0.12309143  0.65015954  0.66770268  1
  H+  H192  1  0.65953626  0.33140969  0.89555343  1
  H+  H193  1  0.11330386  0.42612539  0.15612703  1
  H+  H194  1  0.60297021  0.71770399  0.00502605  1
  H+  H195  1  0.66274029  0.60298500  0.33407187  1
  H+  H196  1  0.96284236  0.35255783  0.84271702  1
  H+  H197  1  0.86356866  0.83797364  -0.01434825  1
  H+  H198  1  0.69163877  0.59595354  0.79861834  1
  H+  H199  1  0.86809544  0.09019831  0.31710186  1
  H+  H200  1  0.24146939  0.87128781  0.65556204  1
  H+  H201  1  0.14954839  0.78071559  0.65744027  1
  H+  H202  1  0.08850758  0.79206448  0.96083136  1
  H+  H203  1  0.10915660  0.46678127  0.82844031  1
  H+  H204  1  0.60853934  0.99158526  0.49373230  1
  H+  H205  1  0.84043834  0.42201125  0.06954901  1
  H+  H206  1  0.63352591  0.35467678  -0.01296266  1
  H+  H207  1  0.86647495  0.63377770  0.50754152  1
  H+  H208  1  0.89352551  0.74080426  0.32324058  1
  H+  H209  1  0.87557469  0.27632782  0.66457983  1
  H+  H210  1  0.33842152  0.90872263  0.05133173  1
  H+  H211  1  0.63922471  0.60028484  0.51156767  1
  H+  H212  1  0.02860788  0.12634968  0.00973304  1
  H+  H213  1  0.13877433  0.76632175  0.50934507  1
  H+  H214  1  0.95885385  0.51872586  0.54270867  1
  H+  H215  1  0.03086517  0.88545398  0.65458238  1
  H+  H216  1  0.63311503  0.60328436  0.18150632  1
  H+  H217  1  0.48553973  0.35295748  0.33208285  1
  H+  H218  1  0.25957845  0.13559729  0.48519142  1
  H+  H219  1  0.38249206  0.59793848  0.98102887  1
  H+  H220  1  0.21882224  0.34598785  0.34416033  1
  H+  H221  1  0.98037919  0.07968239  0.66354204  1
  H+  H222  1  0.10659847  0.88765903  0.50972160  1
  H+  H223  1  0.20160894  0.85647480  0.32475279  1
  H+  H224  1  0.70527387  0.85599302  0.98677594  1
  H+  H225  1  0.84191911  0.86435864  0.15649297  1
  H+  H226  1  0.13742918  0.62317120  0.34885169  1
  H+  H227  1  0.61581431  0.22715442  0.83358026  1
  H+  H228  1  0.66592442  0.82366377  0.26869271  1
  H+  H229  1  0.58406890  0.81602846  0.83653040  1
  H+  H230  1  0.85437809  0.21487531  0.82936044  1
  H+  H231  1  0.14618492  0.15482462  0.32899157  1
  H+  H232  1  0.60145920  0.71319060  0.16151090  1
  H+  H233  1  0.88666989  0.04971017  0.68599616  1
  H+  H234  1  -0.01751077  0.62308732  0.66385576  1
  H+  H235  1  0.37420842  0.87883412  0.14886024  1
  H+  H236  1  0.36746521  0.15530356  0.81828611  1
  H+  H237  1  0.40909713  0.53284143  0.36608627  1
  H+  H238  1  0.89020796  0.76323637  0.53732703  1
  H+  H239  1  0.51186339  0.38517043  0.81954453  1
  H+  H240  1  0.89334253  0.78225629  0.83443444  1
  H+  H241  1  0.86143193  0.63404992  0.68630834  1
  H+  H242  1  0.12463966  0.98186486  0.14280761  1
  H+  H243  1  0.35766761  0.77139452  0.37370356  1
  H+  H244  1  0.10561856  0.81012946  0.23917312  1
  H+  H245  1  0.37451853  0.16120516  0.66324175  1
  H+  H246  1  0.86337296  0.46874650  0.83074215  1
  H+  H247  1  0.54743973  0.63269813  0.34158466  1
  H+  H248  1  0.06859973  0.39802732  0.77467837  1
  H+  H249  1  0.37361935  0.23073334  0.99748195  1
  H+  H250  1  0.34560921  0.92559589  0.72590952  1
  H+  H251  1  0.37903659  0.85172348  0.97565126  1
  H+  H252  1  0.48011484  0.59236718  0.13609797  1
  H+  H253  1  0.89269237  0.02376193  0.99479917  1
  H+  H254  1  0.87291140  0.10810649  0.52275592  1
  H+  H255  1  0.61427875  0.70379733  0.50192809  1
  H+  H256  1  0.65111860  0.11460629  0.33066623  1
  H+  H257  1  0.34039641  0.98391826  0.49330306  1
  H+  H258  1  0.63936223  0.85610686  0.32858279  1
  H+  H259  1  0.57761099  0.83323014  0.68684433  1
  H+  H260  1  0.21703357  0.05311876  0.21261571  1
  H+  H261  1  0.84906044  -0.08371407  0.66100258  1
  H+  H262  1  0.38283644  -0.00717778  0.81901473  1
  H+  H263  1  0.40561820  0.91769335  0.81406255  1
  H+  H264  1  0.11772538  0.12995258  0.66832746  1
  H+  H265  1  0.61999607  0.11204639  0.51040326  1
  H+  H266  1  0.89379630  0.05483252  0.25689229  1
  H+  H267  1  0.62428284  0.46777964  0.34545227  1
  H+  H268  1  0.84948006  -0.04190284  0.15929250  1
  H+  H269  1  0.86380294  0.37695825  0.33709207  1
  H+  H270  1  0.93191486  0.57602667  0.57893206  1
  H+  H271  1  0.89444510  0.53151414  0.66868699  1
  H+  H272  1  0.04366623  0.74169038  0.79037280  1
  H+  H273  1  0.43313729  0.00462114  0.17866851  1
  H+  H274  1  0.46051644  0.94026021  0.28515995  1
  H+  H275  1  0.14011774  0.12051183  0.83324611  1
  H+  H276  1  0.63161936  0.72106909  0.34321161  1
  H+  H277  1  0.77239641  0.97060477  0.03718565  1
  H+  H278  1  -0.10909436  0.60951317  0.32781147  1
  H+  H279  1  0.60198615  0.12043353  0.00307165  1
  H+  H280  1  0.53358425  0.38920410  0.99741246  1
  H+  H281  1  0.64836752  1.01958784  0.17313228  1
  H+  H282  1  0.47634138  0.60163316  0.50786163  1
  H+  H283  1  0.39529870  0.39233423  0.84345371  1
  H+  H284  1  0.01820853  0.62661788  0.34189639  1
  H+  H285  1  0.58740146  0.66206610  0.09829520  1
  H+  H286  1  0.85832905  0.38199941  0.16776731  1
  H+  H287  1  0.01252102  0.86866019  0.35100790  1
  H+  H288  1  0.75093684  0.59949640  0.32794685  1
  H+  H289  1  0.64452172  0.61759408  0.66194484  1
  H+  H290  1  0.14708174  0.61623166  0.49515588  1
  H+  H291  1  0.84061972  0.66206584  0.77641699  1
  H+  H292  1  0.33950248  0.66080845  0.05955795  1
  H+  H293  1  0.56610905  0.40888354  0.75607532  1
  H+  H294  1  0.13712341  0.30541096  0.89832088  1
  H+  H295  1  0.16040380  0.31939227  0.28389907  1
  H+  H296  1  0.82990636  0.91498597  0.40238257  1
  H+  H297  1  0.52132077  0.84772622  0.76369266  1
  H+  H298  1  0.92894015  0.57555164  0.89793981  1
  H+  H299  1  0.58160195  0.91122027  0.09997048  1
  H+  H300  1  0.17328230  0.09036441  0.59656751  1
  H+  H301  1  0.31579547  0.16055855  0.42407520  1
  H+  H302  1  0.39166283  0.59758523  0.23718513  1
  H+  H303  1  0.66752322  0.57049339  0.23806275  1
  H+  H304  1  0.13508157  0.26230734  0.66830923  1
  H+  H305  1  0.41373205  0.08906778  0.89200138  1
  H+  H306  1  0.17400515  0.59886108  0.58473781  1
  H+  H307  1  0.58631278  0.65218252  0.43861940  1
  H+  H308  1  0.55117357  0.94845985  0.83893548  1
  H+  H309  1  0.11732493  0.39013800  0.34895467  1
  H+  H310  1  0.58592343  0.17022584  0.77459037  1
  H+  H311  1  0.67317258  0.57896620  0.57257287  1
  H+  H312  1  0.35291411  0.68271105  0.45713738  1
  H+  H313  1  0.07585937  0.42052568  0.06283521  1
  H+  H314  1  0.86626705  0.39639522  0.67710178  1
  H+  H315  1  0.84644272  0.65037268  0.39052191  1
  H+  H316  1  0.67039733  0.32259751  0.24166570  1
  H+  H317  1  0.91911656  0.18073464  0.38087950  1
  H+  H318  1  0.17536531  0.83958066  0.92226885  1
  H+  H319  1  0.34008488  0.18773514  0.75942988  1
  H+  H320  1  0.93221067  0.08471047  0.93691825  1
  H+  H321  1  0.90411572  0.32130305  0.93262005  1
  H+  H322  1  0.39308157  0.46837949  0.07266365  1
  H+  H323  1  0.28316192  0.15311645  0.66343022  1
  H+  H324  1  0.08082827  0.41121735  0.44245442  1
  H+  H325  1  0.82704329  0.16649042  0.44889271  1
  H+  H326  1  0.59272877  0.42402123  0.05736155  1
  H+  H327  1  0.16743089  0.33019138  0.61416916  1
  H+  H328  1  0.36546842  0.36737236  0.52043159  1
  H+  H329  1  0.06837032  0.90277715  0.41253959  1
  H+  H330  1  0.41431980  0.84062896  0.59253965  1
  H+  H331  1  0.57102536  0.15548316  0.43570807  1
  H+  H332  1  0.19117659  0.59991998  0.30230951  1
  H+  H333  1  0.58441796  0.40847719  0.40512837  1
  H+  H334  1  0.92682182  0.33325025  0.26739921  1
  H+  H335  1  0.42934058  0.83706240  0.92170165  1
  H+  H336  1  0.64552420  0.08784424  0.60862640  1
  H+  H337  1  0.83052141  0.40566241  0.39535027  1
  H+  H338  1  0.41905590  0.57854249  0.57144943  1
  H+  H339  1  0.15235108  0.60096821  0.20549792  1
  H+  H340  1  0.11309530  0.85402849  0.33916412  1
  H+  H341  1  0.09122706  0.68345395  0.72649075  1
  H+  H342  1  0.13522300  1.00555881  -0.00753855  1
  H+  H343  1  0.17487911  0.83082892  0.57563439  1
  H+  H344  1  0.42197595  0.34249462  0.92974510  1
  H+  H345  1  0.58923364  0.92091587  0.39749959  1
  H+  H346  1  0.85299220  0.71275836  -0.01938026  1
  H+  H347  1  0.31800190  0.37055283  0.41773660  1
  H+  H348  1  0.16707253  0.56597965  0.92396081  1
  H+  H349  1  0.67997227  0.07985825  0.23251986  1
  H+  H350  1  0.35008173  0.57488060  0.25478357  1
  H+  H351  1  0.83807131  0.42304334  0.73855038  1
  H+  H352  1  0.07849144  0.16464508  0.41424573  1
  H+  H353  1  0.08792284  0.66160029  0.05351720  1
  H+  H354  1  0.23054097  0.12348810  0.83219430  1
  H+  H355  1  0.81500283  0.85333875  0.71691376  1
  H+  H356  1  0.66635049  0.56349989  0.91183130  1
  H+  H357  1  0.82156018  0.16389178  0.73718281  1
  H+  H358  1  0.51781044  0.12762758  1.00817614  1
  H+  H359  1  0.90185823  0.83021301  0.92279058  1
  H+  H360  1  0.83695723  0.17395010  0.10473185  1
  H+  H361  1  0.86071955  -0.02119301  0.49282311  1
  H+  H362  1  0.31161838  0.92027051  0.43457485  1
  H+  H363  1  0.08531538  0.67225633  0.43502656  1
  H+  H364  1  0.39067025  0.08615431  0.55554477  1
  H+  H365  1  0.38088871  0.29490834  0.83505127  1
  H+  H366  1  0.08873220  0.15257264  0.06981045  1
  H+  H367  1  0.28217889  0.14482247  -0.00472795  1
  H+  H368  1  0.66616154  0.78062203  0.58654462  1
  H+  H369  1  0.36364340  0.47188576  0.17714196  1
  H+  H370  1  0.08182521  0.15464759  0.72796536  1
  H+  H371  1  0.47256684  0.08507177  0.61545625  1
  H+  H372  1  0.33692259  0.45936658  0.75322555  1
  H+  H373  1  0.07362273  0.92607163  0.75932123  1
  H+  H374  1  0.90255055  0.06586878  0.57572062  1
  H+  H375  1  0.16226654  0.11983979  0.26601510  1
  H+  H376  1  0.66020942  0.06832903  0.89418182  1
  H+  H377  1  0.75856650  0.21069698  0.05149534  1
  H+  H378  1  0.44307236  0.06901496  0.26751917  1
  H+  H379  1  0.31411526  0.19086533  0.08688438  1
  H+  H380  1  0.64201191  0.81483130  0.92850149  1
  H+  H381  1  0.69613039  0.79600609  0.67475793  1
  H+  H382  1  0.09863784  0.93526473  0.05776048  1
  H+  H383  1  0.17390987  0.09586069  0.92330820  1
  O2-  O384  1  0.08052463  0.13675593  0.15015480  1
  O2-  O385  1  0.07535146  0.16643721  0.49459608  1
  O2-  O386  1  0.08409085  0.16229981  0.80305634  1
  O2-  O387  1  0.07709310  0.44447721  0.13582328  1
  O2-  O388  1  0.08272626  0.41644458  0.48788299  1
  O2-  O389  1  0.06925742  0.40545741  0.81975065  1
  O2-  O390  1  0.06721497  0.66212384  0.12377073  1
  O2-  O391  1  0.09416465  0.67423621  0.48077069  1
  O2-  O392  1  0.06856897  0.70526559  0.79855104  1
  O2-  O393  1  0.08672895  0.92813011  0.11962519  1
  O2-  O394  1  0.07316850  0.91433080  0.49668582  1
  O2-  O395  1  0.06698349  0.92505790  0.80401880  1
  O2-  O396  1  0.29293513  0.20319208  0.12543242  1
  O2-  O397  1  0.31899792  0.16051756  0.46870477  1
  O2-  O398  1  0.33627721  0.18506316  0.80468683  1
  O2-  O399  1  0.33614393  0.41825074  0.20248417  1
  O2-  O400  1  0.32709871  0.38906567  0.49878347  1
  O2-  O401  1  0.35902781  0.45620364  0.82589283  1
  O2-  O402  1  0.32084435  0.66471099  0.14475003  1
  O2-  O403  1  0.34242044  0.65276723  0.49730969  1
  O2-  O404  1  0.33285409  0.66859429  0.80304297  1
  O2-  O405  1  0.35753076  0.91964497  0.12942777  1
  O2-  O406  1  0.31155656  0.92066977  0.48022334  1
  O2-  O407  1  0.36128958  0.93269280  0.80328030  1
  O2-  O408  1  0.60839482  0.16947418  0.14521535  1
  O2-  O409  1  0.56427903  0.15476287  0.48073594  1
  O2-  O410  1  0.58511412  0.16555807  0.82018443  1
  O2-  O411  1  0.58658127  0.41971005  0.12955649  1
  O2-  O412  1  0.57526266  0.40913891  0.48591763  1
  O2-  O413  1  0.57125168  0.41060736  0.80176458  1
  O2-  O414  1  0.57845570  0.65470804  0.14386818  1
  O2-  O415  1  0.57680150  0.64608829  0.48357300  1
  O2-  O416  1  0.55258194  0.64053437  0.80411097  1
  O2-  O417  1  0.58530732  0.91445019  0.14542575  1
  O2-  O418  1  0.57780924  0.93217255  0.47380319  1
  O2-  O419  1  0.50137374  0.82757499  0.81016180  1
  O2-  O420  1  0.84872606  0.17047717  0.14867906  1
  O2-  O421  1  0.82165077  0.16568373  0.49353639  1
  O2-  O422  1  0.82774048  0.15490564  0.81254657  1
  O2-  O423  1  0.82428506  0.40963109  0.15497369  1
  O2-  O424  1  0.82339089  0.40404761  0.47282347  1
  O2-  O425  1  0.82970874  0.40897746  0.81501079  1
  O2-  O426  1  0.82505921  0.65322458  0.14906903  1
  O2-  O427  1  0.84234969  0.67003077  0.49730210  1
  O2-  O428  1  0.85564070  0.67275585  0.82267360  1
  O2-  O429  1  0.81329518  0.89915344  0.14268425  1
  O2-  O430  1  0.83900978  0.92390715  0.46982964  1
  O2-  O431  1  0.78638034  0.86030775  0.79374774  1
  O2-  O432  1  0.18733237  0.07102551  0.18427753  1
  O2-  O433  1  0.16196258  0.08640120  0.52217829  1
  O2-  O434  1  0.17147563  0.09167060  0.84997249  1
  O2-  O435  1  0.16785245  0.29717089  0.20028522  1
  O2-  O436  1  0.16773135  0.33021188  0.53748660  1
  O2-  O437  1  0.14369083  0.31077602  0.85384262  1
  O2-  O438  1  0.15929782  0.59980581  0.16166553  1
  O2-  O439  1  0.17386401  0.58387007  0.51264290  1
  O2-  O440  1  0.18339549  0.58109194  0.85333613  1
  O2-  O441  1  0.11010557  0.81271537  0.19361310  1
  O2-  O442  1  0.16885879  0.82794805  0.52661204  1
  O2-  O443  1  0.20527350  0.84064066  0.85940891  1
  O2-  O444  1  0.47637580  0.04062065  0.20943537  1
  O2-  O445  1  0.39197527  0.08173964  0.51087830  1
  O2-  O446  1  0.41679730  0.09271374  0.84673649  1
  O2-  O447  1  0.42414150  0.32802079  0.19001367  1
  O2-  O448  1  0.42540497  0.34108040  0.54621491  1
  O2-  O449  1  0.41811984  0.35205138  0.85392013  1
  O2-  O450  1  0.41707686  0.54940199  0.12535847  1
  O2-  O451  1  0.41570983  0.57519974  0.52445867  1
  O2-  O452  1  0.40248367  0.54651044  0.84700501  1
  O2-  O453  1  0.41565354  0.82817185  0.18355345  1
  O2-  O454  1  0.41046488  0.84702392  0.51800954  1
  O2-  O455  1  0.49271143  0.89640813  0.84048852  1
  O2-  O456  1  0.68298427  0.08048199  0.18736866  1
  O2-  O457  1  0.65088261  0.08235043  0.52648536  1
  O2-  O458  1  0.65877755  0.06806592  0.84880344  1
  O2-  O459  1  0.67547119  0.32293368  0.19494116  1
  O2-  O460  1  0.66693950  0.32975583  0.50433992  1
  O2-  O461  1  0.66494500  0.33450594  0.84916602  1
  O2-  O462  1  0.66115691  0.56992778  0.19288746  1
  O2-  O463  1  0.67443422  0.57596087  0.52712703  1
  O2-  O464  1  0.64861644  0.56891174  0.83049854  1
  O2-  O465  1  0.65578878  0.81953694  0.19279800  1
  O2-  O466  1  0.68363047  0.79443440  0.54301783  1
  O2-  O467  1  0.62365193  0.79555261  0.85168964  1
  O2-  O468  1  0.91117642  0.06618339  0.18332116  1
  O2-  O469  1  0.90388160  0.07632354  0.53131827  1
  O2-  O470  1  0.92318117  0.09000809  0.85571748  1
  O2-  O471  1  0.91949740  0.33779603  0.18864592  1
  O2-  O472  1  0.91162602  0.33387470  0.52414770  1
  O2-  O473  1  0.90168270  0.31793419  0.85590097  1
  O2-  O474  1  0.91328040  0.56878487  0.19011257  1
  O2-  O475  1  0.94363230  0.56305189  0.53577758  1
  O2-  O476  1  0.93014749  0.57799489  0.85205672  1
  O2-  O477  1  0.88482064  0.81409952  0.17951955  1
  O2-  O478  1  0.91982753  0.82360477  0.55451650  1
  O2-  O479  1  0.90867836  0.84229097  0.84471016  1
  O2-  O480  1  0.19168758  0.15938483  0.29957001  1
  O2-  O481  1  0.17763277  0.09071904  0.64243488  1
  O2-  O482  1  0.17667569  0.09382109  0.96956714  1
  O2-  O483  1  0.16042255  0.33177155  0.32755104  1
  O2-  O484  1  0.16253166  0.32514783  0.65969981  1
  O2-  O485  1  0.14390213  0.31553114  0.98215699  1
  O2-  O486  1  0.17855644  0.59885159  0.34549078  1
  O2-  O487  1  0.17208473  0.59995775  0.63094055  1
  O2-  O488  1  0.15449323  0.55879329  0.96978749  1
  O2-  O489  1  0.13960739  0.82252040  0.31606728  1
  O2-  O490  1  0.18053645  0.84012728  0.63892185  1
  O2-  O491  1  0.14997045  0.83150301  0.96626327  1
  O2-  O492  1  0.43029757  0.07976305  0.31067270  1
  O2-  O493  1  0.42430748  0.08340653  0.63697054  1
  O2-  O494  1  0.41559204  0.08167454  0.97347447  1
  O2-  O495  1  0.42600818  0.31936191  0.31465355  1
  O2-  O496  1  0.42805590  0.35280645  0.61242333  1
  O2-  O497  1  0.42695308  0.33521585  0.97465834  1
  O2-  O498  1  0.47399124  0.70375180  0.33012098  1
  O2-  O499  1  0.42052519  0.59151792  0.64087974  1
  O2-  O500  1  0.40895258  0.56458752  0.96318386  1
  O2-  O501  1  0.43992323  0.88374445  0.30379283  1
  O2-  O502  1  0.41453625  0.83872170  0.63852982  1
  O2-  O503  1  0.41260978  0.82326996  0.96462453  1
  O2-  O504  1  0.68101403  0.08393448  0.31451700  1
  O2-  O505  1  0.64225209  0.09144119  0.65343039  1
  O2-  O506  1  0.65277799  0.06593766  0.97338169  1
  O2-  O507  1  0.66833139  0.32486893  0.31293853  1
  O2-  O508  1  0.66781531  0.35137245  0.65928044  1
  O2-  O509  1  0.65580231  0.32041112  0.96659655  1
  O2-  O510  1  0.68553780  0.56805717  0.31639393  1
  O2-  O511  1  0.67381997  0.58556417  0.65080610  1
  O2-  O512  1  0.67705159  0.56742722  0.95608193  1
  O2-  O513  1  0.67061420  0.82621236  0.31465524  1
  O2-  O514  1  0.63409673  0.77114297  0.66353229  1
  O2-  O515  1  0.64465160  0.82007726  0.97372386  1
  O2-  O516  1  0.88156427  0.04685797  0.30192989  1
  O2-  O517  1  0.91705687  0.03965890  0.65325805  1
  O2-  O518  1  0.93594239  0.08210156  0.98163622  1
  O2-  O519  1  0.92509843  0.32990174  0.31284670  1
  O2-  O520  1  0.91134751  0.33565991  0.64830554  1
  O2-  O521  1  0.90577367  0.32336533  0.97831398  1
  O2-  O522  1  0.92860214  0.57971054  0.31165305  1
  O2-  O523  1  0.92188626  0.59062505  0.64973082  1
  O2-  O524  1  0.92148518  0.57877621  0.97274430  1
  O2-  O525  1  0.92330484  0.80452409  0.30807764  1
  O2-  O526  1  0.92990690  0.81068141  0.61949801  1
  O2-  O527  1  0.89632394  0.81445861  0.96683915  1
  O2-  O528  1  0.09055107  0.16031363  0.02484825  1
  O2-  O529  1  0.07559107  0.16551511  0.36918042  1
  O2-  O530  1  0.07840674  0.15161988  0.68218228  1
  O2-  O531  1  0.07452210  0.41069755  0.01740121  1
  O2-  O532  1  0.08380572  0.41763064  0.36428705  1
  O2-  O533  1  0.07263622  0.38932956  0.69754665  1
  O2-  O534  1  0.09641513  0.65696598  0.00784849  1
  O2-  O535  1  0.07930130  0.66290026  0.36005982  1
  O2-  O536  1  0.09327148  0.68141869  0.68116226  1
  O2-  O537  1  0.10463907  0.94192910  0.00850530  1
  O2-  O538  1  0.07216833  0.90244896  0.36775912  1
  O2-  O539  1  0.08653147  0.92038576  0.67598964  1
  O2-  O540  1  0.34002199  0.17110207  0.01447356  1
  O2-  O541  1  0.31316516  0.13805018  0.34023222  1
  O2-  O542  1  0.34420972  0.19084824  0.67669311  1
  O2-  O543  1  0.36329726  0.42392344  0.04041558  1
  O2-  O544  1  0.30953759  0.36566324  0.37291236  1
  O2-  O545  1  0.32632068  0.46450460  0.70868165  1
  O2-  O546  1  0.34590524  0.65501106  0.01558683  1
  O2-  O547  1  0.33874639  0.71290137  0.38698316  1
  O2-  O548  1  0.33742904  0.67477019  0.67801836  1
  O2-  O549  1  0.32975570  0.90648729  0.00639882  1
  O2-  O550  1  0.31733746  0.92188418  0.35692744  1
  O2-  O551  1  0.33996316  0.92334359  0.68041142  1
  O2-  O552  1  0.57815694  0.15374067  0.02329316  1
  O2-  O553  1  0.59416469  0.16104678  0.35735482  1
  O2-  O554  1  0.58464129  0.18495968  0.70064255  1
  O2-  O555  1  0.59457935  0.42127582  0.01099512  1
  O2-  O556  1  0.58893252  0.40652927  0.35989979  1
  O2-  O557  1  0.57741294  0.42323319  0.68071320  1
  O2-  O558  1  0.57778237  0.65990442  0.02378335  1
  O2-  O559  1  0.60467368  0.66173024  0.36015394  1
  O2-  O560  1  0.59290480  0.67986337  0.68197139  1
  O2-  O561  1  0.57107811  0.90501506  0.02099361  1
  O2-  O562  1  0.59217659  0.91656954  0.35233376  1
  O2-  O563  1  0.55381355  0.86823434  0.70257279  1
  O2-  O564  1  0.79317013  0.18634664  0.03703715  1
  O2-  O565  1  0.86664058  0.17690785  0.36474149  1
  O2-  O566  1  0.81613407  0.17148166  0.69206442  1
  O2-  O567  1  0.85155554  0.43143788  0.02560155  1
  O2-  O568  1  0.83140082  0.40589520  0.34971758  1
  O2-  O569  1  0.84189488  0.43134195  0.69328213  1
  O2-  O570  1  0.82365971  0.64933357  -0.00887005  1
  O2-  O571  1  0.84545180  0.64793551  0.34613760  1
  O2-  O572  1  0.82624024  0.65264548  0.70949430  1
  O2-  O573  1  0.79636063  0.93350232  0.02884865  1
  O2-  O574  1  0.82606290  0.90857570  0.35504005  1
  O2-  O575  1  0.81672849  0.85463910  0.67175539  1
