# generated using pymatgen
data_H2O
_symmetry_space_group_name_H-M   'P 1'
_cell_length_a   17.99596492
_cell_length_b   17.99664716
_cell_length_c   22.00968754
_cell_angle_alpha   90.01316491
_cell_angle_beta   89.99310045
_cell_angle_gamma   119.99443532
_symmetry_Int_Tables_number   1
_chemical_formula_structural   H2O
_chemical_formula_sum   'H384 O192'
_cell_volume   6173.55876967
_cell_formula_units_Z   192
loop_
 _symmetry_equiv_pos_site_id
 _symmetry_equiv_pos_as_xyz
  1  'x, y, z'
loop_
 _atom_type_symbol
 _atom_type_oxidation_number
  H+  1.0
  O2-  -2.0
loop_
 _atom_site_type_symbol
 _atom_site_label
 _atom_site_symmetry_multiplicity
 _atom_site_fract_x
 _atom_site_fract_y
 _atom_site_fract_z
 _atom_site_occupancy
  H+  H0  1  0.38833570  0.26352044  0.84750387  1
  H+  H1  1  0.36716802  0.09246732  1.00320113  1
  H+  H2  1  0.89017698  0.12497631  0.83692874  1
  H+  H3  1  0.69245600  0.33129479  0.63961244  1
  H+  H4  1  0.38580357  0.56351961  0.49597907  1
  H+  H5  1  0.60427049  0.72700552  0.68078015  1
  H+  H6  1  0.63686213  0.01851877  0.97970770  1
  H+  H7  1  0.47579200  0.60494552  1.00603900  1
  H+  H8  1  0.85366783  0.87563703  0.29850974  1
  H+  H9  1  0.23055817  0.10907339  0.98802504  1
  H+  H10  1  0.83245792  0.92326344  0.77062120  1
  H+  H11  1  0.61397923  0.23104342  0.30856934  1
  H+  H12  1  0.37952096  0.36402711  0.18627216  1
  H+  H13  1  0.19401474  0.34808328  0.20537439  1
  H+  H14  1  0.23633982  0.85567949  0.01710628  1
  H+  H15  1  -0.00728339  0.62293141  0.50182225  1
  H+  H16  1  0.16836196  0.08440549  0.89495932  1
  H+  H17  1  0.39584118  0.58530508  0.86057138  1
  H+  H18  1  0.99119063  0.62099871  0.82162484  1
  H+  H19  1  0.59773483  0.20014244  0.83052118  1
  H+  H20  1  0.79506571  0.41235834  0.16249265  1
  H+  H21  1  0.88298342  0.65444659  0.67058369  1
  H+  H22  1  0.70699560  0.85159218  0.33151446  1
  H+  H23  1  0.13885063  0.11391882  0.83463135  1
  H+  H24  1  0.91638076  0.04172738  0.17840354  1
  H+  H25  1  0.65137100  0.39420057  0.17309116  1
  H+  H26  1  0.59187578  0.71362540  0.35776751  1
  H+  H27  1  0.78581323  0.64000843  0.66919836  1
  H+  H28  1  0.08713266  0.98488974  0.52449562  1
  H+  H29  1  0.35534975  0.47121732  0.67047110  1
  H+  H30  1  0.54312176  0.18359048  0.14907027  1
  H+  H31  1  0.16115335  0.83337396  0.23797460  1
  H+  H32  1  0.48928957  0.10334862  0.53020713  1
  H+  H33  1  0.96578339  0.28409657  0.51192843  1
  H+  H34  1  0.64231405  1.01418347  0.83312781  1
  H+  H35  1  0.75582176  0.41057441  0.92097589  1
  H+  H36  1  0.72843941  0.61644791  0.17600669  1
  H+  H37  1  0.99667163  0.65412940  0.99034459  1
  H+  H38  1  0.88879878  0.78321853  0.99250710  1
  H+  H39  1  0.11468096  0.23338783  0.81545808  1
  H+  H40  1  0.61737020  0.48855721  0.16499057  1
  H+  H41  1  0.36156643  0.46343737  0.02199907  1
  H+  H42  1  0.92987803  0.13547604  0.18164843  1
  H+  H43  1  0.55398204  0.26980066  0.51502424  1
  H+  H44  1  0.33165855  0.92335676  0.39920098  1
  H+  H45  1  0.58696766  0.42732738  0.10598283  1
  H+  H46  1  0.46278428  0.09975465  0.66449770  1
  H+  H47  1  0.34334211  0.63704059  0.80115605  1
  H+  H48  1  0.15161209  0.18224826  0.32560068  1
  H+  H49  1  0.90389216  0.55960835  0.78830056  1
  H+  H50  1  0.89084294  0.78888018  0.84110726  1
  H+  H51  1  0.97073041  0.35906897  0.65843016  1
  H+  H52  1  0.60479567  0.97650267  0.34153705  1
  H+  H53  1  0.47340488  0.85921300  0.83096923  1
  H+  H54  1  0.15678106  0.34889506  0.54430528  1
  H+  H55  1  0.35464214  0.46194838  0.34853633  1
  H+  H56  1  0.91864408  0.84272945  0.93177453  1
  H+  H57  1  0.86706982  0.64383809  0.16079319  1
  H+  H58  1  0.36142483  0.37535302  0.01746529  1
  H+  H59  1  0.99820271  0.63327495  0.65580759  1
  H+  H60  1  0.63834481  0.62136723  -0.00527830  1
  H+  H61  1  0.87154689  0.97978415  0.67574014  1
  H+  H62  1  0.41540818  0.84835633  0.56723080  1
  H+  H63  1  0.77633431  0.13491581  0.68080981  1
  H+  H64  1  0.61836598  0.72349783  0.16699349  1
  H+  H65  1  0.09919021  0.67713188  0.72709400  1
  H+  H66  1  0.61456922  0.17572691  0.48892946  1
  H+  H67  1  0.14637508  0.01884380  0.98520007  1
  H+  H68  1  0.15807138  0.39230174  0.84508962  1
  H+  H69  1  0.09617595  0.47041495  0.67480358  1
  H+  H70  1  0.23673668  0.36079892  -0.00783042  1
  H+  H71  1  0.87903936  0.64949960  0.49069920  1
  H+  H72  1  0.35819308  0.63733834  0.66341386  1
  H+  H73  1  0.04835975  0.29241817  0.04410830  1
  H+  H74  1  0.57603405  0.64999591  0.44140271  1
  H+  H75  1  0.03736300  0.40609978  0.16156393  1
  H+  H76  1  0.88411768  0.87336229  0.84447870  1
  H+  H77  1  0.37864874  0.60098342  0.32835807  1
  H+  H78  1  0.48390320  0.59280031  0.51109412  1
  H+  H79  1  0.38172200  0.77233604  0.82347886  1
  H+  H80  1  0.20422173  0.59414208  0.82366864  1
  H+  H81  1  0.37663351  0.34680611  0.84166089  1
  H+  H82  1  0.60998089  0.14040162  0.31231790  1
  H+  H83  1  0.36030483  0.38485101  0.66342971  1
  H+  H84  1  1.02948762  0.89529495  0.34882143  1
  H+  H85  1  0.77004020  0.88346761  0.00436829  1
  H+  H86  1  0.73120463  0.10757535  0.51178141  1
  H+  H87  1  0.86001221  0.22432129  0.00454854  1
  H+  H88  1  0.47706044  0.37090882  0.64966100  1
  H+  H89  1  0.52892369  0.45281004  0.48310100  1
  H+  H90  1  0.87976482  0.76640642  0.66398781  1
  H+  H91  1  0.88836638  0.78076548  0.32522164  1
  H+  H92  1  0.66966318  0.58196774  0.23699830  1
  H+  H93  1  0.35346670  0.89706727  0.49456781  1
  H+  H94  1  0.63550077  0.09941911  0.66586812  1
  H+  H95  1  0.81944709  0.42278841  0.67002641  1
  H+  H96  1  0.38062961  0.77327121  0.32472455  1
  H+  H97  1  0.73869265  0.61633649  0.50278634  1
  H+  H98  1  0.11743695  0.72515659  0.82774861  1
  H+  H99  1  0.11511973  0.49679274  0.14582067  1
  H+  H100  1  1.02696071  0.88768083  0.15462209  1
  H+  H101  1  0.62482477  0.11223528  0.53269294  1
  H+  H102  1  0.91227928  0.48409547  0.48680424  1
  H+  H103  1  0.38426780  0.77738664  0.65353467  1
  H+  H104  1  0.47508141  0.11966886  0.31608770  1
  H+  H105  1  0.64681462  0.52634976  0.50265793  1
  H+  H106  1  0.41834241  0.55918216  0.94865269  1
  H+  H107  1  0.36087639  0.89126172  0.33987509  1
  H+  H108  1  0.12437295  0.89161615  0.66823856  1
  H+  H109  1  0.14152198  0.71469798  0.49387396  1
  H+  H110  1  0.99189291  0.37123945  0.32855188  1
  H+  H111  1  0.75685787  0.36272631  0.50916479  1
  H+  H112  1  0.46875608  0.86325170  0.32681491  1
  H+  H113  1  0.61683061  0.63511923  0.16418313  1
  H+  H114  1  0.11252000  0.92099284  0.76437308  1
  H+  H115  1  0.64299993  0.86646432  0.66479294  1
  H+  H116  1  0.58955728  0.89310181  0.14009609  1
  H+  H117  1  0.27049777  0.63256692  0.34218592  1
  H+  H118  1  0.35477912  0.37399433  0.34863900  1
  H+  H119  1  0.53396458  0.63097832  0.83826319  1
  H+  H120  1  0.61296185  0.88587088  0.82735292  1
  H+  H121  1  0.66336717  0.31231365  0.17684677  1
  H+  H122  1  0.47327759  0.87808161  0.50646080  1
  H+  H123  1  0.61896611  0.49044770  1.00876867  1
  H+  H124  1  1.05880857  0.35914935  0.81003777  1
  H+  H125  1  0.36258427  0.44201637  0.50372768  1
  H+  H126  1  0.73884064  0.84879589  0.23113292  1
  H+  H127  1  0.61334986  0.96995826  0.67696133  1
  H+  H128  1  0.12420265  0.97913009  0.66704511  1
  H+  H129  1  0.88052309  0.01939114  0.98626925  1
  H+  H130  1  0.63202234  0.86312963  0.99283964  1
  H+  H131  1  0.65762339  0.52984003  0.65868624  1
  H+  H132  1  0.64074567  0.53754707  0.83633739  1
  H+  H133  1  0.86430164  0.39241431  0.87113355  1
  H+  H134  1  0.14578327  0.35671307  0.98995942  1
  H+  H135  1  0.41923576  0.08087772  0.17831107  1
  H+  H136  1  0.86397779  0.24763096  0.49808000  1
  H+  H137  1  0.73424431  0.37108049  0.33141936  1
  H+  H138  1  0.13417132  0.86035508  0.33609465  1
  H+  H139  1  0.87457650  0.73605730  0.49457467  1
  H+  H140  1  0.69166401  0.87753625  0.18604239  1
  H+  H141  1  0.97855205  0.12302774  0.83205635  1
  H+  H142  1  0.23242378  0.12323839  0.64707048  1
  H+  H143  1  0.13467646  0.21749844  0.51016162  1
  H+  H144  1  0.98123850  0.88016598  0.51050914  1
  H+  H145  1  0.36980757  0.23358424  0.34453836  1
  H+  H146  1  0.11007191  0.46952494  0.34538475  1
  H+  H147  1  0.26924039  0.90809263  0.49140179  1
  H+  H148  1  0.97976539  0.11338038  0.66131195  1
  H+  H149  1  0.39306534  0.49950466  0.84107496  1
  H+  H150  1  0.73198152  0.29387569  0.85905623  1
  H+  H151  1  0.13708928  0.97767988  0.82443232  1
  H+  H152  1  0.96737491  0.36709175  0.83973957  1
  H+  H153  1  1.06815762  0.18454643  0.34016361  1
  H+  H154  1  0.91124087  0.54406704  0.64107327  1
  H+  H155  1  0.34637585  0.20170731  0.49422416  1
  H+  H156  1  0.27874512  0.13948852  0.83363846  1
  H+  H157  1  0.92673814  0.59529793  0.26585210  1
  H+  H158  1  0.87096857  0.48506921  0.86372200  1
  H+  H159  1  0.51907847  0.88115672  -0.01096350  1
  H+  H160  1  0.73803377  0.61990274  0.83824260  1
  H+  H161  1  1.06903384  0.16036874  0.17859860  1
  H+  H162  1  0.72823607  0.60641559  0.32700185  1
  H+  H163  1  0.86240832  0.13073468  0.34986016  1
  H+  H164  1  0.47250874  0.37128764  0.18193764  1
  H+  H165  1  0.76537633  0.87374468  0.51856531  1
  H+  H166  1  0.81566858  0.15456935  0.40275319  1
  H+  H167  1  0.15450076  0.81475602  0.90343626  1
  H+  H168  1  0.87847099  0.39554896  0.63570742  1
  H+  H169  1  0.11335988  0.22060780  0.66018348  1
  H+  H170  1  0.38755542  0.86788557  0.66188845  1
  H+  H171  1  0.69270877  0.12149952  0.16896123  1
  H+  H172  1  0.35949338  0.12815447  0.84612990  1
  H+  H173  1  0.86731483  0.65077108  0.00726106  1
  H+  H174  1  0.62095547  0.62854307  0.49968287  1
  H+  H175  1  0.34880832  0.46490190  0.17129451  1
  H+  H176  1  0.39085048  0.76154482  -0.01297526  1
  H+  H177  1  0.62816492  0.40803222  1.00932136  1
  H+  H178  1  0.87841921  0.48435578  0.33398458  1
  H+  H179  1  0.59814434  0.09969518  0.17892643  1
  H+  H180  1  0.14240275  0.92210255  0.50881518  1
  H+  H181  1  0.86363341  0.93923561  0.08835608  1
  H+  H182  1  0.13434173  0.60611981  0.33123470  1
  H+  H183  1  0.85653468  0.23384514  0.83228837  1
  H+  H184  1  0.86997003  0.64570777  0.33883815  1
  H+  H185  1  0.27529761  0.38558663  0.82055960  1
  H+  H186  1  0.59973601  0.88434283  0.34581203  1
  H+  H187  1  0.36984453  1.00266845  0.84700497  1
  H+  H188  1  0.39361799  0.03328622  0.51041423  1
  H+  H189  1  0.23306973  0.86617466  0.65308335  1
  H+  H190  1  0.11870967  0.89845579  0.15745446  1
  H+  H191  1  0.60880381  0.72739397  0.00914399  1
  H+  H192  1  0.60602127  0.38630688  0.35018232  1
  H+  H193  1  0.90048019  0.86885170  0.16829068  1
  H+  H194  1  0.10954724  0.65328305  0.13188636  1
  H+  H195  1  0.52218144  0.88184321  0.67302826  1
  H+  H196  1  0.12602317  0.82506507  0.49637913  1
  H+  H197  1  0.98574860  0.63462118  0.16510604  1
  H+  H198  1  0.98312558  0.61852813  0.32628350  1
  H+  H199  1  0.69107608  0.58702081  0.59892202  1
  H+  H200  1  0.35541761  0.13945784  0.66802958  1
  H+  H201  1  0.23500452  0.62769150  0.17768007  1
  H+  H202  1  0.36844038  0.22003454  0.00532002  1
  H+  H203  1  0.84248378  0.67797880  0.39761441  1
  H+  H204  1  0.58745826  0.34389970  0.84610421  1
  H+  H205  1  0.32518209  0.95216301  0.01466525  1
  H+  H206  1  0.35735259  0.87970791  0.82447956  1
  H+  H207  1  0.85977797  0.98615880  0.82782124  1
  H+  H208  1  0.90508001  0.28653484  0.17272726  1
  H+  H209  1  0.60048023  0.25154765  1.00814693  1
  H+  H210  1  0.46707729  0.61346471  0.66809866  1
  H+  H211  1  0.11861854  0.72700784  0.34003859  1
  H+  H212  1  0.89284551  0.50762945  0.01000325  1
  H+  H213  1  0.37013870  0.33303699  0.50082994  1
  H+  H214  1  0.76141826  0.20273861  0.45838038  1
  H+  H215  1  0.41442653  0.57659631  0.60577262  1
  H+  H216  1  0.41241873  0.32382937  0.27529700  1
  H+  H217  1  0.13162312  0.78104353  0.17368888  1
  H+  H218  1  0.24600003  0.61677612  0.50463041  1
  H+  H219  1  0.74407908  0.35956964  0.47634642  1
  H+  H220  1  0.22743741  0.35655621  0.64508391  1
  H+  H221  1  0.32828118  0.65908801  0.10331494  1
  H+  H222  1  0.61378857  0.35611069  0.81738530  1
  H+  H223  1  0.61140310  0.74372682  0.51051277  1
  H+  H224  1  0.14398702  0.85947589  0.84131585  1
  H+  H225  1  0.88808024  0.87075792  0.52485517  1
  H+  H226  1  0.16426185  0.51970105  0.50193440  1
  H+  H227  1  0.51717775  0.48282588  0.78564263  1
  H+  H228  1  0.57921438  0.09301180  0.01081067  1
  H+  H229  1  0.78077196  0.89156218  0.67676750  1
  H+  H230  1  0.84292656  0.96799497  0.53159020  1
  H+  H231  1  0.33783542  0.13818817  0.16122936  1
  H+  H232  1  0.12904666  0.73585822  0.66594220  1
  H+  H233  1  0.38655695  0.02947008  0.33341357  1
  H+  H234  1  0.36979650  0.13655522  0.34519802  1
  H+  H235  1  0.27106032  0.63104967  1.00567585  1
  H+  H236  1  0.59348760  -0.01782687  0.15161933  1
  H+  H237  1  0.87908607  0.86532802  0.66465703  1
  H+  H238  1  0.32691554  0.91238580  0.73252139  1
  H+  H239  1  0.07722780  0.38608761  0.07234688  1
  H+  H240  1  0.86269515  0.22709048  0.67421620  1
  H+  H241  1  0.72299153  0.10157087  0.32929083  1
  H+  H242  1  0.16661872  0.30867595  0.30903555  1
  H+  H243  1  0.82072655  0.13971859  0.15847611  1
  H+  H244  1  0.45919496  0.33250906  0.49793753  1
  H+  H245  1  0.12905109  0.62239137  0.48958475  1
  H+  H246  1  0.59438266  0.20206564  0.66825125  1
  H+  H247  1  0.90137919  0.37184674  -0.00007578  1
  H+  H248  1  0.63695117  0.51866340  0.32752491  1
  H+  H249  1  0.50744555  0.62156623  0.35328815  1
  H+  H250  1  0.85115543  0.09756681  0.51827488  1
  H+  H251  1  0.89808994  0.37307404  0.17530692  1
  H+  H252  1  0.47605461  0.60733644  0.17664311  1
  H+  H253  1  0.59576518  0.87216979  0.48940164  1
  H+  H254  1  0.94918912  0.06379947  0.34614954  1
  H+  H255  1  0.63683562  0.77607938  0.84212975  1
  H+  H256  1  0.22476063  0.86458040  0.33010131  1
  H+  H257  1  0.47986930  0.06865779  0.01611805  1
  H+  H258  1  0.46088359  0.86339159  0.16971103  1
  H+  H259  1  0.64656919  1.00839564  0.51494706  1
  H+  H260  1  0.72534057  0.10948005  0.98554482  1
  H+  H261  1  0.05334189  0.39727000  0.49765796  1
  H+  H262  1  0.25904761  0.87779227  0.16454522  1
  H+  H263  1  0.39427802  0.68096091  0.49398926  1
  H+  H264  1  0.10769853  0.83032421  1.00351857  1
  H+  H265  1  0.73786636  0.11461646  0.83356918  1
  H+  H266  1  0.18079208  0.34600530  0.89779406  1
  H+  H267  1  0.60228387  0.38194415  0.67569433  1
  H+  H268  1  0.14034734  0.61495420  0.65346576  1
  H+  H269  1  0.14654186  0.62981847  0.98048158  1
  H+  H270  1  0.80355823  0.42360508  0.01020520  1
  H+  H271  1  0.02553424  0.88368431  0.00410235  1
  H+  H272  1  0.58263390  0.37071097  0.51427777  1
  H+  H273  1  0.11324499  0.50460299  0.83152235  1
  H+  H274  1  0.84544378  0.95811788  0.28063049  1
  H+  H275  1  0.34527003  0.86836998  0.15795595  1
  H+  H276  1  0.63186170  0.27519054  0.03326991  1
  H+  H277  1  0.62889756  0.64704343  0.83266251  1
  H+  H278  1  0.10071987  0.22583463  0.00711716  1
  H+  H279  1  0.95636268  0.98295576  0.11439390  1
  H+  H280  1  0.87447136  0.65198038  0.82251805  1
  H+  H281  1  0.11067952  0.63104009  0.82238046  1
  H+  H282  1  0.26578592  0.87380988  0.83014268  1
  H+  H283  1  0.89992344  0.38145610  0.32494501  1
  H+  H284  1  1.00342082  0.14987219  1.01148976  1
  H+  H285  1  0.48118363  0.36552509  0.99607136  1
  H+  H286  1  0.77560375  0.64633581  0.00714667  1
  H+  H287  1  0.91499999  0.39637622  0.48315617  1
  H+  H288  1  0.85697364  0.43798287  0.10429581  1
  H+  H289  1  0.91461752  0.08351118  0.92846793  1
  H+  H290  1  0.38782090  0.60837685  0.17626292  1
  H+  H291  1  0.66177420  0.83130713  0.93544780  1
  H+  H292  1  0.33119971  0.16737674  0.06721121  1
  H+  H293  1  0.67517654  0.06856505  0.61206444  1
  H+  H294  1  0.31872513  0.67201899  0.74451605  1
  H+  H295  1  0.85848415  0.17728001  0.09387355  1
  H+  H296  1  0.72381851  0.86832477  0.84115070  1
  H+  H297  1  0.66151584  0.07355259  0.26974697  1
  H+  H298  1  0.08608762  0.17101466  0.75785233  1
  H+  H299  1  0.83427403  0.17688181  0.76965246  1
  H+  H300  1  0.95084725  0.10490415  0.28167084  1
  H+  H301  1  0.58440993  0.91420832  0.76582616  1
  H+  H302  1  0.31281912  0.39728948  0.11784051  1
  H+  H303  1  0.47351293  0.35514671  0.33553675  1
  H+  H304  1  0.37029748  0.75351057  0.49460583  1
  H+  H305  1  0.09196543  0.66419792  0.39767385  1
  H+  H306  1  0.67309377  0.07846297  0.89722672  1
  H+  H307  1  0.84206802  0.68001014  0.76504761  1
  H+  H308  1  0.05398209  0.41618083  0.73600266  1
  H+  H309  1  0.83217737  0.92085098  0.41122791  1
  H+  H310  1  0.08807048  0.70301399  0.08027265  1
  H+  H311  1  0.11320844  0.38544723  0.33039971  1
  H+  H312  1  0.18493914  1.06069767  0.48328553  1
  H+  H313  1  0.38022304  0.08275686  0.24124834  1
  H+  H314  1  0.50070374  0.40143625  0.82248805  1
  H+  H315  1  0.16458177  0.57260167  0.27477908  1
  H+  H316  1  0.82965031  0.43281658  0.75526595  1
  H+  H317  1  0.86206432  0.88656057  -0.00068232  1
  H+  H318  1  0.11550032  0.13345827  0.66024559  1
  H+  H319  1  0.83387581  0.67200683  0.10187333  1
  H+  H320  1  0.67176872  0.59291840  0.93552874  1
  H+  H321  1  0.38878842  0.05222431  0.94476845  1
  H+  H322  1  0.91839182  0.31542824  0.59545612  1
  H+  H323  1  0.90459516  0.54083495  0.17247138  1
  H+  H324  1  0.63695218  0.81355373  0.28354728  1
  H+  H325  1  0.30392218  0.89324160  0.08651216  1
  H+  H326  1  0.97552448  0.34600466  1.00336125  1
  H+  H327  1  0.33256693  0.40808490  0.75984386  1
  H+  H328  1  0.87096977  0.42997982  0.39388217  1
  H+  H329  1  0.18458376  0.10327236  0.58378807  1
  H+  H330  1  0.66738774  0.40650337  0.91788472  1
  H+  H331  1  0.55881411  0.19878284  0.41557596  1
  H+  H332  1  0.68290815  0.36270865  0.27131105  1
  H+  H333  1  0.57111012  0.92601886  0.04929914  1
  H+  H334  1  0.32943465  0.39651881  0.43818773  1
  H+  H335  1  0.16515228  0.58263969  0.92732250  1
  H+  H336  1  0.41208335  0.57058224  0.27208469  1
  H+  H337  1  0.40687960  0.07651133  0.60441415  1
  H+  H338  1  0.16674455  0.57721904  0.59570865  1
  H+  H339  1  0.85979642  0.13438584  0.00105352  1
  H+  H340  1  0.91728116  0.83630772  0.60275586  1
  H+  H341  1  0.57412119  0.66993743  0.74028882  1
  H+  H342  1  0.32513572  0.16047630  0.40569739  1
  H+  H343  1  0.36218130  0.72191418  0.16137966  1
  H+  H344  1  0.56738531  0.14907892  0.72976139  1
  H+  H345  1  0.67966847  0.83744775  0.60897831  1
  H+  H346  1  0.57219787  0.42110528  0.40696587  1
  H+  H347  1  0.35567522  0.23329947  0.15589068  1
  H+  H348  1  0.17836744  0.66222250  0.20831418  1
  H+  H349  1  0.89142614  0.11526282  0.67040025  1
  H+  H350  1  0.35583708  0.62309388  0.01190229  1
  H+  H351  1  0.92648783  0.83623355  0.26457199  1
  H+  H352  1  0.45654764  0.09327569  0.84915821  1
  H+  H353  1  0.57514277  0.78283313  0.55739839  1
  H+  H354  1  0.57503477  0.91669806  0.43327009  1
  H+  H355  1  0.53348749  0.11004388  0.10227742  1
  H+  H356  1  0.58630822  0.66943858  0.06975901  1
  H+  H357  1  0.33748934  0.67381918  0.39687338  1
  H+  H358  1  0.41460417  0.81570527  0.92466721  1
  H+  H359  1  0.83335912  0.39274492  0.75743999  1
  H+  H360  1  0.92866937  0.60820417  0.93599704  1
  H+  H361  1  0.60725550  0.22467920  0.41565458  1
  H+  H362  1  0.35975305  0.23023427  0.66307339  1
  H+  H363  1  0.91502144  0.32764505  0.90527682  1
  H+  H364  1  0.26700665  0.63515978  0.65882116  1
  H+  H365  1  0.57117031  0.42581815  0.72651991  1
  H+  H366  1  0.41995590  0.33360966  0.93752247  1
  H+  H367  1  0.41366850  0.32917757  0.59199569  1
  H+  H368  1  0.17342293  0.84787970  0.59318018  1
  H+  H369  1  0.61118996  0.31142081  0.60069543  1
  H+  H370  1  0.52445644  0.20870191  0.79701075  1
  H+  H371  1  0.08486633  0.90973111  0.06445341  1
  H+  H372  1  0.86096166  0.96882472  0.41054104  1
  H+  H373  1  0.93101069  0.34533185  0.26290925  1
  H+  H374  1  0.89953145  0.08482711  0.57403583  1
  H+  H375  1  0.88759319  0.77352914  0.17092965  1
  H+  H376  1  0.10443105  0.40634910  0.43842324  1
  H+  H377  1  0.12666233  0.19501734  0.44149800  1
  H+  H378  1  0.09213035  0.19139791  0.11195989  1
  H+  H379  1  0.08838221  0.93263315  0.40726364  1
  H+  H380  1  0.93603654  0.60333701  0.56099001  1
  H+  H381  1  0.35870752  -0.02418033  0.67423095  1
  H+  H382  1  0.66852702  0.27607233  0.91070457  1
  H+  H383  1  0.40768032  0.83127236  0.23266355  1
  O2-  O384  1  0.11710140  0.19888743  0.15278888  1
  O2-  O385  1  0.09680581  0.17514055  0.48031542  1
  O2-  O386  1  0.08235358  0.17258409  0.80324521  1
  O2-  O387  1  0.09081441  0.43570939  0.13762488  1
  O2-  O388  1  0.11138189  0.41456474  0.48320087  1
  O2-  O389  1  0.04959124  0.40800574  0.81158842  1
  O2-  O390  1  0.08376538  0.68961557  0.12723484  1
  O2-  O391  1  0.10298288  0.65837648  0.47656195  1
  O2-  O392  1  0.08685324  0.66739449  0.80631130  1
  O2-  O393  1  0.08490311  0.92010132  0.13621721  1
  O2-  O394  1  0.10747077  0.96499866  0.49055054  1
  O2-  O395  1  0.12082272  0.91973941  0.80918357  1
  O2-  O396  1  0.32365728  0.17631608  0.13676682  1
  O2-  O397  1  0.31022426  0.14286706  0.47476115  1
  O2-  O398  1  0.34261662  0.16871922  0.82945579  1
  O2-  O399  1  0.31481503  0.40241696  0.16277601  1
  O2-  O400  1  0.33046634  0.38616201  0.48357138  1
  O2-  O401  1  0.33566574  0.40904491  0.80554718  1
  O2-  O402  1  0.33035837  0.66018191  0.14905103  1
  O2-  O403  1  0.34999060  0.69260852  0.47932549  1
  O2-  O404  1  0.31550807  0.66978123  0.79102762  1
  O2-  O405  1  0.31487502  0.89793957  0.14139592  1
  O2-  O406  1  0.32885543  0.92979721  0.47510852  1
  O2-  O407  1  0.32435799  0.90822134  0.81165378  1
  O2-  O408  1  0.53333084  0.12538673  0.14753953  1
  O2-  O409  1  0.59711798  0.14865455  0.52865859  1
  O2-  O410  1  0.54531521  0.16866950  0.80374457  1
  O2-  O411  1  0.58847466  0.42631648  0.15118884  1
  O2-  O412  1  0.57009420  0.43377097  0.47565655  1
  O2-  O413  1  0.54652721  0.45252276  0.79889728  1
  O2-  O414  1  0.58641221  0.66579674  0.14870691  1
  O2-  O415  1  0.58096508  0.65066019  0.48821110  1
  O2-  O416  1  0.59098302  0.67059101  0.82040803  1
  O2-  O417  1  0.55938662  0.92428230  0.13187565  1
  O2-  O418  1  0.57517266  0.91250973  0.47897321  1
  O2-  O419  1  0.58571601  0.91936951  0.81152668  1
  O2-  O420  1  0.87176769  0.18528916  0.13900935  1
  O2-  O421  1  0.79725324  0.18013632  0.47318968  1
  O2-  O422  1  0.82903149  0.17288047  0.81548814  1
  O2-  O423  1  0.85581260  0.43463544  0.14974604  1
  O2-  O424  1  0.91881471  0.44450548  0.45927361  1
  O2-  O425  1  0.83379501  0.42609272  0.87899698  1
  O2-  O426  1  0.83284164  0.67083531  0.14739134  1
  O2-  O427  1  0.84583943  0.67744274  0.47683852  1
  O2-  O428  1  0.83949730  0.67820758  0.81048836  1
  O2-  O429  1  0.89674927  0.95636895  0.12790507  1
  O2-  O430  1  0.82111653  0.90462287  0.53838374  1
  O2-  O431  1  0.82669075  0.92432721  0.81563065  1
  O2-  O432  1  0.06900649  0.03669435  0.24897803  1
  O2-  O433  1  0.22459225  0.12581684  0.49127159  1
  O2-  O434  1  0.17113071  0.08634998  0.84906264  1
  O2-  O435  1  0.14281342  0.33838140  0.22882219  1
  O2-  O436  1  0.17961402  0.31544009  0.56430226  1
  O2-  O437  1  0.17783762  0.35105892  0.85162391  1
  O2-  O438  1  0.17585976  0.60932468  0.19505528  1
  O2-  O439  1  0.18481992  0.57984069  0.51650147  1
  O2-  O440  1  0.14867554  0.56739087  0.84506658  1
  O2-  O441  1  0.16564573  0.83876941  0.19267449  1
  O2-  O442  1  0.16853753  0.87504210  0.51872824  1
  O2-  O443  1  0.16422579  0.81920417  0.85905630  1
  O2-  O444  1  0.36703481  0.07451980  0.19733195  1
  O2-  O445  1  0.42770142  0.08687384  0.53384938  1
  O2-  O446  1  0.39962487  0.05954503  0.86870286  1
  O2-  O447  1  0.41442238  0.33722441  0.19954706  1
  O2-  O448  1  0.40117430  0.30075038  0.51593493  1
  O2-  O449  1  0.41548167  0.32787735  0.85880349  1
  O2-  O450  1  0.41615002  0.57701703  0.19231467  1
  O2-  O451  1  0.42250151  0.56082717  0.52728116  1
  O2-  O452  1  0.42791914  0.55528821  0.86465878  1
  O2-  O453  1  0.40271463  0.82645950  0.18706957  1
  O2-  O454  1  0.41250821  0.84880956  0.52147339  1
  O2-  O455  1  0.41249820  0.82875900  0.84456437  1
  O2-  O456  1  0.63964837  0.07806788  0.18776509  1
  O2-  O457  1  0.68060434  0.06257559  0.53811021  1
  O2-  O458  1  0.67499901  0.07626780  0.84960261  1
  O2-  O459  1  0.69076590  0.37228264  0.18910058  1
  O2-  O460  1  0.58970359  0.32374923  0.53594390  1
  O2-  O461  1  0.67978955  0.24705746  0.87703432  1
  O2-  O462  1  0.66767966  0.58588664  0.19039315  1
  O2-  O463  1  0.67997309  0.58653563  0.52067504  1
  O2-  O464  1  0.67900887  0.59319763  0.85659356  1
  O2-  O465  1  0.68391539  0.82681115  0.20733979  1
  O2-  O466  1  0.62269486  0.80115585  0.52897065  1
  O2-  O467  1  0.66301622  0.83691229  0.85646026  1
  O2-  O468  1  0.93805801  0.09326641  0.20473964  1
  O2-  O469  1  0.88463995  0.07109793  0.53032620  1
  O2-  O470  1  0.91922179  0.09269893  0.84974725  1
  O2-  O471  1  0.92853101  0.34384648  0.19236166  1
  O2-  O472  1  0.92489494  0.30410197  0.51754443  1
  O2-  O473  1  0.90461879  0.33089536  0.86115906  1
  O2-  O474  1  0.92933605  0.60154632  0.18640094  1
  O2-  O475  1  0.93252051  0.59657824  0.51572685  1
  O2-  O476  1  0.92507722  0.58774832  0.82746811  1
  O2-  O477  1  0.92260495  0.83366101  0.18688478  1
  O2-  O478  1  0.92445304  0.84226992  0.52897405  1
  O2-  O479  1  0.91584359  0.84576763  0.86056795  1
  O2-  O480  1  0.14073581  0.08501904  0.27134642  1
  O2-  O481  1  0.17269320  0.09227544  0.62740688  1
  O2-  O482  1  0.17207120  0.07805721  0.96988318  1
  O2-  O483  1  0.17779528  0.36484931  0.28994218  1
  O2-  O484  1  0.16681827  0.32446173  0.62894376  1
  O2-  O485  1  0.18117766  0.33595491  0.96906869  1
  O2-  O486  1  0.16296552  0.57218353  0.31989275  1
  O2-  O487  1  0.16651526  0.57950136  0.64086183  1
  O2-  O488  1  0.17205801  0.59378918  0.97172227  1
  O2-  O489  1  0.16323058  0.83028522  0.31734326  1
  O2-  O490  1  0.17276130  0.83420539  0.63744073  1
  O2-  O491  1  0.13795928  0.79745070  0.98817654  1
  O2-  O492  1  0.41055374  0.09051517  0.31993781  1
  O2-  O493  1  0.40221490  0.07405206  0.65075722  1
  O2-  O494  1  0.38437061  0.04903066  0.99020269  1
  O2-  O495  1  0.41172943  0.31948201  0.32105073  1
  O2-  O496  1  0.41576614  0.34024030  0.63669861  1
  O2-  O497  1  0.42038760  0.33321891  0.98301087  1
  O2-  O498  1  0.40817999  0.56880245  0.31739882  1
  O2-  O499  1  0.40714634  0.57988697  0.65023848  1
  O2-  O500  1  0.41465241  0.56833135  0.99251399  1
  O2-  O501  1  0.40905050  0.83377893  0.30975909  1
  O2-  O502  1  0.41900567  0.83987360  0.64348760  1
  O2-  O503  1  0.42491114  0.81958792  0.96908048  1
  O2-  O504  1  0.66097049  0.07464655  0.31454218  1
  O2-  O505  1  0.67059699  0.07138718  0.65758335  1
  O2-  O506  1  0.66825579  0.07997331  0.96485831  1
  O2-  O507  1  0.67542098  0.34673778  0.31494249  1
  O2-  O508  1  0.63073854  0.30747366  0.64417203  1
  O2-  O509  1  0.70148554  0.39324660  0.94563723  1
  O2-  O510  1  0.67167644  0.57473125  0.30683276  1
  O2-  O511  1  0.69683128  0.58898376  0.64408772  1
  O2-  O512  1  0.66998445  0.59157676  0.98089227  1
  O2-  O513  1  0.64377806  0.82206744  0.32807678  1
  O2-  O514  1  0.67789813  0.83884329  0.65366482  1
  O2-  O515  1  0.66140936  0.83037220  0.98093660  1
  O2-  O516  1  0.95538922  0.11518871  0.32658347  1
  O2-  O517  1  0.91647804  0.08187745  0.65219132  1
  O2-  O518  1  0.90863805  0.08109059  0.97367228  1
  O2-  O519  1  0.93090581  0.34847549  0.30958610  1
  O2-  O520  1  0.91064692  0.32450455  0.63932759  1
  O2-  O521  1  0.91780589  0.33022509  0.98506716  1
  O2-  O522  1  0.92271056  0.58871150  0.31102945  1
  O2-  O523  1  0.93811665  0.60808912  0.63940302  1
  O2-  O524  1  0.93259463  0.61117476  0.98021950  1
  O2-  O525  1  0.91746449  0.84087494  0.30902695  1
  O2-  O526  1  0.90659397  0.83037623  0.64840153  1
  O2-  O527  1  0.91984479  0.84386235  0.97834200  1
  O2-  O528  1  0.05203840  0.19534279  0.03531840  1
  O2-  O529  1  0.13151423  0.21772796  0.34539021  1
  O2-  O530  1  0.08521989  0.16230804  0.67887490  1
  O2-  O531  1  0.06115708  0.35158920  0.03363360  1
  O2-  O532  1  0.08001846  0.40669348  0.35541282  1
  O2-  O533  1  0.05865327  0.41203474  0.69055157  1
  O2-  O534  1  0.09101377  0.70827655  0.01217292  1
  O2-  O535  1  0.08886086  0.66466917  0.35253682  1
  O2-  O536  1  0.09897092  0.67501564  0.68169670  1
  O2-  O537  1  0.08476859  0.90150349  0.01849053  1
  O2-  O538  1  0.08690260  0.91292526  0.36526908  1
  O2-  O539  1  0.09763526  0.92268809  0.68705772  1
  O2-  O540  1  0.33527846  0.16067152  0.02111622  1
  O2-  O541  1  0.33778812  0.16873338  0.35972032  1
  O2-  O542  1  0.32356406  0.17010661  0.67660929  1
  O2-  O543  1  0.32792831  0.40171536  0.03355376  1
  O2-  O544  1  0.32682492  0.40394011  0.36694268  1
  O2-  O545  1  0.32544637  0.40908404  0.68177663  1
  O2-  O546  1  0.32927496  0.65731924  0.02517921  1
  O2-  O547  1  0.33301029  0.66731758  0.35212459  1
  O2-  O548  1  0.32851627  0.67069877  0.67350352  1
  O2-  O549  1  0.29694638  0.89194440  0.03247981  1
  O2-  O550  1  0.33206625  0.92343856  0.35342636  1
  O2-  O551  1  0.33201440  0.91339929  0.68723729  1
  O2-  O552  1  0.53112043  0.07553509  0.03906818  1
  O2-  O553  1  0.57842095  0.16925916  0.29846691  1
  O2-  O554  1  0.57230255  0.14314369  0.68517394  1
  O2-  O555  1  0.59178434  0.43007926  0.02495696  1
  O2-  O556  1  0.57136937  0.41340267  0.35997910  1
  O2-  O557  1  0.58031111  0.42222057  0.68235724  1
  O2-  O558  1  0.58219622  0.66681792  0.02433158  1
  O2-  O559  1  0.56436727  0.65448946  0.37359462  1
  O2-  O560  1  0.56323261  0.66919214  0.69611433  1
  O2-  O561  1  0.58008185  0.91964180  0.00571667  1
  O2-  O562  1  0.56958545  0.91602514  0.35784617  1
  O2-  O563  1  0.58176238  0.90763528  0.68988745  1
  O2-  O564  1  0.83016088  0.16359107  0.01994946  1
  O2-  O565  1  0.81593249  0.14311860  0.35811481  1
  O2-  O566  1  0.83713550  0.16952485  0.69505536  1
  O2-  O567  1  0.86186398  0.44749205  0.02617247  1
  O2-  O568  1  0.85360194  0.42387065  0.34943919  1
  O2-  O569  1  0.85327975  0.43495526  0.63307904  1
  O2-  O570  1  0.83525352  0.67830535  0.02371333  1
  O2-  O571  1  0.83962321  0.67632902  0.35225718  1
  O2-  O572  1  0.84755709  0.67924989  0.68619243  1
  O2-  O573  1  0.83200615  0.91750857  0.01558420  1
  O2-  O574  1  0.81163250  0.89632088  0.28701495  1
  O2-  O575  1  0.84185767  0.91859213  0.69105434  1
