# generated using pymatgen
data_H2O
_symmetry_space_group_name_H-M   'P 1'
_cell_length_a   17.98801193
_cell_length_b   17.97845801
_cell_length_c   21.98653946
_cell_angle_alpha   89.98766138
_cell_angle_beta   89.99272235
_cell_angle_gamma   120.01530260
_symmetry_Int_Tables_number   1
_chemical_formula_structural   H2O
_chemical_formula_sum   'H384 O192'
_cell_volume   6156.81499719
_cell_formula_units_Z   192
loop_
 _symmetry_equiv_pos_site_id
 _symmetry_equiv_pos_as_xyz
  1  'x, y, z'
loop_
 _atom_type_symbol
 _atom_type_oxidation_number
  H+  1.0
  O2-  -2.0
loop_
 _atom_site_type_symbol
 _atom_site_label
 _atom_site_symmetry_multiplicity
 _atom_site_fract_x
 _atom_site_fract_y
 _atom_site_fract_z
 _atom_site_occupancy
  H+  H0  1  0.82471148  0.68835410  0.39640821  1
  H+  H1  1  0.61531332  0.23778666  1.00534168  1
  H+  H2  1  0.26962359  0.64092829  0.33656220  1
  H+  H3  1  0.74477808  0.64217773  0.84630275  1
  H+  H4  1  0.78331520  0.86321528  0.35579337  1
  H+  H5  1  0.60892267  0.85539777  0.83826549  1
  H+  H6  1  0.11971334  0.21898529  0.00906546  1
  H+  H7  1  0.48550982  0.85958544  0.82728792  1
  H+  H8  1  1.03237063  0.38521589  1.01182691  1
  H+  H9  1  0.36487521  0.75272225  0.84403957  1
  H+  H10  1  0.73227916  0.12326733  0.17948942  1
  H+  H11  1  0.46264283  0.12646561  0.33408367  1
  H+  H12  1  0.37356926  0.14052753  0.15756458  1
  H+  H13  1  0.48002964  0.11931664  0.17439135  1
  H+  H14  1  0.87330545  0.39716264  0.00711995  1
  H+  H15  1  0.27586411  0.14692480  0.77700712  1
  H+  H16  1  0.22326565  0.54012668  0.57342656  1
  H+  H17  1  0.88042195  0.28561286  0.00558284  1
  H+  H18  1  0.25191227  0.67461051  0.66197445  1
  H+  H19  1  0.47205880  0.35779683  0.81291226  1
  H+  H20  1  -0.02637583  0.62000518  0.32328644  1
  H+  H21  1  0.90637029  0.87418347  0.76975336  1
  H+  H22  1  0.63704349  0.06337664  0.37515540  1
  H+  H23  1  0.89005133  0.10377276  0.17590359  1
  H+  H24  1  0.26780465  0.38503495  0.33211449  1
  H+  H25  1  0.36057075  0.47596162  0.82610306  1
  H+  H26  1  0.27328284  0.89091260  0.16365459  1
  H+  H27  1  0.51420255  0.14620721  0.67535935  1
  H+  H28  1  0.15467639  0.11899014  0.18347390  1
  H+  H29  1  0.88863066  0.01428896  0.17228019  1
  H+  H30  1  0.67655949  0.10194829  0.93203784  1
  H+  H31  1  0.36114505  0.64091325  0.16119386  1
  H+  H32  1  0.64540292  0.84604823  0.21413459  1
  H+  H33  1  0.49465061  0.39237827  0.51084200  1
  H+  H34  1  0.60296054  0.48266257  0.82119865  1
  H+  H35  1  0.59867676  0.14273414  1.00339426  1
  H+  H36  1  0.13141779  0.35560360  0.32519565  1
  H+  H37  1  0.41452001  0.33322511  0.23051972  1
  H+  H38  1  0.61299948  0.89347305  -0.00081377  1
  H+  H39  1  0.86871254  -0.04615040  1.00135278  1
  H+  H40  1  0.51934475  0.63933153  0.16214022  1
  H+  H41  1  0.36493809  0.85396809  0.50755875  1
  H+  H42  1  0.76861928  0.89951309  0.64505031  1
  H+  H43  1  0.23530403  0.35244207  0.84424348  1
  H+  H44  1  0.61000569  0.23677058  0.83315728  1
  H+  H45  1  0.68047306  0.10338282  0.37625175  1
  H+  H46  1  0.14923155  0.51396181  0.67497979  1
  H+  H47  1  0.60112021  0.38301464  0.33711654  1
  H+  H48  1  0.65907540  0.85520319  0.58493768  1
  H+  H49  1  0.73945247  0.62614479  0.48149005  1
  H+  H50  1  0.33617097  0.10736330  -0.00848397  1
  H+  H51  1  0.74123229  0.16644191  0.02026570  1
  H+  H52  1  0.86117558  0.22527073  0.17159932  1
  H+  H53  1  0.61456222  0.22327012  0.49611341  1
  H+  H54  1  0.85601748  0.46750890  0.66829398  1
  H+  H55  1  0.14127744  0.52152662  0.84751555  1
  H+  H56  1  0.86546214  0.48889729  0.49102507  1
  H+  H57  1  0.60832354  -0.00666959  0.15343001  1
  H+  H58  1  0.59593179  0.69492253  0.35586017  1
  H+  H59  1  0.99348215  0.62163387  0.51345174  1
  H+  H60  1  0.11260737  0.73536387  0.15364230  1
  H+  H61  1  0.11151453  0.64694030  0.14965908  1
  H+  H62  1  0.13664009  0.14095381  1.01139897  1
  H+  H63  1  0.37156297  0.89237959  0.34064401  1
  H+  H64  1  0.92344178  0.10239323  0.33219568  1
  H+  H65  1  0.37548297  0.39379035  0.15626578  1
  H+  H66  1  0.85972871  0.62453803  0.82079559  1
  H+  H67  1  0.88098981  0.35290463  0.33151883  1
  H+  H68  1  0.13877784  0.35448340  0.99874796  1
  H+  H69  1  0.94306609  0.90240997  0.79067466  1
  H+  H70  1  0.62358388  0.11046437  0.65849461  1
  H+  H71  1  0.91126210  0.29794133  0.84073044  1
  H+  H72  1  0.94258361  0.06952424  0.92950082  1
  H+  H73  1  0.67769023  -0.02762535  0.31808172  1
  H+  H74  1  0.12213398  0.86096550  0.48659210  1
  H+  H75  1  0.38801310  0.37739486  0.66145830  1
  H+  H76  1  0.30694516  0.41823246  0.49698832  1
  H+  H77  1  0.13002695  0.60466002  0.32510019  1
  H+  H78  1  0.85270151  0.21591715  0.66295999  1
  H+  H79  1  0.66743645  0.63563412  0.64306640  1
  H+  H80  1  0.99972772  0.07888443  0.98617367  1
  H+  H81  1  0.97427364  0.86595914  0.65188995  1
  H+  H82  1  0.87073120  0.79069223  0.48747203  1
  H+  H83  1  0.35349913  0.87406666  0.83037269  1
  H+  H84  1  0.52489787  0.34931564  0.03047712  1
  H+  H85  1  0.27559492  -0.03616295  0.94999584  1
  H+  H86  1  0.09435626  0.94710129  0.03458541  1
  H+  H87  1  -0.01737660  0.12026832  0.65547913  1
  H+  H88  1  0.71729020  0.37328600  0.83500025  1
  H+  H89  1  0.45246154  0.35052066  0.32653907  1
  H+  H90  1  0.38881393  0.77797297  0.32827398  1
  H+  H91  1  0.83175516  0.93233527  0.89566792  1
  H+  H92  1  0.21337186  0.11133775  0.49855015  1
  H+  H93  1  0.62028639  0.38891287  0.16590014  1
  H+  H94  1  0.22723591  0.12228894  0.65616347  1
  H+  H95  1  0.10559735  0.13015112  0.81651221  1
  H+  H96  1  0.88556629  0.51219545  0.82854717  1
  H+  H97  1  0.72118815  0.91619950  0.49434654  1
  H+  H98  1  0.72965019  0.36448397  0.17397335  1
  H+  H99  1  0.60603867  0.97961618  0.67142598  1
  H+  H100  1  0.63230298  0.27818526  0.33183535  1
  H+  H101  1  0.64992088  0.00319209  0.48485921  1
  H+  H102  1  0.57157093  0.17253323  0.40965398  1
  H+  H103  1  0.22750835  0.61709621  0.99756702  1
  H+  H104  1  0.40412805  0.10470561  0.84539298  1
  H+  H105  1  0.80589517  0.10464344  0.33556139  1
  H+  H106  1  0.47137134  0.11259822  0.50917740  1
  H+  H107  1  0.86891048  0.10521901  0.99809595  1
  H+  H108  1  0.14233676  0.62315970  0.99264185  1
  H+  H109  1  0.16010439  -0.04219209  0.94634243  1
  H+  H110  1  0.76853185  0.87794548  0.00370889  1
  H+  H111  1  0.15112388  0.26603928  0.17676627  1
  H+  H112  1  0.35467636  0.62667578  0.82546417  1
  H+  H113  1  0.59859930  0.72631480  0.81750885  1
  H+  H114  1  0.84920743  0.91237381  0.49602809  1
  H+  H115  1  0.39530260  0.27759588  0.16956045  1
  H+  H116  1  0.47034498  0.60994603  0.83418504  1
  H+  H117  1  0.13863734  0.27334857  0.64998185  1
  H+  H118  1  0.60524831  0.63805736  1.01120707  1
  H+  H119  1  0.23916806  0.29319301  0.52979204  1
  H+  H120  1  0.03928491  0.41041655  0.70044356  1
  H+  H121  1  0.56225002  0.95307900  0.82754495  1
  H+  H122  1  0.27379527  0.38344668  1.00461287  1
  H+  H123  1  0.28039551  0.62874267  0.49440633  1
  H+  H124  1  0.23712099  0.35778354  0.17508297  1
  H+  H125  1  0.62387578  0.51653623  0.99991820  1
  H+  H126  1  0.58777571  0.60687982  0.34033185  1
  H+  H127  1  0.35069417  0.24941223  0.77410877  1
  H+  H128  1  0.36700750  0.74864531  0.67980901  1
  H+  H129  1  0.47110588  0.86882174  0.17061070  1
  H+  H130  1  0.61959258  0.39220614  0.48742391  1
  H+  H131  1  0.61292009  0.14390628  0.15520490  1
  H+  H132  1  0.88654753  0.31388339  0.54022951  1
  H+  H133  1  0.22289242  0.08378152  0.87999927  1
  H+  H134  1  0.03032592  0.12544518  0.16397620  1
  H+  H135  1  0.63527552  0.03156248  0.98559488  1
  H+  H136  1  0.08355813  0.66762512  0.74499678  1
  H+  H137  1  0.75608843  0.62398004  1.02437444  1
  H+  H138  1  0.38240415  0.86677977  0.17704485  1
  H+  H139  1  -0.03491727  0.14635250  0.49325362  1
  H+  H140  1  0.47483828  0.87120476  0.65832527  1
  H+  H141  1  0.39539415  0.52187667  0.50603885  1
  H+  H142  1  0.64167062  0.83375581  0.34238103  1
  H+  H143  1  0.40141539  0.63273218  0.50623569  1
  H+  H144  1  0.86371897  0.81205605  0.33771082  1
  H+  H145  1  0.02505166  0.38303034  0.34279938  1
  H+  H146  1  0.67848620  0.08984342  0.61138120  1
  H+  H147  1  0.11228526  0.73753858  0.48456592  1
  H+  H148  1  0.10931429  0.97467960  0.18897824  1
  H+  H149  1  0.08899837  0.43118053  0.44919211  1
  H+  H150  1  0.88221848  0.13328689  0.66821616  1
  H+  H151  1  0.47209130  0.61507972  0.99283176  1
  H+  H152  1  0.34462074  0.12507255  0.48286664  1
  H+  H153  1  0.64985467  0.53838483  0.64231499  1
  H+  H154  1  0.86423935  0.72141401  0.16618452  1
  H+  H155  1  0.22809241  0.85615698  0.32773373  1
  H+  H156  1  0.67989949  0.07319511  0.82786460  1
  H+  H157  1  0.72215810  0.61810403  0.31851406  1
  H+  H158  1  -0.01685175  0.12956491  0.83182721  1
  H+  H159  1  0.88461522  0.86324740  0.64529391  1
  H+  H160  1  0.13478258  0.23692740  0.32971861  1
  H+  H161  1  0.87775049  -0.05666692  0.34550709  1
  H+  H162  1  0.35995077  -0.00309189  0.99248767  1
  H+  H163  1  0.86897599  0.63120002  0.16331585  1
  H+  H164  1  0.80851702  0.34015248  0.80622902  1
  H+  H165  1  0.12195461  0.65162598  0.48868364  1
  H+  H166  1  0.14212170  0.50812800  0.52920052  1
  H+  H167  1  0.85721697  0.34249564  0.64626214  1
  H+  H168  1  0.88954266  0.61141945  0.66794205  1
  H+  H169  1  0.88601450  0.16909227  0.82500754  1
  H+  H170  1  0.97281116  0.60352611  0.83457377  1
  H+  H171  1  0.27472384  0.89590821  0.67679930  1
  H+  H172  1  0.02090462  0.39594412  0.16267260  1
  H+  H173  1  0.11805104  0.23990384  0.48336131  1
  H+  H174  1  0.17089835  0.15163683  0.33064672  1
  H+  H175  1  0.12021350  0.47385691  0.00875970  1
  H+  H176  1  0.88729924  1.05032602  0.84143555  1
  H+  H177  1  0.01995486  0.63325874  0.68614157  1
  H+  H178  1  0.98878025  0.62097741  0.98332678  1
  H+  H179  1  0.77520240  0.87591359  0.16589876  1
  H+  H180  1  0.36267933  0.97702694  0.33783590  1
  H+  H181  1  0.36248046  0.98085613  0.16924898  1
  H+  H182  1  0.38491912  0.52454999  -0.01012999  1
  H+  H183  1  0.53297360  0.87326721  0.34099339  1
  H+  H184  1  0.22051614  0.62097194  0.17070483  1
  H+  H185  1  0.11167960  0.98157555  0.67095516  1
  H+  H186  1  0.13952674  0.78253915  0.67282643  1
  H+  H187  1  0.38908594  0.52953708  0.16989686  1
  H+  H188  1  0.57920310  0.92970902  0.05278020  1
  H+  H189  1  0.76122260  0.38177127  0.66354246  1
  H+  H190  1  0.52678693  0.40188606  0.66473056  1
  H+  H191  1  0.52959663  0.38827902  0.16602604  1
  H+  H192  1  0.86158179  0.48332758  0.33364450  1
  H+  H193  1  0.80109968  0.17778850  0.82279656  1
  H+  H194  1  0.60770233  0.63605430  0.15886040  1
  H+  H195  1  0.06484468  0.88943999  0.39083912  1
  H+  H196  1  0.63345753  0.36970564  0.65376356  1
  H+  H197  1  0.01882384  0.39712137  0.50093348  1
  H+  H198  1  0.16577440  0.08520129  0.59583432  1
  H+  H199  1  0.88268912  0.35951639  0.17645641  1
  H+  H200  1  0.62254410  0.77106467  0.49950493  1
  H+  H201  1  0.12324899  0.22585118  0.82467650  1
  H+  H202  1  0.63581376  0.87599726  0.64985960  1
  H+  H203  1  0.10876362  0.51109707  0.66261120  1
  H+  H204  1  0.65894277  0.14855463  0.83731704  1
  H+  H205  1  0.88755513  0.03144700  0.64950421  1
  H+  H206  1  0.36913571  0.36366193  0.32107250  1
  H+  H207  1  0.10523975  -0.03890706  0.83538394  1
  H+  H208  1  0.42285562  0.83929572  0.27030010  1
  H+  H209  1  0.77274903  0.39463449  0.33775296  1
  H+  H210  1  0.58049395  0.17477175  0.09681803  1
  H+  H211  1  0.86739294  0.47835768  0.16042294  1
  H+  H212  1  0.37101335  0.11815908  0.32117110  1
  H+  H213  1  0.88636385  0.26575957  0.33105985  1
  H+  H214  1  0.58710324  0.13773069  0.34832188  1
  H+  H215  1  0.38013458  1.03596375  0.66651319  1
  H+  H216  1  0.26843050  0.13307325  0.00660983  1
  H+  H217  1  0.41556330  0.58248616  0.89694660  1
  H+  H218  1  0.37841762  0.12447646  0.66806912  1
  H+  H219  1  0.72351135  0.61297185  0.17222492  1
  H+  H220  1  0.87071336  0.73129098  0.67083268  1
  H+  H221  1  0.63684463  0.76141107  0.18306868  1
  H+  H222  1  0.87552259  0.83871341  -0.00242868  1
  H+  H223  1  0.11541842  0.13730153  0.66102493  1
  H+  H224  1  0.90684190  0.74255232  0.85259582  1
  H+  H225  1  0.94132715  0.33831498  0.62991764  1
  H+  H226  1  0.23755675  0.87538010  0.85827091  1
  H+  H227  1  0.72601821  0.36835200  0.50185190  1
  H+  H228  1  0.85893803  0.00713409  0.49799253  1
  H+  H229  1  0.60785190  0.64385929  0.81599703  1
  H+  H230  1  0.37945090  0.25873557  0.97010946  1
  H+  H231  1  0.92645779  0.39326083  0.85102552  1
  H+  H232  1  0.11343173  0.47069717  0.33850587  1
  H+  H233  1  0.70287964  0.86629128  0.84241883  1
  H+  H234  1  0.36142437  0.73023457  0.16170081  1
  H+  H235  1  -0.12135411  0.84757397  0.18259299  1
  H+  H236  1  0.63549218  0.52394041  0.16960357  1
  H+  H237  1  0.39975250  0.91272698  0.01843152  1
  H+  H238  1  0.38041194  0.61447532  0.32243739  1
  H+  H239  1  0.21370813  0.86425420  0.49168501  1
  H+  H240  1  0.04765037  0.38989725  0.83943643  1
  H+  H241  1  0.86039893  0.66350285  0.45855026  1
  H+  H242  1  0.38385971  0.77336928  -0.00330115  1
  H+  H243  1  0.27130057  0.39541981  0.66769396  1
  H+  H244  1  0.14106258  0.86974199  0.66237213  1
  H+  H245  1  0.10165480  -0.02179763  0.48423395  1
  H+  H246  1  0.96312276  0.84077075  1.01624049  1
  H+  H247  1  0.60184682  0.47130866  0.33562830  1
  H+  H248  1  0.85951426  0.14153405  -0.00128297  1
  H+  H249  1  0.53415991  0.13868483  0.84061518  1
  H+  H250  1  0.64723732  0.74971447  0.65872366  1
  H+  H251  1  0.40175586  0.42403070  0.50558232  1
  H+  H252  1  0.87419960  0.48605223  1.00479038  1
  H+  H253  1  0.38762266  0.87628548  0.66362915  1
  H+  H254  1  0.37859741  0.62582648  0.65959327  1
  H+  H255  1  0.83297870  0.43409900  0.42836851  1
  H+  H256  1  0.84139225  0.67432425  0.76688959  1
  H+  H257  1  0.33258251  0.23243521  0.32381693  1
  H+  H258  1  0.14905084  0.66346197  0.66061607  1
  H+  H259  1  0.01824106  0.88474718  0.19070308  1
  H+  H260  1  0.73846759  0.37657651  -0.00929711  1
  H+  H261  1  0.68602405  0.59345032  0.55192540  1
  H+  H262  1  0.64888635  0.37504346  -0.00355073  1
  H+  H263  1  0.13653162  0.86381107  0.18311806  1
  H+  H264  1  0.36391627  0.38897836  0.81388162  1
  H+  H265  1  0.11291988  0.71870353  0.33656334  1
  H+  H266  1  0.37196210  0.97081962  0.83280882  1
  H+  H267  1  0.36067955  0.63803119  0.00779324  1
  H+  H268  1  0.88351501  0.37469636  0.49045517  1
  H+  H269  1  0.55754799  0.67616291  0.51418367  1
  H+  H270  1  0.46097271  0.35119633  0.95768074  1
  H+  H271  1  0.12817603  0.35486658  0.64978121  1
  H+  H272  1  0.12617617  0.11621203  0.50212757  1
  H+  H273  1  0.64922429  0.52179082  0.49222653  1
  H+  H274  1  -0.01885288  0.62199056  0.16608550  1
  H+  H275  1  0.00465479  0.83795212  0.85884747  1
  H+  H276  1  0.36111785  0.38473669  -0.00607839  1
  H+  H277  1  0.24454505  0.11993470  0.17652605  1
  H+  H278  1  0.37979465  0.53756569  0.65849033  1
  H+  H279  1  0.11372392  0.63600769  0.84029282  1
  H+  H280  1  0.61313085  0.90988138  0.14215098  1
  H+  H281  1  0.88772548  0.62702711  0.31810997  1
  H+  H282  1  0.35609798  0.47447125  0.32890893  1
  H+  H283  1  1.05644584  0.13403917  0.32993436  1
  H+  H284  1  0.38405559  0.28573773  0.66129035  1
  H+  H285  1  0.12910454  0.75327468  -0.00871857  1
  H+  H286  1  0.35629625  0.72628953  0.49325895  1
  H+  H287  1  0.47451086  0.86065002  0.98638211  1
  H+  H288  1  0.19150817  0.33589578  0.55996098  1
  H+  H289  1  0.63867055  0.27620151  0.17183590  1
  H+  H290  1  0.59877072  0.90368428  0.39871309  1
  H+  H291  1  0.76372082  0.24543423  0.06309604  1
  H+  H292  1  0.09194275  0.15475593  0.10610604  1
  H+  H293  1  0.59176353  0.43539817  0.71993752  1
  H+  H294  1  0.26450293  0.62590014  0.83002654  1
  H+  H295  1  0.71646884  0.02302862  0.25627638  1
  H+  H296  1  0.92388187  0.59213170  0.22847261  1
  H+  H297  1  0.91203424  0.62982974  0.52940288  1
  H+  H298  1  0.34229408  0.16623555  0.09659303  1
  H+  H299  1  0.66717588  0.58511313  0.94553824  1
  H+  H300  1  0.33007363  0.66995518  0.39591245  1
  H+  H301  1  0.66017429  0.10200018  0.23197881  1
  H+  H302  1  0.33167770  0.92142414  0.43458114  1
  H+  H303  1  0.78540942  0.11057811  0.52289610  1
  H+  H304  1  0.16733183  0.32983731  0.26354819  1
  H+  H305  1  0.39643769  0.82554471  0.56638609  1
  H+  H306  1  0.33281164  0.66891711  0.06851811  1
  H+  H307  1  0.07997227  0.91974679  0.72928377  1
  H+  H308  1  0.85390536  0.90954017  0.83249499  1
  H+  H309  1  0.46525032  0.60473440  0.32525336  1
  H+  H310  1  0.09774318  0.69733086  0.05310471  1
  H+  H311  1  0.83849548  0.42111202  0.10059364  1
  H+  H312  1  0.92831604  0.33582568  0.94379607  1
  H+  H313  1  0.61174681  0.68697697  0.71584892  1
  H+  H314  1  0.90461897  0.83498155  0.55209233  1
  H+  H315  1  0.16854015  0.32069110  0.94035805  1
  H+  H316  1  0.85006526  0.14701162  0.39827103  1
  H+  H317  1  0.92674361  0.58247058  0.61209950  1
  H+  H318  1  0.84997663  0.17647137  0.73222964  1
  H+  H319  1  0.08874283  0.17047636  0.72049886  1
  H+  H320  1  0.40893115  0.08983482  0.56599712  1
  H+  H321  1  0.78426438  0.64193527  0.66899005  1
  H+  H322  1  0.18561778  0.62564321  0.60169245  1
  H+  H323  1  0.16696089  0.58194920  0.90704528  1
  H+  H324  1  0.17033740  0.82618426  0.23445156  1
  H+  H325  1  0.08593057  0.18052609  0.42549090  1
  H+  H326  1  0.58488976  0.42097367  0.42843126  1
  H+  H327  1  0.37121779  0.94424927  0.07706592  1
  H+  H328  1  0.89216319  0.80056162  0.24190680  1
  H+  H329  1  0.40199854  0.30916331  0.86532121  1
  H+  H330  1  0.39449554  0.05203472  0.90584443  1
  H+  H331  1  0.11370752  0.72479765  0.84632787  1
  H+  H332  1  0.01024593  0.89316032  0.48410927  1
  H+  H333  1  0.32677494  0.42540100  0.72890310  1
  H+  H334  1  0.35539052  0.97785958  0.49536460  1
  H+  H335  1  0.05910506  0.90171808  0.09829758  1
  H+  H336  1  0.61224556  0.39898325  0.82298846  1
  H+  H337  1  0.12422446  0.88379985  0.83887995  1
  H+  H338  1  0.21173359  0.11562239  0.26701452  1
  H+  H339  1  0.57615460  0.67095901  0.06872068  1
  H+  H340  1  0.91232712  0.32946917  0.23646284  1
  H+  H341  1  0.25160841  0.03537724  0.83641004  1
  H+  H342  1  -0.01027658  0.31471252  0.72456091  1
  H+  H343  1  0.57793742  0.17316434  0.73224407  1
  H+  H344  1  0.67914495  0.79962329  0.29116037  1
  H+  H345  1  0.00169027  0.83275808  0.33830272  1
  H+  H346  1  0.12884983  0.53429416  0.17002603  1
  H+  H347  1  0.62891955  0.27758767  0.65803706  1
  H+  H348  1  0.43326522  0.36345749  0.57085440  1
  H+  H349  1  0.82179017  0.91468810  0.70517755  1
  H+  H350  1  0.07569879  0.66010336  0.39574391  1
  H+  H351  1  0.14813519  0.35210430  0.84926915  1
  H+  H352  1  0.33499265  0.92522734  0.73539329  1
  H+  H353  1  0.70866545  0.69192927  0.88247567  1
  H+  H354  1  0.30821247  0.14976606  0.42455565  1
  H+  H355  1  0.42420975  0.60495262  0.57156573  1
  H+  H356  1  0.61587722  0.13390239  0.48769083  1
  H+  H357  1  0.57017165  0.91096716  0.72667473  1
  H+  H358  1  0.91862011  0.11658141  0.55643750  1
  H+  H359  1  0.66492961  0.33650728  0.56073545  1
  H+  H360  1  0.81915531  0.40188600  0.75195543  1
  H+  H361  1  0.93414309  0.79831397  0.92246400  1
  H+  H362  1  0.34213015  0.42019586  0.09741918  1
  H+  H363  1  0.92286258  0.57801647  0.92876381  1
  H+  H364  1  0.09991593  0.00157593  0.94521935  1
  H+  H365  1  0.65150973  0.82823311  0.93280499  1
  H+  H366  1  0.85153863  0.71247572  1.02027265  1
  H+  H367  1  0.42010788  0.09422176  0.23466690  1
  H+  H368  1  0.10356683  0.40558767  0.78005382  1
  H+  H369  1  0.62846617  0.77393153  0.99468172  1
  H+  H370  1  0.82521126  0.65750416  0.09204296  1
  H+  H371  1  0.65857545  0.57907383  0.26263317  1
  H+  H372  1  0.13220078  0.84432201  0.32622511  1
  H+  H373  1  0.66393157  0.33253418  0.26964152  1
  H+  H374  1  0.41379829  0.58732477  0.23048875  1
  H+  H375  1  0.82956060  0.90146236  0.10370944  1
  H+  H376  1  0.39777161  0.81765268  0.90326435  1
  H+  H377  1  0.58596622  0.41485573  0.07820064  1
  H+  H378  1  0.16254194  0.58295272  0.26421749  1
  H+  H379  1  0.66691434  0.35052265  0.89870981  1
  H+  H380  1  0.32481884  0.67680797  0.73587024  1
  H+  H381  1  0.81876889  0.17240444  0.11239544  1
  H+  H382  1  0.08407452  0.42441645  0.10569362  1
  H+  H383  1  0.94155461  0.07100464  0.27022836  1
  O2-  O384  1  0.09184065  0.15370250  0.15124020  1
  O2-  O385  1  0.07538077  0.18134998  0.46955344  1
  O2-  O386  1  0.08561917  0.16892005  0.80305313  1
  O2-  O387  1  0.08012244  0.43593324  0.14912937  1
  O2-  O388  1  0.08281257  0.42906912  0.49386615  1
  O2-  O389  1  0.10811789  0.41459783  0.82435578  1
  O2-  O390  1  0.08143436  0.67740465  0.13367638  1
  O2-  O391  1  0.08148865  0.66985393  0.47640235  1
  O2-  O392  1  0.08403890  0.66783052  0.82636712  1
  O2-  O393  1  0.07760242  0.91505005  0.17376334  1
  O2-  O394  1  0.07045781  0.91808679  0.46891702  1
  O2-  O395  1  0.08094384  0.90109334  0.82285676  1
  O2-  O396  1  0.34256275  0.17039773  0.14143230  1
  O2-  O397  1  0.30901453  0.14977617  0.46921088  1
  O2-  O398  1  0.29784703  0.20084466  0.75158368  1
  O2-  O399  1  0.34383918  0.42311383  0.14246150  1
  O2-  O400  1  0.36945246  0.45660084  0.48846834  1
  O2-  O401  1  0.32814170  0.41628375  0.80837477  1
  O2-  O402  1  0.33070406  0.67058047  0.14507567  1
  O2-  O403  1  0.33683613  0.66638410  0.47560522  1
  O2-  O404  1  0.32370769  0.65721003  0.81194169  1
  O2-  O405  1  0.33575621  0.92139267  0.15259780  1
  O2-  O406  1  0.32369301  0.91780486  0.47952749  1
  O2-  O407  1  0.33018667  0.91216660  0.81765192  1
  O2-  O408  1  0.58231378  0.17441859  0.14313248  1
  O2-  O409  1  0.58081176  0.16321589  0.48067783  1
  O2-  O410  1  0.59025481  0.17647458  0.82008398  1
  O2-  O411  1  0.59011872  0.41938424  0.14971488  1
  O2-  O412  1  0.59438033  0.42837726  0.47389134  1
  O2-  O413  1  0.58043925  0.42569075  0.80330993  1
  O2-  O414  1  0.58054613  0.67062742  0.14631835  1
  O2-  O415  1  0.61905916  0.71824152  0.51497811  1
  O2-  O416  1  0.57210184  0.66694641  0.80053526  1
  O2-  O417  1  0.57801152  0.93581356  0.13331488  1
  O2-  O418  1  0.61885919  0.93080273  0.47112494  1
  O2-  O419  1  0.54721561  0.89679948  0.81148094  1
  O2-  O420  1  0.82726794  0.16386976  0.15599425  1
  O2-  O421  1  0.73847705  0.11811313  0.53880904  1
  O2-  O422  1  0.86106435  0.20338964  0.80589172  1
  O2-  O423  1  0.83552368  0.41754733  0.14607161  1
  O2-  O424  1  0.82981540  0.43057447  0.47405396  1
  O2-  O425  1  0.81915900  0.39807135  0.79842303  1
  O2-  O426  1  0.83430368  0.66026552  0.14932490  1
  O2-  O427  1  0.82044909  0.68392191  0.45017888  1
  O2-  O428  1  0.84026908  0.66743663  0.81261001  1
  O2-  O429  1  0.83448234  0.90565711  0.14876576  1
  O2-  O430  1  0.81806573  0.94463316  0.49660979  1
  O2-  O431  1  0.82135678  0.93336848  0.85197949  1
  O2-  O432  1  0.19034978  0.09556154  0.20142189  1
  O2-  O433  1  0.15433699  0.08490625  0.51793635  1
  O2-  O434  1  0.23190013  0.07712413  0.83640982  1
  O2-  O435  1  0.17909956  0.32497330  0.19325192  1
  O2-  O436  1  0.21289451  0.32786209  0.51982169  1
  O2-  O437  1  0.17521662  0.31727531  0.86100298  1
  O2-  O438  1  0.16027628  0.59611991  0.18508634  1
  O2-  O439  1  0.19054175  0.56192422  0.55201283  1
  O2-  O440  1  0.16537214  0.58200063  0.86088455  1
  O2-  O441  1  0.16917479  0.83299868  0.18902901  1
  O2-  O442  1  0.15051096  0.82738980  0.49785160  1
  O2-  O443  1  0.17616534  0.84970766  0.87289358  1
  O2-  O444  1  0.41930253  0.09006995  0.18921615  1
  O2-  O445  1  0.40985951  0.08466384  0.52115924  1
  O2-  O446  1  0.42802973  0.07269809  0.86494104  1
  O2-  O447  1  0.42517511  0.33763677  0.18542042  1
  O2-  O448  1  0.43580519  0.37360046  0.52601849  1
  O2-  O449  1  0.40889993  0.32100784  0.82084043  1
  O2-  O450  1  0.41765397  0.59031068  0.18441443  1
  O2-  O451  1  0.43180204  0.60449885  0.52556919  1
  O2-  O452  1  0.41098754  0.57806870  0.85141536  1
  O2-  O453  1  0.41411048  0.83625325  0.18992230  1
  O2-  O454  1  0.38689853  0.81616098  0.52213859  1
  O2-  O455  1  0.39462806  0.81471694  0.85721162  1
  O2-  O456  1  0.66753457  0.09158244  0.18947432  1
  O2-  O457  1  0.67417089  0.08351709  0.48963352  1
  O2-  O458  1  0.70022533  0.12731593  0.84950575  1
  O2-  O459  1  0.66933539  0.33562173  0.18963123  1
  O2-  O460  1  0.66469460  0.33493971  0.51531407  1
  O2-  O461  1  0.65903521  0.34692011  0.85310428  1
  O2-  O462  1  0.66177516  0.58540808  0.18280384  1
  O2-  O463  1  0.68226130  0.58568913  0.50570024  1
  O2-  O464  1  0.69225661  0.63411697  0.86851778  1
  O2-  O465  1  0.67767620  0.81737364  0.20448997  1
  O2-  O466  1  0.65729355  0.88880923  0.50570563  1
  O2-  O467  1  0.64192690  0.82739002  0.85272672  1
  O2-  O468  1  0.92187668  0.07440384  0.18792645  1
  O2-  O469  1  0.90756691  0.11867030  0.51283120  1
  O2-  O470  1  0.92631620  0.11160809  0.85141113  1
  O2-  O471  1  0.91059109  0.32673820  0.19097917  1
  O2-  O472  1  0.91252141  0.34175226  0.50152269  1
  O2-  O473  1  0.94662690  0.35392765  0.86313989  1
  O2-  O474  1  0.92079919  0.58911056  0.18270900  1
  O2-  O475  1  0.93440006  0.59072144  0.53391991  1
  O2-  O476  1  0.90974350  0.57148571  0.84344024  1
  O2-  O477  1  0.90602773  0.81444046  0.19759329  1
  O2-  O478  1  0.90367676  0.84709210  0.50822505  1
  O2-  O479  1  0.95361506  0.78643891  0.88139881  1
  O2-  O480  1  0.21264831  0.12190798  0.31517092  1
  O2-  O481  1  0.16570852  0.08612637  0.64157745  1
  O2-  O482  1  0.15780742  0.01340823  0.95469342  1
  O2-  O483  1  0.16281299  0.32627033  0.31003603  1
  O2-  O484  1  0.16655982  0.33449677  0.63553852  1
  O2-  O485  1  0.16765991  0.32132397  0.98578886  1
  O2-  O486  1  0.16371645  0.57824354  0.30963717  1
  O2-  O487  1  0.20030768  0.67064024  0.63467092  1
  O2-  O488  1  0.16700326  0.58606396  0.98173811  1
  O2-  O489  1  0.16915855  0.82036713  0.31081542  1
  O2-  O490  1  0.17452624  0.84048341  0.65578643  1
  O2-  O491  1  0.18205977  0.88031771  0.93768622  1
  O2-  O492  1  0.40717990  0.09246406  0.31190387  1
  O2-  O493  1  0.40984881  0.09677473  0.65147179  1
  O2-  O494  1  0.33303651  0.01799339  0.96012904  1
  O2-  O495  1  0.39459474  0.32470121  0.30754343  1
  O2-  O496  1  0.41968837  0.34772190  0.64800879  1
  O2-  O497  1  0.39990866  0.31502865  0.94875907  1
  O2-  O498  1  0.40679486  0.58191516  0.30499426  1
  O2-  O499  1  0.40890587  0.59735878  0.64290397  1
  O2-  O500  1  0.41300896  0.58522256  0.97516512  1
  O2-  O501  1  0.42534157  0.83974496  0.31563175  1
  O2-  O502  1  0.41158434  0.83962261  0.64915149  1
  O2-  O503  1  0.41194972  0.83152861  0.97700774  1
  O2-  O504  1  0.73203205  0.01607129  0.29731284  1
  O2-  O505  1  0.65518568  0.07903048  0.65317665  1
  O2-  O506  1  0.66264286  0.09430010  0.97584481  1
  O2-  O507  1  0.66408239  0.33754299  0.31487118  1
  O2-  O508  1  0.66259192  0.33717218  0.64075822  1
  O2-  O509  1  0.67768078  0.34777710  0.97506391  1
  O2-  O510  1  0.66124906  0.57640542  0.30770747  1
  O2-  O511  1  0.68831199  0.59687295  0.62558122  1
  O2-  O512  1  0.65931697  0.57848654  0.99029266  1
  O2-  O513  1  0.67528271  0.80371573  0.33558643  1
  O2-  O514  1  0.66982445  0.85326202  0.62889627  1
  O2-  O515  1  0.66108964  0.83374076  0.97767391  1
  O2-  O516  1  0.95340134  0.07356874  0.31456284  1
  O2-  O517  1  0.92040993  0.09607773  0.64281092  1
  O2-  O518  1  0.95192300  0.03563052  0.96065901  1
  O2-  O519  1  0.91274512  0.32531404  0.31518126  1
  O2-  O520  1  0.87867647  0.30414487  0.62986878  1
  O2-  O521  1  0.92659740  0.34084333  0.98850287  1
  O2-  O522  1  0.91427943  0.59216059  0.30541855  1
  O2-  O523  1  0.91832290  0.57757163  0.65721962  1
  O2-  O524  1  0.92753711  0.58173132  0.97343202  1
  O2-  O525  1  0.88578810  0.77513440  0.31691477  1
  O2-  O526  1  0.91437524  0.83071878  0.63617558  1
  O2-  O527  1  0.90858144  0.80788497  0.99045444  1
  O2-  O528  1  0.09478224  0.15742844  0.02333202  1
  O2-  O529  1  0.11727171  0.17495565  0.34494740  1
  O2-  O530  1  0.08505584  0.16923022  0.67537422  1
  O2-  O531  1  0.09431137  0.41349162  0.02308008  1
  O2-  O532  1  0.08548732  0.41212008  0.35712886  1
  O2-  O533  1  0.04147395  0.35716729  0.70348495  1
  O2-  O534  1  0.10087056  0.69437678  0.00779549  1
  O2-  O535  1  0.07540780  0.65755841  0.35050967  1
  O2-  O536  1  0.08140686  0.66779555  0.69968330  1
  O2-  O537  1  0.04955554  0.89434789  0.05332160  1
  O2-  O538  1  0.06269042  0.87272332  0.34751326  1
  O2-  O539  1  0.07776763  0.92029438  0.68461736  1
  O2-  O540  1  0.33051337  0.15657609  0.00851343  1
  O2-  O541  1  0.30087557  0.16675395  0.33814149  1
  O2-  O542  1  0.32320832  0.18505511  0.69001510  1
  O2-  O543  1  0.33685635  0.41677251  0.01408962  1
  O2-  O544  1  0.32969219  0.41388318  0.34336642  1
  O2-  O545  1  0.33094628  0.42766188  0.68358797  1
  O2-  O546  1  0.33163432  0.66942197  0.02265743  1
  O2-  O547  1  0.33072697  0.67317513  0.35054137  1
  O2-  O548  1  0.32668201  0.68520292  0.69061001  1
  O2-  O549  1  0.40143246  0.96349507  0.03734532  1
  O2-  O550  1  0.33598572  0.91797918  0.35434927  1
  O2-  O551  1  0.33696853  0.93028247  0.69038272  1
  O2-  O552  1  0.57973157  0.17983459  0.02307997  1
  O2-  O553  1  0.56648346  0.17529737  0.36330004  1
  O2-  O554  1  0.57644907  0.17529537  0.68741917  1
  O2-  O555  1  0.57678703  0.40568585  0.03207984  1
  O2-  O556  1  0.56931863  0.41160391  0.35236801  1
  O2-  O557  1  0.58965813  0.43227414  0.67499538  1
  O2-  O558  1  0.57641278  0.67066097  0.02291542  1
  O2-  O559  1  0.55490881  0.63233695  0.35796585  1
  O2-  O560  1  0.64980301  0.70267399  0.68030130  1
  O2-  O561  1  0.58244026  0.92600054  0.00783266  1
  O2-  O562  1  0.59320771  0.89223316  0.35334882  1
  O2-  O563  1  0.57643780  0.91588535  0.68206702  1
  O2-  O564  1  0.78788964  0.21173471  0.04655497  1
  O2-  O565  1  0.85887396  0.15337975  0.35432473  1
  O2-  O566  1  0.84555914  0.16420763  0.68717074  1
  O2-  O567  1  0.83996295  0.42489019  0.02062004  1
  O2-  O568  1  0.83381809  0.42445958  0.35160228  1
  O2-  O569  1  0.82234788  0.40484202  0.67885198  1
  O2-  O570  1  0.81693531  0.65379980  0.03997564  1
  O2-  O571  1  0.83193516  0.68519814  0.33860833  1
  O2-  O572  1  0.84195425  0.67208986  0.68924413  1
  O2-  O573  1  0.82746494  0.89666458  0.01945432  1
  O2-  O574  1  0.84578793  0.88430255  0.36104677  1
  O2-  O575  1  0.83031529  0.92655928  0.66170394  1
