# generated using pymatgen
data_H2O
_symmetry_space_group_name_H-M   'P 1'
_cell_length_a   17.95784216
_cell_length_b   17.96423550
_cell_length_c   21.97114012
_cell_angle_alpha   90.07408899
_cell_angle_beta   89.96661698
_cell_angle_gamma   119.98623065
_symmetry_Int_Tables_number   1
_chemical_formula_structural   H2O
_chemical_formula_sum   'H384 O192'
_cell_volume   6139.11815735
_cell_formula_units_Z   192
loop_
 _symmetry_equiv_pos_site_id
 _symmetry_equiv_pos_as_xyz
  1  'x, y, z'
loop_
 _atom_type_symbol
 _atom_type_oxidation_number
  H+  1.0
  O2-  -2.0
loop_
 _atom_site_type_symbol
 _atom_site_label
 _atom_site_symmetry_multiplicity
 _atom_site_fract_x
 _atom_site_fract_y
 _atom_site_fract_z
 _atom_site_occupancy
  H+  H0  1  0.72849534  0.09856722  0.48786961  1
  H+  H1  1  0.63699270  0.99067207  0.01333389  1
  H+  H2  1  1.01022718  0.12145838  0.67047299  1
  H+  H3  1  0.56797451  0.15003578  0.89321610  1
  H+  H4  1  0.37473213  0.39422888  -0.00511046  1
  H+  H5  1  0.65779749  0.79037363  0.66139193  1
  H+  H6  1  0.62568920  0.73517797  0.82573956  1
  H+  H7  1  0.97483305  0.59793200  0.31254023  1
  H+  H8  1  0.85007419  0.37668686  0.33729567  1
  H+  H9  1  0.64438108  0.37710640  0.83232905  1
  H+  H10  1  0.42329227  0.53106842  0.67313988  1
  H+  H11  1  0.46127106  0.44479551  0.72599717  1
  H+  H12  1  0.63400208  0.99605988  0.64912861  1
  H+  H13  1  0.66204557  0.62576293  0.50671376  1
  H+  H14  1  0.18112884  0.30717029  0.53681268  1
  H+  H15  1  0.62932703  0.89612469  0.82453700  1
  H+  H16  1  1.02658705  0.61548566  0.49419239  1
  H+  H17  1  0.37832271  1.02835709  0.50918624  1
  H+  H18  1  0.35349272  0.86489397  0.16323959  1
  H+  H19  1  0.11102768  0.72579513  0.01903566  1
  H+  H20  1  0.90589358  0.74297770  0.34747159  1
  H+  H21  1  0.43786942  0.59967978  0.34669937  1
  H+  H22  1  0.58531827  0.51671815  0.31839724  1
  H+  H23  1  0.28111576  0.39669166  0.48176965  1
  H+  H24  1  0.87325168  -0.01904734  0.66172857  1
  H+  H25  1  0.55124263  0.70335788  0.36454195  1
  H+  H26  1  0.60323578  0.68017829  0.73363153  1
  H+  H27  1  0.62967101  0.48937016  0.66006955  1
  H+  H28  1  0.36741901  0.64395083  0.83552728  1
  H+  H29  1  0.87564251  0.78478967  0.63702478  1
  H+  H30  1  0.63176245  0.51777217  0.99370518  1
  H+  H31  1  0.61512945  0.82186577  0.33101400  1
  H+  H32  1  0.16017769  0.83318008  0.94596085  1
  H+  H33  1  0.27852452  0.47009678  0.77404119  1
  H+  H34  1  0.53468071  0.64749773  0.82578040  1
  H+  H35  1  0.26108466  0.13866813  0.48141417  1
  H+  H36  1  0.13503854  0.51988008  0.14320889  1
  H+  H37  1  0.88298488  0.27663358  0.15370060  1
  H+  H38  1  0.86839429  0.22194989  0.68432918  1
  H+  H39  1  0.91148547  0.64678974  0.34754650  1
  H+  H40  1  0.42277913  0.57537931  0.57265893  1
  H+  H41  1  0.84610919  0.92877225  0.38190986  1
  H+  H42  1  0.74775864  0.12137368  1.00941184  1
  H+  H43  1  0.51604401  0.13430907  0.33737535  1
  H+  H44  1  0.12936533  1.02188582  0.86983031  1
  H+  H45  1  0.39178968  0.53225093  0.83747557  1
  H+  H46  1  0.30595351  0.74358653  0.66330811  1
  H+  H47  1  0.89755818  0.03862533  0.15329981  1
  H+  H48  1  0.12641480  0.76927414  0.17822945  1
  H+  H49  1  0.88712038  0.22876976  0.01621802  1
  H+  H50  1  0.11734109  0.37547906  0.00448823  1
  H+  H51  1  0.02579254  0.14495965  0.32729080  1
  H+  H52  1  0.13032547  0.85089883  0.50693959  1
  H+  H53  1  0.34088958  0.34122535  0.85727927  1
  H+  H54  1  0.40679644  0.72848121  0.69290108  1
  H+  H55  1  0.12168637  -0.02818370  0.48905259  1
  H+  H56  1  0.28727924  0.76740056  0.94080847  1
  H+  H57  1  0.61806413  0.99534221  0.33755658  1
  H+  H58  1  0.74081346  0.87533269  0.83055647  1
  H+  H59  1  0.61657235  -0.04316262  0.46737894  1
  H+  H60  1  0.13758116  0.12285590  0.32143876  1
  H+  H61  1  0.63861503  0.27777098  -0.01259475  1
  H+  H62  1  0.31187843  0.88629844  0.68856848  1
  H+  H63  1  0.89659603  0.51093091  0.84049439  1
  H+  H64  1  0.47056633  0.85695485  0.66082539  1
  H+  H65  1  0.56293140  0.62098641  0.34324166  1
  H+  H66  1  0.88364037  0.98549039  0.81164709  1
  H+  H67  1  0.37771859  1.02682783  0.33185826  1
  H+  H68  1  0.02630198  0.37448605  0.53111471  1
  H+  H69  1  0.85241928  0.60150337  0.83624134  1
  H+  H70  1  0.45612783  1.01137505  0.68260638  1
  H+  H71  1  0.62246720  0.14217647  1.00589927  1
  H+  H72  1  0.09881435  0.20467904  0.68940632  1
  H+  H73  1  0.82034178  0.40823588  0.10081874  1
  H+  H74  1  0.67156639  0.34562969  0.93153521  1
  H+  H75  1  0.32791552  0.12821252  0.83421163  1
  H+  H76  1  0.66763477  0.91626770  0.67459100  1
  H+  H77  1  0.11414446  0.46574688  0.53569178  1
  H+  H78  1  0.89147102  0.11603656  0.65465929  1
  H+  H79  1  0.93611136  0.13018862  0.83925437  1
  H+  H80  1  0.61300689  0.21139497  0.50037493  1
  H+  H81  1  0.02748591  0.63437239  0.83295311  1
  H+  H82  1  0.62174003  0.40003408  0.64683685  1
  H+  H83  1  0.54336782  0.90364778  0.82443238  1
  H+  H84  1  0.52593370  0.64153212  -0.00535431  1
  H+  H85  1  0.36818672  0.26799727  0.51141409  1
  H+  H86  1  0.85001283  0.46352157  0.34817256  1
  H+  H87  1  0.38632537  0.75653960  0.16623302  1
  H+  H88  1  0.16117193  0.31867785  0.93263314  1
  H+  H89  1  0.27724699  0.63044538  0.14584428  1
  H+  H90  1  0.88090960  0.27399713  0.31585802  1
  H+  H91  1  0.32275040  0.25962348  0.66235246  1
  H+  H92  1  0.43850489  -0.00438081  0.65128831  1
  H+  H93  1  0.13393227  0.51942548  0.99571986  1
  H+  H94  1  0.39265208  0.52142910  0.98368849  1
  H+  H95  1  0.99499361  0.10014454  0.99205911  1
  H+  H96  1  0.40038032  0.60707768  0.67117202  1
  H+  H97  1  0.16372588  0.58539397  0.93993087  1
  H+  H98  1  0.38900852  0.60990610  0.98611655  1
  H+  H99  1  0.10706671  0.88521160  0.16473056  1
  H+  H100  1  0.59893134  0.38413927  0.32897964  1
  H+  H101  1  0.41540620  0.81093039  0.22811630  1
  H+  H102  1  0.77353479  0.37438954  1.00675608  1
  H+  H103  1  0.84893777  0.38397007  0.16131895  1
  H+  H104  1  0.14444421  0.60996945  0.52236820  1
  H+  H105  1  0.61980801  0.51731897  0.17149059  1
  H+  H106  1  0.10133298  0.46783949  0.69455015  1
  H+  H107  1  0.12212829  0.22317728  0.14762036  1
  H+  H108  1  0.74219072  0.15322682  0.31021976  1
  H+  H109  1  0.63954798  0.60928897  0.84025373  1
  H+  H110  1  0.12390672  0.11180063  0.48559410  1
  H+  H111  1  0.89229035  1.03679961  0.30296602  1
  H+  H112  1  0.65410599  0.29577684  0.64871680  1
  H+  H113  1  0.09650786  0.38455609  0.84881243  1
  H+  H114  1  0.61520723  0.87062207  0.48651940  1
  H+  H115  1  0.78943942  0.89240327  0.32147555  1
  H+  H116  1  0.30716518  0.15856899  0.73353831  1
  H+  H117  1  0.27691539  0.64439964  0.83557478  1
  H+  H118  1  0.77921959  0.89460479  0.48012462  1
  H+  H119  1  0.38934974  0.27722936  -0.00390554  1
  H+  H120  1  0.89626325  0.87023061  0.83340966  1
  H+  H121  1  0.24263984  0.87252561  0.01799146  1
  H+  H122  1  0.59362409  -0.02271649  0.30842719  1
  H+  H123  1  0.48186989  0.36275778  -0.01035627  1
  H+  H124  1  0.53370151  0.63123109  0.50805487  1
  H+  H125  1  0.36568559  0.58332895  0.17901071  1
  H+  H126  1  0.49003759  0.86733851  0.49760729  1
  H+  H127  1  0.88340491  0.58037669  0.49908460  1
  H+  H128  1  0.64777141  0.15231262  0.31215416  1
  H+  H129  1  0.10153001  0.86912102  0.65438562  1
  H+  H130  1  0.85987710  0.14057940  0.32516284  1
  H+  H131  1  0.12948818  0.00587738  0.64609939  1
  H+  H132  1  0.87191007  0.90377444  0.48334724  1
  H+  H133  1  0.56840395  0.13561784  0.82276062  1
  H+  H134  1  0.20409439  0.80059361  0.64200034  1
  H+  H135  1  0.54683026  0.65163786  0.67316329  1
  H+  H136  1  0.96814143  0.85734096  0.17619195  1
  H+  H137  1  0.34959100  0.97476773  0.84537695  1
  H+  H138  1  0.33449818  0.22031669  0.83027472  1
  H+  H139  1  0.37674672  0.64018572  0.51030301  1
  H+  H140  1  0.39963784  0.78847890  0.83886455  1
  H+  H141  1  0.33289028  0.88255522  0.35480263  1
  H+  H142  1  0.38368953  1.01218765  0.17616776  1
  H+  H143  1  0.11133437  0.70984571  0.49335533  1
  H+  H144  1  0.42300559  0.58761588  0.89898174  1
  H+  H145  1  1.02318520  0.89417783  1.00923590  1
  H+  H146  1  0.27886151  0.14368578  0.32956543  1
  H+  H147  1  0.35845925  0.89091258  0.50140985  1
  H+  H148  1  0.28133846  0.14208297  0.16364188  1
  H+  H149  1  0.39668524  0.87643519  0.84048119  1
  H+  H150  1  0.49772258  0.83590166  0.65690139  1
  H+  H151  1  0.71391741  0.35695926  0.16936624  1
  H+  H152  1  0.20993458  0.11821428  0.86253727  1
  H+  H153  1  0.10561149  0.25623703  0.84018505  1
  H+  H154  1  0.38184300  0.36186722  0.51031337  1
  H+  H155  1  0.62562977  0.27432275  0.32445296  1
  H+  H156  1  1.09264760  0.64022245  0.26042086  1
  H+  H157  1  0.44386951  0.86710611  0.32322246  1
  H+  H158  1  0.67566111  0.49860616  0.47942790  1
  H+  H159  1  0.26882092  0.62188929  0.00705042  1
  H+  H160  1  0.14073478  0.62343186  0.84344561  1
  H+  H161  1  0.34703074  0.71936345  0.35832515  1
  H+  H162  1  0.20402825  0.33546418  0.65665992  1
  H+  H163  1  0.89255614  0.80367932  0.49999317  1
  H+  H164  1  0.76040627  0.61145031  0.37484442  1
  H+  H165  1  0.86732166  0.13156553  0.48203459  1
  H+  H166  1  1.01224715  0.38345372  0.15166013  1
  H+  H167  1  0.11910830  0.60351934  0.42037124  1
  H+  H168  1  0.00476850  0.62950806  0.16953424  1
  H+  H169  1  0.87255955  0.47918423  0.67168067  1
  H+  H170  1  0.11907176  0.89898419  0.85101665  1
  H+  H171  1  0.86631606  0.51408516  0.17520224  1
  H+  H172  1  0.23598129  0.61393322  0.52599326  1
  H+  H173  1  0.09897162  0.37836604  0.15648267  1
  H+  H174  1  0.38343009  0.07898396  0.91438398  1
  H+  H175  1  0.48134124  0.80568372  0.32334853  1
  H+  H176  1  0.59973644  0.37419301  0.16199148  1
  H+  H177  1  0.89543574  0.72091872  0.70370538  1
  H+  H178  1  0.27019972  0.15371571  0.01870295  1
  H+  H179  1  0.13520695  0.60740792  0.15461561  1
  H+  H180  1  0.62705793  1.02482673  0.17839371  1
  H+  H181  1  0.20110424  0.61650098  0.38248393  1
  H+  H182  1  0.68481169  0.75828620  0.29108542  1
  H+  H183  1  0.58180230  0.16892271  0.05906744  1
  H+  H184  1  0.81564118  0.13412746  0.84961155  1
  H+  H185  1  0.10565109  0.62292792  0.33109432  1
  H+  H186  1  0.86647449  0.89477008  0.15749788  1
  H+  H187  1  0.36587633  0.13580069  0.16053563  1
  H+  H188  1  -0.00399127  0.35782352  -0.00945002  1
  H+  H189  1  0.01826928  0.87990902  0.65277298  1
  H+  H190  1  0.75531448  0.62960542  0.17025173  1
  H+  H191  1  0.19485432  0.34496509  0.83274427  1
  H+  H192  1  -0.03220474  0.35461065  0.67139881  1
  H+  H193  1  0.87416630  0.97917419  0.00446339  1
  H+  H194  1  0.23091189  0.89195665  0.70264180  1
  H+  H195  1  0.25332304  0.12285158  0.67059930  1
  H+  H196  1  0.61737345  0.38729548  0.00567137  1
  H+  H197  1  1.01100832  0.88950129  0.32228756  1
  H+  H198  1  0.62603048  0.61021957  0.16332975  1
  H+  H199  1  0.34896332  0.60249853  0.34735246  1
  H+  H200  1  0.61200607  0.47157622  0.81552368  1
  H+  H201  1  0.52089268  0.88249105  0.16188439  1
  H+  H202  1  0.37891268  0.38719511  0.68102571  1
  H+  H203  1  0.88072674  0.63102586  0.67733806  1
  H+  H204  1  0.26455520  0.86953539  0.16687366  1
  H+  H205  1  0.89446171  0.69590531  0.52084303  1
  H+  H206  1  0.62468488  0.73195511  0.14588700  1
  H+  H207  1  0.86608324  0.60373910  0.17771940  1
  H+  H208  1  0.33054478  0.86309609  1.00914622  1
  H+  H209  1  0.46589495  0.11893984  0.99471775  1
  H+  H210  1  0.91609065  1.11525482  0.00476610  1
  H+  H211  1  0.39289316  0.16297002  0.64891994  1
  H+  H212  1  0.12309112  0.09050494  0.65585030  1
  H+  H213  1  0.22513390  0.85715872  0.85759614  1
  H+  H214  1  0.96748782  0.36460485  0.30603662  1
  H+  H215  1  0.32999250  0.67157539  0.42368645  1
  H+  H216  1  0.64875763  0.86761266  -0.00986731  1
  H+  H217  1  0.60008855  0.07229177  0.62147820  1
  H+  H218  1  0.39349052  0.52445101  0.50799726  1
  H+  H219  1  0.98629131  0.11965464  0.48786902  1
  H+  H220  1  0.10570349  0.38746903  0.31385584  1
  H+  H221  1  0.10784266  0.98689730  0.01644724  1
  H+  H222  1  0.13346888  0.03141545  0.31753938  1
  H+  H223  1  0.35139213  0.13977933  0.48303451  1
  H+  H224  1  0.73651849  0.87681717  0.15930170  1
  H+  H225  1  0.60300001  0.22177247  0.15630194  1
  H+  H226  1  0.15250076  0.26361549  0.99098324  1
  H+  H227  1  0.88825672  0.78142253  0.99430677  1
  H+  H228  1  0.69487102  0.12564957  0.84537164  1
  H+  H229  1  0.87494897  0.84715239  0.32484306  1
  H+  H230  1  0.09804953  0.37875596  0.70212178  1
  H+  H231  1  0.63673233  0.28699694  0.84650903  1
  H+  H232  1  0.78007493  0.38878902  0.82617007  1
  H+  H233  1  0.33844553  0.42979738  0.75909871  1
  H+  H234  1  0.82139918  0.62976752  0.77772662  1
  H+  H235  1  0.10906502  0.73414232  0.66661043  1
  H+  H236  1  0.97649275  0.36563344  0.89546936  1
  H+  H237  1  0.87599880  0.76904187  0.17366198  1
  H+  H238  1  0.71538011  0.36103028  0.32606397  1
  H+  H239  1  0.13085314  0.87103818  0.00381031  1
  H+  H240  1  0.22380808  0.59827971  0.67845807  1
  H+  H241  1  0.16144820  0.83312069  0.23517081  1
  H+  H242  1  0.37797987  0.45010138  0.23120567  1
  H+  H243  1  0.74891056  0.62630137  0.66392222  1
  H+  H244  1  0.66290067  0.63279029  0.66099286  1
  H+  H245  1  0.09651463  0.88562412  0.32398428  1
  H+  H246  1  0.21919741  0.35369517  0.31305562  1
  H+  H247  1  0.34997810  0.71235183  -0.00156642  1
  H+  H248  1  0.09758165  0.46413034  0.34398219  1
  H+  H249  1  0.89502319  0.22531187  0.86400307  1
  H+  H250  1  0.20554759  0.34643421  0.72648658  1
  H+  H251  1  0.64354106  0.87152960  0.16731091  1
  H+  H252  1  0.97961388  0.61606879  0.99946246  1
  H+  H253  1  0.46573974  0.23091265  0.60699329  1
  H+  H254  1  0.64327694  0.77607249  0.98426073  1
  H+  H255  1  0.51029033  0.37233911  0.15803527  1
  H+  H256  1  0.53779797  0.14944913  0.63026449  1
  H+  H257  1  0.26229345  0.87837168  0.50479814  1
  H+  H258  1  0.63033723  0.20165969  0.59848814  1
  H+  H259  1  0.43751490  0.11126253  0.85433627  1
  H+  H260  1  0.89414526  0.87132428  0.99176940  1
  H+  H261  1  0.61161287  0.63541635  0.99444546  1
  H+  H262  1  0.74601159  0.64481529  1.01147099  1
  H+  H263  1  0.13419294  0.76935025  0.85300300  1
  H+  H264  1  0.50699552  0.37051543  0.34463389  1
  H+  H265  1  0.10500285  0.21553889  0.46940704  1
  H+  H266  1  0.63666870  0.09466370  0.48624142  1
  H+  H267  1  0.37979653  0.12350211  1.00300324  1
  H+  H268  1  0.76614083  0.35748700  0.51435340  1
  H+  H269  1  0.75191454  0.87575063  0.65565517  1
  H+  H270  1  0.34744219  0.65904518  0.09551407  1
  H+  H271  1  0.88872515  0.15189181  0.11815528  1
  H+  H272  1  0.88202024  0.49289960  0.50862263  1
  H+  H273  1  0.12880446  0.26413193  0.31824715  1
  H+  H274  1  0.38021774  0.73236938  0.51155079  1
  H+  H275  1  0.71662434  0.60389164  0.36624345  1
  H+  H276  1  0.13794450  0.53281895  0.85120647  1
  H+  H277  1  0.54632448  0.90624086  1.00716753  1
  H+  H278  1  0.85848053  0.21454006  0.48990823  1
  H+  H279  1  0.09926031  0.62664189  0.68816170  1
  H+  H280  1  0.14266210  0.36373182  0.51298008  1
  H+  H281  1  0.88191806  0.34229345  0.51406972  1
  H+  H282  1  0.03145315  0.89937510  0.83985200  1
  H+  H283  1  0.89181766  0.61466595  -0.00943090  1
  H+  H284  1  0.13829966  0.02671846  0.17626310  1
  H+  H285  1  0.66435916  0.02585191  0.84616690  1
  H+  H286  1  0.03077844  0.89106769  0.49818941  1
  H+  H287  1  0.51524042  0.13028125  0.15586970  1
  H+  H288  1  0.34528608  0.67555890  0.74747543  1
  H+  H289  1  0.14844479  0.80698885  0.56504943  1
  H+  H290  1  0.41366985  0.07469488  0.23423797  1
  H+  H291  1  0.58689896  0.92363063  0.10614223  1
  H+  H292  1  0.90231397  0.32338800  0.22019820  1
  H+  H293  1  0.38328869  0.11856032  0.32506094  1
  H+  H294  1  0.12443177  0.13539556  0.15567638  1
  H+  H295  1  0.34101950  0.47879133  0.33669163  1
  H+  H296  1  0.63254873  0.44008553  0.42352118  1
  H+  H297  1  0.31688917  0.91643334  0.78547223  1
  H+  H298  1  0.23057821  0.55298392  0.25250470  1
  H+  H299  1  0.92035994  0.83981626  0.89420010  1
  H+  H300  1  0.78371056  0.39369399  0.65816894  1
  H+  H301  1  0.51974004  0.13150421  0.48906244  1
  H+  H302  1  0.99004235  0.12323615  0.15174037  1
  H+  H303  1  0.26482806  0.43344010  0.17906121  1
  H+  H304  1  0.40210120  0.32682238  0.89948302  1
  H+  H305  1  0.86543636  0.17039796  0.74316001  1
  H+  H306  1  0.89342164  0.03269868  0.49398670  1
  H+  H307  1  0.07680830  0.16297357  0.39460934  1
  H+  H308  1  0.64367493  0.76941504  0.50919051  1
  H+  H309  1  0.20429614  0.85566820  0.33483544  1
  H+  H310  1  0.30602876  0.77801895  0.59767310  1
  H+  H311  1  0.34725314  0.42503185  0.42758312  1
  H+  H312  1  0.15530866  0.08469935  0.54769483  1
  H+  H313  1  0.84128842  0.92200284  0.09422530  1
  H+  H314  1  0.89662256  0.80970669  0.26512367  1
  H+  H315  1  0.67414446  0.11607231  0.23869545  1
  H+  H316  1  0.38433337  0.82534381  0.92353410  1
  H+  H317  1  0.78153729  0.89035225  1.00067595  1
  H+  H318  1  0.18891220  0.22902920  0.59536159  1
  H+  H319  1  0.77009783  0.72764146  0.04911204  1
  H+  H320  1  0.08276898  0.66933791  0.77192228  1
  H+  H321  1  0.45579060  0.86810330  0.56340136  1
  H+  H322  1  0.33503622  0.17417788  0.38924761  1
  H+  H323  1  0.83124249  0.16463459  0.38917368  1
  H+  H324  1  0.15927677  0.32662025  0.23111321  1
  H+  H325  1  -0.01291206  0.36841408  0.42148964  1
  H+  H326  1  0.65585470  0.32724561  0.22992670  1
  H+  H327  1  0.79426386  0.65118425  0.49889720  1
  H+  H328  1  0.08029360  0.40426075  0.06181338  1
  H+  H329  1  0.37223414  0.56193662  0.24800276  1
  H+  H330  1  -0.00675068  0.33050633  0.41633734  1
  H+  H331  1  0.63279769  0.95307347  0.73056687  1
  H+  H332  1  0.16799425  0.57419523  0.61843613  1
  H+  H333  1  0.33565060  0.17826549  0.07530092  1
  H+  H334  1  0.57614102  0.65342362  0.44404888  1
  H+  H335  1  0.14303697  0.20834590  0.58466729  1
  H+  H336  1  0.71900395  0.59073031  0.84361455  1
  H+  H337  1  0.69636821  0.09077117  0.94665168  1
  H+  H338  1  0.81121969  0.66368510  0.11028235  1
  H+  H339  1  0.06948444  0.66231956  0.11289500  1
  H+  H340  1  0.61537995  0.57720573  0.26033354  1
  H+  H341  1  0.92183139  0.09279971  0.58981278  1
  H+  H342  1  0.04651197  0.13891970  0.76876979  1
  H+  H343  1  0.41613809  0.11103023  0.55447629  1
  H+  H344  1  0.67756176  0.83801713  0.56418674  1
  H+  H345  1  0.16957762  0.09189301  0.23333162  1
  H+  H346  1  0.11148549  0.14998523  0.05765845  1
  H+  H347  1  0.89567946  0.57339466  0.27005431  1
  H+  H348  1  0.11327991  0.63718230  0.01835209  1
  H+  H349  1  0.65989437  0.57315893  0.93097190  1
  H+  H350  1  0.90580140  0.31029199  0.57470445  1
  H+  H351  1  0.88051435  0.35553792  0.66438794  1
  H+  H352  1  0.98957583  0.61338846  0.67123921  1
  H+  H353  1  0.62371242  0.11380679  0.16523562  1
  H+  H354  1  0.80839053  0.38613295  0.44681396  1
  H+  H355  1  0.58061395  0.41165072  0.06486032  1
  H+  H356  1  0.35359443  0.31669941  0.60093596  1
  H+  H357  1  0.22583568  0.59165027  0.25764830  1
  H+  H358  1  0.89469716  0.69016707  0.41448633  1
  H+  H359  1  0.15667657  0.09540955  0.94399243  1
  H+  H360  1  0.31412228  0.89264171  0.08079632  1
  H+  H361  1  0.83667685  0.41354794  0.76662196  1
  H+  H362  1  0.61166331  0.24588487  0.74223490  1
  H+  H363  1  0.91927952  0.85489064  0.56684630  1
  H+  H364  1  0.92807645  0.57947668  0.60691804  1
  H+  H365  1  0.85947637  0.36852149  0.01013741  1
  H+  H366  1  0.12542626  0.76228688  0.31595875  1
  H+  H367  1  0.87757048  0.89069379  0.65825242  1
  H+  H368  1  0.57767240  0.84237763  0.39312038  1
  H+  H369  1  0.84417905  0.92335953  0.75442795  1
  H+  H370  1  0.07695008  0.91710213  0.10679956  1
  H+  H371  1  0.92084410  0.10122842  0.24611597  1
  H+  H372  1  0.68303255  0.84466766  0.89187334  1
  H+  H373  1  0.05753096  0.41473515  0.79731479  1
  H+  H374  1  0.58022032  0.16536878  0.39534936  1
  H+  H375  1  0.92407497  0.57170079  0.90110406  1
  H+  H376  1  0.65189720  0.24267850  0.74166661  1
  H+  H377  1  0.69771538  0.60335867  0.56658802  1
  H+  H378  1  0.68477027  0.82571131  0.24342051  1
  H+  H379  1  0.63788749  0.03464548  0.56951308  1
  H+  H380  1  0.59153290  0.67171148  0.08727486  1
  H+  H381  1  0.28527911  0.39256182  -0.00395088  1
  H+  H382  1  0.60003530  0.42116184  0.75245404  1
  H+  H383  1  0.31236988  0.91837955  0.41371791  1
  O2-  O384  1  0.09564977  0.16325650  0.13238988  1
  O2-  O385  1  0.07270011  0.15469483  0.45772999  1
  O2-  O386  1  0.05017668  0.15282708  0.81388970  1
  O2-  O387  1  0.07243383  0.40912194  0.13589658  1
  O2-  O388  1  0.08869939  0.40314388  0.54079122  1
  O2-  O389  1  0.06921066  0.42049136  0.84183944  1
  O2-  O390  1  0.06717623  0.66199226  0.15845269  1
  O2-  O391  1  0.08873873  0.64771654  0.48311504  1
  O2-  O392  1  0.08869863  0.67077731  0.81835228  1
  O2-  O393  1  0.07442981  0.91409876  0.15224179  1
  O2-  O394  1  0.09046675  0.90819474  0.48569276  1
  O2-  O395  1  0.09622196  0.93597046  0.83794464  1
  O2-  O396  1  0.34093139  0.17117842  0.14722007  1
  O2-  O397  1  0.32389587  0.17286806  0.46941580  1
  O2-  O398  1  0.30039065  0.15913437  0.81572349  1
  O2-  O399  1  0.23633272  0.37887448  0.15561231  1
  O2-  O400  1  0.34457027  0.42849520  0.47247227  1
  O2-  O401  1  0.28975239  0.42446867  0.78638486  1
  O2-  O402  1  0.34168740  0.65854881  0.14059487  1
  O2-  O403  1  0.34499534  0.67139111  0.49897934  1
  O2-  O404  1  0.33816423  0.67566140  0.82048904  1
  O2-  O405  1  0.32400529  0.89641327  0.14828595  1
  O2-  O406  1  0.32331721  0.91674882  0.48953687  1
  O2-  O407  1  0.32965188  0.91473337  0.82999898  1
  O2-  O408  1  0.57512179  0.16209572  0.13875799  1
  O2-  O409  1  0.58140444  0.15814697  0.47585466  1
  O2-  O410  1  0.55712920  0.16760753  0.85369951  1
  O2-  O411  1  0.57033303  0.40553373  0.14555172  1
  O2-  O412  1  0.67575273  0.45275217  0.45523483  1
  O2-  O413  1  0.59377178  0.41432046  0.79734087  1
  O2-  O414  1  0.59588662  0.67141332  0.13237699  1
  O2-  O415  1  0.59163623  0.66137263  0.48847475  1
  O2-  O416  1  0.59480324  0.67440900  0.81081985  1
  O2-  O417  1  0.58307631  0.92102120  0.15142628  1
  O2-  O418  1  0.58251514  0.89300387  0.46214947  1
  O2-  O419  1  0.60441943  0.93307375  0.81104580  1
  O2-  O420  1  0.86264261  0.18590789  0.10063684  1
  O2-  O421  1  0.83104429  0.15775597  0.46820128  1
  O2-  O422  1  0.87563352  0.17442557  0.83725911  1
  O2-  O423  1  0.81697850  0.41287106  0.14687674  1
  O2-  O424  1  0.82156482  0.38911841  0.49078761  1
  O2-  O425  1  0.84012832  0.41323306  0.81154794  1
  O2-  O426  1  0.81677538  0.66021969  0.15513965  1
  O2-  O427  1  0.85823303  0.67949027  0.48467417  1
  O2-  O428  1  0.81171996  0.62050210  0.82178730  1
  O2-  O429  1  0.84026329  0.92756109  0.13987992  1
  O2-  O430  1  0.83744264  0.92677216  0.46203463  1
  O2-  O431  1  0.84170030  0.92566455  0.80025169  1
  O2-  O432  1  0.17087788  0.08871647  0.18694076  1
  O2-  O433  1  0.15937171  0.08543056  0.50281777  1
  O2-  O434  1  0.15569186  0.08411895  0.88630444  1
  O2-  O435  1  0.15087745  0.32769903  0.18338442  1
  O2-  O436  1  0.17802494  0.33602533  0.50016885  1
  O2-  O437  1  0.14048769  0.31686046  0.85558224  1
  O2-  O438  1  0.17188582  0.58353587  0.14320097  1
  O2-  O439  1  0.17634081  0.58385965  0.54215789  1
  O2-  O440  1  0.17330311  0.59540061  0.86112560  1
  O2-  O441  1  0.16330908  0.83141062  0.18940698  1
  O2-  O442  1  0.15824459  0.81564346  0.51987465  1
  O2-  O443  1  0.16524555  0.82676879  0.87411420  1
  O2-  O444  1  0.41607757  0.07318003  0.18862426  1
  O2-  O445  1  0.41393784  0.09200226  0.51145605  1
  O2-  O446  1  0.37766965  0.07444900  0.86782619  1
  O2-  O447  1  0.36051435  0.39105585  0.24649462  1
  O2-  O448  1  0.39304172  0.32263529  0.53529948  1
  O2-  O449  1  0.38313941  0.32254908  0.85599316  1
  O2-  O450  1  0.36629069  0.53933449  0.20602398  1
  O2-  O451  1  0.42412210  0.58297027  0.52775454  1
  O2-  O452  1  0.42268900  0.59173799  0.85207294  1
  O2-  O453  1  0.41323279  0.81736336  0.18343505  1
  O2-  O454  1  0.43540586  0.84850817  0.52198114  1
  O2-  O455  1  0.43044158  0.84847550  0.85482730  1
  O2-  O456  1  0.65674329  0.08837761  0.18596407  1
  O2-  O457  1  0.66495521  0.06115578  0.49757167  1
  O2-  O458  1  0.70258937  0.08285258  0.86724725  1
  O2-  O459  1  0.65251631  0.32436198  0.18428174  1
  O2-  O460  1  0.67993815  0.29112795  0.56254500  1
  O2-  O461  1  0.67328500  0.34849362  0.85533435  1
  O2-  O462  1  0.64998636  0.57756504  0.18625384  1
  O2-  O463  1  0.70258401  0.60652943  0.52107554  1
  O2-  O464  1  0.65699110  0.56927075  0.85725216  1
  O2-  O465  1  0.67614533  0.84092396  0.17527957  1
  O2-  O466  1  0.67149328  0.83221679  0.51882122  1
  O2-  O467  1  0.67999420  0.84419302  0.84640593  1
  O2-  O468  1  0.92812332  0.10149863  0.16249256  1
  O2-  O469  1  0.92508051  0.09317549  0.50868841  1
  O2-  O470  1  0.96491247  0.09417495  0.83880965  1
  O2-  O471  1  0.90726356  0.33241811  0.17485990  1
  O2-  O472  1  0.91119142  0.31117990  0.52925030  1
  O2-  O473  1  0.92187720  0.31748468  0.91235757  1
  O2-  O474  1  0.89622223  0.57352109  0.19366019  1
  O2-  O475  1  0.91701853  0.55663768  0.51713016  1
  O2-  O476  1  0.92599411  0.57237404  0.85568865  1
  O2-  O477  1  0.90644774  0.82941259  0.18946835  1
  O2-  O478  1  0.92349211  0.86177519  0.51698812  1
  O2-  O479  1  0.92752224  0.84228271  0.84958343  1
  O2-  O480  1  0.16893741  0.09339827  0.30569738  1
  O2-  O481  1  0.15871510  0.06982438  0.63588498  1
  O2-  O482  1  0.15720997  0.10018886  0.99715888  1
  O2-  O483  1  0.15858550  0.32433598  0.29832027  1
  O2-  O484  1  0.16617823  0.32601585  0.69134818  1
  O2-  O485  1  0.17009939  0.32273601  0.97760760  1
  O2-  O486  1  0.13696467  0.58561370  0.38281181  1
  O2-  O487  1  0.16439485  0.57041751  0.66408795  1
  O2-  O488  1  0.16385017  0.58173321  0.98544948  1
  O2-  O489  1  0.15019027  0.82526121  0.31094245  1
  O2-  O490  1  0.14687109  0.79515972  0.64190623  1
  O2-  O491  1  0.15944545  0.83663667  0.99251014  1
  O2-  O492  1  0.41279640  0.08364630  0.31268774  1
  O2-  O493  1  0.44108248  0.17160454  0.62080188  1
  O2-  O494  1  0.40431873  0.08948109  0.98443856  1
  O2-  O495  1  0.38734739  0.40545699  0.30805246  1
  O2-  O496  1  0.32884371  0.31323767  0.64358080  1
  O2-  O497  1  0.42119678  0.33414743  0.97481042  1
  O2-  O498  1  0.37861562  0.57404458  0.32791947  1
  O2-  O499  1  0.43629793  0.58601362  0.65238210  1
  O2-  O500  1  0.42318309  0.58474030  0.96915639  1
  O2-  O501  1  0.42863644  0.80913773  0.31073766  1
  O2-  O502  1  0.30469911  0.79038532  0.64069905  1
  O2-  O503  1  0.34387458  0.80107252  0.95968443  1
  O2-  O504  1  0.69422817  0.15290691  0.28573483  1
  O2-  O505  1  0.60715690  0.02018502  0.61017630  1
  O2-  O506  1  0.68870811  0.09151499  0.99150372  1
  O2-  O507  1  0.65665048  0.33369764  0.30742838  1
  O2-  O508  1  0.68159022  0.34142208  0.61800319  1
  O2-  O509  1  0.66986458  0.34005308  0.97721740  1
  O2-  O510  1  0.60085743  0.57507054  0.30425855  1
  O2-  O511  1  0.69163447  0.60199224  0.64399072  1
  O2-  O512  1  0.65952897  0.57781917  0.97703242  1
  O2-  O513  1  0.69103913  0.81544556  0.28870788  1
  O2-  O514  1  0.68800436  0.84911155  0.64324321  1
  O2-  O515  1  0.67721040  0.83813308  0.97128174  1
  O2-  O516  1  0.91633007  0.09791703  0.29134054  1
  O2-  O517  1  0.91968129  0.08571464  0.63502442  1
  O2-  O518  1  0.93292412  0.07665264  0.98505972  1
  O2-  O519  1  0.90358589  0.33203855  0.29734412  1
  O2-  O520  1  0.90964917  0.32219263  0.65270734  1
  O2-  O521  1  0.92995093  0.32335314  0.97928214  1
  O2-  O522  1  0.91128993  0.57764566  0.31474232  1
  O2-  O523  1  0.92424402  0.58031418  0.65158798  1
  O2-  O524  1  0.92378453  0.58688291  0.97765924  1
  O2-  O525  1  0.89268150  0.80500787  0.31081126  1
  O2-  O526  1  0.91587143  0.84524336  0.62962064  1
  O2-  O527  1  0.92510818  0.84018029  0.97854445  1
  O2-  O528  1  0.11115432  0.14772557  0.01155392  1
  O2-  O529  1  0.08407575  0.17254456  0.34501890  1
  O2-  O530  1  0.06463201  0.14195542  0.69541493  1
  O2-  O531  1  0.08507879  0.40569385  0.01578167  1
  O2-  O532  1  0.07282788  0.41831933  0.31347034  1
  O2-  O533  1  0.06689692  0.40928204  0.71272020  1
  O2-  O534  1  0.08226657  0.66606760  0.03477705  1
  O2-  O535  1  0.08024728  0.64936524  0.30218477  1
  O2-  O536  1  0.06881771  0.65761589  0.69854693  1
  O2-  O537  1  0.08269157  0.92509791  0.02748740  1
  O2-  O538  1  0.07311368  0.92454940  0.32909575  1
  O2-  O539  1  0.07984539  0.90747126  0.66637431  1
  O2-  O540  1  0.33209716  0.17962163  0.02896331  1
  O2-  O541  1  0.33917097  0.16960534  0.34433572  1
  O2-  O542  1  0.31196374  0.16382568  0.68829339  1
  O2-  O543  1  0.34697493  0.42862252  0.00601029  1
  O2-  O544  1  0.32247754  0.41427319  0.34470234  1
  O2-  O545  1  0.40891436  0.44185185  0.71042429  1
  O2-  O546  1  0.33229894  0.65517992  0.01565082  1
  O2-  O547  1  0.31203470  0.66406252  0.37970863  1
  O2-  O548  1  0.35178978  0.67649852  0.70124395  1
  O2-  O549  1  0.30713351  0.89464117  0.03347054  1
  O2-  O550  1  0.30772423  0.91692999  0.36782681  1
  O2-  O551  1  0.29204550  0.91853042  0.71327059  1
  O2-  O552  1  0.58674187  0.16911474  0.01367281  1
  O2-  O553  1  0.57828607  0.16772850  0.35004181  1
  O2-  O554  1  0.59491236  0.15424205  0.62957625  1
  O2-  O555  1  0.58436003  0.41591113  0.01971290  1
  O2-  O556  1  0.56797075  0.41329330  0.34511298  1
  O2-  O557  1  0.59580975  0.42749787  0.67084062  1
  O2-  O558  1  0.58781182  0.67292457  0.00770361  1
  O2-  O559  1  0.53486587  0.64289930  0.37336133  1
  O2-  O560  1  0.60718937  0.68374379  0.68798402  1
  O2-  O561  1  0.60256466  0.92801747  0.02599210  1
  O2-  O562  1  0.56240785  0.80562726  0.35579017  1
  O2-  O563  1  0.66078821  0.96636014  0.68994591  1
  O2-  O564  1  0.85654669  0.16894114  0.03469918  1
  O2-  O565  1  0.82960516  0.16927972  0.34370484  1
  O2-  O566  1  0.85028603  0.16307826  0.69985018  1
  O2-  O567  1  0.82696225  0.39208600  0.03029282  1
  O2-  O568  1  0.81816772  0.40176730  0.35846634  1
  O2-  O569  1  0.83690319  0.41624913  0.68276134  1
  O2-  O570  1  0.79449650  0.69218303  0.03647730  1
  O2-  O571  1  0.92069322  0.70233268  0.37229288  1
  O2-  O572  1  0.85071365  0.66187808  0.69575082  1
  O2-  O573  1  0.84031518  0.91695459  0.01880434  1
  O2-  O574  1  0.84958266  0.92629548  0.33650668  1
  O2-  O575  1  0.84533019  0.92118879  0.67815356  1
