# generated using pymatgen
data_H2O
_symmetry_space_group_name_H-M   'P 1'
_cell_length_a   17.99094512
_cell_length_b   17.99298263
_cell_length_c   22.00114197
_cell_angle_alpha   89.98570819
_cell_angle_beta   90.00441850
_cell_angle_gamma   119.99859496
_symmetry_Int_Tables_number   1
_chemical_formula_structural   H2O
_chemical_formula_sum   'H384 O192'
_cell_volume   6167.92563741
_cell_formula_units_Z   192
loop_
 _symmetry_equiv_pos_site_id
 _symmetry_equiv_pos_as_xyz
  1  'x, y, z'
loop_
 _atom_type_symbol
 _atom_type_oxidation_number
  H+  1.0
  O2-  -2.0
loop_
 _atom_site_type_symbol
 _atom_site_label
 _atom_site_symmetry_multiplicity
 _atom_site_fract_x
 _atom_site_fract_y
 _atom_site_fract_z
 _atom_site_occupancy
  H+  H0  1  0.13521404  0.36832740  0.63920673  1
  H+  H1  1  0.03300762  0.14238143  0.34516230  1
  H+  H2  1  0.48826807  0.11502875  0.32596784  1
  H+  H3  1  0.36461530  0.98751461  0.49082009  1
  H+  H4  1  0.85677558  0.63655952  0.16566383  1
  H+  H5  1  0.60781435  0.96088786  -0.01251856  1
  H+  H6  1  0.86151081  0.44310491  -0.03455752  1
  H+  H7  1  0.38635619  0.26039702  0.65509846  1
  H+  H8  1  0.13052661  0.86636667  0.17417367  1
  H+  H9  1  0.26234732  0.89284959  0.15936288  1
  H+  H10  1  0.14257073  0.12471389  0.33127499  1
  H+  H11  1  0.48596676  0.63018967  0.17873454  1
  H+  H12  1  0.32653804  0.16008244  0.73118501  1
  H+  H13  1  0.47841215  0.35895278  0.50745493  1
  H+  H14  1  0.99201854  0.54030070  0.53417982  1
  H+  H15  1  0.61193887  0.38011630  0.16590419  1
  H+  H16  1  0.37944616  0.47678361  0.17953320  1
  H+  H17  1  0.12272824  0.99167197  0.33683774  1
  H+  H18  1  0.50789737  0.13824571  0.16591721  1
  H+  H19  1  0.57713418  0.16092301  0.39677749  1
  H+  H20  1  0.12221978  0.90111746  0.33633659  1
  H+  H21  1  0.41445819  0.02618792  0.98522846  1
  H+  H22  1  0.19301030  0.33719392  0.27395985  1
  H+  H23  1  0.14338443  0.87946067  0.68255326  1
  H+  H24  1  0.59323888  0.62967979  0.47970710  1
  H+  H25  1  0.10620204  0.72502224  0.17586937  1
  H+  H26  1  0.37363017  0.11038418  0.18003810  1
  H+  H27  1  0.91171754  0.79982328  0.32602211  1
  H+  H28  1  0.47710889  0.11151859  0.82419202  1
  H+  H29  1  0.18395777  0.19782596  0.80354252  1
  H+  H30  1  0.14901518  0.78721931  0.32895528  1
  H+  H31  1  0.61204486  0.46543918  0.01113365  1
  H+  H32  1  0.10397555  -0.02494097  0.15949130  1
  H+  H33  1  0.04451944  0.18153479  0.00486330  1
  H+  H34  1  1.07576229  0.20227461  0.51766631  1
  H+  H35  1  0.11501395  0.63977759  0.01151251  1
  H+  H36  1  0.12545544  0.38946138  0.34007806  1
  H+  H37  1  0.42263430  0.75532382  0.80438870  1
  H+  H38  1  0.97361470  0.61687141  0.18309490  1
  H+  H39  1  0.47862565  0.86384871  -0.00879683  1
  H+  H40  1  0.77439450  0.38315096  0.16608617  1
  H+  H41  1  0.13733127  0.28412125  0.63806504  1
  H+  H42  1  0.88753490  0.02065372  0.65706636  1
  H+  H43  1  0.63505834  0.80449172  0.17859838  1
  H+  H44  1  0.36612098  0.63564240  0.17091140  1
  H+  H45  1  0.26411214  0.13095037  0.67301682  1
  H+  H46  1  0.89095768  0.01987611  0.17369756  1
  H+  H47  1  0.71817366  0.60766691  0.65015470  1
  H+  H48  1  0.47134640  0.34706114  0.18417771  1
  H+  H49  1  0.65639071  0.60074400  0.97542735  1
  H+  H50  1  0.63544735  0.36752880  0.65546149  1
  H+  H51  1  0.78362830  0.13468557  0.66522632  1
  H+  H52  1  0.86382912  0.12409723  0.49032460  1
  H+  H53  1  0.37434577  0.02073839  0.17663682  1
  H+  H54  1  0.60460175  0.22091282  0.33614962  1
  H+  H55  1  0.87727392  0.77025779  0.65498556  1
  H+  H56  1  0.26005243  0.13784260  1.00436729  1
  H+  H57  1  0.22452506  0.60990033  0.18182906  1
  H+  H58  1  0.15915773  0.82134060  0.89750705  1
  H+  H59  1  0.86404083  0.72072787  0.00627827  1
  H+  H60  1  0.90926827  0.68187835  0.34846234  1
  H+  H61  1  1.02335955  0.64049030  1.03588741  1
  H+  H62  1  0.62120993  0.27340951  0.86046759  1
  H+  H63  1  0.57359061  0.13092423  0.73404970  1
  H+  H64  1  0.45654397  0.57079523  0.49770768  1
  H+  H65  1  0.60941555  0.38446828  0.82495597  1
  H+  H66  1  0.11817114  0.02008566  0.51422879  1
  H+  H67  1  0.63942307  0.11669274  0.32665176  1
  H+  H68  1  0.37637313  0.28176269  1.00225932  1
  H+  H69  1  0.85676394  0.24563649  0.50725257  1
  H+  H70  1  0.87458994  0.21783876  0.33894323  1
  H+  H71  1  0.96516638  0.85417788  0.81798808  1
  H+  H72  1  0.47594884  0.87122137  0.65353216  1
  H+  H73  1  0.66502920  0.33405652  0.94726953  1
  H+  H74  1  0.85355263  0.88160977  0.16130893  1
  H+  H75  1  0.20236425  0.28380593  0.49903653  1
  H+  H76  1  0.36750916  0.61179281  -0.00658066  1
  H+  H77  1  0.02961274  0.38786716  0.16462819  1
  H+  H78  1  0.78079128  0.39067106  0.66123691  1
  H+  H79  1  0.51916312  0.37611116  0.82299169  1
  H+  H80  1  0.87271930  0.13446887  0.66596648  1
  H+  H81  1  0.89270760  0.56253773  0.33382042  1
  H+  H82  1  0.86760103  0.60422967  0.79800909  1
  H+  H83  1  0.52820579  0.88461886  0.81913013  1
  H+  H84  1  0.87023709  1.00254515  0.50404047  1
  H+  H85  1  0.36014725  0.73232972  0.49201686  1
  H+  H86  1  0.53101323  0.62988700  0.82935842  1
  H+  H87  1  0.27963252  0.63724826  0.33879676  1
  H+  H88  1  0.88237674  0.76975568  0.17495930  1
  H+  H89  1  0.35495478  0.98120291  0.66654998  1
  H+  H90  1  0.14430998  0.79409135  0.51184726  1
  H+  H91  1  0.36391561  0.75860894  0.17794096  1
  H+  H92  1  0.89158165  0.35988055  0.18025171  1
  H+  H93  1  0.51733618  0.04280619  0.70128866  1
  H+  H94  1  0.01272553  0.88645051  0.49151887  1
  H+  H95  1  0.87043985  0.08772371  1.00583743  1
  H+  H96  1  0.10176641  0.96986064  0.00250520  1
  H+  H97  1  0.38327049  0.16539432  0.32420529  1
  H+  H98  1  0.15809187  0.29335002  1.00196788  1
  H+  H99  1  0.75366535  0.87017765  0.49525293  1
  H+  H100  1  0.36759234  0.63725290  0.34568948  1
  H+  H101  1  0.83583876  0.67396114  0.44164621  1
  H+  H102  1  0.35559461  0.89015822  1.01056400  1
  H+  H103  1  0.13864248  0.02089817  0.68078623  1
  H+  H104  1  0.03034669  0.13806061  0.67198236  1
  H+  H105  1  0.33911199  0.48431719  0.40217242  1
  H+  H106  1  0.64121243  0.10038891  0.65408190  1
  H+  H107  1  0.12833549  0.11165893  0.98218795  1
  H+  H108  1  0.27306556  0.90047217  0.49380528  1
  H+  H109  1  0.66257747  0.81807254  0.91842715  1
  H+  H110  1  0.14955435  0.28014962  0.14551994  1
  H+  H111  1  0.61891456  0.97168993  0.66393600  1
  H+  H112  1  0.94528246  0.06384589  0.99892746  1
  H+  H113  1  0.08737608  0.46771781  0.83290851  1
  H+  H114  1  0.72444963  0.36541319  0.49961832  1
  H+  H115  1  0.38722959  0.26508239  0.50128453  1
  H+  H116  1  0.90060842  0.52913722  0.03592952  1
  H+  H117  1  0.35385504  0.12318097  0.82378184  1
  H+  H118  1  0.71190765  0.35992611  0.84958092  1
  H+  H119  1  0.59937796  0.73849632  -0.00177704  1
  H+  H120  1  0.23288636  0.12972801  0.32111240  1
  H+  H121  1  0.38572173  0.86688882  0.82861702  1
  H+  H122  1  0.80016539  0.26480030  0.55093362  1
  H+  H123  1  0.97277887  0.86117782  0.16846807  1
  H+  H124  1  0.13375917  0.10794734  0.66802757  1
  H+  H125  1  0.33020012  0.65639608  0.10893996  1
  H+  H126  1  0.26277928  0.63874951  0.01225557  1
  H+  H127  1  0.15190456  0.36971902  0.14888952  1
  H+  H128  1  0.73050056  0.10936681  0.49910925  1
  H+  H129  1  0.63683203  0.86640495  0.33362359  1
  H+  H130  1  0.63181585  0.68903380  0.14703115  1
  H+  H131  1  0.93503363  0.57014620  0.56962569  1
  H+  H132  1  0.10861372  0.64572408  0.66927397  1
  H+  H133  1  0.60849836  0.38524610  0.49487137  1
  H+  H134  1  0.86914934  0.38955409  0.66416169  1
  H+  H135  1  0.61810205  0.77095420  0.32649052  1
  H+  H136  1  0.63209936  0.50964079  0.82970273  1
  H+  H137  1  0.47917471  0.34911666  0.65313171  1
  H+  H138  1  0.42295887  0.63487240  0.82773495  1
  H+  H139  1  0.84326691  0.63322389  0.50320604  1
  H+  H140  1  0.36000247  0.97024982  0.82180417  1
  H+  H141  1  0.66584341  0.05923807  0.89107472  1
  H+  H142  1  0.77177629  0.12174437  0.81657642  1
  H+  H143  1  0.82800085  0.66984390  0.07029438  1
  H+  H144  1  0.59692030  0.13824259  0.16726966  1
  H+  H145  1  0.85778467  0.88543955  0.67062609  1
  H+  H146  1  0.51165069  0.10306415  0.98517878  1
  H+  H147  1  0.09856790  0.71661276  0.82778809  1
  H+  H148  1  0.63443779  0.76603040  0.66008642  1
  H+  H149  1  0.67541596  0.56366326  0.89016276  1
  H+  H150  1  0.76866275  0.88361997  0.34464050  1
  H+  H151  1  0.53945905  0.66138053  0.39347211  1
  H+  H152  1  0.87088789  0.46718683  0.48943089  1
  H+  H153  1  0.87100903  0.20920824  0.02276611  1
  H+  H154  1  0.28955594  0.70515888  0.71838078  1
  H+  H155  1  0.38634295  0.25596776  0.84512353  1
  H+  H156  1  0.11197448  0.13558547  0.50758108  1
  H+  H157  1  0.37289359  0.89871339  0.34647567  1
  H+  H158  1  0.53362340  0.89590506  0.34945035  1
  H+  H159  1  0.76880870  0.88517898  0.66825468  1
  H+  H160  1  0.21852835  0.86346682  -0.00468848  1
  H+  H161  1  0.63593328  0.27935788  0.65433221  1
  H+  H162  1  0.89220037  0.35082088  1.00196745  1
  H+  H163  1  0.82642686  0.91056248  0.76280658  1
  H+  H164  1  0.25891220  0.10831990  0.82059311  1
  H+  H165  1  0.35631822  0.22106162  0.16735594  1
  H+  H166  1  0.21586422  0.84801684  0.83768945  1
  H+  H167  1  0.63529278  1.00456776  0.83006747  1
  H+  H168  1  0.46145737  0.62477736  0.99405254  1
  H+  H169  1  0.35556171  0.72466854  1.01811406  1
  H+  H170  1  0.87736446  0.77693662  0.51177808  1
  H+  H171  1  0.66363861  0.09530671  0.12672062  1
  H+  H172  1  0.51166019  0.35527998  0.34563134  1
  H+  H173  1  0.77871267  0.13590878  0.17187094  1
  H+  H174  1  0.61831297  0.51880458  0.50120059  1
  H+  H175  1  0.16087213  0.85239211  0.61470488  1
  H+  H176  1  0.61989494  0.13862295  0.48790348  1
  H+  H177  1  0.47105044  0.36429815  1.00237047  1
  H+  H178  1  0.04315394  0.65484483  0.33791981  1
  H+  H179  1  0.26927776  0.89012425  0.67291331  1
  H+  H180  1  0.29116215  0.61803289  0.84099324  1
  H+  H181  1  0.63394467  0.27346314  0.17463748  1
  H+  H182  1  0.60574906  0.87903039  -0.03784876  1
  H+  H183  1  0.39334674  0.61301681  0.64417905  1
  H+  H184  1  0.77080156  0.89371163  0.16461068  1
  H+  H185  1  0.10234251  0.60423784  0.84467019  1
  H+  H186  1  0.97371089  0.61873002  0.65835736  1
  H+  H187  1  0.46030373  0.10927058  0.65566370  1
  H+  H188  1  0.43705176  0.08160683  0.88967105  1
  H+  H189  1  0.10608777  0.63600393  0.17892382  1
  H+  H190  1  0.70246344  0.14355897  1.01716685  1
  H+  H191  1  0.89215094  0.10850540  0.18112810  1
  H+  H192  1  0.86982327  0.25659776  0.81603490  1
  H+  H193  1  0.48179774  0.61532573  0.65697394  1
  H+  H194  1  0.88387784  0.52699402  0.18337720  1
  H+  H195  1  0.38751281  0.35580678  0.18790809  1
  H+  H196  1  0.12566578  0.36292543  0.84109089  1
  H+  H197  1  0.60073121  0.90103365  0.20434813  1
  H+  H198  1  0.03640315  0.39078103  0.01849117  1
  H+  H199  1  0.13166505  0.52769161  1.00348414  1
  H+  H200  1  0.37290913  0.39870797  0.00291047  1
  H+  H201  1  0.61305088  0.87551967  0.81854552  1
  H+  H202  1  0.27752875  0.39905526  1.00371166  1
  H+  H203  1  0.82603000  0.37329737  0.80123075  1
  H+  H204  1  0.85268821  0.96505150  0.82546475  1
  H+  H205  1  0.98954701  0.35480815  0.33257566  1
  H+  H206  1  0.67068156  0.84893736  0.24290635  1
  H+  H207  1  0.21681411  0.62255925  0.64971669  1
  H+  H208  1  0.78049210  0.13397193  0.33868536  1
  H+  H209  1  0.35633466  0.74830141  0.66561951  1
  H+  H210  1  0.21869088  0.10864659  0.17497133  1
  H+  H211  1  0.62316109  0.98356219  0.34393403  1
  H+  H212  1  0.95103668  0.59582847  0.80541595  1
  H+  H213  1  0.76477467  0.63522711  0.81358553  1
  H+  H214  1  0.60895227  0.47231333  0.66714301  1
  H+  H215  1  0.35385293  0.46654303  0.66935935  1
  H+  H216  1  0.89745669  0.27328726  0.66262458  1
  H+  H217  1  0.61949893  0.62788722  0.82676307  1
  H+  H218  1  0.10829232  0.73479982  0.67730216  1
  H+  H219  1  0.44080573  0.85190442  1.05681492  1
  H+  H220  1  0.86004843  -0.03087854  0.34711514  1
  H+  H221  1  0.60997882  0.63147739  0.67212158  1
  H+  H222  1  0.15241566  0.37999376  1.00428427  1
  H+  H223  1  0.87835160  0.09729117  0.83856272  1
  H+  H224  1  0.65041062  0.27588932  1.00677216  1
  H+  H225  1  0.62563365  0.85493503  0.50755035  1
  H+  H226  1  0.09514507  0.38226071  0.50999380  1
  H+  H227  1  0.37346650  0.11492774  0.65553357  1
  H+  H228  1  0.87597568  0.84594494  0.98637779  1
  H+  H229  1  0.37030934  0.49479759  -0.00167186  1
  H+  H230  1  0.02340505  0.13449995  0.15657770  1
  H+  H231  1  0.70452833  0.60944941  0.50095110  1
  H+  H232  1  0.11481318  0.73584956  0.00936323  1
  H+  H233  1  0.71448399  0.84567249  0.98388117  1
  H+  H234  1  0.61749179  0.22727392  0.48750172  1
  H+  H235  1  0.35080154  0.14465863  0.00660115  1
  H+  H236  1  0.86903767  0.22406505  0.17167106  1
  H+  H237  1  0.61836604  0.58259100  0.19829252  1
  H+  H238  1  0.38975665  1.01943656  0.33002039  1
  H+  H239  1  0.18325721  0.41240068  0.47814252  1
  H+  H240  1  0.59179803  0.56957948  0.32609219  1
  H+  H241  1  1.01423341  0.87958909  1.00220634  1
  H+  H242  1  0.60620981  0.37587504  0.01711314  1
  H+  H243  1  0.22253794  0.62877737  0.50076893  1
  H+  H244  1  0.63339977  0.13407349  0.82363369  1
  H+  H245  1  0.13873750  0.99278549  0.79506467  1
  H+  H246  1  0.38854529  0.87749831  0.65352760  1
  H+  H247  1  0.50866318  0.89250033  0.19499740  1
  H+  H248  1  0.88808081  0.52569010  0.65444380  1
  H+  H249  1  0.63241519  0.50603746  0.18091387  1
  H+  H250  1  0.63101613  0.85330066  0.65552342  1
  H+  H251  1  0.11640774  0.47993669  0.16872513  1
  H+  H252  1  0.44558331  0.55093345  0.33435568  1
  H+  H253  1  0.87479244  0.86372542  0.50747454  1
  H+  H254  1  0.36272218  0.48071008  0.82516656  1
  H+  H255  1  0.27223146  0.39578195  0.82557171  1
  H+  H256  1  0.07678581  0.92190012  0.43380262  1
  H+  H257  1  0.12649026  0.85840063  -0.00480956  1
  H+  H258  1  0.12733762  0.23312247  0.82747073  1
  H+  H259  1  0.67018978  0.22476549  0.79235549  1
  H+  H260  1  0.03089486  0.39919448  0.67139605  1
  H+  H261  1  0.96399641  0.08468146  0.49651395  1
  H+  H262  1  0.34864166  0.88882876  0.15709240  1
  H+  H263  1  0.11164146  0.13377460  0.15578582  1
  H+  H264  1  0.89599920  0.61571023  1.03544567  1
  H+  H265  1  -0.00608129  0.87506430  0.70196827  1
  H+  H266  1  0.03850473  0.65899453  0.48810990  1
  H+  H267  1  0.13850417  0.87847701  0.51153068  1
  H+  H268  1  0.08722233  0.17058959  0.06599447  1
  H+  H269  1  0.15855826  0.28289847  0.33425589  1
  H+  H270  1  0.59036708  0.71607963  0.48531513  1
  H+  H271  1  0.32874640  0.45113746  0.49840477  1
  H+  H272  1  0.74015894  0.59950056  0.99219299  1
  H+  H273  1  0.85521392  0.43354712  0.33009593  1
  H+  H274  1  0.92833735  0.07738599  0.27250014  1
  H+  H275  1  0.27333427  0.59061951  0.81274871  1
  H+  H276  1  0.39564372  0.77970137  0.33653127  1
  H+  H277  1  0.12977635  0.53289919  0.65619587  1
  H+  H278  1  0.84614661  0.36874391  0.49028172  1
  H+  H279  1  0.29721414  0.44247731  0.34095894  1
  H+  H280  1  0.38773492  0.87393878  0.49936709  1
  H+  H281  1  0.12870185  0.66384484  0.49005207  1
  H+  H282  1  0.37410225  0.14642222  0.47899775  1
  H+  H283  1  0.76691008  0.63384686  0.16702966  1
  H+  H284  1  0.83735628  0.94505528  0.00563360  1
  H+  H285  1  0.88184269  0.85927357  0.83154451  1
  H+  H286  1  0.85681362  0.63532088  0.66041196  1
  H+  H287  1  0.85383711  0.72640240  0.81408986  1
  H+  H288  1  0.32867569  0.91377655  0.76167458  1
  H+  H289  1  0.63822258  0.02392343  0.50406399  1
  H+  H290  1  0.07510778  0.91557431  0.09921947  1
  H+  H291  1  0.91910014  0.07645660  0.59639370  1
  H+  H292  1  0.32319250  0.16325736  0.10669928  1
  H+  H293  1  0.15963899  0.60026668  0.55812152  1
  H+  H294  1  0.41170934  0.83020927  0.88620771  1
  H+  H295  1  0.11654587  0.06012998  0.82239116  1
  H+  H296  1  0.33826689  0.93160398  0.40275145  1
  H+  H297  1  0.41875501  0.31769907  0.57419008  1
  H+  H298  1  0.83899304  0.15073755  0.08125705  1
  H+  H299  1  0.14591301  0.61421078  0.33486004  1
  H+  H300  1  0.15821324  0.08276514  0.23314724  1
  H+  H301  1  0.32441231  0.41650934  0.73042183  1
  H+  H302  1  0.09655950  0.42846716  0.07646307  1
  H+  H303  1  0.59378428  0.45251087  0.34470380  1
  H+  H304  1  0.59531380  0.93340532  0.08849300  1
  H+  H305  1  0.65277378  0.81699867  0.56379788  1
  H+  H306  1  0.41639561  0.09231836  0.55846691  1
  H+  H307  1  0.52452833  0.89419537  0.49453703  1
  H+  H308  1  0.59122661  0.92279344  0.43908888  1
  H+  H309  1  0.29432278  0.39278308  0.15717662  1
  H+  H310  1  0.16419976  0.34214400  0.90015246  1
  H+  H311  1  0.00727821  0.37697035  0.81607633  1
  H+  H312  1  0.77772056  0.38294317  0.00230405  1
  H+  H313  1  0.09964519  0.68616642  0.39897611  1
  H+  H314  1  0.32597219  0.92835994  0.06336874  1
  H+  H315  1  0.93179182  0.31291283  0.95535783  1
  H+  H316  1  0.89513503  0.10676023  0.32963089  1
  H+  H317  1  0.62186858  0.02552198  0.18112634  1
  H+  H318  1  0.72420969  0.85356729  0.83107581  1
  H+  H319  1  0.94040249  0.53968545  0.91758253  1
  H+  H320  1  0.81217270  0.88746235  0.06434595  1
  H+  H321  1  0.09220155  0.17528978  0.40472226  1
  H+  H322  1  0.71541785  0.34397745  0.32933469  1
  H+  H323  1  0.40086089  0.28842697  0.27301016  1
  H+  H324  1  0.39782801  0.69613115  0.74682171  1
  H+  H325  1  0.58384120  0.66101795  0.73341003  1
  H+  H326  1  0.23546443  0.87834139  0.32842831  1
  H+  H327  1  0.67108134  0.08772455  0.26926696  1
  H+  H328  1  0.16799615  0.84601055  0.23470836  1
  H+  H329  1  0.92671921  0.32953880  0.23682887  1
  H+  H330  1  0.91790946  0.32755202  0.60274768  1
  H+  H331  1  0.16792838  0.57979947  0.24237934  1
  H+  H332  1  0.58644716  0.17128040  0.07514142  1
  H+  H333  1  0.83851280  0.15691499  0.42946316  1
  H+  H334  1  0.14222009  0.52209992  0.33658398  1
  H+  H335  1  0.82934170  0.39748116  0.39816467  1
  H+  H336  1  0.83421592  0.15334105  0.75763107  1
  H+  H337  1  0.14654202  0.58186510  0.94162762  1
  H+  H338  1  1.00255105  0.88904408  0.31516485  1
  H+  H339  1  0.48222200  0.11761179  0.50193623  1
  H+  H340  1  0.07546455  0.66158941  0.76634602  1
  H+  H341  1  0.66577518  0.33431340  0.55976309  1
  H+  H342  1  0.41815615  0.32181205  0.90083067  1
  H+  H343  1  0.57495786  0.70212840  0.09915533  1
  H+  H344  1  0.66626501  0.33061438  0.23430916  1
  H+  H345  1  0.67620141  0.08184455  0.59231548  1
  H+  H346  1  0.09827882  0.41127802  0.40277029  1
  H+  H347  1  0.43520812  0.84539752  0.28203280  1
  H+  H348  1  0.58132712  0.41170777  0.72685167  1
  H+  H349  1  0.89410352  0.34241182  0.33259770  1
  H+  H350  1  0.62826938  0.35058766  0.33038885  1
  H+  H351  1  0.58227339  0.64548213  0.02002385  1
  H+  H352  1  0.89956025  0.54100898  0.91225625  1
  H+  H353  1  0.41638576  0.07902987  0.26258012  1
  H+  H354  1  0.91821983  0.84128022  0.60288196  1
  H+  H355  1  0.82776207  0.46280376  0.80387877  1
  H+  H356  1  0.14750190  0.07198961  0.57711914  1
  H+  H357  1  0.65697189  0.55950381  0.28476240  1
  H+  H358  1  0.09288105  0.17160599  0.73007679  1
  H+  H359  1  0.91370017  0.82419116  0.92685103  1
  H+  H360  1  0.92031010  0.60199810  0.26631971  1
  H+  H361  1  0.82305072  0.66492288  0.71796139  1
  H+  H362  1  0.41720601  0.84477003  0.55871291  1
  H+  H363  1  0.35241537  0.18793626  0.42185809  1
  H+  H364  1  0.65018473  0.57748942  0.59512861  1
  H+  H365  1  0.41569833  0.54300124  0.56314300  1
  H+  H366  1  0.95619651  0.75499905  0.39679983  1
  H+  H367  1  0.87854292  0.32648216  0.86395119  1
  H+  H368  1  0.92879408  0.84246488  0.25306898  1
  H+  H369  1  0.44834485  0.59951576  0.24357335  1
  H+  H370  1  0.89123683  0.05859094  0.90012598  1
  H+  H371  1  0.58426116  0.91290014  0.72396625  1
  H+  H372  1  0.81687496  0.90457019  0.43628469  1
  H+  H373  1  0.18570900  0.59474167  0.85016230  1
  H+  H374  1  0.63608543  0.76136485  0.83218569  1
  H+  H375  1  0.57207477  0.40543502  0.43529595  1
  H+  H376  1  0.57682246  0.40905683  0.10880456  1
  H+  H377  1  0.41813651  0.59416895  0.89450585  1
  H+  H378  1  0.32889088  0.79744494  0.22578571  1
  H+  H379  1  0.61199241  0.97661455  0.07342587  1
  H+  H380  1  0.15529706  0.07099333  0.92739842  1
  H+  H381  1  0.83971579  0.41691743  0.11080738  1
  H+  H382  1  0.08823784  0.43252843  0.73075377  1
  H+  H383  1  0.33194832  0.67004297  0.43610845  1
  O2-  O384  1  0.08186733  0.16284368  0.13744683  1
  O2-  O385  1  0.09169507  0.17436851  0.48628268  1
  O2-  O386  1  0.12368416  0.18075778  0.80863930  1
  O2-  O387  1  0.08944375  0.42195953  0.14883744  1
  O2-  O388  1  0.12791831  0.41214611  0.47399416  1
  O2-  O389  1  0.07075701  0.41237484  0.81226176  1
  O2-  O390  1  0.07136541  0.66276443  0.16776886  1
  O2-  O391  1  0.09775095  0.69607297  0.47339741  1
  O2-  O392  1  0.06780917  0.65571519  0.81155263  1
  O2-  O393  1  0.07351177  0.91402678  0.14470360  1
  O2-  O394  1  0.07434311  0.91566622  0.47845592  1
  O2-  O395  1  0.11643019  0.93809010  0.72801603  1
  O2-  O396  1  0.32441533  0.15982494  0.15166820  1
  O2-  O397  1  0.34789014  0.18120289  0.46632922  1
  O2-  O398  1  0.32031566  0.15021088  0.81035168  1
  O2-  O399  1  0.35745899  0.41847300  0.16343569  1
  O2-  O400  1  0.27379760  0.40378552  0.47662727  1
  O2-  O401  1  0.33240285  0.41975526  0.81278564  1
  O2-  O402  1  0.33237239  0.66147916  0.15410212  1
  O2-  O403  1  0.32564872  0.67106043  0.48053056  1
  O2-  O404  1  0.43477579  0.71414539  0.78312230  1
  O2-  O405  1  0.32350561  0.92402581  0.14337488  1
  O2-  O406  1  0.33178938  0.92695463  0.47493203  1
  O2-  O407  1  0.32978046  0.90978972  0.80707279  1
  O2-  O408  1  0.56865527  0.17012345  0.15156246  1
  O2-  O409  1  0.58788360  0.16691314  0.47178523  1
  O2-  O410  1  0.61626701  0.17429233  0.80453731  1
  O2-  O411  1  0.57827108  0.40870506  0.15424118  1
  O2-  O412  1  0.57500966  0.41257059  0.48066854  1
  O2-  O413  1  0.57867383  0.41079056  0.80486992  1
  O2-  O414  1  0.58562722  0.70237009  0.14408350  1
  O2-  O415  1  0.56160586  0.65865907  0.46498424  1
  O2-  O416  1  0.59099584  0.66021228  0.81227721  1
  O2-  O417  1  0.56602089  0.92975764  0.21168637  1
  O2-  O418  1  0.58749302  0.92221675  0.48453920  1
  O2-  O419  1  0.58809312  0.91125938  0.80330281  1
  O2-  O420  1  0.83950392  0.16190688  0.15941039  1
  O2-  O421  1  0.83449721  0.15553626  0.47515667  1
  O2-  O422  1  0.83254619  0.15608426  0.80344925  1
  O2-  O423  1  0.83721220  0.41553688  0.15517216  1
  O2-  O424  1  0.83039587  0.40980256  0.47116553  1
  O2-  O425  1  0.78965617  0.39840556  0.80956340  1
  O2-  O426  1  0.82639881  0.66702270  0.15053607  1
  O2-  O427  1  0.81752894  0.66439964  0.48482767  1
  O2-  O428  1  0.82228896  0.66899010  0.79410413  1
  O2-  O429  1  0.82686871  0.91329774  0.14332929  1
  O2-  O430  1  0.81573534  0.90257131  0.48265195  1
  O2-  O431  1  0.82383311  0.90452002  0.80821066  1
  O2-  O432  1  0.15697429  0.07823729  0.18781794  1
  O2-  O433  1  0.14149835  0.07762518  0.53260438  1
  O2-  O434  1  0.15123002  0.03324229  0.83090313  1
  O2-  O435  1  0.18740989  0.34276459  0.14150209  1
  O2-  O436  1  0.25719862  0.33019516  0.51526410  1
  O2-  O437  1  0.15790705  0.33454897  0.85575637  1
  O2-  O438  1  0.16437110  0.58102186  0.19688989  1
  O2-  O439  1  0.16135202  0.60765095  0.51329215  1
  O2-  O440  1  0.12746592  0.57047309  0.86649596  1
  O2-  O441  1  0.16539164  0.84100188  0.18940805  1
  O2-  O442  1  0.17264940  0.85363344  0.52879059  1
  O2-  O443  1  0.15643838  0.81511882  0.85296175  1
  O2-  O444  1  0.40468157  0.07992799  0.19543182  1
  O2-  O445  1  0.42040465  0.09017861  0.51319250  1
  O2-  O446  1  0.42237250  0.07840116  0.84532201  1
  O2-  O447  1  0.41101284  0.31602593  0.19915477  1
  O2-  O448  1  0.41817702  0.32323217  0.52405629  1
  O2-  O449  1  0.43567445  0.30803730  0.86217829  1
  O2-  O450  1  0.43070223  0.59716024  0.20060707  1
  O2-  O451  1  0.41330658  0.52146067  0.52118575  1
  O2-  O452  1  0.42985300  0.59052575  0.85109492  1
  O2-  O453  1  0.37598161  0.81525434  0.19683165  1
  O2-  O454  1  0.41999391  0.84540312  0.51340058  1
  O2-  O455  1  0.42232349  0.84165945  0.84292646  1
  O2-  O456  1  0.65921380  0.08879288  0.17155986  1
  O2-  O457  1  0.67133766  0.08666828  0.51622428  1
  O2-  O458  1  0.66564771  0.06592055  0.84709310  1
  O2-  O459  1  0.67007889  0.33410864  0.18891665  1
  O2-  O460  1  0.66394310  0.33222912  0.51422188  1
  O2-  O461  1  0.65391887  0.33368773  0.87287252  1
  O2-  O462  1  0.66278382  0.56667844  0.19813681  1
  O2-  O463  1  0.64416817  0.57976591  0.51501617  1
  O2-  O464  1  0.66690741  0.56990448  0.84653884  1
  O2-  O465  1  0.67066979  0.86135528  0.19793282  1
  O2-  O466  1  0.65007805  0.81744936  0.51826648  1
  O2-  O467  1  0.66287140  0.82286226  0.84677480  1
  O2-  O468  1  0.92480337  0.07862361  0.19127264  1
  O2-  O469  1  0.90775652  0.06517672  0.51563181  1
  O2-  O470  1  0.89830468  0.05940057  0.85572287  1
  O2-  O471  1  0.92316471  0.32951021  0.19138271  1
  O2-  O472  1  0.85553286  0.29397784  0.53017611  1
  O2-  O473  1  0.89482774  0.32072469  0.82280638  1
  O2-  O474  1  0.91050079  0.58772041  0.19690054  1
  O2-  O475  1  0.94902598  0.55740954  0.52680514  1
  O2-  O476  1  0.88959937  0.56367363  0.79448845  1
  O2-  O477  1  0.91415960  0.83166004  0.18848519  1
  O2-  O478  1  0.91127393  0.83864576  0.52179153  1
  O2-  O479  1  0.91440905  0.83006784  0.84507862  1
  O2-  O480  1  0.17088624  0.09380472  0.31239317  1
  O2-  O481  1  0.16306847  0.07477649  0.65515604  1
  O2-  O482  1  0.15697305  0.07812252  0.97181226  1
  O2-  O483  1  0.18979843  0.34294934  0.31781245  1
  O2-  O484  1  0.12198333  0.31931320  0.61269388  1
  O2-  O485  1  0.18432491  0.35277332  0.98580385  1
  O2-  O486  1  0.17392767  0.58198491  0.31982492  1
  O2-  O487  1  0.15552739  0.59277566  0.63807012  1
  O2-  O488  1  0.15691035  0.58787598  0.98692191  1
  O2-  O489  1  0.17493522  0.84814327  0.31399243  1
  O2-  O490  1  0.16515926  0.84527382  0.65908140  1
  O2-  O491  1  0.15712752  0.82690276  0.98298340  1
  O2-  O492  1  0.42311876  0.08169282  0.31014428  1
  O2-  O493  1  0.40312668  0.08453400  0.63685461  1
  O2-  O494  1  0.45532491  0.08102583  0.96534632  1
  O2-  O495  1  0.40678124  0.28474330  0.31869044  1
  O2-  O496  1  0.42114094  0.31711440  0.63458349  1
  O2-  O497  1  0.41096180  0.34188773  0.98733698  1
  O2-  O498  1  0.50293813  0.59424337  0.31591459  1
  O2-  O499  1  0.42496556  0.58339021  0.63587984  1
  O2-  O500  1  0.40281654  0.58705617  0.97696773  1
  O2-  O501  1  0.42613684  0.84280693  0.32615299  1
  O2-  O502  1  0.41587164  0.84448675  0.63754309  1
  O2-  O503  1  0.42241691  0.83780618  1.01457207  1
  O2-  O504  1  0.67308196  0.08905217  0.31371804  1
  O2-  O505  1  0.67794317  0.07843670  0.63801558  1
  O2-  O506  1  0.67878035  0.15357585  1.05448983  1
  O2-  O507  1  0.65645462  0.31887687  0.31235736  1
  O2-  O508  1  0.66575411  0.33720535  0.63763994  1
  O2-  O509  1  0.67385147  0.33634487  0.99286432  1
  O2-  O510  1  0.63604930  0.55228368  0.32698261  1
  O2-  O511  1  0.65524958  0.57550920  0.64027244  1
  O2-  O512  1  0.68125167  0.56369133  0.97336167  1
  O2-  O513  1  0.66069787  0.83125541  0.31586862  1
  O2-  O514  1  0.66358361  0.82507174  0.64162486  1
  O2-  O515  1  0.65601559  0.82002387  0.96465950  1
  O2-  O516  1  0.92915531  0.07898872  0.31781531  1
  O2-  O517  1  0.92021193  0.08109902  0.64148442  1
  O2-  O518  1  0.88816193  0.04857568  0.98457529  1
  O2-  O519  1  0.92983966  0.32021488  0.31488491  1
  O2-  O520  1  0.92489021  0.33364347  0.64728278  1
  O2-  O521  1  0.92662351  0.32105130  0.99863658  1
  O2-  O522  1  0.93104144  0.61535516  0.31236036  1
  O2-  O523  1  0.91667417  0.58635798  0.63750417  1
  O2-  O524  1  0.93100898  0.58958415  1.04883350  1
  O2-  O525  1  0.93889424  0.85396050  0.30058736  1
  O2-  O526  1  0.91039601  0.83392101  0.64771590  1
  O2-  O527  1  0.91201907  0.82138505  0.97230649  1
  O2-  O528  1  0.09443244  0.17922131  0.01960761  1
  O2-  O529  1  0.09415763  0.17559486  0.35956659  1
  O2-  O530  1  0.09111247  0.16630921  0.68510644  1
  O2-  O531  1  0.09749041  0.42827868  0.03006133  1
  O2-  O532  1  0.09118484  0.41402721  0.35737577  1
  O2-  O533  1  0.09041084  0.43848199  0.68586374  1
  O2-  O534  1  0.09025501  0.67571132  0.02904110  1
  O2-  O535  1  0.10288210  0.68316425  0.35301670  1
  O2-  O536  1  0.07714285  0.67268542  0.68848282  1
  O2-  O537  1  0.07378017  0.91080675  0.01962910  1
  O2-  O538  1  0.08780847  0.92895316  0.34790238  1
  O2-  O539  1  0.02364345  0.88631944  0.74198289  1
  O2-  O540  1  0.31836290  0.17022281  0.02335272  1
  O2-  O541  1  0.35072692  0.19418454  0.33574198  1
  O2-  O542  1  0.32684681  0.16133096  0.68575042  1
  O2-  O543  1  0.34242634  0.43269272  0.01482222  1
  O2-  O544  1  0.34380953  0.49613738  0.35845597  1
  O2-  O545  1  0.30938165  0.41223879  0.68676049  1
  O2-  O546  1  0.32255967  0.66236286  0.02823256  1
  O2-  O547  1  0.34146693  0.67321189  0.35107112  1
  O2-  O548  1  0.31960639  0.69162644  0.68728169  1
  O2-  O549  1  0.32730795  0.92441054  0.01807673  1
  O2-  O550  1  0.34434698  0.93292197  0.35625000  1
  O2-  O551  1  0.33260437  0.92204350  0.68339181  1
  O2-  O552  1  0.61091102  0.17066403  0.03359313  1
  O2-  O553  1  0.57392721  0.15875006  0.35064358  1
  O2-  O554  1  0.55270498  0.10418938  0.69316074  1
  O2-  O555  1  0.57596419  0.40743928  0.02918061  1
  O2-  O556  1  0.57200998  0.39132693  0.35944252  1
  O2-  O557  1  0.58350266  0.41131672  0.68131441  1
  O2-  O558  1  0.56022046  0.68473788  0.02473725  1
  O2-  O559  1  0.52430891  0.67257412  0.35081498  1
  O2-  O560  1  0.58258498  0.66420185  0.68803792  1
  O2-  O561  1  0.57561596  0.91323418  -0.04050013  1
  O2-  O562  1  0.59506221  0.92500276  0.36203605  1
  O2-  O563  1  0.58043761  0.91181294  0.67862340  1
  O2-  O564  1  0.83799289  0.14863060  0.03580472  1
  O2-  O565  1  0.83998135  0.15729871  0.35422017  1
  O2-  O566  1  0.84266703  0.16488520  0.68271183  1
  O2-  O567  1  0.84315126  0.41346139  0.00470216  1
  O2-  O568  1  0.82244657  0.38095190  0.35336371  1
  O2-  O569  1  0.84173442  0.42445900  0.67268978  1
  O2-  O570  1  0.83350635  0.66243718  0.02575909  1
  O2-  O571  1  0.90209327  0.72432959  0.37440450  1
  O2-  O572  1  0.82347532  0.66387052  0.67223614  1
  O2-  O573  1  0.81059222  0.88365743  0.01894180  1
  O2-  O574  1  0.82598006  0.91044256  0.36400905  1
  O2-  O575  1  0.82860316  0.91753426  0.68473907  1
