# generated using pymatgen
data_H2O
_symmetry_space_group_name_H-M   'P 1'
_cell_length_a   17.98565164
_cell_length_b   17.99354377
_cell_length_c   22.00087798
_cell_angle_alpha   90.01508411
_cell_angle_beta   89.98127502
_cell_angle_gamma   119.98570678
_symmetry_Int_Tables_number   1
_chemical_formula_structural   H2O
_chemical_formula_sum   'H384 O192'
_cell_volume   6167.02959520
_cell_formula_units_Z   192
loop_
 _symmetry_equiv_pos_site_id
 _symmetry_equiv_pos_as_xyz
  1  'x, y, z'
loop_
 _atom_type_symbol
 _atom_type_oxidation_number
  H+  1.0
  O2-  -2.0
loop_
 _atom_site_type_symbol
 _atom_site_label
 _atom_site_symmetry_multiplicity
 _atom_site_fract_x
 _atom_site_fract_y
 _atom_site_fract_z
 _atom_site_occupancy
  H+  H0  1  0.78025643  0.89779613  0.82159152  1
  H+  H1  1  0.09569332  0.94134213  0.74138075  1
  H+  H2  1  0.64014051  0.38411949  0.51063577  1
  H+  H3  1  0.48028154  0.36718224  0.51147543  1
  H+  H4  1  0.59606261  0.00768587  1.00513006  1
  H+  H5  1  0.86466439  0.40754353  0.49779259  1
  H+  H6  1  0.13158391  -0.02473808  0.16793270  1
  H+  H7  1  0.37966173  0.60655004  0.50514352  1
  H+  H8  1  0.37792893  -0.00070891  0.16413844  1
  H+  H9  1  1.00897297  0.90113028  0.32409921  1
  H+  H10  1  0.14164189  0.25808141  0.17294884  1
  H+  H11  1  0.47513743  0.86000077  0.85732016  1
  H+  H12  1  0.73774888  0.38300184  0.50722818  1
  H+  H13  1  0.37775065  0.60272161  0.32931840  1
  H+  H14  1  0.06506546  0.46551858  0.83435822  1
  H+  H15  1  0.86445490  0.98857378  0.81894564  1
  H+  H16  1  0.61421383  0.48144531  0.49656281  1
  H+  H17  1  0.02179748  0.64077827  0.66483819  1
  H+  H18  1  1.01176388  0.62757814  0.49007497  1
  H+  H19  1  0.61176922  0.38518677  0.83191441  1
  H+  H20  1  0.66382234  0.13176751  0.70331837  1
  H+  H21  1  0.11520857  0.14128380  0.67126778  1
  H+  H22  1  0.87018048  0.97463007  0.15509086  1
  H+  H23  1  0.85266900  0.34526005  0.14328264  1
  H+  H24  1  0.87796938  0.88782860  0.33370857  1
  H+  H25  1  0.35211341  0.13389262  0.50386125  1
  H+  H26  1  0.14470191  0.50909060  0.00528122  1
  H+  H27  1  0.90270571  0.77589434  0.16996550  1
  H+  H28  1  0.35919958  0.71713671  0.49011886  1
  H+  H29  1  0.29089258  0.90025503  0.16742445  1
  H+  H30  1  0.17907049  0.95413962  0.82225619  1
  H+  H31  1  0.38941149  0.36542421  0.51164555  1
  H+  H32  1  0.37795184  -0.01344677  0.82639305  1
  H+  H33  1  0.62935726  0.61019881  0.50100480  1
  H+  H34  1  0.62543527  0.16322709  0.61968097  1
  H+  H35  1  0.35701476  0.47265621  0.66776934  1
  H+  H36  1  0.98999793  0.10113045  0.31611324  1
  H+  H37  1  0.89674203  0.01944501  0.32005237  1
  H+  H38  1  0.62941741  0.15496073  0.33019921  1
  H+  H39  1  0.84953983  0.78095090  0.90649915  1
  H+  H40  1  0.12706785  0.78858221  0.32876549  1
  H+  H41  1  0.27956170  0.63068986  0.01465605  1
  H+  H42  1  0.72747866  0.37000486  0.84641145  1
  H+  H43  1  0.62607234  0.00517722  0.46772248  1
  H+  H44  1  0.22294017  0.36255459  0.83386676  1
  H+  H45  1  0.29979427  0.63982285  0.83103374  1
  H+  H46  1  0.77311433  0.86937791  0.48691484  1
  H+  H47  1  0.94666791  0.80264247  0.31980488  1
  H+  H48  1  0.59303414  0.97484081  0.16422856  1
  H+  H49  1  0.46966771  0.84770126  0.32082321  1
  H+  H50  1  0.91855359  0.07282278  0.55583905  1
  H+  H51  1  0.78923467  0.64235860  0.00920748  1
  H+  H52  1  0.51887942  0.37843390  0.82848004  1
  H+  H53  1  0.13100298  0.93200825  0.34042580  1
  H+  H54  1  0.13291788  0.62573523  0.84828139  1
  H+  H55  1  0.64362579  0.52755850  1.00095426  1
  H+  H56  1  0.61849485  0.96671923  0.32820188  1
  H+  H57  1  0.07945954  0.63544515  0.17609395  1
  H+  H58  1  0.89038732  0.11365431  0.16535546  1
  H+  H59  1  0.37498548  0.73763232  0.82895824  1
  H+  H60  1  0.74573481  0.61757304  0.33491022  1
  H+  H61  1  0.88725854  0.02313723  0.65174822  1
  H+  H62  1  0.89736110  0.11637530  0.64786737  1
  H+  H63  1  0.88877417  0.00806207  0.49865716  1
  H+  H64  1  0.76579603  0.35568807  0.14712696  1
  H+  H65  1  0.13501292  0.26974137  0.49955991  1
  H+  H66  1  0.64322222  0.86668211  0.84923989  1
  H+  H67  1  0.72155383  0.61617515  0.50120582  1
  H+  H68  1  0.13007122  0.13038410  0.84250842  1
  H+  H69  1  0.38008873  0.52043569  0.17627670  1
  H+  H70  1  0.85999437  0.48150037  0.34398665  1
  H+  H71  1  0.46983968  0.60763058  0.32891077  1
  H+  H72  1  0.71743015  0.08992063  0.46184498  1
  H+  H73  1  0.93688632  0.38449065  0.57035003  1
  H+  H74  1  0.70897908  0.10692558  0.86534830  1
  H+  H75  1  0.38799958  0.03047818  0.48679739  1
  H+  H76  1  0.29424335  0.06522835  0.71789624  1
  H+  H77  1  0.63203554  0.75891756  0.49374336  1
  H+  H78  1  0.35273343  0.21568903  0.15487903  1
  H+  H79  1  0.97067624  0.12237873  0.84186260  1
  H+  H80  1  0.22564571  0.35873756  0.50364228  1
  H+  H81  1  0.63695698  0.51704294  0.17290661  1
  H+  H82  1  0.26083725  0.86587699  0.50354620  1
  H+  H83  1  0.37473055  0.64576717  0.01608980  1
  H+  H84  1  0.78948926  0.63429576  0.16409280  1
  H+  H85  1  0.34044010  0.17300545  0.40889001  1
  H+  H86  1  0.39267098  0.77504832  0.66777803  1
  H+  H87  1  0.05700579  0.35779707  0.30306947  1
  H+  H88  1  0.11691266  0.37886224  0.01386439  1
  H+  H89  1  0.61229304  0.89844238  0.70223016  1
  H+  H90  1  0.94778377  0.25991263  0.53761522  1
  H+  H91  1  0.73459593  0.85325808  0.32587193  1
  H+  H92  1  0.53995344  0.15156491  0.47755580  1
  H+  H93  1  0.52564853  0.38209868  0.35415299  1
  H+  H94  1  0.13348226  0.02997252  0.66444237  1
  H+  H95  1  0.26088276  0.37731351  0.16217501  1
  H+  H96  1  0.47871823  0.12317537  0.18633073  1
  H+  H97  1  0.86267513  0.72915334  0.48597557  1
  H+  H98  1  0.86462073  0.48438462  0.67430108  1
  H+  H99  1  0.39534751  0.61702275  0.83965115  1
  H+  H100  1  0.60931550  0.88645994  0.01072967  1
  H+  H101  1  0.84750690  0.16385388  0.07320657  1
  H+  H102  1  0.60615215  0.97463792  0.85074803  1
  H+  H103  1  0.13582520  0.26340785  0.65323127  1
  H+  H104  1  0.35927308  0.47256757  0.49952494  1
  H+  H105  1  0.87763600  0.11457421  0.84596091  1
  H+  H106  1  0.87830758  0.88937645  0.15317824  1
  H+  H107  1  0.22135422  0.61439739  0.50475134  1
  H+  H108  1  0.38359624  0.26996043  0.66103272  1
  H+  H109  1  0.85057162  0.62165327  0.82289878  1
  H+  H110  1  0.02468724  0.12743603  0.14937574  1
  H+  H111  1  0.61492663  0.63907149  0.82655866  1
  H+  H112  1  0.84318042  0.91053647  0.39346672  1
  H+  H113  1  0.78193764  0.13673489  0.15738604  1
  H+  H114  1  0.61311848  0.23472642  0.17566725  1
  H+  H115  1  0.51455798  0.87642857  0.01201954  1
  H+  H116  1  0.26755151  0.12773655  0.16876001  1
  H+  H117  1  0.95412939  0.34589613  0.83803249  1
  H+  H118  1  0.82616630  0.70786725  0.32467545  1
  H+  H119  1  0.38206853  0.27372718  0.84439527  1
  H+  H120  1  0.47682281  0.85379625  0.51273198  1
  H+  H121  1  0.88434530  0.11852132  0.00273426  1
  H+  H122  1  0.87758151  0.61604055  0.49898051  1
  H+  H123  1  0.10664250  0.73434474  0.66870470  1
  H+  H124  1  0.96742700  0.61241892  0.32955740  1
  H+  H125  1  0.87125671  0.23342799  0.15913257  1
  H+  H126  1  0.20031119  0.61437557  0.17434537  1
  H+  H127  1  0.22797084  0.12485162  0.51265723  1
  H+  H128  1  0.96713682  0.27310615  0.50633926  1
  H+  H129  1  0.62390324  0.50929899  0.32818314  1
  H+  H130  1  0.88996370  0.37624823  0.66590886  1
  H+  H131  1  0.37095013  0.75765684  0.18039011  1
  H+  H132  1  0.61870659  0.38914950  0.34613011  1
  H+  H133  1  0.64536205  0.85298243  0.32029392  1
  H+  H134  1  0.07072334  0.39109033  0.37334139  1
  H+  H135  1  0.12090063  1.02172053  0.34288783  1
  H+  H136  1  0.26189930  0.11548124  0.67869862  1
  H+  H137  1  0.90176048  0.78386866  0.99848434  1
  H+  H138  1  0.87096076  0.47781482  0.83100207  1
  H+  H139  1  0.13730948  0.12173560  0.50922020  1
  H+  H140  1  0.88848114  0.35761524  1.00260168  1
  H+  H141  1  0.13470648  0.36529209  0.83679531  1
  H+  H142  1  0.27796557  0.64575664  0.67371602  1
  H+  H143  1  0.34726878  0.62598981  0.16790498  1
  H+  H144  1  0.36712563  0.36162555  0.16628190  1
  H+  H145  1  0.38606469  0.36410973  0.83977880  1
  H+  H146  1  0.04763663  0.88657763  0.15793809  1
  H+  H147  1  0.66452826  0.07420215  0.37439221  1
  H+  H148  1  0.35872282  0.88496284  0.02096711  1
  H+  H149  1  0.90610901  0.54439922  1.00067257  1
  H+  H150  1  0.82601093  0.41869668  0.07460553  1
  H+  H151  1  0.81687597  0.64547663  0.76639258  1
  H+  H152  1  0.07847923  0.43040915  0.76992108  1
  H+  H153  1  0.86171835  0.87027634  0.49141923  1
  H+  H154  1  0.95514975  0.36932441  0.31704043  1
  H+  H155  1  0.35744203  0.47217162  0.82511218  1
  H+  H156  1  1.00328402  0.56824424  0.86737065  1
  H+  H157  1  0.15042648  0.65102885  0.81930937  1
  H+  H158  1  0.41765630  1.08485780  0.28055826  1
  H+  H159  1  0.64710068  0.78161055  0.99973607  1
  H+  H160  1  0.61909626  0.24456087  1.02255869  1
  H+  H161  1  0.80657466  0.49529886  0.05961085  1
  H+  H162  1  0.02502329  0.13877277  0.66368572  1
  H+  H163  1  0.40197252  0.50433403  1.01495639  1
  H+  H164  1  0.17718174  0.31029801  0.23506661  1
  H+  H165  1  0.64569810  0.28941228  0.32108787  1
  H+  H166  1  0.06326089  0.75608486  0.81768302  1
  H+  H167  1  0.61212738  0.10660769  0.01188291  1
  H+  H168  1  0.32929719  0.42148639  0.10460136  1
  H+  H169  1  0.08995480  0.94388686  0.42970130  1
  H+  H170  1  0.55024824  0.52913008  0.88809409  1
  H+  H171  1  0.65631500  0.78518761  0.84320990  1
  H+  H172  1  0.60718001  0.13546443  0.84312115  1
  H+  H173  1  0.37111950  0.97789072  0.01393496  1
  H+  H174  1  1.04663850  0.90675942  1.00344186  1
  H+  H175  1  0.62880580  0.51713069  0.65751185  1
  H+  H176  1  0.77556451  0.39649076  0.67663621  1
  H+  H177  1  0.89595073  0.75143201  0.68286104  1
  H+  H178  1  0.89894339  0.86947891  0.99067927  1
  H+  H179  1  0.64507560  0.28461782  0.65512641  1
  H+  H180  1  0.60855656  0.62393111  0.66562200  1
  H+  H181  1  0.40110179  0.11391792  0.65858543  1
  H+  H182  1  0.35005564  0.92726001  0.76673077  1
  H+  H183  1  0.37283913  0.94316956  0.41370660  1
  H+  H184  1  0.51106879  0.38078538  0.16080374  1
  H+  H185  1  0.28283173  0.86382344  0.53217363  1
  H+  H186  1  -0.02155131  0.62854818  0.83200002  1
  H+  H187  1  0.39093195  0.86533776  0.84600115  1
  H+  H188  1  0.52022218  0.38038940  0.67724394  1
  H+  H189  1  0.64005653  0.60656459  0.17379385  1
  H+  H190  1  0.13670048  0.10969052  0.17933698  1
  H+  H191  1  0.73123661  0.38040061  0.32752125  1
  H+  H192  1  0.89727396  0.62221257  0.65726553  1
  H+  H193  1  0.88250401  1.01784141  -0.00343629  1
  H+  H194  1  0.90045815  0.29317624  0.65698814  1
  H+  H195  1  0.49624949  0.63173206  -0.00382702  1
  H+  H196  1  0.13932529  0.78391062  0.90310082  1
  H+  H197  1  0.79831503  0.14982506  0.68923630  1
  H+  H198  1  0.98855133  0.87327249  0.50477754  1
  H+  H199  1  0.88628320  0.87632295  0.66325717  1
  H+  H200  1  0.37573693  0.38762758  0.35000483  1
  H+  H201  1  0.13886735  0.01257135  0.83811041  1
  H+  H202  1  0.45741195  0.85185986  0.17882300  1
  H+  H203  1  0.23225948  0.35876396  0.65203349  1
  H+  H204  1  0.51457271  0.63013080  0.48972238  1
  H+  H205  1  0.22082615  0.87015520  0.65897692  1
  H+  H206  1  0.97429412  0.79588090  0.54060473  1
  H+  H207  1  0.10478002  0.23237526  0.82306721  1
  H+  H208  1  0.85638759  0.10695534  0.48405421  1
  H+  H209  1  0.13492540  0.87579330  0.66873770  1
  H+  H210  1  0.02309011  0.13016597  0.48175185  1
  H+  H211  1  0.73707313  0.84706339  0.16947504  1
  H+  H212  1  0.37874112  0.11746963  0.85152531  1
  H+  H213  1  0.77912546  0.89410953  0.00630963  1
  H+  H214  1  0.38512720  0.61105208  0.66171599  1
  H+  H215  1  0.36601855  0.23040963  0.50329025  1
  H+  H216  1  0.11676387  0.82154033  0.57439394  1
  H+  H217  1  0.63365660  0.36611711  0.17212405  1
  H+  H218  1  0.60513843  0.93622358  0.54697676  1
  H+  H219  1  0.11420421  0.85581310  0.89135963  1
  H+  H220  1  0.15244488  0.27406841  0.98550519  1
  H+  H221  1  0.47099933  0.12403098  0.84572155  1
  H+  H222  1  0.87559995  0.60563537  0.32689639  1
  H+  H223  1  0.36053105  0.88501350  0.67131354  1
  H+  H224  1  0.76898246  0.88910240  0.66720301  1
  H+  H225  1  0.73045809  0.38528462  0.00452263  1
  H+  H226  1  0.87312921  0.52528675  0.50045655  1
  H+  H227  1  0.39278295  0.26703872  0.34419678  1
  H+  H228  1  0.44917866  0.47436870  0.05933294  1
  H+  H229  1  0.35895594  0.38373616  0.66926214  1
  H+  H230  1  0.80259746  0.70765521  0.85827980  1
  H+  H231  1  0.83498244  0.21727714  0.83074599  1
  H+  H232  1  0.10644965  0.64525305  0.33750403  1
  H+  H233  1  0.49358139  0.05113165  -0.02919474  1
  H+  H234  1  0.10932568  0.39100038  0.48581751  1
  H+  H235  1  0.11728791  -0.00570299  0.49413481  1
  H+  H236  1  0.63079034  0.74913398  0.65232581  1
  H+  H237  1  0.24537860  0.35094353  0.33495935  1
  H+  H238  1  0.92560647  0.62632148  0.16200843  1
  H+  H239  1  0.10037407  0.85593845  0.51133263  1
  H+  H240  1  0.32589927  0.54793187  0.87774888  1
  H+  H241  1  0.62002789  0.71590591  0.16269330  1
  H+  H242  1  0.52061636  0.38513475  1.00568519  1
  H+  H243  1  0.61437453  0.13102736  0.46649126  1
  H+  H244  1  0.88195379  0.64910039  1.00755610  1
  H+  H245  1  0.63753702  0.12125300  0.17923241  1
  H+  H246  1  0.52524095  0.63059175  0.16259975  1
  H+  H247  1  0.88150679  0.13818293  0.32736415  1
  H+  H248  1  0.13075384  0.52891545  0.31945076  1
  H+  H249  1  0.54155074  0.65966084  0.81867347  1
  H+  H250  1  0.26304007  0.14822690  0.84342874  1
  H+  H251  1  0.61229251  0.82259664  0.63179794  1
  H+  H252  1  0.04911587  0.65017609  -0.00720996  1
  H+  H253  1  0.08850189  0.71920922  0.49766030  1
  H+  H254  1  0.87665190  0.22246204  0.01198749  1
  H+  H255  1  0.65657300  0.04160088  0.71444546  1
  H+  H256  1  0.37941878  0.77110494  1.00504898  1
  H+  H257  1  0.13234826  0.61513413  0.50589951  1
  H+  H258  1  0.60767903  0.50753644  0.84708698  1
  H+  H259  1  0.61265460  0.71763223  0.33751650  1
  H+  H260  1  1.00354154  0.38778707  0.16584185  1
  H+  H261  1  0.35872226  0.71538360  0.33575329  1
  H+  H262  1  0.11793538  0.49827504  0.68422657  1
  H+  H263  1  0.34128820  0.21959960  0.01051082  1
  H+  H264  1  0.93854541  0.71721546  0.73004988  1
  H+  H265  1  0.15674116  0.34777491  0.33119059  1
  H+  H266  1  0.52312468  0.89454288  0.68765554  1
  H+  H267  1  0.18373620  0.50232605  0.85703815  1
  H+  H268  1  1.03078232  0.38379503  1.01382098  1
  H+  H269  1  0.36755814  0.47345427  0.34506801  1
  H+  H270  1  0.36871556  0.97663806  0.66723229  1
  H+  H271  1  1.02544702  0.90374386  0.68564956  1
  H+  H272  1  0.73964453  0.11014464  0.32722478  1
  H+  H273  1  0.07361379  0.17133097  0.76435081  1
  H+  H274  1  0.27713207  0.79917564  0.39694353  1
  H+  H275  1  0.62724487  0.64498576  0.01202027  1
  H+  H276  1  0.34929163  0.84013746  0.34581256  1
  H+  H277  1  0.41625762  0.33011095  0.60208584  1
  H+  H278  1  0.33532305  0.41344539  0.44024202  1
  H+  H279  1  0.19755309  0.84911856  0.23708988  1
  H+  H280  1  0.84758406  0.18997778  0.48794179  1
  H+  H281  1  0.39636904  0.36856700  0.99708847  1
  H+  H282  1  0.65404477  0.56647440  0.26500663  1
  H+  H283  1  0.09740535  0.14921732  0.09778760  1
  H+  H284  1  0.38929299  0.85591614  0.51106944  1
  H+  H285  1  0.88022615  0.27224432  0.32300776  1
  H+  H286  1  0.60208546  0.62376582  0.33631986  1
  H+  H287  1  0.38533803  0.11605480  0.18254940  1
  H+  H288  1  0.84781088  0.15915445  0.38830867  1
  H+  H289  1  0.53075398  0.15473590  0.02021772  1
  H+  H290  1  0.57630781  0.91912412  0.79032625  1
  H+  H291  1  0.98758872  0.40627455  0.50623794  1
  H+  H292  1  0.58082225  0.41219845  0.73644292  1
  H+  H293  1  0.87137415  0.35743308  0.83896647  1
  H+  H294  1  0.58133991  0.17619965  0.11718310  1
  H+  H295  1  0.22089931  0.86199598  0.33817283  1
  H+  H296  1  0.16628796  0.86772674  0.17521594  1
  H+  H297  1  0.37807726  0.14728153  0.35077871  1
  H+  H298  1  0.16713314  0.33882733  0.93413583  1
  H+  H299  1  0.16831084  0.59441548  0.60315522  1
  H+  H300  1  0.07652317  0.67093320  0.39834459  1
  H+  H301  1  0.59114213  0.66913158  0.07074355  1
  H+  H302  1  1.02897496  0.41006011  0.68172739  1
  H+  H303  1  0.82741802  0.92786760  0.72846199  1
  H+  H304  1  0.10814855  0.93251318  0.05883641  1
  H+  H305  1  0.14151985  0.62930284  0.66150449  1
  H+  H306  1  0.35777577  0.29983929  0.21928205  1
  H+  H307  1  0.63476944  0.07488121  0.91835972  1
  H+  H308  1  0.32664901  0.65793080  0.42989730  1
  H+  H309  1  0.54053596  0.14066095  0.65420096  1
  H+  H310  1  0.57021104  0.41083439  0.10101370  1
  H+  H311  1  0.84272107  0.92273773  0.06387206  1
  H+  H312  1  0.90820970  0.33101304  0.93829421  1
  H+  H313  1  0.60172285  0.18708116  0.38911266  1
  H+  H314  1  0.15574815  0.59189635  0.26342386  1
  H+  H315  1  0.67749509  0.09318307  0.58114093  1
  H+  H316  1  0.41329762  0.33091971  0.93598960  1
  H+  H317  1  0.20445254  0.13971446  1.02522669  1
  H+  H318  1  0.16720206  0.09049759  0.60390020  1
  H+  H319  1  0.16402296  0.09647651  0.24566316  1
  H+  H320  1  0.41727143  1.03743862  0.39076992  1
  H+  H321  1  0.33072568  0.41485273  0.76402336  1
  H+  H322  1  0.66723888  0.08381066  0.23250072  1
  H+  H323  1  0.10968476  0.52617691  0.17816656  1
  H+  H324  1  0.67668058  0.35701332  0.57405141  1
  H+  H325  1  0.15539954  0.12403629  0.90994760  1
  H+  H326  1  0.90942372  0.58261709  0.59442400  1
  H+  H327  1  0.92649317  0.84812940  0.60828761  1
  H+  H328  1  0.67045104  0.81238630  0.55510032  1
  H+  H329  1  0.58711799  0.41614969  0.43956696  1
  H+  H330  1  0.42713489  0.59456641  0.94017055  1
  H+  H331  1  0.31746024  0.16163739  0.78228920  1
  H+  H332  1  0.63866225  0.05094427  0.58979950  1
  H+  H333  1  0.49378987  0.13303869  0.32766265  1
  H+  H334  1  0.61769787  0.87256126  0.50467220  1
  H+  H335  1  0.13356085  0.20524817  0.33471642  1
  H+  H336  1  0.56540190  0.91220867  0.10818144  1
  H+  H337  1  0.31270273  0.00210772  0.53492745  1
  H+  H338  1  0.11626064  0.48184640  0.48234596  1
  H+  H339  1  0.67332609  0.34393019  0.94383859  1
  H+  H340  1  0.47243431  0.60681045  0.66021219  1
  H+  H341  1  0.84962603  0.38617877  0.34229252  1
  H+  H342  1  0.41822984  0.07939801  0.59644279  1
  H+  H343  1  0.93738857  0.59244956  0.93647425  1
  H+  H344  1  0.57247479  0.65616470  0.42805157  1
  H+  H345  1  0.67203574  0.34977677  0.23286958  1
  H+  H346  1  0.40520430  0.82907137  0.94494951  1
  H+  H347  1  0.41216032  0.58106949  0.56593952  1
  H+  H348  1  0.40488156  0.81585186  0.26125099  1
  H+  H349  1  0.92383294  0.08188959  0.22188519  1
  H+  H350  1  0.41290413  0.57939174  0.23499298  1
  H+  H351  1  0.58956473  0.66464130  0.72571051  1
  H+  H352  1  0.88307385  0.18742405  0.72595869  1
  H+  H353  1  0.83111742  0.42320556  0.77014729  1
  H+  H354  1  0.26543836  0.63078043  0.33575373  1
  H+  H355  1  0.82104637  0.41702633  0.43355242  1
  H+  H356  1  0.93842323  0.84426197  0.22414851  1
  H+  H357  1  0.32328278  0.65937460  0.10866006  1
  H+  H358  1  0.42438525  0.83416806  0.60899315  1
  H+  H359  1  0.09022409  0.15497565  0.42654809  1
  H+  H360  1  0.20882994  0.55699115  0.91955646  1
  H+  H361  1  0.43139206  0.07596590  0.93582369  1
  H+  H362  1  0.15208772  0.60138095  0.98999297  1
  H+  H363  1  0.84616812  0.66783369  0.10371619  1
  H+  H364  1  0.58379050  0.90393502  0.38389638  1
  H+  H365  1  0.34497139  0.93436728  0.09650163  1
  H+  H366  1  0.76837006  0.14096529  0.78561561  1
  H+  H367  1  0.04930204  0.69891908  0.75671110  1
  H+  H368  1  0.89467207  0.32067896  0.21842932  1
  H+  H369  1  0.31515230  0.15563068  0.06675161  1
  H+  H370  1  0.82220511  0.66993475  0.42609208  1
  H+  H371  1  0.34032520  0.67277152  0.73257725  1
  H+  H372  1  0.63613948  0.36967924  0.66459652  1
  H+  H373  1  0.65647870  0.57510601  0.59724868  1
  H+  H374  1  0.58649785  0.16959018  0.78207601  1
  H+  H375  1  0.07937969  0.42382313  0.11727619  1
  H+  H376  1  0.43656317  0.33338287  0.28662719  1
  H+  H377  1  0.91297716  0.08429482  0.93598164  1
  H+  H378  1  0.61211784  0.39000083  0.01047300  1
  H+  H379  1  0.16867252  0.32438965  0.58648475  1
  H+  H380  1  0.67603043  0.83938116  0.93959464  1
  H+  H381  1  0.67096627  0.58780650  0.94311407  1
  H+  H382  1  0.64014993  0.27971528  0.85102568  1
  H+  H383  1  0.68001148  0.81621257  0.22976903  1
  O2-  O384  1  0.08781582  0.15540421  0.14129455  1
  O2-  O385  1  0.08504994  0.16491627  0.47068571  1
  O2-  O386  1  0.07071968  0.17096484  0.80931609  1
  O2-  O387  1  0.06735106  0.43093731  0.15981401  1
  O2-  O388  1  0.08407700  0.42221331  0.46561905  1
  O2-  O389  1  0.07205066  0.41946025  0.81714080  1
  O2-  O390  1  0.04652084  0.66681280  0.17037318  1
  O2-  O391  1  0.07378161  0.66302909  0.47880708  1
  O2-  O392  1  0.01877381  0.71006108  0.79024593  1
  O2-  O393  1  0.11013631  0.91817362  0.14917773  1
  O2-  O394  1  0.08513356  0.93607976  0.47528334  1
  O2-  O395  1  0.12978807  0.96137519  0.81421680  1
  O2-  O396  1  0.32558985  0.15303101  0.14863694  1
  O2-  O397  1  0.32929021  0.17039871  0.48815301  1
  O2-  O398  1  0.32305527  0.16961128  0.82674050  1
  O2-  O399  1  0.32416749  0.41553023  0.14935811  1
  O2-  O400  1  0.33064055  0.41104603  0.48588589  1
  O2-  O401  1  0.33000498  0.41219393  0.80919487  1
  O2-  O402  1  0.31480960  0.65419677  0.15368390  1
  O2-  O403  1  0.32700518  0.65696139  0.47579666  1
  O2-  O404  1  0.35304636  0.67965772  0.80872444  1
  O2-  O405  1  0.35048511  0.93930129  0.14624654  1
  O2-  O406  1  0.41290870  1.00312688  0.42757291  1
  O2-  O407  1  0.36753007  0.93110624  0.80952056  1
  O2-  O408  1  0.58117611  0.17266668  0.16266775  1
  O2-  O409  1  0.59922018  0.17708800  0.46394084  1
  O2-  O410  1  0.58311037  0.17175451  0.82614623  1
  O2-  O411  1  0.57115215  0.41071854  0.14669636  1
  O2-  O412  1  0.58583400  0.41828161  0.48573997  1
  O2-  O413  1  0.57960109  0.41165051  0.81329043  1
  O2-  O414  1  0.58463508  0.65437269  0.14655909  1
  O2-  O415  1  0.57495348  0.65949733  0.47394880  1
  O2-  O416  1  0.59986860  0.67889914  0.80487592  1
  O2-  O417  1  0.55706118  0.91406603  0.15250465  1
  O2-  O418  1  0.58771922  0.90815077  0.50729245  1
  O2-  O419  1  0.58085705  0.91449367  0.83480259  1
  O2-  O420  1  0.84253242  0.16580021  0.14405429  1
  O2-  O421  1  0.82435111  0.13532084  0.46652406  1
  O2-  O422  1  0.80636177  0.15432002  0.82135251  1
  O2-  O423  1  0.80979845  0.35892277  0.11886984  1
  O2-  O424  1  0.81944361  0.42045817  0.47958137  1
  O2-  O425  1  0.83050592  0.41881267  0.81572431  1
  O2-  O426  1  0.84943117  0.66697276  0.14932154  1
  O2-  O427  1  0.82461927  0.66965262  0.47150226  1
  O2-  O428  1  0.79937221  0.62055097  0.80747756  1
  O2-  O429  1  0.84241239  0.91429047  0.13946946  1
  O2-  O430  1  0.83511213  0.90162158  0.47428620  1
  O2-  O431  1  0.83323663  0.93298789  0.79741369  1
  O2-  O432  1  0.16947689  0.08647959  0.20149148  1
  O2-  O433  1  0.16734455  0.09345282  0.52837076  1
  O2-  O434  1  0.16399289  0.11076764  0.86682234  1
  O2-  O435  1  0.17314768  0.31664422  0.19088808  1
  O2-  O436  1  0.16444843  0.32794168  0.51891147  1
  O2-  O437  1  0.16286361  0.33299133  0.84982221  1
  O2-  O438  1  0.14190825  0.58954200  0.19194727  1
  O2-  O439  1  0.16184552  0.58423381  0.52140545  1
  O2-  O440  1  0.23158589  0.54930963  0.87890215  1
  O2-  O441  1  0.20449111  0.84772823  0.19266834  1
  O2-  O442  1  0.08418601  0.80325134  0.53550575  1
  O2-  O443  1  0.13285804  0.81986981  0.87093894  1
  O2-  O444  1  0.41723425  0.08846457  0.20016139  1
  O2-  O445  1  0.37006409  0.04966661  0.52603286  1
  O2-  O446  1  0.41159495  0.08776514  0.86102819  1
  O2-  O447  1  0.39220363  0.32506991  0.18285534  1
  O2-  O448  1  0.42013536  0.33569089  0.52757606  1
  O2-  O449  1  0.41709380  0.33570286  0.85665519  1
  O2-  O450  1  0.41375805  0.58154216  0.18966691  1
  O2-  O451  1  0.41213907  0.57846732  0.52052591  1
  O2-  O452  1  0.38656324  0.56700504  0.86496139  1
  O2-  O453  1  0.39979130  0.81629471  0.19852499  1
  O2-  O454  1  0.41530709  0.82277148  0.52555908  1
  O2-  O455  1  0.41205696  0.82866656  0.86561456  1
  O2-  O456  1  0.66725373  0.08787687  0.18830262  1
  O2-  O457  1  0.65534965  0.06398153  0.45043911  1
  O2-  O458  1  0.64622758  0.07849142  0.87261100  1
  O2-  O459  1  0.66685938  0.33971465  0.18799541  1
  O2-  O460  1  0.67553321  0.35711763  0.52758042  1
  O2-  O461  1  0.66845538  0.34075299  0.86425077  1
  O2-  O462  1  0.67017106  0.57619810  0.18984478  1
  O2-  O463  1  0.66143731  0.58202478  0.51677095  1
  O2-  O464  1  0.60739554  0.55575043  0.87011723  1
  O2-  O465  1  0.67787567  0.81030718  0.18506270  1
  O2-  O466  1  0.66828866  0.81977261  0.51013780  1
  O2-  O467  1  0.68084820  0.84317241  0.86123368  1
  O2-  O468  1  0.92096686  0.08095824  0.17686144  1
  O2-  O469  1  0.91626153  0.06992238  0.51016718  1
  O2-  O470  1  0.91210754  0.08920179  0.86052117  1
  O2-  O471  1  0.90524747  0.31828098  0.17505898  1
  O2-  O472  1  0.93888383  0.40495039  0.52816946  1
  O2-  O473  1  0.89529244  0.32088942  0.85474993  1
  O2-  O474  1  0.95901935  0.59574462  0.16272801  1
  O2-  O475  1  0.90645314  0.58560167  0.51592688  1
  O2-  O476  1  0.95355330  0.57483336  0.85924933  1
  O2-  O477  1  0.93428710  0.83870955  0.17935602  1
  O2-  O478  1  0.94083402  0.82387815  0.52823352  1
  O2-  O479  1  0.79474664  0.74719613  0.88492509  1
  O2-  O480  1  0.15376780  0.10911216  0.32418047  1
  O2-  O481  1  0.16818864  0.09139721  0.64979873  1
  O2-  O482  1  0.14356423  0.13237335  1.02670585  1
  O2-  O483  1  0.18461366  0.31499156  0.31954464  1
  O2-  O484  1  0.17120866  0.32427543  0.63432156  1
  O2-  O485  1  0.16751754  0.33467026  0.97883275  1
  O2-  O486  1  0.16110948  0.59045875  0.30977520  1
  O2-  O487  1  0.17343098  0.59970173  0.64836912  1
  O2-  O488  1  0.18161449  0.56759264  0.98585397  1
  O2-  O489  1  0.16615982  0.85043175  0.31942599  1
  O2-  O490  1  0.15871140  0.84235371  0.64849489  1
  O2-  O491  1  0.15037178  0.70712825  0.94146559  1
  O2-  O492  1  0.42993542  0.09685566  0.32490253  1
  O2-  O493  1  0.43418417  0.08885831  0.64052866  1
  O2-  O494  1  0.44918295  0.06772585  0.97718348  1
  O2-  O495  1  0.42566917  0.33273462  0.33003177  1
  O2-  O496  1  0.41345563  0.32992428  0.64821399  1
  O2-  O497  1  0.41590116  0.32933760  0.98127354  1
  O2-  O498  1  0.40893104  0.57272385  0.31501382  1
  O2-  O499  1  0.41137399  0.57718421  0.64574876  1
  O2-  O500  1  0.43334058  0.59944496  0.98509920  1
  O2-  O501  1  0.40811213  0.81505603  0.31053531  1
  O2-  O502  1  0.42511993  0.83720908  0.65401755  1
  O2-  O503  1  0.40900658  0.83195938  0.99026558  1
  O2-  O504  1  0.67536641  0.08001760  0.32933057  1
  O2-  O505  1  0.69571333  0.10425652  0.71920702  1
  O2-  O506  1  0.59853985  0.05849472  0.98362872  1
  O2-  O507  1  0.67102542  0.35148747  0.31019179  1
  O2-  O508  1  0.67259849  0.34690809  0.64572830  1
  O2-  O509  1  0.67084652  0.34533915  0.98913238  1
  O2-  O510  1  0.65058806  0.56887522  0.31078212  1
  O2-  O511  1  0.65436173  0.57672720  0.64229339  1
  O2-  O512  1  0.67830333  0.58872649  0.98776903  1
  O2-  O513  1  0.67397010  0.81912012  0.31159326  1
  O2-  O514  1  0.65893386  0.80990040  0.63310793  1
  O2-  O515  1  0.67405251  0.84205931  0.98501933  1
  O2-  O516  1  0.92917103  0.07956314  0.30454312  1
  O2-  O517  1  0.92343071  0.08205337  0.63332236  1
  O2-  O518  1  0.91221285  0.08150369  0.98187521  1
  O2-  O519  1  0.89400713  0.33069011  0.30933535  1
  O2-  O520  1  0.92705576  0.35502057  0.64779781  1
  O2-  O521  1  0.91840493  0.33157234  0.98271895  1
  O2-  O522  1  0.90627213  0.57445551  0.31786029  1
  O2-  O523  1  0.91503692  0.58209408  0.63972987  1
  O2-  O524  1  0.94175750  0.60202451  0.98112876  1
  O2-  O525  1  0.94945382  0.85577972  0.30691914  1
  O2-  O526  1  0.92378820  0.85126688  0.65310050  1
  O2-  O527  1  0.92835377  0.83891923  0.97597527  1
  O2-  O528  1  0.13391360  0.16685271  -0.02681221  1
  O2-  O529  1  0.09822026  0.14318447  0.34643417  1
  O2-  O530  1  0.08427753  0.17361055  0.68129647  1
  O2-  O531  1  0.08965796  0.41205584  0.03023633  1
  O2-  O532  1  0.08558371  0.40722828  0.33023228  1
  O2-  O533  1  0.08580143  0.43976582  0.70244181  1
  O2-  O534  1  0.11345691  0.67541285  -0.00251994  1
  O2-  O535  1  0.07618624  0.67511860  0.35312501  1
  O2-  O536  1  0.07902250  0.67459902  0.68511972  1
  O2-  O537  1  0.10763649  0.94094007  0.01474301  1
  O2-  O538  1  0.09499072  0.95546345  0.35569247  1
  O2-  O539  1  0.08798548  0.93391556  0.69603382  1
  O2-  O540  1  0.30069031  0.16042911  0.02401378  1
  O2-  O541  1  0.34925414  0.17972024  0.36425707  1
  O2-  O542  1  0.31486050  0.12228545  0.70052484  1
  O2-  O543  1  0.39496765  0.45223159  0.03750937  1
  O2-  O544  1  0.34121208  0.41433067  0.36352314  1
  O2-  O545  1  0.32450434  0.41091754  0.68167924  1
  O2-  O546  1  0.33867667  0.66945355  0.03116724  1
  O2-  O547  1  0.32485286  0.65539748  0.35305820  1
  O2-  O548  1  0.33954487  0.67217837  0.68684991  1
  O2-  O549  1  0.33600677  0.92238020  0.03574508  1
  O2-  O550  1  0.30984554  0.85167113  0.37350559  1
  O2-  O551  1  0.33062820  0.91733104  0.68188357  1
  O2-  O552  1  0.58740125  0.18602475  0.04094882  1
  O2-  O553  1  0.60086965  0.18718044  0.34312917  1
  O2-  O554  1  0.60505921  0.17236240  0.65866754  1
  O2-  O555  1  0.57952998  0.41916905  0.02391021  1
  O2-  O556  1  0.58785335  0.41702387  0.36621292  1
  O2-  O557  1  0.58112711  0.41099397  0.69068883  1
  O2-  O558  1  0.59507838  0.67430382  0.02503172  1
  O2-  O559  1  0.57586457  0.65737738  0.35285158  1
  O2-  O560  1  0.58058540  0.65867689  0.68081442  1
  O2-  O561  1  0.57515781  0.91192668  0.02674299  1
  O2-  O562  1  0.58653295  0.90463004  0.33968910  1
  O2-  O563  1  0.58041079  0.92838422  0.70888779  1
  O2-  O564  1  0.84965284  0.16246486  0.02646061  1
  O2-  O565  1  0.84930853  0.16623078  0.34342417  1
  O2-  O566  1  0.86217633  0.18083560  0.68413385  1
  O2-  O567  1  0.82467405  0.45950612  0.03813745  1
  O2-  O568  1  0.82441606  0.41976744  0.35999644  1
  O2-  O569  1  0.83529034  0.42536055  0.69287081  1
  O2-  O570  1  0.84800315  0.67269181  0.02694092  1
  O2-  O571  1  0.80824776  0.65575124  0.34816773  1
  O2-  O572  1  0.89052857  0.69809501  0.70111633  1
  O2-  O573  1  0.84143370  0.92669597  0.01819036  1
  O2-  O574  1  0.84275545  0.91300597  0.34835434  1
  O2-  O575  1  0.82862481  0.92469999  0.68136939  1
