# generated using pymatgen
data_H2O
_symmetry_space_group_name_H-M   'P 1'
_cell_length_a   17.98807163
_cell_length_b   17.99584130
_cell_length_c   21.99114815
_cell_angle_alpha   90.00044724
_cell_angle_beta   89.97827900
_cell_angle_gamma   120.03518345
_symmetry_Int_Tables_number   1
_chemical_formula_structural   H2O
_chemical_formula_sum   'H384 O192'
_cell_volume   6162.84404338
_cell_formula_units_Z   192
loop_
 _symmetry_equiv_pos_site_id
 _symmetry_equiv_pos_as_xyz
  1  'x, y, z'
loop_
 _atom_type_symbol
 _atom_type_oxidation_number
  H+  1.0
  O2-  -2.0
loop_
 _atom_site_type_symbol
 _atom_site_label
 _atom_site_symmetry_multiplicity
 _atom_site_fract_x
 _atom_site_fract_y
 _atom_site_fract_z
 _atom_site_occupancy
  H+  H0  1  0.39927510  0.13051643  0.32209837  1
  H+  H1  1  0.61179579  0.83497703  0.32379159  1
  H+  H2  1  0.98491618  0.11834139  0.32344126  1
  H+  H3  1  0.86367629  0.14123388  0.16126131  1
  H+  H4  1  0.87775479  0.64222950  0.50880670  1
  H+  H5  1  0.63371816  0.77186456  0.78291904  1
  H+  H6  1  0.76375710  0.61408053  0.85890268  1
  H+  H7  1  0.48270063  0.39083994  0.16666558  1
  H+  H8  1  0.13811957  0.27526001  0.17643785  1
  H+  H9  1  0.53644341  0.89115309  0.66144556  1
  H+  H10  1  0.09738916  0.16466866  0.39106200  1
  H+  H11  1  0.12855659  0.69439826  0.01740325  1
  H+  H12  1  0.38805189  0.56429998  0.27482241  1
  H+  H13  1  0.26501190  0.85798566  0.32209134  1
  H+  H14  1  0.11659371  0.74024881  0.51469088  1
  H+  H15  1  0.62449971  0.15300822  0.32827970  1
  H+  H16  1  0.27321619  0.64164107  0.49761165  1
  H+  H17  1  0.36433994  0.63350024  0.67200225  1
  H+  H18  1  0.72558536  0.86710688  0.32032772  1
  H+  H19  1  0.60473019  0.47402591  0.32518445  1
  H+  H20  1  0.62612794  0.48566710  0.14869347  1
  H+  H21  1  0.91459653  0.53932500  0.18520958  1
  H+  H22  1  1.05002446  0.66879254  0.84021786  1
  H+  H23  1  0.12196258  0.89287288  0.51681768  1
  H+  H24  1  0.58807544  0.20904369  0.16159107  1
  H+  H25  1  0.86089179  0.73357309  0.69307869  1
  H+  H26  1  0.34605423  0.71235183  0.28832924  1
  H+  H27  1  0.94995963  0.85136015  0.84358175  1
  H+  H28  1  0.21512622  0.37016180  0.51357338  1
  H+  H29  1  0.48417191  0.14558366  0.81382229  1
  H+  H30  1  0.63273734  0.78133175  0.98905025  1
  H+  H31  1  0.58664805  0.42162764  0.38727255  1
  H+  H32  1  0.10640358  0.49339169  0.66929242  1
  H+  H33  1  0.29917384  0.39630570  0.43097688  1
  H+  H34  1  0.54579768  0.24718992  0.66157387  1
  H+  H35  1  0.13062453  0.38573443  0.51434300  1
  H+  H36  1  0.13036752  0.14936363  0.32554208  1
  H+  H37  1  0.27446868  0.65067223  0.13894381  1
  H+  H38  1  0.49280198  0.80858196  0.32933226  1
  H+  H39  1  0.05121957  0.82953092  0.28850317  1
  H+  H40  1  0.63125320  0.02215986  0.99569131  1
  H+  H41  1  0.37105210  0.83304211  0.33319940  1
  H+  H42  1  0.14683253  0.02677123  0.51902584  1
  H+  H43  1  0.82848552  0.67441927  0.75377324  1
  H+  H44  1  0.48194418  0.57931978  0.82133623  1
  H+  H45  1  0.87516552  0.47973782  0.33510845  1
  H+  H46  1  0.35192753  0.57062365  0.83257854  1
  H+  H47  1  0.88980237  0.62044089  0.68743914  1
  H+  H48  1  0.89733835  0.21417111  0.54921307  1
  H+  H49  1  0.40738509  -0.00473981  0.97524269  1
  H+  H50  1  0.02675022  0.89451774  0.01172384  1
  H+  H51  1  0.34756468  0.38238373  0.48687571  1
  H+  H52  1  0.60474913  0.47408480  0.84728794  1
  H+  H53  1  0.14017552  0.88970653  0.98610833  1
  H+  H54  1  0.56570122  0.64703362  0.73569872  1
  H+  H55  1  0.08176533  0.95361937  0.83988022  1
  H+  H56  1  0.13785528  0.29886246  0.82817311  1
  H+  H57  1  0.08099494  0.68944141  0.45278503  1
  H+  H58  1  0.84702479  0.12485038  0.00879155  1
  H+  H59  1  0.10368958  0.09938672  0.82886466  1
  H+  H60  1  0.40466133  0.85698731  0.66442505  1
  H+  H61  1  0.16437046  0.35056000  0.89067359  1
  H+  H62  1  0.11548979  0.15219200  0.62821483  1
  H+  H63  1  0.73059685  0.61963251  0.67770457  1
  H+  H64  1  0.36070075  0.70844074  0.82903117  1
  H+  H65  1  0.35757034  0.61743619  -0.01071558  1
  H+  H66  1  0.18700639  0.88078131  0.69334942  1
  H+  H67  1  0.86836877  0.98494264  0.16318333  1
  H+  H68  1  0.82273860  0.41412043  0.83662649  1
  H+  H69  1  0.85792754  0.76024182  0.85298377  1
  H+  H70  1  0.80336781  0.44840605  0.13880180  1
  H+  H71  1  0.96420960  0.35880638  0.83696745  1
  H+  H72  1  0.22625199  0.12488335  0.50972892  1
  H+  H73  1  0.85056083  0.47656898  0.68925410  1
  H+  H74  1  0.12621966  0.58031598  0.99983080  1
  H+  H75  1  0.76231619  0.13217765  0.00868462  1
  H+  H76  1  0.62865274  0.10589703  0.17162902  1
  H+  H77  1  0.12310613  0.64316513  0.16883198  1
  H+  H78  1  0.13006411  0.38821632  0.66102249  1
  H+  H79  1  0.62518264  0.37925625  0.66435710  1
  H+  H80  1  0.23143922  0.86554415  0.51865669  1
  H+  H81  1  0.07398029  0.87916240  0.68388255  1
  H+  H82  1  0.38179253  0.38835267  0.85435212  1
  H+  H83  1  0.58629657  0.61342168  0.32661102  1
  H+  H84  1  0.74060725  0.61965032  0.16766643  1
  H+  H85  1  0.65133419  0.29094401  0.50369714  1
  H+  H86  1  0.60899656  0.38947570  0.14727383  1
  H+  H87  1  0.93007186  0.59110061  0.27507621  1
  H+  H88  1  0.30275748  0.88868330  0.67756336  1
  H+  H89  1  0.32360814  0.44867264  0.74228990  1
  H+  H90  1  0.62922881  0.48609868  0.49043693  1
  H+  H91  1  0.77296983  0.89536029  0.68008872  1
  H+  H92  1  0.26531774  0.14854052  0.03031258  1
  H+  H93  1  0.11508941  0.38790896  0.16425955  1
  H+  H94  1  0.13234639  0.90348154  0.15999648  1
  H+  H95  1  0.97986926  0.12054440  0.16846005  1
  H+  H96  1  0.25699726  0.88627113  0.83064793  1
  H+  H97  1  0.70122425  0.33315551  0.16237043  1
  H+  H98  1  0.75684680  0.09887011  0.81875909  1
  H+  H99  1  0.71437260  0.73454116  -0.04880090  1
  H+  H100  1  0.35806672  0.64819470  0.15230071  1
  H+  H101  1  0.72385417  0.11680008  0.32685701  1
  H+  H102  1  0.89248896  0.77538158  0.51509611  1
  H+  H103  1  0.82460622  0.74604862  0.30718026  1
  H+  H104  1  0.12667697  0.79910207  0.97044473  1
  H+  H105  1  0.17850221  0.33620390  0.23554582  1
  H+  H106  1  0.46754608  0.58715583  0.33248766  1
  H+  H107  1  0.22371196  0.61058118  0.84179563  1
  H+  H108  1  1.02372330  0.12756308  0.48296491  1
  H+  H109  1  0.65052381  0.61611831  0.51376927  1
  H+  H110  1  0.35391104  0.85827970  0.49608409  1
  H+  H111  1  0.95202727  0.10014409  1.00561475  1
  H+  H112  1  0.60845557  0.36062374  0.83542147  1
  H+  H113  1  0.27424917  0.88667210  0.99937802  1
  H+  H114  1  0.65333891  0.62187609  0.16061192  1
  H+  H115  1  0.11821193  0.14670393  0.14266695  1
  H+  H116  1  0.23079788  0.13155848  0.12686607  1
  H+  H117  1  0.34661128  0.40026605  0.69210690  1
  H+  H118  1  0.62663634  0.97978442  0.65138501  1
  H+  H119  1  0.85720135  0.87781751  0.49028364  1
  H+  H120  1  0.14345287  0.12253124  -0.00891622  1
  H+  H121  1  0.86513439  0.98637372  0.68210615  1
  H+  H122  1  0.87724919  0.73390845  0.15553884  1
  H+  H123  1  0.46892277  0.84759793  0.50684605  1
  H+  H124  1  0.59775715  0.93831007  0.46693768  1
  H+  H125  1  0.63612027  0.11352413  0.99748232  1
  H+  H126  1  0.34019582  0.23484253  1.05602648  1
  H+  H127  1  0.90650073  0.35524300  0.60180055  1
  H+  H128  1  0.19949594  0.59871341  0.21814202  1
  H+  H129  1  0.34018485  0.52318755  0.18950818  1
  H+  H130  1  0.64900576  0.16711209  0.47122805  1
  H+  H131  1  0.06164563  0.16920088  -0.03494878  1
  H+  H132  1  0.72139244  0.11269984  0.17110496  1
  H+  H133  1  0.51621644  0.40539980  0.68843729  1
  H+  H134  1  0.63191010  0.01463913  0.84247217  1
  H+  H135  1  0.11298734  -0.00958707  0.37722129  1
  H+  H136  1  0.60517093  0.88772819  0.00474486  1
  H+  H137  1  0.15087084  0.98379523  0.38403138  1
  H+  H138  1  0.59933266  0.18980539  0.38638576  1
  H+  H139  1  0.13332259  0.47481286  0.34084445  1
  H+  H140  1  0.65061869  0.50095837  0.94007267  1
  H+  H141  1  0.97735362  0.61808056  0.68352072  1
  H+  H142  1  0.61690169  0.64433089  0.67810140  1
  H+  H143  1  0.64172678  0.77824861  0.66741115  1
  H+  H144  1  0.88561033  0.61178332  0.99937388  1
  H+  H145  1  0.87348935  0.86664230  0.66688697  1
  H+  H146  1  0.84732189  0.88246320  0.33191492  1
  H+  H147  1  0.14166843  0.63060568  0.51302626  1
  H+  H148  1  0.09832626  0.25355909  0.70150095  1
  H+  H149  1  0.32924879  0.65588501  0.76722004  1
  H+  H150  1  0.39735730  -0.02976864  0.66723464  1
  H+  H151  1  0.46573582  0.37967057  0.85169103  1
  H+  H152  1  0.90227091  0.38789770  1.00706892  1
  H+  H153  1  0.77785623  0.38869337  0.32653749  1
  H+  H154  1  0.86275738  0.31793056  0.83964173  1
  H+  H155  1  0.48248891  0.61915119  0.65694713  1
  H+  H156  1  0.82246459  0.39381011  0.51201828  1
  H+  H157  1  0.98377456  0.36902346  0.33026729  1
  H+  H158  1  0.61004867  -0.02593443  0.15810615  1
  H+  H159  1  0.47352090  0.85694393  0.83328780  1
  H+  H160  1  0.13693616  1.03008103  0.00166543  1
  H+  H161  1  0.52712418  0.12513584  1.00239985  1
  H+  H162  1  0.07133148  0.43162112  0.72778672  1
  H+  H163  1  0.10145569  0.68242588  0.74353363  1
  H+  H164  1  0.39675509  0.39652245  0.16979109  1
  H+  H165  1  0.54940939  0.13596431  0.47792073  1
  H+  H166  1  0.85773620  0.88320790  1.01544768  1
  H+  H167  1  0.53430912  0.39478756  -0.00171081  1
  H+  H168  1  0.74450887  0.62661353  0.51582466  1
  H+  H169  1  0.22959192  0.62156904  0.66279480  1
  H+  H170  1  0.53434812  0.54617713  0.45899138  1
  H+  H171  1  0.12342934  0.65110198  0.68049243  1
  H+  H172  1  0.40282606  0.07946511  0.48821167  1
  H+  H173  1  0.88074453  0.25881618  0.99247477  1
  H+  H174  1  0.37768001  0.75670351  -0.01815104  1
  H+  H175  1  0.64454418  0.86883618  0.66104824  1
  H+  H176  1  0.86195375  0.23602337  0.66642943  1
  H+  H177  1  0.85644746  0.96497357  0.48897024  1
  H+  H178  1  0.37584748  0.87418699  0.15135473  1
  H+  H179  1  0.70305599  0.83383723  0.82839760  1
  H+  H180  1  0.71952319  0.85376829  0.50501562  1
  H+  H181  1  0.26981694  0.61594653  -0.01869002  1
  H+  H182  1  0.46727924  0.10766487  0.17605171  1
  H+  H183  1  0.77933907  0.66055027  0.00975517  1
  H+  H184  1  0.37138896  0.28354131  0.68501616  1
  H+  H185  1  -0.02290062  0.62117756  0.34034916  1
  H+  H186  1  0.36481634  0.99423027  0.82341809  1
  H+  H187  1  0.64896046  0.37529279  0.31797021  1
  H+  H188  1  0.09704563  0.48737397  0.82273679  1
  H+  H189  1  0.95964361  0.46643118  1.04925614  1
  H+  H190  1  0.12913662  0.99119078  0.15123572  1
  H+  H191  1  0.17024322  0.28399718  0.33510345  1
  H+  H192  1  0.35788495  0.49445607  0.33207816  1
  H+  H193  1  0.74850783  0.11204879  0.62824106  1
  H+  H194  1  0.65533387  0.32636146  0.22476262  1
  H+  H195  1  0.49085454  0.13362074  0.32283164  1
  H+  H196  1  0.39031626  0.18079403  0.69256900  1
  H+  H197  1  0.18589586  0.85045448  0.58483987  1
  H+  H198  1  0.86041038  0.63842087  0.84699694  1
  H+  H199  1  0.48535587  0.14557005  0.65258931  1
  H+  H200  1  0.26640377  0.16508124  0.83782240  1
  H+  H201  1  0.46261523  0.37291724  0.32123858  1
  H+  H202  1  0.32642152  0.04730828  0.61060645  1
  H+  H203  1  0.88502786  0.36041172  0.17822047  1
  H+  H204  1  0.84743537  0.38774796  0.67743957  1
  H+  H205  1  0.28469379  0.88724429  0.15344598  1
  H+  H206  1  0.09310507  0.11862457  0.65227815  1
  H+  H207  1  0.26785114  0.39448279  0.15706518  1
  H+  H208  1  0.24163253  0.38840022  0.97776472  1
  H+  H209  1  0.87965833  0.64613528  0.16182948  1
  H+  H210  1  0.64319956  0.12198891  0.72867489  1
  H+  H211  1  0.13835843  0.52866333  0.16610753  1
  H+  H212  1  0.35251456  0.86444019  -0.00083978  1
  H+  H213  1  -0.00061942  0.63072445  0.18423058  1
  H+  H214  1  0.89412061  0.77823997  0.00252352  1
  H+  H215  1  0.24945603  0.22184375  0.44324128  1
  H+  H216  1  0.84536471  0.60329914  0.34623495  1
  H+  H217  1  0.40136883  0.38567821  1.00924099  1
  H+  H218  1  0.20984617  0.90250922  0.32328384  1
  H+  H219  1  0.36776874  0.24359453  0.32094067  1
  H+  H220  1  0.31894274  0.02417718  0.64015834  1
  H+  H221  1  0.11946239  0.74007678  0.35063496  1
  H+  H222  1  0.37131992  0.51683185  0.50646360  1
  H+  H223  1  0.38738971  0.86035095  0.83629221  1
  H+  H224  1  0.54734168  0.64733325  0.13192301  1
  H+  H225  1  0.36602175  0.12999919  0.85057250  1
  H+  H226  1  -0.02121265  0.61970297  0.53004314  1
  H+  H227  1  0.24798147  0.10520801  0.67080481  1
  H+  H228  1  0.47705514  0.86259494  0.16153405  1
  H+  H229  1  0.70112423  0.35885401  0.66500315  1
  H+  H230  1  0.09991770  0.40133047  0.81973310  1
  H+  H231  1  0.73280025  0.10671493  0.44170510  1
  H+  H232  1  0.85491878  -0.03555421  0.83572919  1
  H+  H233  1  0.60000273  0.86985316  0.81454788  1
  H+  H234  1  0.41390371  0.35424337  0.25732194  1
  H+  H235  1  0.15604274  0.78126843  0.67917027  1
  H+  H236  1  0.49068939  0.37659780  0.48416430  1
  H+  H237  1  0.15521431  0.78567744  0.17331209  1
  H+  H238  1  0.13320107  0.65592096  0.83898785  1
  H+  H239  1  0.60806142  0.21999631  0.01267204  1
  H+  H240  1  0.02522654  0.38552885  0.16330632  1
  H+  H241  1  0.51355953  0.88284328  0.00497495  1
  H+  H242  1  0.88556796  0.27235435  0.17605575  1
  H+  H243  1  0.96778751  0.37698116  0.65906612  1
  H+  H244  1  0.01667792  0.10042763  0.83626462  1
  H+  H245  1  0.62624131  0.39668803  0.48597145  1
  H+  H246  1  0.21193891  0.03360386  0.86334605  1
  H+  H247  1  0.22179547  0.39001896  0.66503921  1
  H+  H248  1  0.83744857  0.18896693  0.49158435  1
  H+  H249  1  1.01904900  0.36118564  1.00672816  1
  H+  H250  1  0.37044126  0.72377452  0.67521261  1
  H+  H251  1  1.00000634  0.89824505  0.67523718  1
  H+  H252  1  0.58685077  0.25593046  0.81767455  1
  H+  H253  1  0.90498591  0.31912035  0.50471586  1
  H+  H254  1  0.52169074  0.04749033  0.61765515  1
  H+  H255  1  0.77510130  0.04694340  0.76988103  1
  H+  H256  1  0.87406583  0.38335930  0.33156322  1
  H+  H257  1  0.50587484  0.60658910  0.48718638  1
  H+  H258  1  0.14037595  0.54089648  0.50994928  1
  H+  H259  1  0.34232672  0.25354961  0.46902833  1
  H+  H260  1  0.07922072  0.39782108  1.06767681  1
  H+  H261  1  0.72402260  0.35203472  -0.00910969  1
  H+  H262  1  0.69036833  0.33894013  0.82993457  1
  H+  H263  1  0.14433944  0.01508253  0.66577080  1
  H+  H264  1  0.85318567  0.86503727  0.83422057  1
  H+  H265  1  0.20141224  0.61927091  0.34444892  1
  H+  H266  1  0.35857753  0.63517348  0.49474648  1
  H+  H267  1  0.97586350  0.12717331  0.67492321  1
  H+  H268  1  0.37994262  0.75920231  0.51055930  1
  H+  H269  1  0.92323172  0.80983118  0.31755296  1
  H+  H270  1  0.87077813  0.08206568  0.83806271  1
  H+  H271  1  0.71939280  0.86828309  1.00005025  1
  H+  H272  1  0.90211340  0.11265490  0.50662869  1
  H+  H273  1  0.60327489  0.85700274  0.49049925  1
  H+  H274  1  0.38391375  0.77112745  0.15358998  1
  H+  H275  1  0.62946579  0.73728230  0.14630876  1
  H+  H276  1  0.86050849  0.13369952  0.34152530  1
  H+  H277  1  0.72875067  0.87075926  0.16920238  1
  H+  H278  1  0.92694786  0.55789340  0.84658428  1
  H+  H279  1  0.32455116  0.87653594  0.43209325  1
  H+  H280  1  1.02603689  0.63247557  1.01448847  1
  H+  H281  1  0.66256200  0.16319376  0.71096649  1
  H+  H282  1  0.60979953  0.49106672  0.68543227  1
  H+  H283  1  0.27047298  0.42317577  0.83305166  1
  H+  H284  1  0.24950121  0.13871754  0.29780514  1
  H+  H285  1  0.02792662  0.41699411  0.49485126  1
  H+  H286  1  0.86835640  0.89498734  0.16128505  1
  H+  H287  1  0.04398829  0.75028338  0.37118443  1
  H+  H288  1  0.16282920  0.35851613  0.58412419  1
  H+  H289  1  0.14591213  0.37021284  0.98782031  1
  H+  H290  1  0.32250983  0.36347901  0.32807800  1
  H+  H291  1  0.41401445  0.57867301  0.56434137  1
  H+  H292  1  0.66343853  0.58375366  0.25464304  1
  H+  H293  1  0.39174913  0.98641491  0.48682117  1
  H+  H294  1  0.57515918  0.65201998  0.83576749  1
  H+  H295  1  0.91095937  0.83142504  0.22354804  1
  H+  H296  1  0.42046660  0.08687461  0.24792955  1
  H+  H297  1  0.80132142  0.38568811  0.76707540  1
  H+  H298  1  0.66884663  0.11693905  0.60887609  1
  H+  H299  1  0.12357821  0.38442940  0.34828834  1
  H+  H300  1  0.08336049  0.18615505  0.09362766  1
  H+  H301  1  0.16391852  0.05192914  0.28434807  1
  H+  H302  1  0.89510967  0.02933739  0.32393315  1
  H+  H303  1  0.86053924  0.22054158  0.34763586  1
  H+  H304  1  0.16999822  0.60036322  0.60349982  1
  H+  H305  1  0.08645461  0.67006124  0.11321719  1
  H+  H306  1  0.08857014  0.43000891  0.43726382  1
  H+  H307  1  0.83694885  0.66803449  0.06757192  1
  H+  H308  1  0.76725273  0.56440114  0.39099552  1
  H+  H309  1  0.15985885  0.78725956  0.83759671  1
  H+  H310  1  0.83105959  0.16888685  0.10233999  1
  H+  H311  1  0.04661843  0.91336279  0.77465737  1
  H+  H312  1  0.66156414  0.58952743  0.92386770  1
  H+  H313  1  0.11058749  0.13117411  0.49430571  1
  H+  H314  1  0.40271351  0.93227366  0.34274985  1
  H+  H315  1  0.52104723  0.18634167  0.74760782  1
  H+  H316  1  0.39072485  0.53222183  0.66156093  1
  H+  H317  1  0.45306516  0.04841974  0.57320626  1
  H+  H318  1  0.33203443  0.18229307  0.74829830  1
  H+  H319  1  0.82752121  0.91515440  0.07393500  1
  H+  H320  1  0.71024483  0.59996017  0.31972135  1
  H+  H321  1  0.88918577  0.11814742  0.65627398  1
  H+  H322  1  0.63585373  0.86465439  0.16700732  1
  H+  H323  1  0.93676275  0.60277457  0.91024478  1
  H+  H324  1  0.07111276  0.18418401  0.75519978  1
  H+  H325  1  0.32463666  0.18261094  0.37814561  1
  H+  H326  1  0.16131940  0.57628146  0.90074930  1
  H+  H327  1  0.66370768  0.08539563  0.26839000  1
  H+  H328  1  0.82590705  0.16188693  0.71830364  1
  H+  H329  1  0.35537290  0.25546093  0.84019251  1
  H+  H330  1  0.06165394  0.88843839  0.34371530  1
  H+  H331  1  0.41029097  0.82620356  0.92991293  1
  H+  H332  1  0.83123390  0.91263768  0.76816023  1
  H+  H333  1  0.58277787  0.91738060  0.76044213  1
  H+  H334  1  0.84968286  0.66870357  0.44530063  1
  H+  H335  1  0.56087414  0.14901772  0.10286348  1
  H+  H336  1  0.55602433  0.63231593  0.39083600  1
  H+  H337  1  0.40654328  0.08582088  0.89623058  1
  H+  H338  1  0.19869983  0.85187207  0.22802379  1
  H+  H339  1  0.71297107  0.09806658  0.51449373  1
  H+  H340  1  0.90329399  0.83251608  0.60850787  1
  H+  H341  1  0.33836023  0.90711107  0.08796003  1
  H+  H342  1  0.66679307  0.83117754  0.56685965  1
  H+  H343  1  0.66597041  0.34643895  0.56343129  1
  H+  H344  1  0.42289950  0.82408132  0.60090506  1
  H+  H345  1  0.57465629  0.43197633  0.77904932  1
  H+  H346  1  0.13733345  0.25067282  -0.00751412  1
  H+  H347  1  0.82571611  0.91351835  0.39398074  1
  H+  H348  1  0.91425790  0.83710643  0.94421040  1
  H+  H349  1  0.90022920  0.52914743  0.99833556  1
  H+  H350  1  0.16865803  0.06560445  0.91263760  1
  H+  H351  1  0.19226277  0.07662639  0.59991120  1
  H+  H352  1  0.12728928  0.49331914  0.99167284  1
  H+  H353  1  0.33136089  0.44496156  0.10196060  1
  H+  H354  1  0.92193004  0.07418041  0.56476848  1
  H+  H355  1  0.62429957  0.67495996  0.04642453  1
  H+  H356  1  0.58008686  0.91591083  0.09728751  1
  H+  H357  1  0.63999071  0.36023888  0.99336337  1
  H+  H358  1  0.92413547  0.09167068  0.23011202  1
  H+  H359  1  0.40797153  0.33653404  0.95376089  1
  H+  H360  1  0.19670233  0.11517245  0.19667474  1
  H+  H361  1  0.92356039  0.33579267  0.27047434  1
  H+  H362  1  0.68012666  0.59246107  0.61395424  1
  H+  H363  1  0.35296826  0.93219007  0.76566240  1
  H+  H364  1  0.09251680  0.92079841  0.45713936  1
  H+  H365  1  0.97658377  0.86733602  0.52138212  1
  H+  H366  1  0.91577215  0.31714861  0.93077696  1
  H+  H367  1  0.43431340  0.32174818  0.53823217  1
  H+  H368  1  0.40753808  0.79769814  0.25133059  1
  H+  H369  1  0.91542588  0.59169631  0.58663714  1
  H+  H370  1  0.65025392  0.28657682  0.31881037  1
  H+  H371  1  0.48482709  0.02661750  0.92911185  1
  H+  H372  1  0.18609416  0.86296353  0.89127127  1
  H+  H373  1  0.09209374  0.92268440  0.06895196  1
  H+  H374  1  0.39026464  0.34387068  0.62849186  1
  H+  H375  1  0.31252914  0.58201758  0.23366904  1
  H+  H376  1  0.84027289  0.40612253  0.09532218  1
  H+  H377  1  0.55109883  0.84777213  0.39192425  1
  H+  H378  1  0.86969768  0.00740571  1.00172120  1
  H+  H379  1  0.66823434  0.83346040  0.25615333  1
  H+  H380  1  0.89790026  0.06107423  0.90410375  1
  H+  H381  1  0.67041880  0.07783216  0.89927046  1
  H+  H382  1  0.60431228  0.43716881  0.04802057  1
  H+  H383  1  0.98577990  0.87224355  0.17172959  1
  O2-  O384  1  0.08414246  0.17717713  0.13763381  1
  O2-  O385  1  0.08393119  0.15580598  0.46836170  1
  O2-  O386  1  0.07724196  0.13510865  0.82335169  1
  O2-  O387  1  0.08382828  0.41486024  0.14521714  1
  O2-  O388  1  0.08814357  0.43489546  0.48263808  1
  O2-  O389  1  0.06644137  0.42829471  0.80516807  1
  O2-  O390  1  0.09351473  0.67788524  0.15798787  1
  O2-  O391  1  0.08656021  0.68159989  0.49678880  1
  O2-  O392  1  0.10973523  0.69425310  0.82399467  1
  O2-  O393  1  0.09599774  0.92700065  0.14525628  1
  O2-  O394  1  0.09007975  0.92242167  0.50149962  1
  O2-  O395  1  0.04145929  0.89958855  0.81855093  1
  O2-  O396  1  0.36080077  0.11835265  0.18323716  1
  O2-  O397  1  0.28911603  0.20172936  0.45423159  1
  O2-  O398  1  0.32644536  0.19407330  0.82393198  1
  O2-  O399  1  0.32809544  0.43856919  0.14672003  1
  O2-  O400  1  0.30713741  0.40231190  0.47599386  1
  O2-  O401  1  0.33201976  0.45094263  0.81884675  1
  O2-  O402  1  0.33690717  0.68122034  0.12940770  1
  O2-  O403  1  0.33332696  0.67065657  0.48210577  1
  O2-  O404  1  0.32567477  0.64942604  0.81266435  1
  O2-  O405  1  0.34356843  0.90888449  0.13414139  1
  O2-  O406  1  0.32323520  0.88691036  0.47634803  1
  O2-  O407  1  0.34320044  0.93310453  0.81090837  1
  O2-  O408  1  0.55866625  0.14735418  0.14866060  1
  O2-  O409  1  0.60541818  0.18509182  0.46593713  1
  O2-  O410  1  0.53801666  0.18027599  0.79002025  1
  O2-  O411  1  0.59070164  0.42831910  0.12948843  1
  O2-  O412  1  0.59747726  0.42902712  0.47019446  1
  O2-  O413  1  0.56925666  0.41983369  0.82393630  1
  O2-  O414  1  0.60964426  0.67970415  0.12677860  1
  O2-  O415  1  0.55571792  0.60727707  0.46536441  1
  O2-  O416  1  0.54254352  0.60607303  0.80662623  1
  O2-  O417  1  0.58007830  0.91312042  0.14306976  1
  O2-  O418  1  0.56511966  0.87584704  0.46751408  1
  O2-  O419  1  0.57622993  0.90810521  0.80498342  1
  O2-  O420  1  0.83287621  0.17178364  0.14788057  1
  O2-  O421  1  0.89890085  0.21696718  0.50485305  1
  O2-  O422  1  0.80500233  0.10154953  0.79157166  1
  O2-  O423  1  0.81743043  0.40258820  0.13763282  1
  O2-  O424  1  0.86924873  0.40259680  0.48408243  1
  O2-  O425  1  0.78789752  0.36444674  0.81105793  1
  O2-  O426  1  0.84712552  0.67172363  0.14356718  1
  O2-  O427  1  0.85005007  0.67500511  0.48978541  1
  O2-  O428  1  0.81733438  0.65593044  0.83761980  1
  O2-  O429  1  0.83518384  0.92338513  0.14924513  1
  O2-  O430  1  0.82645097  0.90565065  0.47207549  1
  O2-  O431  1  0.82561151  0.90385004  0.81499799  1
  O2-  O432  1  0.17843445  0.10100220  0.15362237  1
  O2-  O433  1  0.17662272  0.08653678  0.53634645  1
  O2-  O434  1  0.16890008  0.05122631  0.86730975  1
  O2-  O435  1  0.16855415  0.33588206  0.19133209  1
  O2-  O436  1  0.15870769  0.35395409  0.53404874  1
  O2-  O437  1  0.16215188  0.35666443  0.84516195  1
  O2-  O438  1  0.16994040  0.59087897  0.17592604  1
  O2-  O439  1  0.17161020  0.59962704  0.52760786  1
  O2-  O440  1  0.16325131  0.58919235  0.85615086  1
  O2-  O441  1  0.19018761  0.84857012  0.18312042  1
  O2-  O442  1  0.17597716  0.84760856  0.54017705  1
  O2-  O443  1  0.19156678  0.85347886  0.84635210  1
  O2-  O444  1  0.40913697  0.07731591  0.19928442  1
  O2-  O445  1  0.43315524  0.04894912  0.49851055  1
  O2-  O446  1  0.38968426  0.09025673  0.85387027  1
  O2-  O447  1  0.42721422  0.36883554  0.18797972  1
  O2-  O448  1  0.42924085  0.34498851  0.49943394  1
  O2-  O449  1  0.40523399  0.35128239  0.86683441  1
  O2-  O450  1  0.36117587  0.57715538  0.21379507  1
  O2-  O451  1  0.41036294  0.57692372  0.51862326  1
  O2-  O452  1  0.37691952  0.53558660  0.84941465  1
  O2-  O453  1  0.41406187  0.83228811  0.17310813  1
  O2-  O454  1  0.41121013  0.82222115  0.52622385  1
  O2-  O455  1  0.41382183  0.82706019  0.85050834  1
  O2-  O456  1  0.66094603  0.07745280  0.18552235  1
  O2-  O457  1  0.72951286  0.13593575  0.47842826  1
  O2-  O458  1  0.67120182  0.07514422  0.85412940  1
  O2-  O459  1  0.64449779  0.31541558  0.18024117  1
  O2-  O460  1  0.67822897  0.35058609  0.51914951  1
  O2-  O461  1  0.62831512  0.31665302  0.84207694  1
  O2-  O462  1  0.67892748  0.58970388  0.17999425  1
  O2-  O463  1  0.68422647  0.59178573  0.53145035  1
  O2-  O464  1  0.66674044  0.54216375  0.90545720  1
  O2-  O465  1  0.66716102  0.83476506  0.18191479  1
  O2-  O466  1  0.66055338  0.82675535  0.52207709  1
  O2-  O467  1  0.64051279  0.79879435  0.82265617  1
  O2-  O468  1  0.91991931  0.08943363  0.18461909  1
  O2-  O469  1  0.91761744  0.06964462  0.51969716  1
  O2-  O470  1  0.90046096  0.05429814  0.85909996  1
  O2-  O471  1  0.91729154  0.33296080  0.19256702  1
  O2-  O472  1  0.92201516  0.37742850  0.52093427  1
  O2-  O473  1  0.91096064  0.31463054  0.85753189  1
  O2-  O474  1  0.93654468  0.59845931  0.19871062  1
  O2-  O475  1  0.91754118  0.59329892  0.54170612  1
  O2-  O476  1  0.94361031  0.61347022  0.86483531  1
  O2-  O477  1  0.92252102  0.83827013  0.17910397  1
  O2-  O478  1  0.91453025  0.83518445  0.53135258  1
  O2-  O479  1  0.88845990  0.82409818  0.86138172  1
  O2-  O480  1  0.19023567  0.11373011  0.27891430  1
  O2-  O481  1  0.19900205  0.05987027  0.64496420  1
  O2-  O482  1  0.17018051  0.08709805  0.98093560  1
  O2-  O483  1  0.20173824  0.34658753  0.32094728  1
  O2-  O484  1  0.16297684  0.35934024  0.64614731  1
  O2-  O485  1  0.18095115  0.34956833  0.96526045  1
  O2-  O486  1  0.21719806  0.57856756  0.32811647  1
  O2-  O487  1  0.16870057  0.59856367  0.64936185  1
  O2-  O488  1  0.15293035  0.55368349  0.97596899  1
  O2-  O489  1  0.20790756  0.85049807  0.30820387  1
  O2-  O490  1  0.19422443  0.84365728  0.66457659  1
  O2-  O491  1  0.16855171  0.85966950  0.96431621  1
  O2-  O492  1  0.42858708  0.09748889  0.31149250  1
  O2-  O493  1  0.46932179  0.05088887  0.61739303  1
  O2-  O494  1  0.45010984  0.04591047  0.95081415  1
  O2-  O495  1  0.40404588  0.34475713  0.30362952  1
  O2-  O496  1  0.39917700  0.34562250  0.67225998  1
  O2-  O497  1  0.41979557  0.34431074  0.99783076  1
  O2-  O498  1  0.39720103  0.55572087  0.32058391  1
  O2-  O499  1  0.42250264  0.58898068  0.64056159  1
  O2-  O500  1  0.39358995  0.53461792  1.00088944  1
  O2-  O501  1  0.39661957  0.77391843  0.29330727  1
  O2-  O502  1  0.43277378  0.82646625  0.64635294  1
  O2-  O503  1  0.40480406  0.82097163  0.97519283  1
  O2-  O504  1  0.66365883  0.09401844  0.31292863  1
  O2-  O505  1  0.69467022  0.08098569  0.60293149  1
  O2-  O506  1  0.66487741  0.08264732  0.98038717  1
  O2-  O507  1  0.68292727  0.34847787  0.30331173  1
  O2-  O508  1  0.64424736  0.34054166  0.64634431  1
  O2-  O509  1  0.66213214  0.31967659  0.98593380  1
  O2-  O510  1  0.65370282  0.57846577  0.30004863  1
  O2-  O511  1  0.67213255  0.59144020  0.65882323  1
  O2-  O512  1  0.69498654  0.68195018  0.97539059  1
  O2-  O513  1  0.66681324  0.82817474  0.30222091  1
  O2-  O514  1  0.67647293  0.83778838  0.65113353  1
  O2-  O515  1  0.66181214  0.84376982  0.98110374  1
  O2-  O516  1  0.92471024  0.08945346  0.30865207  1
  O2-  O517  1  0.92242779  0.08787186  0.65116938  1
  O2-  O518  1  0.89793688  0.06783397  0.98355214  1
  O2-  O519  1  0.92284655  0.34036608  0.31603349  1
  O2-  O520  1  0.90602103  0.34341764  0.64594430  1
  O2-  O521  1  0.91861699  0.31906563  0.97705445  1
  O2-  O522  1  0.92114081  0.58126396  0.32020537  1
  O2-  O523  1  0.91567101  0.58614634  0.67248917  1
  O2-  O524  1  0.92362213  0.58952909  0.98463497  1
  O2-  O525  1  0.87034778  0.80479889  0.29921020  1
  O2-  O526  1  0.90473654  0.83611421  0.65427217  1
  O2-  O527  1  0.92133413  0.83956244  0.98895710  1
  O2-  O528  1  0.09772082  0.18743779  0.00134213  1
  O2-  O529  1  0.10257696  0.17823605  0.34646904  1
  O2-  O530  1  0.04933851  0.20714719  0.72316292  1
  O2-  O531  1  0.07958659  0.39514111  0.02207734  1
  O2-  O532  1  0.09342965  0.41637746  0.35760101  1
  O2-  O533  1  0.07327946  0.43137223  0.68208094  1
  O2-  O534  1  0.08037049  0.64346262  0.03522892  1
  O2-  O535  1  0.06531924  0.70937307  0.37374751  1
  O2-  O536  1  0.09693724  0.68426260  0.69850974  1
  O2-  O537  1  0.08912806  0.92548040  0.02316801  1
  O2-  O538  1  0.02700822  0.82919966  0.32850359  1
  O2-  O539  1  0.06181913  0.92550165  0.69164815  1
  O2-  O540  1  0.29984498  0.17500919  0.06701042  1
  O2-  O541  1  0.33967823  0.18171915  0.33504619  1
  O2-  O542  1  0.33574803  0.18040241  0.70261025  1
  O2-  O543  1  0.34486713  0.45440557  0.01640828  1
  O2-  O544  1  0.28883158  0.38709194  0.34999571  1
  O2-  O545  1  0.32069963  0.43748121  0.69741112  1
  O2-  O546  1  0.33241612  0.65252381  -0.02354210  1
  O2-  O547  1  0.26154689  0.62191590  0.27079378  1
  O2-  O548  1  0.33440704  0.66299407  0.68926795  1
  O2-  O549  1  0.33269008  0.90553630  0.01476438  1
  O2-  O550  1  0.35555117  0.87504441  0.35292620  1
  O2-  O551  1  0.36308325  0.91832505  0.69300059  1
  O2-  O552  1  0.57942986  0.15872849  0.02735128  1
  O2-  O553  1  0.59709157  0.18897385  0.34109877  1
  O2-  O554  1  0.49203343  0.19565025  0.67640477  1
  O2-  O555  1  0.59816943  0.42572779  0.00337891  1
  O2-  O556  1  0.58020288  0.41483413  0.34244165  1
  O2-  O557  1  0.57673100  0.43059967  0.70163260  1
  O2-  O558  1  0.61464255  0.67210217  0.00148464  1
  O2-  O559  1  0.54881570  0.63331370  0.34566630  1
  O2-  O560  1  0.58284978  0.67074375  0.69322187  1
  O2-  O561  1  0.57344445  0.91701240  0.02049410  1
  O2-  O562  1  0.55197423  0.84372843  0.34655038  1
  O2-  O563  1  0.59743605  0.92709887  0.67637355  1
  O2-  O564  1  0.82374758  0.16127859  0.02378683  1
  O2-  O565  1  0.82749162  0.15936987  0.35887619  1
  O2-  O566  1  0.83390724  0.17263077  0.67379321  1
  O2-  O567  1  0.90213648  0.43697358  0.03143526  1
  O2-  O568  1  0.84005041  0.41540395  0.34314816  1
  O2-  O569  1  0.81493011  0.41329276  0.69663451  1
  O2-  O570  1  0.83652289  0.67026375  0.02186120  1
  O2-  O571  1  0.80233562  0.61546734  0.36633808  1
  O2-  O572  1  0.83352454  0.67375320  0.70893046  1
  O2-  O573  1  0.82547835  0.91231098  0.02813455  1
  O2-  O574  1  0.82477529  0.91865937  0.34844104  1
  O2-  O575  1  0.83288466  0.92574988  0.69849450  1
