# generated using pymatgen
data_H2O
_symmetry_space_group_name_H-M   'P 1'
_cell_length_a   17.99623285
_cell_length_b   17.99107026
_cell_length_c   21.99942464
_cell_angle_alpha   89.98157728
_cell_angle_beta   90.02417472
_cell_angle_gamma   120.04020283
_symmetry_Int_Tables_number   1
_chemical_formula_structural   H2O
_chemical_formula_sum   'H384 O192'
_cell_volume   6166.01299657
_cell_formula_units_Z   192
loop_
 _symmetry_equiv_pos_site_id
 _symmetry_equiv_pos_as_xyz
  1  'x, y, z'
loop_
 _atom_type_symbol
 _atom_type_oxidation_number
  H+  1.0
  O2-  -2.0
loop_
 _atom_site_type_symbol
 _atom_site_label
 _atom_site_symmetry_multiplicity
 _atom_site_fract_x
 _atom_site_fract_y
 _atom_site_fract_z
 _atom_site_occupancy
  H+  H0  1  0.14163684  0.37684648  0.85604592  1
  H+  H1  1  0.88919446  0.15489242  0.35222846  1
  H+  H2  1  0.61007685  0.47431532  0.49039526  1
  H+  H3  1  0.14335467  0.77427455  0.32652865  1
  H+  H4  1  0.87867054  0.51409139  0.66254078  1
  H+  H5  1  -0.02921180  0.61231734  0.66503649  1
  H+  H6  1  0.12624322  0.12765905  0.66262455  1
  H+  H7  1  0.87903073  0.38938334  1.01986121  1
  H+  H8  1  0.72561492  0.35211504  0.17858111  1
  H+  H9  1  0.22686275  0.60438098  0.50645790  1
  H+  H10  1  0.86096214  0.63336528  0.33317865  1
  H+  H11  1  0.85760960  0.63687904  0.48868753  1
  H+  H12  1  0.14158272  0.36812832  0.49768484  1
  H+  H13  1  0.60421101  0.07666888  0.83112251  1
  H+  H14  1  0.52165141  0.89053594  0.83941296  1
  H+  H15  1  0.72440130  0.60920257  0.49884437  1
  H+  H16  1  0.62237111  0.76887787  0.32696752  1
  H+  H17  1  0.21959852  0.10431043  0.99691441  1
  H+  H18  1  0.63576637  0.02676324  0.32643204  1
  H+  H19  1  0.62767942  0.99546287  0.67364078  1
  H+  H20  1  1.03276218  0.21942996  0.31469643  1
  H+  H21  1  0.88840226  0.36779976  0.31538413  1
  H+  H22  1  0.27030138  0.64259020  0.03088521  1
  H+  H23  1  0.12727876  0.35582682  0.32747302  1
  H+  H24  1  0.22576953  0.35047257  0.65331636  1
  H+  H25  1  0.36569212  0.71896170  0.49347713  1
  H+  H26  1  0.35428128  0.47157850  1.01617139  1
  H+  H27  1  0.89703055  0.30751249  0.59258459  1
  H+  H28  1  0.10457026  0.46060763  0.02461377  1
  H+  H29  1  0.53268414  0.39171733  0.33655188  1
  H+  H30  1  0.99162176  0.88101607  0.84009100  1
  H+  H31  1  0.13539970  0.76926135  0.98684570  1
  H+  H32  1  0.40219324  0.35855802  0.17242764  1
  H+  H33  1  0.64049260  0.52304811  0.32591947  1
  H+  H34  1  -0.11321588  0.85838111  0.66142754  1
  H+  H35  1  0.56023663  0.60953230  -0.00511481  1
  H+  H36  1  0.94441647  0.92250249  0.87427538  1
  H+  H37  1  0.97856213  0.61798438  0.32666759  1
  H+  H38  1  -0.00009104  0.85891775  -0.00664761  1
  H+  H39  1  0.01746098  0.86615235  0.34199186  1
  H+  H40  1  0.19012848  0.34785796  0.16192233  1
  H+  H41  1  0.07924827  0.90396873  0.06118859  1
  H+  H42  1  0.36473804  0.20942111  0.17053629  1
  H+  H43  1  0.97532393  0.12687368  0.28827161  1
  H+  H44  1  0.38182335  0.51728003  0.32393446  1
  H+  H45  1  0.01193620  0.36435430  0.65100225  1
  H+  H46  1  0.63700512  0.12858968  0.65788040  1
  H+  H47  1  0.22827305  0.86276566  0.82985015  1
  H+  H48  1  0.69783839  0.88452061  0.15682393  1
  H+  H49  1  0.65190606  0.74092987  0.15394210  1
  H+  H50  1  0.72831106  0.85541937  0.49267534  1
  H+  H51  1  0.13850737  0.61730734  1.00928964  1
  H+  H52  1  0.66983630  0.61396341  0.99670554  1
  H+  H53  1  0.22645627  0.60997092  0.32572622  1
  H+  H54  1  0.35817965  0.64253758  0.02327165  1
  H+  H55  1  0.30568894  0.90193670  0.65129079  1
  H+  H56  1  0.45811783  0.10085037  0.20814775  1
  H+  H57  1  0.62273638  0.14095017  0.33706682  1
  H+  H58  1  0.35585969  0.21971483  0.01086042  1
  H+  H59  1  0.24150752  0.36635061  0.49595651  1
  H+  H60  1  0.37995300  0.77619287  0.00777307  1
  H+  H61  1  0.10845086  0.87755929  0.15193598  1
  H+  H62  1  0.89964614  0.15142748  0.80244630  1
  H+  H63  1  0.46372486  0.62460177  1.00933567  1
  H+  H64  1  0.90162975  0.75628620  0.99154433  1
  H+  H65  1  0.47466454  0.10318765  0.98836244  1
  H+  H66  1  0.43034989  0.10250402  0.90090733  1
  H+  H67  1  0.61117366  0.38555039  0.49042309  1
  H+  H68  1  0.39324929  0.86379192  0.33450494  1
  H+  H69  1  0.88328313  0.28050681  0.33559453  1
  H+  H70  1  -0.02778817  0.61756003  0.83593720  1
  H+  H71  1  0.11081912  0.73611779  0.81758649  1
  H+  H72  1  0.65772531  0.32438324  0.23235399  1
  H+  H73  1  0.15681995  0.22666092  0.33925135  1
  H+  H74  1  0.01771357  0.14316979  0.80526240  1
  H+  H75  1  0.00749466  0.40715487  0.79822676  1
  H+  H76  1  0.38103732  1.02275717  -0.02445146  1
  H+  H77  1  0.52155806  0.38901221  0.82189192  1
  H+  H78  1  0.18745293  0.59047688  0.15069094  1
  H+  H79  1  0.90332997  0.52092139  -0.00229151  1
  H+  H80  1  0.33800965  0.91992597  0.39940600  1
  H+  H81  1  0.61671131  0.71468614  -0.00041237  1
  H+  H82  1  0.85704321  0.94719465  0.31990792  1
  H+  H83  1  0.64790835  1.03112875  0.50604843  1
  H+  H84  1  0.08522739  0.66736045  0.39800962  1
  H+  H85  1  0.36789897  0.23617416  0.82676624  1
  H+  H86  1  0.61433161  0.17444623  0.81448827  1
  H+  H87  1  0.87773740  0.77139121  0.16936887  1
  H+  H88  1  0.11420361  0.63413496  0.49243714  1
  H+  H89  1  0.87497518  0.89592322  0.48498114  1
  H+  H90  1  0.59273581  0.21365192  0.17134883  1
  H+  H91  1  0.98035030  0.61787900  0.50372855  1
  H+  H92  1  0.36357518  0.13580581  0.48266198  1
  H+  H93  1  0.64757496  0.61398064  0.17197607  1
  H+  H94  1  0.64367147  0.61186716  0.65778728  1
  H+  H95  1  0.27886956  0.88361048  0.49425356  1
  H+  H96  1  0.49632319  0.86635340  0.65967663  1
  H+  H97  1  0.63763362  0.27527095  0.50187992  1
  H+  H98  1  0.14947248  1.02056805  0.65123780  1
  H+  H99  1  0.58371552  0.66075983  0.39605386  1
  H+  H100  1  0.38569888  0.77895148  0.85750407  1
  H+  H101  1  0.26488941  0.34332768  0.81922346  1
  H+  H102  1  0.47445038  0.35709619  0.49182216  1
  H+  H103  1  0.86817760  0.06950278  0.53512851  1
  H+  H104  1  0.23469410  0.10819524  0.84494628  1
  H+  H105  1  0.61311831  0.71747313  0.66578922  1
  H+  H106  1  0.77518629  0.63477176  0.15560943  1
  H+  H107  1  0.00257522  0.37509913  0.16258285  1
  H+  H108  1  0.86496055  0.48104935  0.30980015  1
  H+  H109  1  0.61227589  0.13625262  0.48974779  1
  H+  H110  1  0.48888519  0.35646159  0.17337973  1
  H+  H111  1  -0.00814708  0.89173413  0.50730255  1
  H+  H112  1  0.83958539  0.85278902  0.81715256  1
  H+  H113  1  0.51873409  0.87846320  1.01465667  1
  H+  H114  1  0.13026300  0.10432052  0.99454349  1
  H+  H115  1  0.61569905  0.89281622  0.33979648  1
  H+  H116  1  0.71207318  0.06938710  0.90635800  1
  H+  H117  1  0.14538932  0.54965653  0.68031039  1
  H+  H118  1  0.23437543  0.11300820  0.49862906  1
  H+  H119  1  0.38095471  0.86559126  1.00089665  1
  H+  H120  1  0.13441023  0.62588834  0.65965304  1
  H+  H121  1  0.64276543  0.35760086  0.99181178  1
  H+  H122  1  0.78157252  0.88345038  0.06983969  1
  H+  H123  1  0.02561120  0.89130492  0.66963533  1
  H+  H124  1  0.62080132  0.38418319  0.15928596  1
  H+  H125  1  0.76313288  0.13545049  0.16001667  1
  H+  H126  1  0.60064423  0.86621555  1.00805668  1
  H+  H127  1  0.36116382  0.46680806  0.48708192  1
  H+  H128  1  0.12522618  -0.02736995  0.49107182  1
  H+  H129  1  0.02897006  0.63509729  0.00512248  1
  H+  H130  1  0.86398129  0.22834106  0.01123123  1
  H+  H131  1  0.52389763  0.63079547  0.48834209  1
  H+  H132  1  -0.01166007  0.36245437  0.01098857  1
  H+  H133  1  0.89025163  0.77197013  0.65911460  1
  H+  H134  1  0.79517026  0.39823045  1.01606099  1
  H+  H135  1  0.86494224  0.63781198  0.15765281  1
  H+  H136  1  0.38267519  0.34892134  0.63137928  1
  H+  H137  1  0.35888745  0.37452436  0.48516368  1
  H+  H138  1  0.52471167  0.38387207  0.66099103  1
  H+  H139  1  0.72509031  0.36729419  0.49971341  1
  H+  H140  1  0.38426158  0.26388333  0.48970115  1
  H+  H141  1  0.28558623  0.15990300  0.33527172  1
  H+  H142  1  0.22919758  0.86686195  0.32529015  1
  H+  H143  1  0.76904392  0.63174327  0.33167049  1
  H+  H144  1  0.42970428  0.33500345  0.26647561  1
  H+  H145  1  0.96046264  0.30208577  0.50095750  1
  H+  H146  1  0.61383964  0.63255949  0.49033120  1
  H+  H147  1  0.19575311  0.84190933  0.69295680  1
  H+  H148  1  0.36879649  0.51351376  0.85926518  1
  H+  H149  1  0.83511396  0.95538349  0.02152898  1
  H+  H150  1  0.36296498  0.88773430  0.82669707  1
  H+  H151  1  0.39479448  0.36445611  0.32303990  1
  H+  H152  1  0.39565619  0.13578922  0.83722437  1
  H+  H153  1  0.62176714  0.84984015  0.83876977  1
  H+  H154  1  0.83054052  0.16521403  0.73123085  1
  H+  H155  1  0.28070230  0.64354283  0.65677857  1
  H+  H156  1  0.72955894  0.12875222  0.50865239  1
  H+  H157  1  0.09996207  0.63298347  0.16131265  1
  H+  H158  1  0.52848953  0.89503215  0.34535165  1
  H+  H159  1  0.38608593  0.02483253  0.30111957  1
  H+  H160  1  0.17494257  0.33087791  0.55853750  1
  H+  H161  1  0.31368444  0.40131115  0.19171522  1
  H+  H162  1  0.62230811  0.26685232  0.82045248  1
  H+  H163  1  0.87937788  0.35856122  0.64775219  1
  H+  H164  1  0.57792371  0.41293329  0.06863251  1
  H+  H165  1  0.76950773  0.62641471  0.66502710  1
  H+  H166  1  0.86096612  0.36991880  0.17367012  1
  H+  H167  1  0.12969410  0.86535065  0.66512222  1
  H+  H168  1  0.10556694  0.20539857  0.48351091  1
  H+  H169  1  0.75736992  0.13958686  0.67041133  1
  H+  H170  1  0.87141765  0.60973809  0.66600444  1
  H+  H171  1  0.11081847  0.52779518  0.81925985  1
  H+  H172  1  0.36675815  0.09197454  0.20398074  1
  H+  H173  1  0.82395567  0.17364033  0.09977141  1
  H+  H174  1  0.16723756  0.83410449  0.23141269  1
  H+  H175  1  0.11885266  0.72553245  0.49479902  1
  H+  H176  1  0.48157908  0.59909714  0.65291636  1
  H+  H177  1  0.86844801  0.66604467  0.76725296  1
  H+  H178  1  0.71104955  0.85241455  0.31716340  1
  H+  H179  1  0.65992484  0.94246070  0.71078039  1
  H+  H180  1  0.36978204  0.13431163  0.65973332  1
  H+  H181  1  0.79153156  0.63169872  0.00102269  1
  H+  H182  1  0.62904710  0.08674739  0.80154628  1
  H+  H183  1  0.39034107  0.02185126  0.49921420  1
  H+  H184  1  0.67890231  0.00887712  0.84953342  1
  H+  H185  1  0.63870863  0.85464896  0.64194932  1
  H+  H186  1  0.26638314  0.37495001  0.33140953  1
  H+  H187  1  0.64457636  0.37331894  0.65269361  1
  H+  H188  1  0.59931737  0.10327465  1.01200948  1
  H+  H189  1  0.39233668  0.59734824  0.64564822  1
  H+  H190  1  0.11302051  0.63572507  0.33883624  1
  H+  H191  1  0.88742372  0.52192255  0.17971273  1
  H+  H192  1  0.36881406  0.97842504  0.19300016  1
  H+  H193  1  0.77681807  0.39160461  0.66594694  1
  H+  H194  1  0.72533436  0.11439228  0.32508721  1
  H+  H195  1  0.02171528  0.12894165  0.51110607  1
  H+  H196  1  0.63712949  0.00784084  0.99878116  1
  H+  H197  1  0.59336819  0.71347329  0.82206819  1
  H+  H198  1  0.64130942  0.52204203  0.65597443  1
  H+  H199  1  0.63752255  0.61142659  0.32495861  1
  H+  H200  1  0.13821039  0.06272301  0.25519775  1
  H+  H201  1  0.48534761  0.13123356  0.65356673  1
  H+  H202  1  0.11853196  0.89135437  0.81967635  1
  H+  H203  1  0.41671759  0.56635701  0.55703602  1
  H+  H204  1  0.65292650  1.01793579  0.17053559  1
  H+  H205  1  0.10281726  0.21482122  0.00719318  1
  H+  H206  1  0.63033526  0.61120122  0.84541116  1
  H+  H207  1  0.12130703  0.98217801  0.82311142  1
  H+  H208  1  1.00322540  0.33172766  0.86752023  1
  H+  H209  1  0.63714763  0.76841473  0.49626770  1
  H+  H210  1  0.38425537  0.60127373  0.50140850  1
  H+  H211  1  0.60705620  0.47100873  0.00874409  1
  H+  H212  1  0.38612814  0.36418156  0.84389119  1
  H+  H213  1  0.10824879  0.50314126  0.17122482  1
  H+  H214  1  0.55446272  0.88877548  0.17069598  1
  H+  H215  1  0.10805570  0.35702792  0.17316219  1
  H+  H216  1  0.26660069  0.12460487  0.65470025  1
  H+  H217  1  0.62086972  0.24426590  0.66108266  1
  H+  H218  1  0.52133425  0.62814353  0.33848050  1
  H+  H219  1  0.77482358  0.88438324  0.66262462  1
  H+  H220  1  0.85761917  0.39840513  0.47305536  1
  H+  H221  1  0.10391707  0.97820086  0.28941627  1
  H+  H222  1  0.13977394  0.10345523  0.50625061  1
  H+  H223  1  0.86656796  0.25479604  0.17097372  1
  H+  H224  1  0.11479884  0.46449787  0.49593743  1
  H+  H225  1  0.89892239  0.06417020  1.07023554  1
  H+  H226  1  0.18677452  0.18615373  0.81885077  1
  H+  H227  1  0.91036881  0.27649598  0.83900676  1
  H+  H228  1  0.61525633  0.39924891  0.81814154  1
  H+  H229  1  0.60098053  0.18875992  0.02969081  1
  H+  H230  1  0.36194897  0.38687361  0.70928935  1
  H+  H231  1  0.40209995  0.03613320  0.65556809  1
  H+  H232  1  0.11468308  0.47467380  0.34308670  1
  H+  H233  1  0.50825030  0.62274668  0.82317450  1
  H+  H234  1  0.63219791  0.52541309  0.83984447  1
  H+  H235  1  0.87369237  0.74775316  0.31723440  1
  H+  H236  1  0.26166397  0.88412480  0.98831129  1
  H+  H237  1  0.94708689  0.06823550  0.87190076  1
  H+  H238  1  0.83633326  0.93608625  0.82599708  1
  H+  H239  1  1.02388545  0.38763904  0.34479498  1
  H+  H240  1  0.74028852  0.38705114  0.82973502  1
  H+  H241  1  0.52215448  0.13472916  0.48558085  1
  H+  H242  1  1.02996246  0.17328384  0.83222387  1
  H+  H243  1  0.85920756  0.13641873  1.02059575  1
  H+  H244  1  0.85004730  0.20252400  0.44577254  1
  H+  H245  1  0.09332110  0.72215697  0.66927445  1
  H+  H246  1  0.58593178  0.19211661  0.72301549  1
  H+  H247  1  0.09874295  0.44052564  0.62803165  1
  H+  H248  1  0.39003751  0.89912613  0.66447095  1
  H+  H249  1  0.10995370  0.87577999  0.34094857  1
  H+  H250  1  0.07987580  0.15615696  0.06652793  1
  H+  H251  1  0.70450717  0.83804508  0.83470762  1
  H+  H252  1  0.23061471  0.86206626  0.17561542  1
  H+  H253  1  0.10924952  0.97043973  0.00154995  1
  H+  H254  1  0.71154440  0.44552482  0.97167414  1
  H+  H255  1  0.37094857  0.60282856  0.85788067  1
  H+  H256  1  0.13381182  0.34378852  0.64690067  1
  H+  H257  1  0.11871461  0.35583976  0.01274641  1
  H+  H258  1  0.80454691  0.12291938  0.82632431  1
  H+  H259  1  0.36291588  0.22373190  0.65184736  1
  H+  H260  1  0.85470896  0.23065799  0.66885859  1
  H+  H261  1  0.48558619  0.86510463  0.49916546  1
  H+  H262  1  0.10490173  0.64386028  0.81920531  1
  H+  H263  1  0.87692648  0.84244277  0.31684899  1
  H+  H264  1  0.46898962  0.35890109  0.99669539  1
  H+  H265  1  0.41409377  0.87609334  0.19125988  1
  H+  H266  1  0.08573270  0.90715628  0.43491125  1
  H+  H267  1  0.89466529  1.00907041  0.67308049  1
  H+  H268  1  0.36761757  0.46772190  0.67255551  1
  H+  H269  1  0.86755404  0.09200046  0.15719169  1
  H+  H270  1  0.00815330  0.11860951  0.14821674  1
  H+  H271  1  0.20833604  0.35581712  1.00042199  1
  H+  H272  1  0.63613047  0.36178696  0.33030552  1
  H+  H273  1  0.49555721  0.15167360  0.83697822  1
  H+  H274  1  0.91864867  0.57722021  0.89647358  1
  H+  H275  1  -0.10012733  0.60808132  -0.00637245  1
  H+  H276  1  0.87020168  0.39750170  0.82142959  1
  H+  H277  1  0.25088643  0.62875528  0.85445121  1
  H+  H278  1  0.37922375  0.35681256  0.99592701  1
  H+  H279  1  0.50597510  0.62638265  0.17720935  1
  H+  H280  1  0.11877546  0.21286346  0.65968201  1
  H+  H281  1  0.41698630  0.62579381  0.17644386  1
  H+  H282  1  0.62329256  0.89338568  0.48944181  1
  H+  H283  1  0.83314830  0.41845071  0.25385536  1
  H+  H284  1  0.80750816  0.08548483  0.38635432  1
  H+  H285  1  0.70768986  0.84439225  0.99216823  1
  H+  H286  1  0.40596716  0.77982065  0.65313114  1
  H+  H287  1  0.36173729  0.63263292  0.33972502  1
  H+  H288  1  0.08928908  0.21074983  0.15797993  1
  H+  H289  1  0.41022471  0.58696686  0.94768534  1
  H+  H290  1  0.38914152  0.48855801  0.16742117  1
  H+  H291  1  0.16627491  0.57823928  0.56491745  1
  H+  H292  1  0.87340007  0.48826777  0.82112391  1
  H+  H293  1  0.18075477  0.07879230  0.58728323  1
  H+  H294  1  0.33779829  0.17500478  0.76737657  1
  H+  H295  1  0.38057057  0.23198543  0.34198717  1
  H+  H296  1  0.31912163  0.42302065  0.77932797  1
  H+  H297  1  0.62081936  0.47405732  0.16111651  1
  H+  H298  1  0.66775413  0.09487336  0.59920179  1
  H+  H299  1  0.37637093  0.94088564  0.12993685  1
  H+  H300  1  0.33323180  0.16630043  0.42236296  1
  H+  H301  1  0.41787468  0.84254410  0.91250057  1
  H+  H302  1  0.59007946  0.16982177  0.40150169  1
  H+  H303  1  0.82065157  0.89945383  0.72841611  1
  H+  H304  1  0.36362835  0.72266937  0.34394769  1
  H+  H305  1  0.84475648  0.66465180  0.06389378  1
  H+  H306  1  0.43089650  0.83586491  0.27900326  1
  H+  H307  1  0.66739707  0.58073986  0.55964448  1
  H+  H308  1  0.85699195  0.96951385  0.46303528  1
  H+  H309  1  0.02509889  0.88742504  0.15265841  1
  H+  H310  1  0.08717164  0.92511332  0.72872621  1
  H+  H311  1  0.62454327  0.23846346  0.33922147  1
  H+  H312  1  0.91954353  0.16946382  0.54384471  1
  H+  H313  1  0.85874438  -0.00413552  0.16277383  1
  H+  H314  1  0.31200472  0.66757376  0.80004691  1
  H+  H315  1  0.32846091  0.40980368  0.07258474  1
  H+  H316  1  0.33150248  0.65887489  0.43499102  1
  H+  H317  1  0.17081023  0.83211342  0.56695995  1
  H+  H318  1  0.59726225  0.91075021  0.10514429  1
  H+  H319  1  0.90597740  0.31264219  0.23120501  1
  H+  H320  1  0.67298967  0.82551673  0.58584606  1
  H+  H321  1  0.16355033  0.57755767  0.26754549  1
  H+  H322  1  0.82627194  0.66370566  0.42998637  1
  H+  H323  1  0.43137819  0.83715811  0.55977873  1
  H+  H324  1  -0.00062739  0.10253829  0.67377823  1
  H+  H325  1  0.60456722  0.67227687  0.10198995  1
  H+  H326  1  0.42424388  0.58300899  0.26845059  1
  H+  H327  1  0.30927600  0.65213828  0.18453043  1
  H+  H328  1  0.06936093  0.66575922  0.73011430  1
  H+  H329  1  0.72574500  0.36251621  0.31637261  1
  H+  H330  1  0.96610889  0.10016622  1.01682748  1
  H+  H331  1  0.36864766  0.88438292  0.49140954  1
  H+  H332  1  0.34682974  0.67690545  0.11624856  1
  H+  H333  1  0.86547136  0.85596121  0.18364635  1
  H+  H334  1  0.14771169  0.32300589  0.26436942  1
  H+  H335  1  0.91813300  0.58834531  0.56135873  1
  H+  H336  1  0.92765225  0.86071291  0.56400169  1
  H+  H337  1  0.87104934  0.02100498  0.91774060  1
  H+  H338  1  0.41582527  0.78851920  0.18646137  1
  H+  H339  1  0.06633240  0.43122319  0.73923150  1
  H+  H340  1  0.14149528  0.86097725  0.50703996  1
  H+  H341  1  0.08760575  0.40869284  0.43439682  1
  H+  H342  1  0.57722616  0.41494207  0.72422527  1
  H+  H343  1  0.16569585  0.83169546  0.88860766  1
  H+  H344  1  0.72102635  0.10265027  1.00225372  1
  H+  H345  1  0.67346097  0.58110795  0.23128461  1
  H+  H346  1  0.34895130  0.65820892  0.70647510  1
  H+  H347  1  0.41612888  0.33254054  0.90194143  1
  H+  H348  1  0.11610386  0.33006043  0.92008201  1
  H+  H349  1  0.83936881  0.41904507  0.72544514  1
  H+  H350  1  0.66894081  0.08167395  0.22609226  1
  H+  H351  1  0.08396634  0.67245543  0.06674197  1
  H+  H352  1  0.59537444  0.92875139  0.43218019  1
  H+  H353  1  0.13306377  0.85742923  0.98445822  1
  H+  H354  1  0.35957079  0.13430905  0.00604850  1
  H+  H355  1  0.16514727  0.21519151  0.75783915  1
  H+  H356  1  0.92977195  0.33779454  0.94814120  1
  H+  H357  1  0.18130443  0.58429814  0.96054130  1
  H+  H358  1  0.83833634  0.41505261  0.12141029  1
  H+  H359  1  0.83217224  0.89810238  0.38400959  1
  H+  H360  1  0.42081173  0.08607208  0.55601718  1
  H+  H361  1  0.57371163  0.92160410  0.77720340  1
  H+  H362  1  0.57835798  0.65889441  0.72648079  1
  H+  H363  1  0.97330511  0.61378831  0.17111354  1
  H+  H364  1  0.67461215  0.34325548  0.59265855  1
  H+  H365  1  0.58998839  0.41948797  0.39706845  1
  H+  H366  1  0.11057505  0.72764533  0.16157242  1
  H+  H367  1  0.92251080  0.59490719  0.26500415  1
  H+  H368  1  0.16903002  0.08119890  0.90069362  1
  H+  H369  1  0.55063891  0.13453362  0.12667292  1
  H+  H370  1  0.93073389  0.82606982  0.93086355  1
  H+  H371  1  0.31128581  0.93022439  0.04753750  1
  H+  H372  1  0.64781644  0.81168415  0.93132021  1
  H+  H373  1  0.06635668  0.40462781  0.10074426  1
  H+  H374  1  0.09777855  0.55076164  0.88560802  1
  H+  H375  1  0.90592531  0.81721176  0.24777869  1
  H+  H376  1  0.32424344  0.40540822  0.39057087  1
  H+  H377  1  0.34056703  0.91428207  0.76312006  1
  H+  H378  1  0.67846172  0.57904439  0.93188685  1
  H+  H379  1  0.92489965  0.09019899  0.62219683  1
  H+  H380  1  0.85942144  0.48493435  0.48853616  1
  H+  H381  1  0.68523993  0.36530491  0.89120653  1
  H+  H382  1  0.33110626  0.14634478  0.11522712  1
  H+  H383  1  0.41627009  0.31832558  0.57628503  1
  O2-  O384  1  0.07036488  0.15452117  0.13907999  1
  O2-  O385  1  0.07452646  0.14317287  0.48895824  1
  O2-  O386  1  0.20610683  0.23631398  0.79172899  1
  O2-  O387  1  0.06433684  0.40890747  0.15062313  1
  O2-  O388  1  0.08977914  0.40412327  0.48034550  1
  O2-  O389  1  0.04801543  0.45604033  0.77174513  1
  O2-  O390  1  0.07523671  0.66768310  0.14490054  1
  O2-  O391  1  0.08536380  0.66570918  0.47828509  1
  O2-  O392  1  0.07685378  0.67477680  0.80214381  1
  O2-  O393  1  0.07185427  0.89228507  0.12692556  1
  O2-  O394  1  0.09118149  0.91044527  0.48059226  1
  O2-  O395  1  0.08827332  0.92249563  0.80565052  1
  O2-  O396  1  0.33406551  0.14784079  0.15983511  1
  O2-  O397  1  0.33246869  0.16593935  0.47010874  1
  O2-  O398  1  0.34284120  0.17465398  0.81183259  1
  O2-  O399  1  0.35196506  0.42586009  0.15692441  1
  O2-  O400  1  0.32623407  0.40479877  0.47337302  1
  O2-  O401  1  0.31339331  0.40402290  0.82182644  1
  O2-  O402  1  0.36226005  0.68064645  0.16098699  1
  O2-  O403  1  0.33244112  0.65757686  0.48069339  1
  O2-  O404  1  0.31318301  0.66001232  0.84383421  1
  O2-  O405  1  0.35123533  0.92126399  0.17000963  1
  O2-  O406  1  0.33840339  0.91518858  0.47749109  1
  O2-  O407  1  0.32852376  0.91010565  0.80698000  1
  O2-  O408  1  0.55111936  0.15139524  0.16897718  1
  O2-  O409  1  0.58404161  0.16664366  0.47159104  1
  O2-  O410  1  0.58494263  0.20609566  0.80325661  1
  O2-  O411  1  0.58972809  0.41413324  0.14479622  1
  O2-  O412  1  0.57962168  0.41391090  0.47413595  1
  O2-  O413  1  0.57833015  0.42097004  0.80121974  1
  O2-  O414  1  0.60917158  0.67928665  0.14676995  1
  O2-  O415  1  0.58468297  0.66421525  0.47472754  1
  O2-  O416  1  0.56599595  0.65392424  0.80467679  1
  O2-  O417  1  0.61064540  0.91470673  0.14945676  1
  O2-  O418  1  0.59615720  0.92813498  0.47816017  1
  O2-  O419  1  0.58029502  0.91485321  0.82083343  1
  O2-  O420  1  0.82537278  0.16940480  0.14511561  1
  O2-  O421  1  0.83564542  0.22405217  0.48370584  1
  O2-  O422  1  0.85383371  0.16541270  0.79839324  1
  O2-  O423  1  0.83553358  0.40908173  0.16628979  1
  O2-  O424  1  0.82300748  0.42601703  0.47139010  1
  O2-  O425  1  0.84283286  0.42713067  0.80265310  1
  O2-  O426  1  0.83590432  0.66794109  0.14001109  1
  O2-  O427  1  0.82169656  0.66093482  0.47477067  1
  O2-  O428  1  0.81188874  0.64429267  0.74804914  1
  O2-  O429  1  0.81053907  0.90215916  0.18522819  1
  O2-  O430  1  0.83278846  0.90763046  0.45963351  1
  O2-  O431  1  0.80757458  0.88102715  0.80284920  1
  O2-  O432  1  0.10422835  0.00033007  0.24864583  1
  O2-  O433  1  0.17652862  0.07893848  0.51941889  1
  O2-  O434  1  0.17313858  0.08262283  0.85506687  1
  O2-  O435  1  0.13916116  0.32525528  0.18739019  1
  O2-  O436  1  0.17611142  0.33657920  0.51236932  1
  O2-  O437  1  0.09346664  0.33180821  0.87832267  1
  O2-  O438  1  0.14368787  0.56800457  0.18230136  1
  O2-  O439  1  0.16536583  0.57143038  0.52039125  1
  O2-  O440  1  0.13855816  0.57402388  0.85197527  1
  O2-  O441  1  0.16872439  0.83152567  0.18597110  1
  O2-  O442  1  0.17273661  0.83069862  0.52236943  1
  O2-  O443  1  0.16602923  0.83446218  0.84323260  1
  O2-  O444  1  0.39775554  0.06441560  0.22350988  1
  O2-  O445  1  0.42132541  0.08408849  0.51110966  1
  O2-  O446  1  0.43459836  0.11321349  0.85310948  1
  O2-  O447  1  0.42874632  0.32674309  0.18963206  1
  O2-  O448  1  0.41303709  0.32546097  0.50638718  1
  O2-  O449  1  0.41705329  0.33365849  0.85601460  1
  O2-  O450  1  0.44446889  0.59236385  0.18993833  1
  O2-  O451  1  0.41344759  0.56777691  0.51188198  1
  O2-  O452  1  0.40397252  0.57474554  0.87052411  1
  O2-  O453  1  0.44720757  0.84746939  0.20350725  1
  O2-  O454  1  0.42544027  0.83232296  0.51495352  1
  O2-  O455  1  0.41893443  0.84079209  0.86685550  1
  O2-  O456  1  0.67362394  0.07905610  0.18176107  1
  O2-  O457  1  0.67049319  0.09045899  0.52369404  1
  O2-  O458  1  0.73186798  0.05545994  0.86816563  1
  O2-  O459  1  0.66303159  0.32581519  0.18734595  1
  O2-  O460  1  0.66554217  0.33500565  0.51778901  1
  O2-  O461  1  0.68013746  0.36035689  0.84602664  1
  O2-  O462  1  0.67475260  0.58006319  0.18569549  1
  O2-  O463  1  0.66267801  0.57832208  0.51466289  1
  O2-  O464  1  0.65905154  0.58091316  0.86176373  1
  O2-  O465  1  0.73192034  0.85611369  0.14712530  1
  O2-  O466  1  0.67014838  0.82949945  0.51135756  1
  O2-  O467  1  0.64586589  0.81307833  0.85231071  1
  O2-  O468  1  0.89440344  0.05766942  0.14569036  1
  O2-  O469  1  0.92051146  0.11519159  0.55361500  1
  O2-  O470  1  0.89691551  0.01303068  0.88050094  1
  O2-  O471  1  0.90145139  0.31615744  0.18722597  1
  O2-  O472  1  0.91199162  0.25532409  0.52427091  1
  O2-  O473  1  0.94981952  0.33405668  0.85566507  1
  O2-  O474  1  0.91373188  0.58423430  0.18875949  1
  O2-  O475  1  0.91872687  0.58780793  0.51676951  1
  O2-  O476  1  0.91348925  0.57847348  0.85145500  1
  O2-  O477  1  0.90366288  0.82820514  0.19082074  1
  O2-  O478  1  0.94035810  0.89110056  0.52476130  1
  O2-  O479  1  0.93711010  0.86639382  0.86292156  1
  O2-  O480  1  0.20411546  0.16685359  0.30153289  1
  O2-  O481  1  0.18379521  0.08109695  0.63504281  1
  O2-  O482  1  0.16034802  0.07317663  0.97921922  1
  O2-  O483  1  0.14697646  0.31739633  0.30978507  1
  O2-  O484  1  0.16917589  0.31857776  0.63232763  1
  O2-  O485  1  0.14666288  0.32505786  0.99017147  1
  O2-  O486  1  0.16474279  0.57848641  0.31252766  1
  O2-  O487  1  0.16801156  0.59628585  0.65054571  1
  O2-  O488  1  0.17189014  0.58578861  1.00396465  1
  O2-  O489  1  0.16939313  0.83393475  0.31009804  1
  O2-  O490  1  0.15981702  0.83096501  0.65696610  1
  O2-  O491  1  0.16343715  0.82786884  0.96774557  1
  O2-  O492  1  0.39762687  0.01450586  0.34389779  1
  O2-  O493  1  0.42337391  0.09607312  0.64054833  1
  O2-  O494  1  0.41926285  0.08505520  0.96555957  1
  O2-  O495  1  0.43267343  0.34127255  0.31192040  1
  O2-  O496  1  0.41299267  0.31738605  0.62337915  1
  O2-  O497  1  0.40928588  0.32729963  0.97945452  1
  O2-  O498  1  0.41486373  0.57958052  0.31331237  1
  O2-  O499  1  0.42059659  0.56330568  0.63765396  1
  O2-  O500  1  0.40574014  0.58797720  0.99332677  1
  O2-  O501  1  0.42301208  0.83124694  0.32441648  1
  O2-  O502  1  0.43806922  0.84200988  0.64274577  1
  O2-  O503  1  0.41194221  0.83489447  0.98948526  1
  O2-  O504  1  0.66528377  0.08877241  0.31185704  1
  O2-  O505  1  0.66857074  0.09774595  0.64527040  1
  O2-  O506  1  0.66288381  0.06806812  0.98317402  1
  O2-  O507  1  0.66173854  0.32647209  0.31424810  1
  O2-  O508  1  0.67740458  0.34492042  0.63870430  1
  O2-  O509  1  0.69816835  0.38560721  0.97002778  1
  O2-  O510  1  0.66982579  0.58307623  0.30921664  1
  O2-  O511  1  0.67511834  0.58310679  0.64199625  1
  O2-  O512  1  0.68925493  0.57685119  0.97751318  1
  O2-  O513  1  0.64893927  0.82977804  0.31387611  1
  O2-  O514  1  0.67211868  0.82672571  0.63210020  1
  O2-  O515  1  0.64606899  0.80799285  0.97661493  1
  O2-  O516  1  0.97508278  0.16793275  0.31698880  1
  O2-  O517  1  0.93298665  0.07470449  0.66544689  1
  O2-  O518  1  0.90244042  0.06995423  1.02424399  1
  O2-  O519  1  0.92065098  0.33549352  0.31591376  1
  O2-  O520  1  0.90324697  0.32018663  0.63691597  1
  O2-  O521  1  0.92432302  0.33417617  0.99261150  1
  O2-  O522  1  0.91840411  0.58893248  0.31046945  1
  O2-  O523  1  0.90755830  0.57860274  0.64990745  1
  O2-  O524  1  0.93034759  0.57859926  0.97734006  1
  O2-  O525  1  0.90698873  0.81148769  0.30035105  1
  O2-  O526  1  0.92149095  0.83296430  0.64668124  1
  O2-  O527  1  0.93405103  0.81879859  0.97630404  1
  O2-  O528  1  0.07754405  0.15362031  0.02009444  1
  O2-  O529  1  0.16369441  0.17761550  0.35195692  1
  O2-  O530  1  0.09471760  0.15559971  0.67986368  1
  O2-  O531  1  0.07222454  0.40076894  0.03827772  1
  O2-  O532  1  0.08450021  0.41465425  0.35963207  1
  O2-  O533  1  0.07538854  0.39512111  0.65870520  1
  O2-  O534  1  0.08938689  0.67050223  0.02140650  1
  O2-  O535  1  0.08418133  0.66783288  0.35260004  1
  O2-  O536  1  0.06523811  0.66111538  0.68366062  1
  O2-  O537  1  0.08141919  0.90765932  0.01343003  1
  O2-  O538  1  0.07536913  0.89945642  0.35936431  1
  O2-  O539  1  0.08748004  0.92295492  0.68288435  1
  O2-  O540  1  0.32618407  0.15851279  0.02419226  1
  O2-  O541  1  0.34101728  0.17206859  0.35486521  1
  O2-  O542  1  0.33364283  0.16339254  0.67127089  1
  O2-  O543  1  0.32573271  0.41024950  0.02771919  1
  O2-  O544  1  0.32661788  0.40882006  0.34556525  1
  O2-  O545  1  0.32784113  0.40850400  0.68959778  1
  O2-  O546  1  0.33291912  0.67520399  0.04253893  1
  O2-  O547  1  0.32985452  0.66064840  0.35608676  1
  O2-  O548  1  0.34344927  0.66603380  0.66317346  1
  O2-  O549  1  0.32209650  0.92123858  0.00547581  1
  O2-  O550  1  0.34019114  0.92135767  0.35347044  1
  O2-  O551  1  0.35786069  0.92939316  0.67600061  1
  O2-  O552  1  0.56265764  0.12684478  0.02877968  1
  O2-  O553  1  0.59548692  0.17476722  0.35461162  1
  O2-  O554  1  0.58761981  0.18390128  0.67835414  1
  O2-  O555  1  0.57208786  0.41092665  0.02312373  1
  O2-  O556  1  0.59398196  0.42010709  0.35152389  1
  O2-  O557  1  0.58301862  0.41565276  0.67859884  1
  O2-  O558  1  0.59897077  0.65714534  0.02093881  1
  O2-  O559  1  0.58311796  0.65983674  0.35057360  1
  O2-  O560  1  0.58248430  0.65736095  0.68094657  1
  O2-  O561  1  0.58007492  0.90340932  0.02651274  1
  O2-  O562  1  0.59113906  0.92914966  0.35589861  1
  O2-  O563  1  0.60891511  0.93680404  0.69062256  1
  O2-  O564  1  0.82649233  0.16760278  0.02533848  1
  O2-  O565  1  0.83648299  0.14608489  0.37499011  1
  O2-  O566  1  0.82153195  0.16858027  0.68476409  1
  O2-  O567  1  0.85204668  0.42346067  0.03567236  1
  O2-  O568  1  0.83310543  0.41816076  0.29850453  1
  O2-  O569  1  0.83899139  0.42014659  0.67958866  1
  O2-  O570  1  0.85142550  0.66404114  0.01829304  1
  O2-  O571  1  0.83083771  0.66517719  0.34591547  1
  O2-  O572  1  0.83214882  0.65565772  0.68217965  1
  O2-  O573  1  0.79719420  0.89243137  0.02622858  1
  O2-  O574  1  0.82820443  0.89033989  0.33848811  1
  O2-  O575  1  0.83216545  0.91247716  0.68362188  1
