# generated using pymatgen
data_H2O
_symmetry_space_group_name_H-M   'P 1'
_cell_length_a   17.98904555
_cell_length_b   17.98991514
_cell_length_c   22.01384030
_cell_angle_alpha   90.00727976
_cell_angle_beta   90.01935663
_cell_angle_gamma   120.02262552
_symmetry_Int_Tables_number   1
_chemical_formula_structural   H2O
_chemical_formula_sum   'H384 O192'
_cell_volume   6168.28695519
_cell_formula_units_Z   192
loop_
 _symmetry_equiv_pos_site_id
 _symmetry_equiv_pos_as_xyz
  1  'x, y, z'
loop_
 _atom_type_symbol
 _atom_type_oxidation_number
  H+  1.0
  O2-  -2.0
loop_
 _atom_site_type_symbol
 _atom_site_label
 _atom_site_symmetry_multiplicity
 _atom_site_fract_x
 _atom_site_fract_y
 _atom_site_fract_z
 _atom_site_occupancy
  H+  H0  1  0.67770220  1.00851696  0.81319410  1
  H+  H1  1  0.34459917  0.70988817  0.66532300  1
  H+  H2  1  0.77676452  0.39339317  0.34300739  1
  H+  H3  1  0.42688369  0.58180810  0.59674166  1
  H+  H4  1  0.78125364  0.38507708  0.16337181  1
  H+  H5  1  0.86190727  0.46840366  0.01216637  1
  H+  H6  1  0.60825778  0.39493780  0.34808462  1
  H+  H7  1  0.64312483  0.86245683  0.33429976  1
  H+  H8  1  0.38018856  0.52324405  0.83752663  1
  H+  H9  1  0.13293556  0.15409777  0.15967266  1
  H+  H10  1  0.63230445  0.47888787  0.00224431  1
  H+  H11  1  0.09712174  0.17307266  0.76247323  1
  H+  H12  1  0.83196604  0.16912722  0.39157510  1
  H+  H13  1  0.78031741  0.66007225  0.82489942  1
  H+  H14  1  0.11813310  0.47802062  0.01246090  1
  H+  H15  1  0.12572251  0.26362153  0.63958593  1
  H+  H16  1  0.36294535  0.22809257  0.34948047  1
  H+  H17  1  0.73188022  0.60982728  0.32195185  1
  H+  H18  1  0.77209409  0.13830133  0.33208017  1
  H+  H19  1  0.12344313  0.60942069  0.17387819  1
  H+  H20  1  0.42089997  0.92835935  0.32942652  1
  H+  H21  1  0.47225110  0.85867605  -0.00683020  1
  H+  H22  1  0.91833345  0.58584903  0.26601923  1
  H+  H23  1  0.25170756  0.60029310  0.84059113  1
  H+  H24  1  0.61431645  -0.00995361  0.67458261  1
  H+  H25  1  0.01846895  0.38746411  0.16427345  1
  H+  H26  1  0.52437712  0.38089721  0.13959965  1
  H+  H27  1  0.64000047  0.78547326  0.49689004  1
  H+  H28  1  0.35733011  0.62404723  0.84171309  1
  H+  H29  1  1.02332877  0.63744545  0.16249381  1
  H+  H30  1  0.86069002  0.61251570  0.85514539  1
  H+  H31  1  0.64715073  0.22324590  0.12601202  1
  H+  H32  1  0.36974796  0.60811679  0.35972452  1
  H+  H33  1  0.85797316  0.95938950  -0.00518726  1
  H+  H34  1  0.60603952  0.87795866  0.99930142  1
  H+  H35  1  0.14016311  0.61475512  -0.00562047  1
  H+  H36  1  0.86760137  0.65126584  0.49426135  1
  H+  H37  1  0.77809890  0.89080385  0.33548922  1
  H+  H38  1  0.51830882  0.97161808  0.45607618  1
  H+  H39  1  0.79683660  0.39864407  0.49429667  1
  H+  H40  1  0.90573633  0.10388578  0.17540676  1
  H+  H41  1  0.63073018  0.38601038  1.00092532  1
  H+  H42  1  0.47565160  0.35344640  0.22055340  1
  H+  H43  1  0.52202824  0.14062281  0.48687641  1
  H+  H44  1  0.36178199  0.43080655  0.50898556  1
  H+  H45  1  0.11488559  0.14626097  0.34782211  1
  H+  H46  1  0.64339814  0.53636892  0.64199185  1
  H+  H47  1  0.63840501  0.10437584  0.98167618  1
  H+  H48  1  0.13483015  0.27652302  0.33590714  1
  H+  H49  1  0.22263760  0.11780991  0.32942598  1
  H+  H50  1  0.14467535  0.11568921  0.50963023  1
  H+  H51  1  0.48879295  0.61568032  0.17546795  1
  H+  H52  1  0.86504290  0.37980585  0.01186118  1
  H+  H53  1  0.34847186  0.62430830  0.65721154  1
  H+  H54  1  0.36355385  0.72195257  0.49914393  1
  H+  H55  1  0.63634345  0.36303489  0.17310425  1
  H+  H56  1  0.89755080  0.11413916  0.49033256  1
  H+  H57  1  0.07684924  0.91720550  0.43411454  1
  H+  H58  1  0.63381761  0.28272831  0.32780710  1
  H+  H59  1  0.24154907  0.56897606  0.30504593  1
  H+  H60  1  0.63454047  0.51460415  0.17210135  1
  H+  H61  1  0.72616159  0.97681680  0.77065226  1
  H+  H62  1  0.81903717  0.30259903  0.54041803  1
  H+  H63  1  0.40078698  0.34277602  0.56459754  1
  H+  H64  1  0.35503669  0.39644438  0.80076672  1
  H+  H65  1  0.86215152  0.22419248  0.48860716  1
  H+  H66  1  0.38649978  0.09702860  0.50632203  1
  H+  H67  1  0.60995655  0.38915395  0.64814310  1
  H+  H68  1  0.36808091  0.14147566  0.82290285  1
  H+  H69  1  0.89031810  0.11735166  0.32842175  1
  H+  H70  1  0.11064923  0.88759995  0.49238943  1
  H+  H71  1  0.11175857  0.72509976  1.00607756  1
  H+  H72  1  0.08638969  0.66914806  0.10466985  1
  H+  H73  1  0.61131037  0.72028405  1.00428325  1
  H+  H74  1  0.32898466  0.70463034  0.84440339  1
  H+  H75  1  0.63454130  0.76891256  0.17518881  1
  H+  H76  1  0.23185243  0.12567883  0.00889155  1
  H+  H77  1  0.11533121  0.50426401  0.16717855  1
  H+  H78  1  0.57442805  0.42987269  0.40466874  1
  H+  H79  1  0.89591304  0.51906093  0.17349814  1
  H+  H80  1  0.47148714  0.86179112  0.66828018  1
  H+  H81  1  0.97230975  0.86925505  0.50923901  1
  H+  H82  1  0.68066467  0.58972162  0.93858054  1
  H+  H83  1  0.73325349  0.61267405  1.00243351  1
  H+  H84  1  0.23697396  0.46383736  0.22193809  1
  H+  H85  1  0.56114747  0.62506376  0.36009480  1
  H+  H86  1  0.27897626  0.14088062  0.83284443  1
  H+  H87  1  0.77525354  0.12667337  0.99713780  1
  H+  H88  1  0.25483923  0.09032652  0.48563908  1
  H+  H89  1  0.11636432  0.63398163  0.66007092  1
  H+  H90  1  0.15004886  1.03304821  0.17575500  1
  H+  H91  1  0.51410781  0.13913925  0.32403681  1
  H+  H92  1  0.33941268  0.56449292  0.37241058  1
  H+  H93  1  -0.00508544  0.88664897  0.81791310  1
  H+  H94  1  0.75681227  0.14178618  0.84406196  1
  H+  H95  1  0.21743671  0.59953039  0.64680817  1
  H+  H96  1  0.12955095  0.01885169  0.50739104  1
  H+  H97  1  0.10955002  0.38515850  0.34631995  1
  H+  H98  1  0.64769848  0.10398240  0.16099398  1
  H+  H99  1  0.47431691  0.37256345  0.64956025  1
  H+  H100  1  0.86651745  0.13395254  0.99300609  1
  H+  H101  1  0.61896053  0.24177899  0.65930716  1
  H+  H102  1  0.73146162  0.86839707  0.49457798  1
  H+  H103  1  0.62737189  0.72279391  0.36446256  1
  H+  H104  1  0.50413218  0.89600591  0.82640733  1
  H+  H105  1  0.88354535  0.85085599  0.98324510  1
  H+  H106  1  0.42299711  0.50584882  0.33009609  1
  H+  H107  1  0.57980231  0.65465264  0.76870607  1
  H+  H108  1  0.23112326  0.11246102  0.65715638  1
  H+  H109  1  0.99232783  0.52913102  0.86361159  1
  H+  H110  1  0.76667274  0.08704843  0.15056461  1
  H+  H111  1  0.13648407  0.77783510  0.50634746  1
  H+  H112  1  0.01862878  0.64836221  0.34429328  1
  H+  H113  1  0.37942750  0.72397247  0.13738786  1
  H+  H114  1  0.14373890  0.51178137  0.32332909  1
  H+  H115  1  0.67361991  0.27288796  0.50774547  1
  H+  H116  1  0.06591714  0.35961234  0.63693416  1
  H+  H117  1  0.64423983  0.60059254  0.55526302  1
  H+  H118  1  0.63172452  0.11157597  0.31660866  1
  H+  H119  1  0.89634460  0.53707860  0.50809636  1
  H+  H120  1  0.87461038  0.90095702  0.81818506  1
  H+  H121  1  0.02386828  0.63442178  0.00846880  1
  H+  H122  1  0.88940450  0.27320914  1.00034417  1
  H+  H123  1  0.40199018  0.52685870  0.17442840  1
  H+  H124  1  0.59799785  0.41447737  0.09013399  1
  H+  H125  1  0.79917977  0.38646773  0.66750635  1
  H+  H126  1  0.37410538  0.00906447  1.00720677  1
  H+  H127  1  0.27213982  0.90283416  0.82190739  1
  H+  H128  1  0.36641102  0.38574419  0.16906896  1
  H+  H129  1  0.27093702  0.63218510  0.98566989  1
  H+  H130  1  0.14319885  0.89896820  0.83075556  1
  H+  H131  1  0.41793391  0.92498508  0.36350109  1
  H+  H132  1  0.62937983  0.62496819  0.48745620  1
  H+  H133  1  0.14738479  0.28397841  0.99923571  1
  H+  H134  1  0.13552934  0.58163421  0.83668461  1
  H+  H135  1  0.02250495  0.39025205  0.34430220  1
  H+  H136  1  0.11897154  0.13888468  0.67077814  1
  H+  H137  1  0.92143145  0.86295800  0.23054161  1
  H+  H138  1  0.63400623  0.00987573  0.16805327  1
  H+  H139  1  0.98169750  0.04302734  0.96227850  1
  H+  H140  1  0.65103862  0.26677702  0.83757004  1
  H+  H141  1  0.89510132  1.04320824  0.67072552  1
  H+  H142  1  0.38216842  0.14534656  0.16539616  1
  H+  H143  1  0.12034008  0.62281674  0.49991840  1
  H+  H144  1  0.49934726  0.85302913  0.83397381  1
  H+  H145  1  0.37219383  0.11799839  0.31917093  1
  H+  H146  1  0.24041060  0.12019699  0.18111297  1
  H+  H147  1  0.61069462  0.97018807  0.33626935  1
  H+  H148  1  0.11808705  0.22777092  0.51782645  1
  H+  H149  1  0.10301807  0.36694882  0.83646270  1
  H+  H150  1  -0.01305360  0.11899604  0.83069091  1
  H+  H151  1  0.62268554  0.63478618  0.16104788  1
  H+  H152  1  0.24535408  0.91560842  0.36628390  1
  H+  H153  1  0.88668799  0.52901411  0.32629081  1
  H+  H154  1  0.86278476  0.94593747  0.15650607  1
  H+  H155  1  0.83320490  0.67469109  0.72762336  1
  H+  H156  1  0.65414846  0.53997728  0.84084743  1
  H+  H157  1  0.12217752  0.14253075  0.82523757  1
  H+  H158  1  0.14110320  0.87234114  -0.00153318  1
  H+  H159  1  0.14387323  0.27210751  0.84109754  1
  H+  H160  1  0.38072194  0.36529111  0.65539124  1
  H+  H161  1  0.37541105  0.23074540  0.02166475  1
  H+  H162  1  0.11983445  0.48505289  0.84691559  1
  H+  H163  1  0.25872452  0.38310697  0.65333000  1
  H+  H164  1  0.66425930  0.13574963  0.66533317  1
  H+  H165  1  0.27418009  0.88378717  0.51169697  1
  H+  H166  1  1.03041950  0.14260934  0.67805090  1
  H+  H167  1  0.11802229  0.98866357  0.01122825  1
  H+  H168  1  0.88253111  0.77962658  0.31753467  1
  H+  H169  1  0.38164284  0.85566928  1.00428775  1
  H+  H170  1  0.36771790  0.05739456  0.94976355  1
  H+  H171  1  0.38892268  0.52370065  0.00046216  1
  H+  H172  1  0.25285733  0.68243042  0.35218405  1
  H+  H173  1  0.61027327  -0.03119296  0.99734928  1
  H+  H174  1  0.12952992  0.88634294  0.66746823  1
  H+  H175  1  0.28451378  0.03684680  0.44219761  1
  H+  H176  1  0.18269520  0.71892685  0.82232811  1
  H+  H177  1  0.39744972  0.11884247  0.66277069  1
  H+  H178  1  0.00858628  0.56701882  0.88463464  1
  H+  H179  1  0.89653565  0.53175075  0.66178195  1
  H+  H180  1  0.12190693  0.39120439  1.01182198  1
  H+  H181  1  -0.01791884  0.10927379  0.50272684  1
  H+  H182  1  0.89330801  1.03239837  0.83152679  1
  H+  H183  1  0.44965747  0.09284909  0.87713084  1
  H+  H184  1  0.83236963  0.67427140  0.39253900  1
  H+  H185  1  0.47280722  0.36732669  0.34364605  1
  H+  H186  1  0.13970741  0.77849233  0.18040679  1
  H+  H187  1  0.23656498  0.37168504  -0.00333856  1
  H+  H188  1  0.57201042  0.93410509  0.42649289  1
  H+  H189  1  0.27077015  0.88185160  1.01442215  1
  H+  H190  1  0.38799836  0.85533971  0.17684185  1
  H+  H191  1  0.04503556  0.15315003  0.16449366  1
  H+  H192  1  0.34048032  0.99574682  0.36640871  1
  H+  H193  1  0.52025153  0.36415547  0.79943594  1
  H+  H194  1  0.36866658  -0.02396178  0.16285620  1
  H+  H195  1  0.73059409  0.62578967  0.64992739  1
  H+  H196  1  0.49944109  0.12046972  0.16017454  1
  H+  H197  1  0.86412525  0.73776807  0.49300407  1
  H+  H198  1  1.01349079  0.89390918  0.33726929  1
  H+  H199  1  0.73074109  0.35220423  0.99599253  1
  H+  H200  1  0.63281624  0.51593541  0.32589922  1
  H+  H201  1  0.02151423  0.64670664  0.49677249  1
  H+  H202  1  0.14862294  0.77426814  0.65691746  1
  H+  H203  1  0.38474168  0.64140177  0.14043642  1
  H+  H204  1  0.49956043  0.36896219  1.00629594  1
  H+  H205  1  0.89278509  0.02913995  0.33019432  1
  H+  H206  1  0.78078440  0.88791621  0.82845257  1
  H+  H207  1  0.60943483  0.62999470  0.67654320  1
  H+  H208  1  0.86690770  0.97907371  0.48106680  1
  H+  H209  1  0.87540673  0.78454117  0.65503369  1
  H+  H210  1  0.39477370  0.27165809  0.18914630  1
  H+  H211  1  0.52498515  0.63514602  0.83086804  1
  H+  H212  1  0.91118421  0.13970449  0.67862598  1
  H+  H213  1  1.02655415  0.14562221  0.35139724  1
  H+  H214  1  0.12751404  0.80646086  0.84040532  1
  H+  H215  1  0.60965593  0.21687356  -0.00673560  1
  H+  H216  1  0.89309108  0.39976539  0.66991305  1
  H+  H217  1  0.86572592  0.64592494  0.66990771  1
  H+  H218  1  0.14447145  0.13059651  1.00734407  1
  H+  H219  1  0.37808847  0.51756517  0.64966116  1
  H+  H220  1  0.36239582  0.13538362  0.02094088  1
  H+  H221  1  0.53005512  0.87103802  0.33700244  1
  H+  H222  1  0.78474510  0.12985295  0.48865018  1
  H+  H223  1  0.88684621  0.60507081  1.01318828  1
  H+  H224  1  0.50322186  0.39497525  0.48469382  1
  H+  H225  1  0.26726809  0.39166775  0.81988616  1
  H+  H226  1  0.35308552  0.29764558  0.50334064  1
  H+  H227  1  0.36834497  0.88804293  0.67515069  1
  H+  H228  1  0.64023643  0.88010998  0.64729166  1
  H+  H229  1  0.77085534  0.90650864  0.66494136  1
  H+  H230  1  0.65919613  0.86675064  0.83282915  1
  H+  H231  1  0.27328756  0.39455365  0.35607942  1
  H+  H232  1  0.57674807  0.28970027  0.60096009  1
  H+  H233  1  0.12489556  0.87387821  0.33047775  1
  H+  H234  1  0.61460393  0.63274026  1.00652244  1
  H+  H235  1  0.51744296  0.12760359  0.99394428  1
  H+  H236  1  0.71837206  0.85232354  0.98944256  1
  H+  H237  1  0.15599656  0.40297625  0.18385585  1
  H+  H238  1  1.03764744  0.15392227  1.01505417  1
  H+  H239  1  0.89656223  0.36354863  0.17235096  1
  H+  H240  1  0.66142378  0.12397358  0.82829635  1
  H+  H241  1  0.10579745  0.73830170  0.34772836  1
  H+  H242  1  0.16149610  0.57309965  0.23106930  1
  H+  H243  1  0.03422173  0.90706029  0.16412736  1
  H+  H244  1  0.54188327  0.14425244  0.67035560  1
  H+  H245  1  0.88893833  0.36680312  0.32539566  1
  H+  H246  1  0.88942979  0.83233634  0.16306047  1
  H+  H247  1  0.88260739  0.86961640  0.32253826  1
  H+  H248  1  0.64012333  0.02848413  0.51070563  1
  H+  H249  1  0.39629059  0.77144041  0.32940140  1
  H+  H250  1  0.92131047  0.29092036  0.66510989  1
  H+  H251  1  0.64033491  0.76847882  0.83607754  1
  H+  H252  1  0.63734219  0.61926082  0.84241166  1
  H+  H253  1  0.87464261  0.87330250  0.65470802  1
  H+  H254  1  0.00824778  0.35307584  0.82308461  1
  H+  H255  1  0.81095664  0.17895860  0.68849280  1
  H+  H256  1  0.84827817  0.69077013  0.17466673  1
  H+  H257  1  0.10302398  0.98414508  0.34011964  1
  H+  H258  1  0.47194879  0.86000237  0.51344586  1
  H+  H259  1  0.33954356  0.83579370  0.84450539  1
  H+  H260  1  0.86131677  0.64130557  0.33440810  1
  H+  H261  1  0.58214710  0.90921737  0.09542895  1
  H+  H262  1  0.98353590  0.62142282  0.66083372  1
  H+  H263  1  0.36658352  0.23157069  0.66862247  1
  H+  H264  1  0.27556550  0.89004819  0.16928617  1
  H+  H265  1  0.78589236  0.38922658  0.82608295  1
  H+  H266  1  0.13576209  0.41286179  0.50035662  1
  H+  H267  1  0.23796361  0.86546363  0.65886536  1
  H+  H268  1  0.38209248  0.27552042  0.81769400  1
  H+  H269  1  0.86354137  0.88835506  0.48629808  1
  H+  H270  1  0.58577948  0.48527089  0.48935426  1
  H+  H271  1  0.97708299  0.36187161  1.00378708  1
  H+  H272  1  0.35324379  0.38259785  0.36646867  1
  H+  H273  1  0.71607432  0.86315116  0.17220958  1
  H+  H274  1  0.88696773  0.27644869  0.32422888  1
  H+  H275  1  0.41284140  0.57500394  0.90195897  1
  H+  H276  1  0.60763915  0.87745595  0.15709427  1
  H+  H277  1  0.87268650  0.74514770  0.81829675  1
  H+  H278  1  0.14831377  0.03293245  0.86597322  1
  H+  H279  1  0.37429673  0.39346094  1.01555759  1
  H+  H280  1  0.86473894  0.71728333  0.03897481  1
  H+  H281  1  0.11804078  0.99988463  0.78774453  1
  H+  H282  1  0.63069327  0.27756585  0.19795165  1
  H+  H283  1  0.54260184  0.13836986  0.80733320  1
  H+  H284  1  0.37177752  0.98043940  0.67411157  1
  H+  H285  1  0.10270113  0.43129303  0.43631441  1
  H+  H286  1  1.03199468  0.89675781  1.00581499  1
  H+  H287  1  0.82459990  0.90975524  0.05721287  1
  H+  H288  1  0.32508653  0.14709297  0.39716729  1
  H+  H289  1  0.09178955  0.92536468  0.10502066  1
  H+  H290  1  0.12055255  0.51337150  0.64150544  1
  H+  H291  1  0.28606131  0.40159925  0.16866799  1
  H+  H292  1  0.33920697  0.41939329  0.07290465  1
  H+  H293  1  0.82405885  0.11416307  0.08998805  1
  H+  H294  1  0.33326770  0.91824516  0.76357107  1
  H+  H295  1  0.08121525  0.66262805  0.82859999  1
  H+  H296  1  0.16995833  0.08031731  0.59881615  1
  H+  H297  1  0.81223982  0.98984784  0.13061144  1
  H+  H298  1  0.10055014  0.18564079  0.44979346  1
  H+  H299  1  0.88470405  0.40667363  0.48817675  1
  H+  H300  1  0.67205693  0.35379488  0.27672976  1
  H+  H301  1  0.15331434  0.58817227  0.56283064  1
  H+  H302  1  0.66418849  0.82889343  0.27362402  1
  H+  H303  1  0.09685375  0.18301837  0.07717056  1
  H+  H304  1  0.47885764  0.61279416  -0.00307450  1
  H+  H305  1  0.84739305  0.43181913  0.76974091  1
  H+  H306  1  0.67562270  0.08020475  0.92429278  1
  H+  H307  1  0.92878175  0.33870228  0.23264422  1
  H+  H308  1  0.13990346  0.86750702  0.17818515  1
  H+  H309  1  0.43044423  0.32970753  0.95465467  1
  H+  H310  1  0.30918088  0.41581669  0.71662161  1
  H+  H311  1  0.73322845  0.59897062  0.17416539  1
  H+  H312  1  0.56883405  0.17109038  0.38456910  1
  H+  H313  1  0.34474794  0.17679210  0.11231273  1
  H+  H314  1  0.72401226  0.59345958  0.44275582  1
  H+  H315  1  0.89739740  0.77497823  0.95714127  1
  H+  H316  1  0.70262402  0.09529960  0.61860118  1
  H+  H317  1  0.37194890  0.64565524  0.47263624  1
  H+  H318  1  0.10343873  0.66990730  0.72249039  1
  H+  H319  1  0.51674135  0.62210474  0.67983887  1
  H+  H320  1  0.16843277  0.84684655  0.27740506  1
  H+  H321  1  0.12572995  0.97621503  0.66440697  1
  H+  H322  1  0.89941367  0.57633062  0.94794196  1
  H+  H323  1  0.45886282  0.56351887  0.27166010  1
  H+  H324  1  0.36863403  0.63203956  0.98712737  1
  H+  H325  1  0.84442142  0.42772681  0.39753151  1
  H+  H326  1  0.42012830  0.35778338  0.86028832  1
  H+  H327  1  0.09604480  0.92235638  0.73792426  1
  H+  H328  1  0.85500457  0.52111722  0.85390756  1
  H+  H329  1  0.33593512  0.17212545  0.72811335  1
  H+  H330  1  0.31300656  0.70191517  0.40988323  1
  H+  H331  1  0.16535488  0.09128307  0.26974089  1
  H+  H332  1  0.66837638  0.12137605  0.53612220  1
  H+  H333  1  0.83889922  0.91873700  0.39453460  1
  H+  H334  1  0.07792583  0.67549516  0.43360228  1
  H+  H335  1  0.08498700  0.42093626  0.10304632  1
  H+  H336  1  0.67545845  0.32588174  0.93379747  1
  H+  H337  1  0.43685004  0.80805625  0.26391546  1
  H+  H338  1  0.47744325  0.85888364  0.16869473  1
  H+  H339  1  0.66890521  0.57048372  0.25537465  1
  H+  H340  1  0.56536339  0.32392741  0.76230335  1
  H+  H341  1  0.32901314  0.90963413  0.07573222  1
  H+  H342  1  0.15898116  0.57100921  0.93603326  1
  H+  H343  1  0.36300083  0.80711553  0.90692543  1
  H+  H344  1  0.90867778  0.84345866  0.56738299  1
  H+  H345  1  0.60894027  0.17955351  0.75269818  1
  H+  H346  1  0.13482067  0.53021261  0.49831917  1
  H+  H347  1  0.68872379  0.31966046  0.57243513  1
  H+  H348  1  0.59234772  0.42864301  0.70758824  1
  H+  H349  1  0.42771883  0.08792022  0.60488852  1
  H+  H350  1  0.69176217  0.56081146  0.42158896  1
  H+  H351  1  0.94174108  0.09514467  0.23946255  1
  H+  H352  1  0.39283577  0.02387075  0.82661860  1
  H+  H353  1  0.91184724  0.32880813  0.56652996  1
  H+  H354  1  0.88346811  0.23199831  0.74454743  1
  H+  H355  1  0.89230976  0.16490818  0.84302352  1
  H+  H356  1  0.67559565  0.85185058  0.59067055  1
  H+  H357  1  0.66431873  0.07860506  0.26062450  1
  H+  H358  1  0.88192673  0.60025335  0.17379900  1
  H+  H359  1  0.60315130  0.13687056  0.46341472  1
  H+  H360  1  0.40022498  0.33551711  0.29263763  1
  H+  H361  1  0.17514259  0.33269951  0.90138023  1
  H+  H362  1  0.17131682  0.34652060  0.28026718  1
  H+  H363  1  0.83485642  0.40979259  0.10109280  1
  H+  H364  1  0.39948827  0.01893695  0.51777390  1
  H+  H365  1  0.44699091  0.09992716  0.22269709  1
  H+  H366  1  0.58915016  0.15437634  0.07839930  1
  H+  H367  1  0.82711138  0.92663866  0.72710102  1
  H+  H368  1  0.18006624  0.10377093  0.91635849  1
  H+  H369  1  0.17127445  0.84986248  0.93728985  1
  H+  H370  1  0.60086498  0.92809487  0.72747076  1
  H+  H371  1  0.36717451  0.72963442  0.98733949  1
  H+  H372  1  0.93514735  0.07724836  0.92074657  1
  H+  H373  1  0.59200534  0.66478337  0.10173881  1
  H+  H374  1  0.38207718  0.85410060  0.51726530  1
  H+  H375  1  0.64607341  0.35192892  0.84027404  1
  H+  H376  1  0.34988548  0.03642139  0.27793020  1
  H+  H377  1  0.16549849  0.83556921  0.56683724  1
  H+  H378  1  0.92202797  0.59258276  0.57006427  1
  H+  H379  1  0.82287276  0.64529373  0.09144792  1
  H+  H380  1  0.66074482  0.82335280  0.92990920  1
  H+  H381  1  0.41423405  0.82972879  0.60874521  1
  H+  H382  1  0.94351480  0.85942493  0.88123120  1
  H+  H383  1  0.32722943  0.92283432  0.45379412  1
  O2-  O384  1  0.10327338  0.18430403  0.14450413  1
  O2-  O385  1  0.09822471  0.17309650  0.49385769  1
  O2-  O386  1  0.09190769  0.17098805  0.80860452  1
  O2-  O387  1  0.08333622  0.42502837  0.14898780  1
  O2-  O388  1  0.11001312  0.44379227  0.48075964  1
  O2-  O389  1  0.07069396  0.39710191  0.82793044  1
  O2-  O390  1  0.08593628  0.66836356  0.14996066  1
  O2-  O391  1  0.08214439  0.67491568  0.48027724  1
  O2-  O392  1  0.13018394  0.67457641  0.80284758  1
  O2-  O393  1  0.09418418  0.92655682  0.15016506  1
  O2-  O394  1  0.08022775  0.91857490  0.47940493  1
  O2-  O395  1  0.09551575  0.93812897  0.79095296  1
  O2-  O396  1  0.34996782  0.17624233  0.15771067  1
  O2-  O397  1  0.30496146  0.09306427  0.46263552  1
  O2-  O398  1  0.33516085  0.17028325  0.81114223  1
  O2-  O399  1  0.34151184  0.41693899  0.14832008  1
  O2-  O400  1  0.35163875  0.48079693  0.50533342  1
  O2-  O401  1  0.32388293  0.42857644  0.79851566  1
  O2-  O402  1  0.36794583  0.67352793  0.11269995  1
  O2-  O403  1  0.33334164  0.66949466  0.47407539  1
  O2-  O404  1  0.31506743  0.64474569  0.82880787  1
  O2-  O405  1  0.33421648  0.91508861  0.15070350  1
  O2-  O406  1  0.33565374  0.91276160  0.49718285  1
  O2-  O407  1  0.33214637  0.92105218  0.80969289  1
  O2-  O408  1  0.60049530  0.16378253  0.12379942  1
  O2-  O409  1  0.57766422  0.17353491  0.46338123  1
  O2-  O410  1  0.60471843  0.17161872  0.79875749  1
  O2-  O411  1  0.58679551  0.40842513  0.13573217  1
  O2-  O412  1  0.56391591  0.42603181  0.47190862  1
  O2-  O413  1  0.57783218  0.37381726  0.78717393  1
  O2-  O414  1  0.59425914  0.66711291  0.14696254  1
  O2-  O415  1  0.46159802  0.62288453  0.48252187  1
  O2-  O416  1  0.58478549  0.66261401  0.81586481  1
  O2-  O417  1  0.58159058  0.91149813  0.14063332  1
  O2-  O418  1  0.55823490  0.95223711  0.46743857  1
  O2-  O419  1  0.67141335  0.95629463  0.79137998  1
  O2-  O420  1  0.81557285  0.08586817  0.13027710  1
  O2-  O421  1  0.84006813  0.16752535  0.46795147  1
  O2-  O422  1  0.86439073  0.20056911  0.84821879  1
  O2-  O423  1  0.84001181  0.41249924  0.14696934  1
  O2-  O424  1  0.85384543  0.43666342  0.47461184  1
  O2-  O425  1  0.84332129  0.43573993  0.81405750  1
  O2-  O426  1  0.81862334  0.63455227  0.15544395  1
  O2-  O427  1  0.84192560  0.68100877  0.47252185  1
  O2-  O428  1  0.83877871  0.68320650  0.80763266  1
  O2-  O429  1  0.81284890  0.93411135  0.13127338  1
  O2-  O430  1  0.83425856  0.91725645  0.46642092  1
  O2-  O431  1  0.83807412  0.92725597  0.80996221  1
  O2-  O432  1  0.17882147  0.09267132  0.19244784  1
  O2-  O433  1  0.16986364  0.07883636  0.52217328  1
  O2-  O434  1  0.17938991  0.09539466  0.87071222  1
  O2-  O435  1  0.20408499  0.40453044  0.20787090  1
  O2-  O436  1  0.14817576  0.31922344  0.55737634  1
  O2-  O437  1  0.17472728  0.33274606  0.85597717  1
  O2-  O438  1  0.14912047  0.57193973  0.18574696  1
  O2-  O439  1  0.15184574  0.59121160  0.51631817  1
  O2-  O440  1  0.15923212  0.55081850  0.85919055  1
  O2-  O441  1  0.17087727  0.83892195  0.19517196  1
  O2-  O442  1  0.16726983  0.83875481  0.52141422  1
  O2-  O443  1  0.16737228  0.86552491  0.85250251  1
  O2-  O444  1  0.44085581  0.09389339  0.17813191  1
  O2-  O445  1  0.42872217  0.08270777  0.52492732  1
  O2-  O446  1  0.42721111  0.08780396  0.83612300  1
  O2-  O447  1  0.41771462  0.33216359  0.20507151  1
  O2-  O448  1  0.39577543  0.35260612  0.52016624  1
  O2-  O449  1  0.41611137  0.34060933  0.81799411  1
  O2-  O450  1  0.42909659  0.58549674  0.19171827  1
  O2-  O451  1  0.44539988  0.55546467  0.51205147  1
  O2-  O452  1  0.41063494  0.58178222  0.85695319  1
  O2-  O453  1  0.41893913  0.82441601  0.18656089  1
  O2-  O454  1  0.41482939  0.82634725  0.53246993  1
  O2-  O455  1  0.32831946  0.78477446  0.86923430  1
  O2-  O456  1  0.67022105  0.07121715  0.18251815  1
  O2-  O457  1  0.68724449  0.07940759  0.53267210  1
  O2-  O458  1  0.69369968  0.09827498  0.84748818  1
  O2-  O459  1  0.66897410  0.33945681  0.19526606  1
  O2-  O460  1  0.71993883  0.31171702  0.53523542  1
  O2-  O461  1  0.67659522  0.32426040  0.85797784  1
  O2-  O462  1  0.66725527  0.57292587  0.18958367  1
  O2-  O463  1  0.60986278  0.57916674  0.51757628  1
  O2-  O464  1  0.67551163  0.59667632  0.85875624  1
  O2-  O465  1  0.65777020  0.82919059  0.19012255  1
  O2-  O466  1  0.67250434  0.84394222  0.51228227  1
  O2-  O467  1  0.67491079  0.82759032  0.85400381  1
  O2-  O468  1  0.94898067  0.09295708  0.19474263  1
  O2-  O469  1  0.91869908  0.07617505  0.50501262  1
  O2-  O470  1  0.92823197  0.09141079  0.84939923  1
  O2-  O471  1  0.93239682  0.33934425  0.18728337  1
  O2-  O472  1  0.87692079  0.31383336  0.52849014  1
  O2-  O473  1  0.90704651  0.26966596  0.80340535  1
  O2-  O474  1  0.92305642  0.57979982  0.18767389  1
  O2-  O475  1  0.92444142  0.59665741  0.52462128  1
  O2-  O476  1  0.85772310  0.56673364  0.88149256  1
  O2-  O477  1  0.93134115  0.88142969  0.18642269  1
  O2-  O478  1  0.91099971  0.84121161  0.52091713  1
  O2-  O479  1  0.93595909  0.85579137  0.83678893  1
  O2-  O480  1  0.16193905  0.08951444  0.31524991  1
  O2-  O481  1  0.16976318  0.07897332  0.64451620  1
  O2-  O482  1  0.17283131  0.09781041  0.99120817  1
  O2-  O483  1  0.16386542  0.33926760  0.32473993  1
  O2-  O484  1  0.14526517  0.32314467  0.62289921  1
  O2-  O485  1  0.17655021  0.34295848  0.98084727  1
  O2-  O486  1  0.18603598  0.56559448  0.30025759  1
  O2-  O487  1  0.15508611  0.57527587  0.63162557  1
  O2-  O488  1  0.17014962  0.58322767  0.98061894  1
  O2-  O489  1  0.16313970  0.84897935  0.32225422  1
  O2-  O490  1  0.17737296  0.83565490  0.64331251  1
  O2-  O491  1  0.16954602  0.84105130  0.98171960  1
  O2-  O492  1  0.39725506  0.08239597  0.30065413  1
  O2-  O493  1  0.42743477  0.08723330  0.65020327  1
  O2-  O494  1  0.39821988  0.06889393  0.98834880  1
  O2-  O495  1  0.40924588  0.32918331  0.33596374  1
  O2-  O496  1  0.41147235  0.33530164  0.64073594  1
  O2-  O497  1  0.43503268  0.33714707  0.99851800  1
  O2-  O498  1  0.47652494  0.54181699  0.30666615  1
  O2-  O499  1  0.41423795  0.57999980  0.64024569  1
  O2-  O500  1  0.41798640  0.58223863  0.98117775  1
  O2-  O501  1  0.45101230  0.79809030  0.30558285  1
  O2-  O502  1  0.41055014  0.83022502  0.65425244  1
  O2-  O503  1  0.40903654  0.82640952  0.98295238  1
  O2-  O504  1  0.66307043  0.08124360  0.30603786  1
  O2-  O505  1  0.69730417  0.10445960  0.66214165  1
  O2-  O506  1  0.67031244  0.07482936  0.96970391  1
  O2-  O507  1  0.66723903  0.34614587  0.32142263  1
  O2-  O508  1  0.62978871  0.31726926  0.62473200  1
  O2-  O509  1  0.67012543  0.32349077  0.97941056  1
  O2-  O510  1  0.67195776  0.57287166  0.30336208  1
  O2-  O511  1  0.67073709  0.59905793  0.63384703  1
  O2-  O512  1  0.67455979  0.58226721  0.98360074  1
  O2-  O513  1  0.67384219  0.83343000  0.31816538  1
  O2-  O514  1  0.67815186  0.85765064  0.63585241  1
  O2-  O515  1  0.65747024  0.82280863  0.97558085  1
  O2-  O516  1  0.92649901  0.09136597  0.31850876  1
  O2-  O517  1  0.93685117  0.10542198  0.66433421  1
  O2-  O518  1  0.94123515  0.06404296  0.96504046  1
  O2-  O519  1  0.92117417  0.33810836  0.31133937  1
  O2-  O520  1  0.95083084  0.35080383  0.63982235  1
  O2-  O521  1  0.91663611  0.33479072  0.99027338  1
  O2-  O522  1  0.91411665  0.58944383  0.31119248  1
  O2-  O523  1  0.92244907  0.59213823  0.64741666  1
  O2-  O524  1  0.91670791  0.57840958  0.99225322  1
  O2-  O525  1  0.91407480  0.84073849  0.30422326  1
  O2-  O526  1  0.90416696  0.84335404  0.63827572  1
  O2-  O527  1  0.92659210  0.83628814  0.96631613  1
  O2-  O528  1  0.09746940  0.18365484  0.02932138  1
  O2-  O529  1  0.08784255  0.17805405  0.36547676  1
  O2-  O530  1  0.09601385  0.17490954  0.68712311  1
  O2-  O531  1  0.09011325  0.41878391  0.02926558  1
  O2-  O532  1  0.08356096  0.42136281  0.35869849  1
  O2-  O533  1  0.04373164  0.39613044  0.65426920  1
  O2-  O534  1  0.08603264  0.66555014  0.02155838  1
  O2-  O535  1  0.07664096  0.67848374  0.36306383  1
  O2-  O536  1  0.09355857  0.67006994  0.67844133  1
  O2-  O537  1  0.09026812  0.92694067  0.02376038  1
  O2-  O538  1  0.07304821  0.92329265  0.35476774  1
  O2-  O539  1  0.09843455  0.91653694  0.68226359  1
  O2-  O540  1  0.33752915  0.17059576  0.03595207  1
  O2-  O541  1  0.33028964  0.16327261  0.35299056  1
  O2-  O542  1  0.33933492  0.17065392  0.68328659  1
  O2-  O543  1  0.34134430  0.42171932  0.02715660  1
  O2-  O544  1  0.33305554  0.42402367  0.37099576  1
  O2-  O545  1  0.31657079  0.41120097  0.67235597  1
  O2-  O546  1  0.33593972  0.66432238  -0.02245116  1
  O2-  O547  1  0.30370287  0.72820564  0.37214618  1
  O2-  O548  1  0.31094233  0.64701798  0.67113761  1
  O2-  O549  1  0.33126974  0.91132046  0.02981863  1
  O2-  O550  1  0.29232338  0.95932968  0.39332977  1
  O2-  O551  1  0.33822642  0.92000079  0.68944213  1
  O2-  O552  1  0.57878442  0.15427742  0.00532410  1
  O2-  O553  1  0.57347749  0.17099924  0.33933867  1
  O2-  O554  1  0.60357492  0.18245852  0.68037690  1
  O2-  O555  1  0.60193545  0.41771941  0.01762963  1
  O2-  O556  1  0.57809809  0.42733154  0.35699437  1
  O2-  O557  1  0.58579298  0.42730232  0.66321261  1
  O2-  O558  1  0.58193900  0.66050878  0.02131188  1
  O2-  O559  1  0.60704688  0.66844409  0.38638849  1
  O2-  O560  1  0.57185703  0.64385960  0.70171919  1
  O2-  O561  1  0.57679563  0.90938889  0.01426963  1
  O2-  O562  1  0.58655897  0.91494820  0.35839021  1
  O2-  O563  1  0.57990935  0.92845918  0.68578802  1
  O2-  O564  1  0.83400823  0.15472827  0.01577999  1
  O2-  O565  1  0.83289626  0.17046127  0.34600303  1
  O2-  O566  1  0.87320420  0.21206894  0.69765934  1
  O2-  O567  1  0.82992287  0.40721869  0.02603443  1
  O2-  O568  1  0.83932831  0.42312942  0.35213459  1
  O2-  O569  1  0.85661344  0.42402989  0.68364930  1
  O2-  O570  1  0.82884528  0.65525252  0.04273992  1
  O2-  O571  1  0.82796648  0.66997917  0.34684933  1
  O2-  O572  1  0.83222507  0.67362875  0.68240404  1
  O2-  O573  1  0.82769881  0.90066343  0.01235766  1
  O2-  O574  1  0.84028745  0.92207325  0.34815038  1
  O2-  O575  1  0.83147840  0.93536628  0.68267207  1
