# generated using pymatgen
data_H2O
_symmetry_space_group_name_H-M   'P 1'
_cell_length_a   17.98857692
_cell_length_b   17.98939702
_cell_length_c   22.00682763
_cell_angle_alpha   89.98765298
_cell_angle_beta   90.03208761
_cell_angle_gamma   120.01956204
_symmetry_Int_Tables_number   1
_chemical_formula_structural   H2O
_chemical_formula_sum   'H384 O192'
_cell_volume   6166.17401061
_cell_formula_units_Z   192
loop_
 _symmetry_equiv_pos_site_id
 _symmetry_equiv_pos_as_xyz
  1  'x, y, z'
loop_
 _atom_type_symbol
 _atom_type_oxidation_number
  H+  1.0
  O2-  -2.0
loop_
 _atom_site_type_symbol
 _atom_site_label
 _atom_site_symmetry_multiplicity
 _atom_site_fract_x
 _atom_site_fract_y
 _atom_site_fract_z
 _atom_site_occupancy
  H+  H0  1  0.60926951  0.47094224  0.66758608  1
  H+  H1  1  0.88430630  0.34217065  0.17072951  1
  H+  H2  1  0.76406904  0.14037071  0.81224040  1
  H+  H3  1  0.88865848  0.89305377  0.32612613  1
  H+  H4  1  0.16311102  0.58067563  0.94834690  1
  H+  H5  1  0.13449913  0.86107401  0.16926931  1
  H+  H6  1  0.61724849  0.39326617  0.48698746  1
  H+  H7  1  0.27459032  0.38318588  0.16505656  1
  H+  H8  1  0.86057822  0.64309578  0.49223192  1
  H+  H9  1  0.63562471  0.27928833  0.49272560  1
  H+  H10  1  0.35485834  0.42006656  0.43893966  1
  H+  H11  1  0.22317520  0.61819292  0.85261676  1
  H+  H12  1  0.96833846  0.09947833  0.50324117  1
  H+  H13  1  0.88586583  0.53956855  0.49977828  1
  H+  H14  1  0.36276049  0.12724069  0.51134962  1
  H+  H15  1  0.62391138  -0.01522424  1.00969785  1
  H+  H16  1  0.36010074  0.63261228  0.16646522  1
  H+  H17  1  -0.00127349  0.64962093  0.20188138  1
  H+  H18  1  0.48201673  0.11506040  0.29882162  1
  H+  H19  1  0.08997427  0.91857402  0.07476469  1
  H+  H20  1  0.83844497  0.41487439  0.72165229  1
  H+  H21  1  0.62052240  0.88914617  0.83076279  1
  H+  H22  1  0.46550267  0.12384142  0.85530330  1
  H+  H23  1  0.87647501  -0.01949266  0.82721215  1
  H+  H24  1  0.88395031  0.82531746  0.16558908  1
  H+  H25  1  0.47836225  0.11123356  0.53527219  1
  H+  H26  1  0.23331384  0.11153224  0.49534621  1
  H+  H27  1  0.20233899  0.71124223  0.10758702  1
  H+  H28  1  0.71812921  0.86066237  0.50222405  1
  H+  H29  1  0.52230089  0.88639599  0.68418898  1
  H+  H30  1  0.64065936  0.52381751  0.83851477  1
  H+  H31  1  0.51975117  0.13113178  0.66721347  1
  H+  H32  1  0.12056953  0.38962888  0.34297946  1
  H+  H33  1  0.59585984  0.43120460  0.42502882  1
  H+  H34  1  0.08867441  0.93425408  0.74840641  1
  H+  H35  1  0.11760690  0.98728555  0.82107722  1
  H+  H36  1  0.63914738  0.27365389  0.64498358  1
  H+  H37  1  0.37335165  0.47989399  0.83400546  1
  H+  H38  1  0.85596003  0.40922510  0.50340800  1
  H+  H39  1  0.75353346  0.62845579  0.17105251  1
  H+  H40  1  0.11094602  0.37942932  0.16093976  1
  H+  H41  1  0.53683049  0.07798205  0.00125899  1
  H+  H42  1  0.88602480  0.77229506  0.50826795  1
  H+  H43  1  0.38314525  0.36453161  0.99623025  1
  H+  H44  1  0.02849149  0.90572904  0.16830208  1
  H+  H45  1  0.88847222  0.02358262  0.65515872  1
  H+  H46  1  0.10693512  0.72248772  0.82767433  1
  H+  H47  1  0.64391997  0.78459135  0.85006811  1
  H+  H48  1  0.89468745  0.36301152  0.98844152  1
  H+  H49  1  1.02488433  0.64438935  0.49101870  1
  H+  H50  1  0.62034168  0.46715799  -0.01422524  1
  H+  H51  1  0.62361673  0.14197520  0.47735186  1
  H+  H52  1  0.88706950  0.86816933  0.82040949  1
  H+  H53  1  0.35269698  0.97764439  0.14057380  1
  H+  H54  1  0.21985637  0.59402777  0.00604358  1
  H+  H55  1  0.29846447  0.56812846  0.37540528  1
  H+  H56  1  0.68783948  0.58747635  0.89146385  1
  H+  H57  1  0.26880848  0.88767407  0.14778116  1
  H+  H58  1  0.88214122  0.55785971  0.27914471  1
  H+  H59  1  0.62562212  0.40494259  0.33240628  1
  H+  H60  1  0.21980081  0.84866808  -0.00791634  1
  H+  H61  1  0.58754022  -0.03917079  0.15995794  1
  H+  H62  1  0.14151101  0.85968000  0.50801758  1
  H+  H63  1  0.36932937  0.89584475  0.48723024  1
  H+  H64  1  0.38494381  0.61512899  0.99995021  1
  H+  H65  1  0.32545496  0.66268575  0.43095685  1
  H+  H66  1  0.85029365  0.23125303  0.81017658  1
  H+  H67  1  0.82381009  0.46215008  0.18784564  1
  H+  H68  1  1.02018315  0.13755959  0.63863930  1
  H+  H69  1  0.85549395  0.13129197  0.66039634  1
  H+  H70  1  0.40208439  0.35156094  0.51688446  1
  H+  H71  1  0.46999941  0.35940180  0.98839927  1
  H+  H72  1  0.11086376  0.72463816  0.67830108  1
  H+  H73  1  0.11931525  0.22552899  0.85913813  1
  H+  H74  1  0.35920816  0.23232973  0.35926238  1
  H+  H75  1  0.35842656  0.47483540  0.01106486  1
  H+  H76  1  0.22018186  0.10668199  1.00176306  1
  H+  H77  1  0.13838599  0.78029035  0.32083304  1
  H+  H78  1  0.88572177  0.02498402  0.99851169  1
  H+  H79  1  0.61764326  0.98575538  0.83390619  1
  H+  H80  1  0.22341216  0.61959488  0.50287049  1
  H+  H81  1  0.46431483  0.85256874  0.84554745  1
  H+  H82  1  0.97581604  0.61014149  0.84131566  1
  H+  H83  1  0.86458149  0.72527524  0.66525523  1
  H+  H84  1  0.14871782  0.27870899  0.32325190  1
  H+  H85  1  0.62482992  0.64177602  0.85003432  1
  H+  H86  1  0.62056844  0.65325340  0.35534009  1
  H+  H87  1  0.27054812  0.13546647  0.66552998  1
  H+  H88  1  0.86067213  0.71970056  0.02635739  1
  H+  H89  1  0.02018923  0.89557887  0.80819090  1
  H+  H90  1  0.36506027  0.73099720  0.48536938  1
  H+  H91  1  0.13461131  0.26897491  0.17379201  1
  H+  H92  1  1.01622635  0.62014052  0.20780172  1
  H+  H93  1  0.09810274  0.20711003  0.59925593  1
  H+  H94  1  0.11338369  0.12979425  0.33674732  1
  H+  H95  1  0.36511881  0.81688610  0.83366175  1
  H+  H96  1  0.45088121  0.11599258  0.99241802  1
  H+  H97  1  0.63214199  0.88266938  0.18002389  1
  H+  H98  1  0.36431864  0.11829192  0.99701629  1
  H+  H99  1  0.73162101  0.60724186  0.99398329  1
  H+  H100  1  0.72968547  0.62602483  0.33759686  1
  H+  H101  1  0.86030554  0.37712287  0.34384536  1
  H+  H102  1  0.87681721  0.94240365  0.17182448  1
  H+  H103  1  0.23602382  0.37126323  0.32608112  1
  H+  H104  1  0.77636789  0.63392966  0.81525871  1
  H+  H105  1  0.63520422  0.34327268  0.97910980  1
  H+  H106  1  0.19193086  0.09935620  0.23072569  1
  H+  H107  1  0.45651793  0.35294395  0.19338686  1
  H+  H108  1  0.35476700  0.71979079  0.16551621  1
  H+  H109  1  0.38582961  0.36173993  0.67153025  1
  H+  H110  1  0.84004711  0.92081766  0.72943558  1
  H+  H111  1  0.15928247  0.28312574  0.50857324  1
  H+  H112  1  0.85553704  0.67139934  0.17442226  1
  H+  H113  1  0.31966765  0.16364012  0.76542658  1
  H+  H114  1  0.10209056  0.42111241  0.40563670  1
  H+  H115  1  0.86119944  0.89471149  1.03527749  1
  H+  H116  1  0.29557664  0.38329715  0.49740570  1
  H+  H117  1  0.14438353  1.02669483  0.35641238  1
  H+  H118  1  0.36956733  0.63910763  0.67804268  1
  H+  H119  1  0.11236031  -0.02758841  1.01250025  1
  H+  H120  1  0.15856815  0.31817400  0.79301507  1
  H+  H121  1  0.10777549  0.46631643  0.16164508  1
  H+  H122  1  0.64498641  0.65688000  0.18882429  1
  H+  H123  1  0.61290224  0.97421169  0.67671759  1
  H+  H124  1  0.59844522  0.72176262  0.12422278  1
  H+  H125  1  0.16414490  0.08108050  0.44320535  1
  H+  H126  1  0.37078237  0.40156042  0.34179892  1
  H+  H127  1  0.33841125  0.17009491  0.07570233  1
  H+  H128  1  0.13508189  0.11415639  0.63141507  1
  H+  H129  1  0.87314174  0.14053551  0.99894721  1
  H+  H130  1  0.58844819  0.65200796  0.03929304  1
  H+  H131  1  0.02191563  0.65151118  0.33741971  1
  H+  H132  1  0.86544048  0.72244098  0.80936809  1
  H+  H133  1  0.12557567  0.34244780  0.70109517  1
  H+  H134  1  0.11283885  0.21928965  0.00334693  1
  H+  H135  1  0.37577788  0.49285884  0.33933980  1
  H+  H136  1  0.38154825  0.01959193  0.67487072  1
  H+  H137  1  0.08170660  0.16214858  1.06374885  1
  H+  H138  1  0.51166280  0.62965225  0.99321127  1
  H+  H139  1  0.64114330  0.60192679  0.98078911  1
  H+  H140  1  0.37807283  0.76314897  0.32152485  1
  H+  H141  1  0.63148929  0.09834461  0.64333629  1
  H+  H142  1  0.03897452  0.88834874  0.33405373  1
  H+  H143  1  0.23541110  0.36906843  0.83584709  1
  H+  H144  1  0.40126593  0.09086272  0.21907649  1
  H+  H145  1  0.72201144  0.37063300  0.49705989  1
  H+  H146  1  0.82629733  0.94584818  0.36967531  1
  H+  H147  1  0.34037931  0.92417920  0.38660303  1
  H+  H148  1  0.98286048  0.36094288  0.98779461  1
  H+  H149  1  0.85207250  0.87184638  0.49243324  1
  H+  H150  1  0.38779706  0.52604913  0.66575825  1
  H+  H151  1  0.60207553  0.08191404  0.17138193  1
  H+  H152  1  0.14176594  0.63071235  0.85361815  1
  H+  H153  1  0.22520752  0.10554726  0.84232637  1
  H+  H154  1  0.76448808  0.11585782  0.33462561  1
  H+  H155  1  0.74963402  0.12336247  0.98586360  1
  H+  H156  1  0.88028972  0.61365304  0.33361535  1
  H+  H157  1  0.56984864  0.65284611  0.44391702  1
  H+  H158  1  0.39792516  0.62556856  0.32533470  1
  H+  H159  1  1.02005636  0.37142673  0.66532102  1
  H+  H160  1  0.72726171  0.11187264  0.49478910  1
  H+  H161  1  0.87452650  0.23158465  0.99815634  1
  H+  H162  1  0.11447154  -0.03311674  0.48778191  1
  H+  H163  1  0.85254322  0.73951784  0.33963696  1
  H+  H164  1  0.86157320  0.47045850  0.00362717  1
  H+  H165  1  0.27374464  0.38602332  0.69046623  1
  H+  H166  1  0.35539820  0.23180615  0.01727542  1
  H+  H167  1  0.76906004  0.63943484  0.49093527  1
  H+  H168  1  0.53868285  0.66309295  0.34757927  1
  H+  H169  1  0.13652245  0.86252708  0.99903172  1
  H+  H170  1  0.35438010  0.14106387  0.82652345  1
  H+  H171  1  0.52446361  0.38651966  0.84139259  1
  H+  H172  1  0.61337260  0.38660127  0.83620593  1
  H+  H173  1  0.33448809  0.65602186  0.76964611  1
  H+  H174  1  0.82036934  0.16448780  0.71613448  1
  H+  H175  1  0.86458990  0.38473523  0.81848431  1
  H+  H176  1  0.89099372  0.86471200  0.65949268  1
  H+  H177  1  0.61546249  0.22533923  0.83439159  1
  H+  H178  1  0.36972079  0.38839550  0.83025478  1
  H+  H179  1  0.68616041  0.87447783  0.31676980  1
  H+  H180  1  0.11534278  0.13706156  0.49136863  1
  H+  H181  1  0.38092292  0.11055639  0.67089122  1
  H+  H182  1  0.63066313  0.00957433  0.32282750  1
  H+  H183  1  0.64289719  0.78203626  -0.01101119  1
  H+  H184  1  0.24868444  0.11019851  0.17418609  1
  H+  H185  1  0.12443090  0.98399506  0.16633899  1
  H+  H186  1  0.38824479  0.86433555  0.67028806  1
  H+  H187  1  0.11850216  0.13641002  0.86178122  1
  H+  H188  1  0.08281198  0.68249284  0.39539134  1
  H+  H189  1  0.97931835  0.86373378  1.02150705  1
  H+  H190  1  0.83252006  0.66032841  0.72159125  1
  H+  H191  1  0.52524941  0.87567701  0.33216618  1
  H+  H192  1  0.83258128  0.94567201  0.08012627  1
  H+  H193  1  0.61916563  0.49040185  0.33906024  1
  H+  H194  1  0.39489924  1.02518594  0.30390642  1
  H+  H195  1  0.63951445  0.86491101  0.66596640  1
  H+  H196  1  0.36854776  0.22071563  0.51391495  1
  H+  H197  1  0.05247816  0.38297228  0.49970713  1
  H+  H198  1  0.73028077  0.87097424  1.00067942  1
  H+  H199  1  0.27389840  0.88626440  0.67972030  1
  H+  H200  1  0.01006332  0.63602329  0.00027647  1
  H+  H201  1  0.14724560  0.74266973  0.14293711  1
  H+  H202  1  0.37811185  0.27066815  0.83766850  1
  H+  H203  1  1.02436350  0.89130903  0.66677797  1
  H+  H204  1  0.11773819  0.45161983  0.66348149  1
  H+  H205  1  0.73162183  0.35565847  0.82838375  1
  H+  H206  1  0.85210455  0.95847915  0.48872001  1
  H+  H207  1  0.88480756  0.61025902  0.65222418  1
  H+  H208  1  0.52284125  0.63541000  0.66658072  1
  H+  H209  1  0.67289017  0.79444052  0.35336273  1
  H+  H210  1  0.79991428  0.53636889  0.19277133  1
  H+  H211  1  0.50462412  0.61133994  0.50137335  1
  H+  H212  1  0.61746655  0.97775156  0.48099535  1
  H+  H213  1  0.24790717  0.60729057  0.33928086  1
  H+  H214  1  0.13421975  0.51470880  0.33325586  1
  H+  H215  1  0.87717988  0.09442442  0.49733332  1
  H+  H216  1  0.59346828  0.19306731  0.15222565  1
  H+  H217  1  0.53642052  0.13700530  0.45503804  1
  H+  H218  1  0.86810774  0.25884220  0.32760703  1
  H+  H219  1  0.62647907  0.77107237  0.18578708  1
  H+  H220  1  0.62284607  0.09827968  0.84425594  1
  H+  H221  1  0.11379293  0.98220090  0.66016865  1
  H+  H222  1  0.47776415  0.36904030  0.33504669  1
  H+  H223  1  0.87978329  0.09838252  0.15743301  1
  H+  H224  1  0.12843981  0.48132392  0.49834632  1
  H+  H225  1  0.86948218  0.47345956  0.34858663  1
  H+  H226  1  0.13474767  0.35616637  -0.00612864  1
  H+  H227  1  0.36166153  -0.00153539  0.83298419  1
  H+  H228  1  -0.01802417  0.10236430  0.85283294  1
  H+  H229  1  0.61450361  0.88665731  0.49122474  1
  H+  H230  1  0.46414978  0.85255457  0.16741651  1
  H+  H231  1  0.34522838  0.72039456  0.01741405  1
  H+  H232  1  0.97716141  0.10985694  0.99070361  1
  H+  H233  1  0.08200952  0.15291200  0.27587363  1
  H+  H234  1  0.14331843  0.86864335  0.65982846  1
  H+  H235  1  0.86260609  0.47269960  0.82027530  1
  H+  H236  1  0.86713648  0.20595260  0.48654810  1
  H+  H237  1  0.11415047  0.46532226  0.00694789  1
  H+  H238  1  0.77871475  0.88967570  0.67094919  1
  H+  H239  1  0.12727007  0.88743482  0.33250329  1
  H+  H240  1  0.63462192  0.25453813  -0.01673776  1
  H+  H241  1  0.77824894  0.38559281  0.66279806  1
  H+  H242  1  0.13136152  0.61287363  0.50387335  1
  H+  H243  1  0.22846067  0.86078590  0.84102156  1
  H+  H244  1  0.92010494  0.34137470  0.48629525  1
  H+  H245  1  0.23496682  0.58488648  0.65370375  1
  H+  H246  1  0.88624397  0.60826174  0.83727360  1
  H+  H247  1  0.97588845  0.34994965  0.17617521  1
  H+  H248  1  0.36285322  0.72433113  0.67902889  1
  H+  H249  1  0.72958972  0.90513413  0.18771761  1
  H+  H250  1  0.36079064  -0.02287136  0.48929918  1
  H+  H251  1  0.85188133  0.11327038  0.33941460  1
  H+  H252  1  0.91361661  0.58153767  0.93162434  1
  H+  H253  1  0.76340161  0.34421420  0.14916282  1
  H+  H254  1  0.35894456  0.22467931  0.67579933  1
  H+  H255  1  0.11259847  0.13033138  0.15783858  1
  H+  H256  1  0.36215330  0.70488400  0.83384282  1
  H+  H257  1  0.47520792  0.35976202  0.67065807  1
  H+  H258  1  0.62887438  0.23385503  0.31556811  1
  H+  H259  1  0.87885637  0.26449424  0.64605942  1
  H+  H260  1  0.61838754  0.55855752  0.18863355  1
  H+  H261  1  -0.02764965  0.36164738  0.83006374  1
  H+  H262  1  0.61027708  0.38407739  0.66726862  1
  H+  H263  1  0.62887983  0.32268177  0.17068045  1
  H+  H264  1  0.58134252  0.43603828  0.14331281  1
  H+  H265  1  0.38737737  0.20119344  0.17890888  1
  H+  H266  1  0.72771517  0.61159963  0.65033663  1
  H+  H267  1  0.13875834  0.60442210  0.17424935  1
  H+  H268  1  0.22308203  0.60001550  0.17917785  1
  H+  H269  1  0.48107276  0.61456549  0.85528918  1
  H+  H270  1  0.62766622  0.49964282  0.49326857  1
  H+  H271  1  0.36612735  0.88597479  0.33048150  1
  H+  H272  1  0.59618464  0.67343635  0.90673796  1
  H+  H273  1  0.10569315  0.39288265  0.82494981  1
  H+  H274  1  0.61735988  0.59755449  0.50347366  1
  H+  H275  1  0.01694198  0.11725406  0.15669661  1
  H+  H276  1  0.17020506  0.37555014  0.51050383  1
  H+  H277  1  0.87454808  0.21364160  0.15735369  1
  H+  H278  1  0.64033232  0.77747213  0.65760932  1
  H+  H279  1  0.37112852  0.60435786  0.50989730  1
  H+  H280  1  0.36402759  0.33345480  0.18551963  1
  H+  H281  1  0.37667308  0.85595982  0.16830993  1
  H+  H282  1  0.16369167  0.57435418  0.27272795  1
  H+  H283  1  0.39574292  0.52460467  0.17505263  1
  H+  H284  1  0.23154511  0.12206507  0.36512383  1
  H+  H285  1  0.38769013  0.92889792  0.84083576  1
  H+  H286  1  1.02262809  0.63768392  0.67322235  1
  H+  H287  1  0.66084011  0.12435808  0.98711063  1
  H+  H288  1  0.13104264  0.10347102  0.99411429  1
  H+  H289  1  0.17588507  0.83662637  0.60365865  1
  H+  H290  1  0.92131392  0.83478851  0.60018400  1
  H+  H291  1  0.10638858  0.73738707  -0.00384039  1
  H+  H292  1  0.77624075  0.37781081  0.00039019  1
  H+  H293  1  0.33361523  0.40982602  0.10653416  1
  H+  H294  1  0.92489556  0.31916442  0.55737831  1
  H+  H295  1  0.16998964  0.07466135  0.58316144  1
  H+  H296  1  0.04726200  0.05970197  0.74489930  1
  H+  H297  1  0.07521664  0.66005690  0.76999856  1
  H+  H298  1  0.38780486  0.60608613  0.84199434  1
  H+  H299  1  0.47273293  0.94935072  0.54982153  1
  H+  H300  1  0.82916790  0.39764457  0.09580871  1
  H+  H301  1  0.41110720  0.58305433  0.60527530  1
  H+  H302  1  0.63624078  0.10274473  0.31847665  1
  H+  H303  1  0.58750597  0.92044117  0.76751128  1
  H+  H304  1  0.67920144  0.85481197  0.90101071  1
  H+  H305  1  0.42716945  0.84488766  0.61135574  1
  H+  H306  1  0.88651748  0.35759790  0.64612564  1
  H+  H307  1  0.23276666  0.86703573  0.31672485  1
  H+  H308  1  0.58206727  0.90707254  0.39181042  1
  H+  H309  1  0.33411570  0.91885762  0.74015359  1
  H+  H310  1  0.56762126  0.90552470  0.09874139  1
  H+  H311  1  0.34027784  0.17112078  0.41673392  1
  H+  H312  1  0.33167530  0.66154777  0.07532555  1
  H+  H313  1  0.97730049  0.85839971  0.50672108  1
  H+  H314  1  0.78313397  0.89117663  0.82417050  1
  H+  H315  1  0.16452424  0.82981374  0.89609485  1
  H+  H316  1  0.43263170  0.59896710  0.26767623  1
  H+  H317  1  0.16760050  0.06360046  0.90371494  1
  H+  H318  1  0.07947780  0.40192020  0.06453259  1
  H+  H319  1  0.90694169  0.06486360  0.89846910  1
  H+  H320  1  0.11764864  0.72791131  0.49437263  1
  H+  H321  1  0.67839635  0.32492157  0.89110541  1
  H+  H322  1  0.89834298  0.86040134  0.23332886  1
  H+  H323  1  0.92600345  0.83214753  0.87103225  1
  H+  H324  1  0.08924533  0.10110829  0.74564627  1
  H+  H325  1  0.55116276  0.15180183  0.78882097  1
  H+  H326  1  0.34461336  0.42700686  0.73935213  1
  H+  H327  1  0.48018738  0.62083488  0.17611822  1
  H+  H328  1  0.40708546  0.82066200  0.26177683  1
  H+  H329  1  0.41614381  0.31993429  0.58110981  1
  H+  H330  1  0.66447474  0.84403417  0.56316715  1
  H+  H331  1  0.40724036  0.32562088  0.28271921  1
  H+  H332  1  0.27157917  0.38367030  0.00845722  1
  H+  H333  1  0.74358923  0.37933175  0.32349968  1
  H+  H334  1  0.07289207  0.41187237  0.76372228  1
  H+  H335  1  0.73254767  0.42214978  0.26585003  1
  H+  H336  1  0.56296670  0.13854275  0.05915251  1
  H+  H337  1  0.09112319  0.67072789  0.05502341  1
  H+  H338  1  0.72171605  0.10055582  0.64678626  1
  H+  H339  1  0.91320755  0.32994199  0.88948850  1
  H+  H340  1  0.63873373  0.61186741  0.64994092  1
  H+  H341  1  0.13087304  0.25750104  0.69380641  1
  H+  H342  1  0.17846047  0.55866452  0.59333529  1
  H+  H343  1  0.82020123  0.64327558  0.07460282  1
  H+  H344  1  0.61503642  0.89391862  0.00743476  1
  H+  H345  1  0.08188867  0.17819148  0.44315181  1
  H+  H346  1  0.23132422  0.86203027  0.50495686  1
  H+  H347  1  0.39394220  0.09143767  0.90756239  1
  H+  H348  1  0.66848686  0.33850393  0.59024199  1
  H+  H349  1  0.40493587  0.32431843  0.89990016  1
  H+  H350  1  0.66771820  0.60522666  0.28035007  1
  H+  H351  1  0.40893363  0.06950096  0.58590752  1
  H+  H352  1  0.37783394  0.51745218  0.51174070  1
  H+  H353  1  0.16829098  0.33150162  0.23222885  1
  H+  H354  1  0.58790075  0.66406105  0.72193490  1
  H+  H355  1  0.37499286  0.83655083  0.95186160  1
  H+  H356  1  0.79902489  0.83025921  0.30384668  1
  H+  H357  1  0.33369643  0.89429228  0.05215446  1
  H+  H358  1  0.50010777  0.89408967  0.51038733  1
  H+  H359  1  0.66982282  0.07687174  0.89943312  1
  H+  H360  1  0.60649672  0.17036561  0.70680171  1
  H+  H361  1  0.90566152  0.07254552  0.59129755  1
  H+  H362  1  0.82658827  0.14785965  0.42615254  1
  H+  H363  1  0.49513243  0.12276853  0.14488994  1
  H+  H364  1  0.59616423  0.40598160  0.04198254  1
  H+  H365  1  0.89992068  0.31895320  0.26936337  1
  H+  H366  1  0.08419641  0.90122535  0.43329281  1
  H+  H367  1  0.66410021  0.08041824  0.55249482  1
  H+  H368  1  0.51153836  0.45974257  0.12532013  1
  H+  H369  1  0.16478201  0.32761583  0.93455652  1
  H+  H370  1  0.60165406  0.18287124  0.37699658  1
  H+  H371  1  -0.03370617  0.08710654  0.32814389  1
  H+  H372  1  0.83422756  0.42054587  0.43279646  1
  H+  H373  1  0.64483869  0.06033793  0.22809758  1
  H+  H374  1  0.66931411  0.31012863  0.22936777  1
  H+  H375  1  0.88802610  0.52229512  0.65080005  1
  H+  H376  1  0.83580556  0.68351043  0.40075662  1
  H+  H377  1  0.66216417  0.57355704  0.56157492  1
  H+  H378  1  0.84781509  0.16471754  0.09298554  1
  H+  H379  1  0.91814129  0.59299344  0.56160123  1
  H+  H380  1  0.40744282  0.58021793  0.93836919  1
  H+  H381  1  0.88287227  0.60814514  -0.00624933  1
  H+  H382  1  0.17029176  0.83210273  0.22524858  1
  H+  H383  1  0.90610451  0.83638028  0.97277327  1
  O2-  O384  1  0.07867919  0.15742524  0.14618475  1
  O2-  O385  1  0.08257952  0.16846854  0.48670577  1
  O2-  O386  1  0.08537717  0.16469714  0.87203384  1
  O2-  O387  1  0.07792608  0.40647297  0.14539438  1
  O2-  O388  1  0.11128201  0.42150343  0.48462120  1
  O2-  O389  1  0.06954084  0.41503357  0.80875942  1
  O2-  O390  1  0.14320941  0.69244392  0.11940076  1
  O2-  O391  1  0.08513761  0.66917136  0.47632635  1
  O2-  O392  1  0.07363116  0.66045460  0.81587801  1
  O2-  O393  1  0.08677737  0.92369578  0.15237093  1
  O2-  O394  1  0.08373773  0.90420322  0.47851044  1
  O2-  O395  1  0.08310139  0.93057253  0.79582680  1
  O2-  O396  1  0.35438180  0.14557585  0.15641476  1
  O2-  O397  1  0.33578600  0.15949382  0.49558505  1
  O2-  O398  1  0.32006075  0.16712490  0.81087530  1
  O2-  O399  1  0.33623945  0.41004485  0.15190828  1
  O2-  O400  1  0.35730716  0.41846309  0.48378162  1
  O2-  O401  1  0.34171846  0.42138160  0.81551370  1
  O2-  O402  1  0.32520515  0.65796871  0.15174706  1
  O2-  O403  1  0.33010793  0.66994775  0.47659485  1
  O2-  O404  1  0.33387881  0.64763419  0.81508321  1
  O2-  O405  1  0.32819674  0.91631726  0.13024664  1
  O2-  O406  1  0.33457567  0.91977102  0.47005803  1
  O2-  O407  1  0.34606134  0.93862090  0.81898962  1
  O2-  O408  1  0.55429746  0.13757516  0.13219440  1
  O2-  O409  1  0.59810108  0.17609873  0.45851819  1
  O2-  O410  1  0.57464487  0.15968366  0.82970484  1
  O2-  O411  1  0.54354905  0.45542073  0.15978625  1
  O2-  O412  1  0.59532773  0.43144888  0.47106741  1
  O2-  O413  1  0.58785445  0.42333107  0.84217195  1
  O2-  O414  1  0.59515172  0.70917150  0.16748760  1
  O2-  O415  1  0.56284386  0.62850484  0.48563298  1
  O2-  O416  1  0.59496907  0.67485115  0.86219285  1
  O2-  O417  1  0.56014945  0.89886038  0.14404421  1
  O2-  O418  1  0.58155685  0.91526963  0.47269895  1
  O2-  O419  1  0.58740974  0.91914419  0.81537382  1
  O2-  O420  1  0.85029896  0.15632699  0.13743001  1
  O2-  O421  1  0.82665332  0.14662850  0.47229178  1
  O2-  O422  1  0.81605708  0.17538899  0.78848239  1
  O2-  O423  1  0.82389502  0.38755316  0.14083154  1
  O2-  O424  1  0.82619152  0.43032147  0.47801985  1
  O2-  O425  1  0.83310697  0.41408132  0.80208826  1
  O2-  O426  1  0.80484416  0.62649690  0.15378847  1
  O2-  O427  1  0.82954249  0.67296250  0.47668004  1
  O2-  O428  1  0.83655141  0.66061852  0.79901418  1
  O2-  O429  1  0.84588646  0.97177958  0.15599187  1
  O2-  O430  1  0.81870698  0.89748055  0.47614598  1
  O2-  O431  1  0.84230544  0.91752764  0.80791809  1
  O2-  O432  1  0.18839111  0.09195117  0.18673917  1
  O2-  O433  1  0.16836156  0.08042181  0.48922844  1
  O2-  O434  1  0.16542246  0.06619438  0.85834338  1
  O2-  O435  1  0.16783860  0.33005440  0.18657705  1
  O2-  O436  1  0.19686697  0.34132530  0.52441562  1
  O2-  O437  1  0.17113410  0.33389965  0.83718698  1
  O2-  O438  1  0.16161639  0.57003654  0.19269136  1
  O2-  O439  1  0.16377591  0.58413425  0.51802963  1
  O2-  O440  1  0.18485898  0.62684690  0.87968150  1
  O2-  O441  1  0.16843952  0.83276216  0.17941276  1
  O2-  O442  1  0.17359444  0.83179856  0.52435306  1
  O2-  O443  1  0.16714200  0.82755898  0.85147929  1
  O2-  O444  1  0.39371678  0.09231509  0.17100130  1
  O2-  O445  1  0.41721583  0.07080151  0.54005892  1
  O2-  O446  1  0.40252792  0.09469056  0.86114370  1
  O2-  O447  1  0.39751629  0.30808033  0.20323307  1
  O2-  O448  1  0.41957944  0.31311791  0.53634494  1
  O2-  O449  1  0.41194582  0.32984268  0.85501082  1
  O2-  O450  1  0.42000388  0.58484806  0.18968072  1
  O2-  O451  1  0.40136959  0.57682122  0.52878937  1
  O2-  O452  1  0.41856515  0.57942939  0.86378140  1
  O2-  O453  1  0.40314649  0.82339050  0.18482988  1
  O2-  O454  1  0.44959449  0.89045095  0.53551229  1
  O2-  O455  1  0.40661490  0.82013133  0.86380368  1
  O2-  O456  1  0.63421374  0.05332024  0.18352802  1
  O2-  O457  1  0.66516635  0.08712158  0.50738476  1
  O2-  O458  1  0.65494431  0.06754456  0.85395939  1
  O2-  O459  1  0.65730341  0.29225172  0.18567006  1
  O2-  O460  1  0.66067489  0.33751212  0.51087178  1
  O2-  O461  1  0.67183491  0.32255199  0.84606865  1
  O2-  O462  1  0.66521765  0.61591209  0.20129008  1
  O2-  O463  1  0.65967536  0.57365447  0.51536858  1
  O2-  O464  1  0.67750848  0.58828175  0.84718350  1
  O2-  O465  1  0.67070390  0.86594260  0.20206821  1
  O2-  O466  1  0.65930315  0.84230619  0.51851142  1
  O2-  O467  1  0.67291471  0.84845615  0.85547721  1
  O2-  O468  1  0.90712911  0.06139213  0.17397577  1
  O2-  O469  1  0.90748990  0.06598584  0.51602565  1
  O2-  O470  1  0.91782395  0.06437725  0.85419655  1
  O2-  O471  1  0.91493772  0.31537861  0.19025304  1
  O2-  O472  1  0.93735350  0.31022162  0.51357207  1
  O2-  O473  1  0.90991459  0.33082987  0.84443394  1
  O2-  O474  1  0.80868189  0.49522276  0.21734217  1
  O2-  O475  1  0.91794354  0.59904294  0.51577247  1
  O2-  O476  1  0.91406259  0.57844535  0.85679904  1
  O2-  O477  1  0.91996088  0.87629270  0.18980853  1
  O2-  O478  1  0.91868853  0.83223557  0.52456513  1
  O2-  O479  1  0.92212045  0.83648520  0.82724970  1
  O2-  O480  1  0.16497210  0.08742701  0.36813216  1
  O2-  O481  1  0.16636895  0.08100826  0.62706930  1
  O2-  O482  1  0.16220190  0.07183037  0.98323695  1
  O2-  O483  1  0.17634878  0.33883465  0.30910741  1
  O2-  O484  1  0.15834727  0.31356002  0.71490735  1
  O2-  O485  1  0.16799073  0.32749126  0.97906238  1
  O2-  O486  1  0.16746631  0.57649857  0.31774910  1
  O2-  O487  1  0.19248736  0.53566041  0.62967262  1
  O2-  O488  1  0.15974909  0.56287780  0.99195722  1
  O2-  O489  1  0.17235671  0.84030811  0.30164086  1
  O2-  O490  1  0.17600571  0.83954716  0.64906262  1
  O2-  O491  1  0.15815945  0.82618995  0.98024331  1
  O2-  O492  1  0.42309492  0.08156166  0.28269564  1
  O2-  O493  1  0.41311862  0.08024191  0.65857597  1
  O2-  O494  1  0.39147133  0.08749880  0.97747218  1
  O2-  O495  1  0.41491960  0.33881882  0.32695088  1
  O2-  O496  1  0.41217754  0.32673966  0.65894235  1
  O2-  O497  1  0.40741636  0.32852120  0.98059188  1
  O2-  O498  1  0.43712607  0.60420996  0.31280649  1
  O2-  O499  1  0.42015755  0.58675476  0.65050281  1
  O2-  O500  1  0.41321617  0.58277658  0.98411294  1
  O2-  O501  1  0.41038575  0.82254629  0.30746434  1
  O2-  O502  1  0.42175431  0.83664543  0.65617410  1
  O2-  O503  1  0.35817826  0.82512237  0.99501249  1
  O2-  O504  1  0.66457236  0.07007902  0.30625216  1
  O2-  O505  1  0.65967239  0.06468951  0.63267245  1
  O2-  O506  1  0.68748756  0.09262459  0.97016443  1
  O2-  O507  1  0.69718395  0.37299870  0.29426207  1
  O2-  O508  1  0.67169037  0.33555203  0.63529641  1
  O2-  O509  1  0.66918894  0.31476355  0.96993574  1
  O2-  O510  1  0.66744862  0.59539546  0.32485189  1
  O2-  O511  1  0.66699579  0.57988719  0.63506178  1
  O2-  O512  1  0.67543267  0.57428201  0.97178831  1
  O2-  O513  1  0.71821408  0.84966765  0.33558709  1
  O2-  O514  1  0.67212291  0.83976966  0.64752526  1
  O2-  O515  1  0.67477536  0.84332199  0.97770039  1
  O2-  O516  1  0.90306321  0.04827362  0.32397279  1
  O2-  O517  1  0.91375135  0.08209138  0.63655559  1
  O2-  O518  1  0.91562625  0.08152888  0.97771019  1
  O2-  O519  1  0.88737724  0.31788340  0.31350249  1
  O2-  O520  1  0.91361960  0.32466025  0.63007940  1
  O2-  O521  1  0.92270532  0.33223001  0.97108203  1
  O2-  O522  1  0.90529004  0.57798054  0.32049713  1
  O2-  O523  1  0.91722523  0.58284004  0.63583891  1
  O2-  O524  1  0.91556016  0.58102531  0.97797418  1
  O2-  O525  1  0.85848848  0.83882950  0.30194165  1
  O2-  O526  1  0.92276186  0.83495273  0.64608585  1
  O2-  O527  1  0.91420014  0.83233732  1.01615905  1
  O2-  O528  1  0.08198436  0.15885422  0.01868261  1
  O2-  O529  1  0.08032110  0.15745090  0.31996880  1
  O2-  O530  1  0.08521815  0.17209197  0.63588616  1
  O2-  O531  1  0.08215107  0.40163258  0.01926383  1
  O2-  O532  1  0.09435509  0.42140771  0.36092940  1
  O2-  O533  1  0.07641278  0.39741888  0.68607424  1
  O2-  O534  1  0.07426881  0.67262569  0.01122028  1
  O2-  O535  1  0.08079619  0.69195435  0.35112470  1
  O2-  O536  1  0.07873497  0.66565168  0.69436922  1
  O2-  O537  1  0.08366750  0.91208097  0.02947209  1
  O2-  O538  1  0.09550637  0.91480862  0.35296813  1
  O2-  O539  1  0.08628210  0.92499674  0.68113287  1
  O2-  O540  1  0.32326346  0.17126633  0.03276698  1
  O2-  O541  1  0.32897276  0.17144244  0.37244379  1
  O2-  O542  1  0.32660217  0.16135512  0.68701045  1
  O2-  O543  1  0.33145493  0.41421894  0.02549589  1
  O2-  O544  1  0.34032726  0.43288431  0.35437080  1
  O2-  O545  1  0.33708868  0.42236857  0.69393022  1
  O2-  O546  1  0.33278864  0.66249978  0.02972833  1
  O2-  O547  1  0.31040924  0.62456582  0.36121157  1
  O2-  O548  1  0.33524892  0.66459044  0.69447692  1
  O2-  O549  1  0.32477271  0.88348799  0.00720955  1
  O2-  O550  1  0.33989246  0.92167873  0.34152806  1
  O2-  O551  1  0.33529558  0.91686993  0.69493630  1
  O2-  O552  1  0.56572509  0.13853859  0.01290200  1
  O2-  O553  1  0.59478885  0.17599990  0.33221367  1
  O2-  O554  1  0.58461643  0.16046175  0.66538690  1
  O2-  O555  1  0.58679018  0.40501081  -0.00161079  1
  O2-  O556  1  0.59107848  0.42796295  0.35121103  1
  O2-  O557  1  0.57864699  0.41153465  0.68342718  1
  O2-  O558  1  0.57810223  0.65930961  -0.00321857  1
  O2-  O559  1  0.59416234  0.68719474  0.36994187  1
  O2-  O560  1  0.58629427  0.66694109  0.67778810  1
  O2-  O561  1  0.58656848  0.92486470  0.02297999  1
  O2-  O562  1  0.58525319  0.90901352  0.34658892  1
  O2-  O563  1  0.58347798  0.91803901  0.69959188  1
  O2-  O564  1  0.84227445  0.17082437  0.01371626  1
  O2-  O565  1  0.82414871  0.14633119  0.35233670  1
  O2-  O566  1  0.82125916  0.15965696  0.67016478  1
  O2-  O567  1  0.83467059  0.41016964  0.01844060  1
  O2-  O568  1  0.83531263  0.41266444  0.36288767  1
  O2-  O569  1  0.83946586  0.41479325  0.67613971  1
  O2-  O570  1  0.82821548  0.65583080  0.03020772  1
  O2-  O571  1  0.83393049  0.68099644  0.35500122  1
  O2-  O572  1  0.83182234  0.66290674  0.67606092  1
  O2-  O573  1  0.82899997  0.92595766  0.03705137  1
  O2-  O574  1  0.89006665  0.98043559  0.36732977  1
  O2-  O575  1  0.84030068  0.91968376  0.68400038  1
