# generated using pymatgen
data_H2O
_symmetry_space_group_name_H-M   'P 1'
_cell_length_a   17.99499351
_cell_length_b   17.98579990
_cell_length_c   21.99842058
_cell_angle_alpha   89.99268196
_cell_angle_beta   89.99539814
_cell_angle_gamma   119.98217786
_symmetry_Int_Tables_number   1
_chemical_formula_structural   H2O
_chemical_formula_sum   'H384 O192'
_cell_volume   6167.10781127
_cell_formula_units_Z   192
loop_
 _symmetry_equiv_pos_site_id
 _symmetry_equiv_pos_as_xyz
  1  'x, y, z'
loop_
 _atom_type_symbol
 _atom_type_oxidation_number
  H+  1.0
  O2-  -2.0
loop_
 _atom_site_type_symbol
 _atom_site_label
 _atom_site_symmetry_multiplicity
 _atom_site_fract_x
 _atom_site_fract_y
 _atom_site_fract_z
 _atom_site_occupancy
  H+  H0  1  0.63908691  0.85009155  0.84895043  1
  H+  H1  1  0.37258094  0.98000330  0.01788182  1
  H+  H2  1  0.13853327  0.09792874  0.65826555  1
  H+  H3  1  0.27978644  0.40807866  0.16607430  1
  H+  H4  1  0.14111874  0.23759796  0.17482663  1
  H+  H5  1  0.34024071  0.22045748  0.33870984  1
  H+  H6  1  0.54861660  0.90885973  0.65036571  1
  H+  H7  1  0.86242485  0.72181342  0.67305397  1
  H+  H8  1  0.52471601  0.64196972  0.67293195  1
  H+  H9  1  0.63362329  0.61981690  0.51085787  1
  H+  H10  1  0.97996127  0.37030591  1.00040437  1
  H+  H11  1  0.34991498  0.35360437  0.31953123  1
  H+  H12  1  0.64578381  0.28425998  0.49815169  1
  H+  H13  1  0.69867101  0.08029239  0.84625070  1
  H+  H14  1  0.35906540  0.37943586  0.86802710  1
  H+  H15  1  0.38489968  0.77332106  0.50409854  1
  H+  H16  1  0.60321267  0.73347393  0.33684255  1
  H+  H17  1  0.11038211  0.38780360  0.50187915  1
  H+  H18  1  0.52382838  0.86262716  0.49183059  1
  H+  H19  1  0.11709273  0.21368861  0.82799086  1
  H+  H20  1  0.35142269  0.11892210  0.81707204  1
  H+  H21  1  0.63867801  0.86314244  0.32107108  1
  H+  H22  1  0.39726326  0.86921826  0.50242011  1
  H+  H23  1  0.57728872  0.65686889  0.06148412  1
  H+  H24  1  0.12126336  0.25071059  0.66489305  1
  H+  H25  1  0.97096772  0.62559846  0.14525109  1
  H+  H26  1  0.37613733  0.01064758  0.19608915  1
  H+  H27  1  0.46138699  0.32015062  0.36751811  1
  H+  H28  1  0.77444942  0.41484259  0.33831370  1
  H+  H29  1  0.24838719  0.10965368  -0.00652412  1
  H+  H30  1  0.36415112  0.22298504  1.00938079  1
  H+  H31  1  0.51319260  0.12886707  0.34607519  1
  H+  H32  1  0.26302971  0.39297764  0.34821573  1
  H+  H33  1  0.61714061  0.48531114  0.49663834  1
  H+  H34  1  0.62377662  0.72864602  0.14794290  1
  H+  H35  1  0.14415737  0.86991361  0.33628877  1
  H+  H36  1  0.68924023  0.35250411  0.85747715  1
  H+  H37  1  0.11669011  0.88587829  0.82887871  1
  H+  H38  1  0.85591418  0.62494268  0.81983322  1
  H+  H39  1  0.59600651  0.11055082  0.97968634  1
  H+  H40  1  0.47435349  0.36328544  0.50442803  1
  H+  H41  1  0.08042678  0.07794993  0.14363366  1
  H+  H42  1  0.89468522  0.52284968  0.83609238  1
  H+  H43  1  0.96131012  0.35698293  0.17393776  1
  H+  H44  1  0.58872945  0.36368286  0.00268684  1
  H+  H45  1  0.91825248  0.59702009  1.05599585  1
  H+  H46  1  0.73549340  0.85731994  0.65395800  1
  H+  H47  1  0.87808624  0.38406343  0.00429889  1
  H+  H48  1  0.61956557  0.14983202  0.48722268  1
  H+  H49  1  0.42249900  0.08907344  0.59177570  1
  H+  H50  1  0.22523291  0.10375145  0.84063984  1
  H+  H51  1  0.37269172  0.72966718  0.01632832  1
  H+  H52  1  1.00212360  0.89440419  0.17227551  1
  H+  H53  1  0.72352379  0.61140887  0.66021485  1
  H+  H54  1  0.11632800  0.39487545  0.00944945  1
  H+  H55  1  0.47441821  0.85783138  0.17784758  1
  H+  H56  1  0.88313651  0.32772072  0.26276165  1
  H+  H57  1  0.13480204  0.61884907  0.50555028  1
  H+  H58  1  0.74050863  0.14965179  0.64923843  1
  H+  H59  1  0.48778184  0.12510043  0.49907792  1
  H+  H60  1  0.99922117  0.13957500  0.32765159  1
  H+  H61  1  -0.02442955  0.35686641  0.51867447  1
  H+  H62  1  0.86889234  0.98077134  0.67056406  1
  H+  H63  1  0.62807307  0.51175930  -0.00076838  1
  H+  H64  1  0.29099366  0.89725323  0.49841328  1
  H+  H65  1  0.90960461  0.31176316  0.57534798  1
  H+  H66  1  0.37534619  0.13962956  0.00989455  1
  H+  H67  1  0.35597617  0.87614519  0.16800837  1
  H+  H68  1  0.12215829  0.64775220  0.34430757  1
  H+  H69  1  0.88849081  0.63758617  0.14171748  1
  H+  H70  1  0.23387014  0.86500531  0.66646504  1
  H+  H71  1  0.80076790  0.18935025  0.80857434  1
  H+  H72  1  0.02248151  0.39051801  0.35575171  1
  H+  H73  1  0.12775270  0.89302007  0.01181507  1
  H+  H74  1  0.88332559  0.11513537  0.50786926  1
  H+  H75  1  0.72048760  0.11691763  0.49933682  1
  H+  H76  1  0.38441760  0.51907709  0.17666997  1
  H+  H77  1  0.38880799  0.11535746  0.65184843  1
  H+  H78  1  0.01084273  0.38191269  0.82862171  1
  H+  H79  1  0.15276170  0.92074669  0.51058410  1
  H+  H80  1  0.38382096  0.10162842  0.19570700  1
  H+  H81  1  0.28166928  0.89355173  0.01246703  1
  H+  H82  1  0.14266640  0.86056410  0.66534646  1
  H+  H83  1  0.60735779  0.61010546  1.00308883  1
  H+  H84  1  0.07017283  0.41203856  0.09992487  1
  H+  H85  1  0.83025181  0.66434377  0.44702870  1
  H+  H86  1  0.22772530  0.36661244  0.99616289  1
  H+  H87  1  0.72304074  0.56654657  0.14603530  1
  H+  H88  1  0.75601481  0.37407447  0.35670680  1
  H+  H89  1  0.67621736  0.87096682  0.50430383  1
  H+  H90  1  0.88904004  0.77003926  0.15464279  1
  H+  H91  1  0.83803826  0.92595573  0.10065369  1
  H+  H92  1  0.04077519  0.90027419  0.35752493  1
  H+  H93  1  0.10700590  0.47691980  0.50036712  1
  H+  H94  1  0.89113240  0.27868261  1.00284858  1
  H+  H95  1  0.63635678  0.27728870  0.65495835  1
  H+  H96  1  0.83053666  0.98842345  0.49412183  1
  H+  H97  1  0.10757522  0.93817947  0.41379232  1
  H+  H98  1  0.47816061  0.30377999  0.39247282  1
  H+  H99  1  0.79491822  0.39941586  -0.00692933  1
  H+  H100  1  0.17876548  0.84212071  0.93730774  1
  H+  H101  1  0.36885297  0.72314729  0.16758920  1
  H+  H102  1  0.67433185  0.53494394  0.31796422  1
  H+  H103  1  0.13874225  1.02488427  0.32914817  1
  H+  H104  1  0.37627685  0.90159118  0.67682931  1
  H+  H105  1  0.09524580  0.46538631  0.16180898  1
  H+  H106  1  0.89942990  0.52651268  0.51254789  1
  H+  H107  1  0.55776815  0.21329702  0.98844734  1
  H+  H108  1  0.84948772  0.22177358  0.17027424  1
  H+  H109  1  0.63843663  0.35790676  0.31091039  1
  H+  H110  1  0.32729478  0.41766921  0.44028271  1
  H+  H111  1  0.67459054  0.61828860  0.29304885  1
  H+  H112  1  0.86713556  0.37928872  0.51160083  1
  H+  H113  1  0.20847930  0.33819683  0.77934439  1
  H+  H114  1  0.40881437  1.07314454  0.29299284  1
  H+  H115  1  0.76738686  0.62935183  0.50434492  1
  H+  H116  1  0.13353106  0.52585641  0.34056585  1
  H+  H117  1  0.10488294  0.22230934  0.00475958  1
  H+  H118  1  1.03409507  0.64952178  0.82853036  1
  H+  H119  1  0.60810037  -0.02946870  0.33879027  1
  H+  H120  1  0.71374407  0.59289181  0.82493668  1
  H+  H121  1  0.61803647  0.72634981  0.67110303  1
  H+  H122  1  0.51238675  0.62000426  0.99942611  1
  H+  H123  1  0.59681617  0.45906589  0.15400572  1
  H+  H124  1  0.87342127  0.90183924  0.16148777  1
  H+  H125  1  0.90057804  0.27998937  0.81013743  1
  H+  H126  1  0.13565279  0.27367560  0.33158677  1
  H+  H127  1  0.66458382  0.10036949  0.55758470  1
  H+  H128  1  0.10478309  0.22693361  0.48976671  1
  H+  H129  1  0.13653218  0.10491584  0.84873458  1
  H+  H130  1  0.38465437  0.61503844  0.17592597  1
  H+  H131  1  0.12657059  0.90683625  0.16480923  1
  H+  H132  1  0.89792190  0.52857892  0.00660521  1
  H+  H133  1  0.98168014  0.16997572  0.64506440  1
  H+  H134  1  0.89682670  0.79589788  -0.01216744  1
  H+  H135  1  0.85394597  0.47472887  0.14610357  1
  H+  H136  1  0.39626563  0.11996732  0.49865695  1
  H+  H137  1  0.39540802  0.86676491  1.01373533  1
  H+  H138  1  0.56830690  0.40074338  0.06323275  1
  H+  H139  1  0.24058412  0.35896416  0.84666475  1
  H+  H140  1  0.58681576  0.92081456  0.10635925  1
  H+  H141  1  0.15247022  0.78694523  0.84020878  1
  H+  H142  1  0.10978901  0.97008256  0.82910351  1
  H+  H143  1  0.88924439  0.15360503  0.65711108  1
  H+  H144  1  0.23108152  0.61876164  0.00229140  1
  H+  H145  1  0.13236809  1.00021264  0.16336402  1
  H+  H146  1  0.11815767  0.96810645  0.67280182  1
  H+  H147  1  0.84159042  0.21867592  0.33905967  1
  H+  H148  1  0.37401458  0.61606723  0.82330772  1
  H+  H149  1  0.97355934  0.11806780  0.98446257  1
  H+  H150  1  0.85283690  0.13062185  0.17033719  1
  H+  H151  1  0.35155275  0.48199158  0.34515820  1
  H+  H152  1  0.96976975  0.18936467  0.28541036  1
  H+  H153  1  0.87487637  0.89392302  0.67205865  1
  H+  H154  1  0.12811231  0.35931074  0.33982691  1
  H+  H155  1  0.37129200  0.26453732  0.16987355  1
  H+  H156  1  0.77581636  0.87762809  0.82543036  1
  H+  H157  1  0.22938238  0.10368391  0.65379786  1
  H+  H158  1  0.28061958  0.12790435  0.49289945  1
  H+  H159  1  0.02229142  0.10378355  0.69171401  1
  H+  H160  1  0.88520205  0.75948372  0.51964237  1
  H+  H161  1  0.67324136  0.34026924  0.55967120  1
  H+  H162  1  0.59704598  0.13015270  0.14315015  1
  H+  H163  1  0.35518098  0.63395656  0.49778428  1
  H+  H164  1  1.03334078  0.65237288  0.49758902  1
  H+  H165  1  0.35865027  0.38566377  0.49779379  1
  H+  H166  1  0.88930971  0.60990212  0.51159834  1
  H+  H167  1  0.66083408  0.58716806  0.57079296  1
  H+  H168  1  0.11503894  0.72403223  0.67353812  1
  H+  H169  1  0.36721715  0.61454691  0.32813609  1
  H+  H170  1  0.22503201  0.86531349  0.18055677  1
  H+  H171  1  0.14000221  0.24859716  0.14186385  1
  H+  H172  1  0.37853255  0.35375129  0.99301906  1
  H+  H173  1  0.26112893  0.12862240  0.34394154  1
  H+  H174  1  0.65867510  0.88647016  0.98345958  1
  H+  H175  1  0.20163135  0.50590174  0.21156024  1
  H+  H176  1  0.65215739  0.86066293  0.63891664  1
  H+  H177  1  0.08860419  0.91207502  0.73457845  1
  H+  H178  1  0.59745032  0.46437544  0.81845973  1
  H+  H179  1  0.37926317  0.48947315  0.69354036  1
  H+  H180  1  0.92572543  0.39239341  0.82409319  1
  H+  H181  1  0.11411200  0.59709184  0.65861969  1
  H+  H182  1  0.43636629  0.08373473  0.94104327  1
  H+  H183  1  0.19799071  0.59020887  0.65991955  1
  H+  H184  1  0.02152674  0.63811867  0.67562255  1
  H+  H185  1  0.64004762  0.01785518  0.17789667  1
  H+  H186  1  0.62554763  0.64096265  0.14607090  1
  H+  H187  1  0.87049228  0.14562243  1.00518988  1
  H+  H188  1  0.35656937  0.46716429  0.87032003  1
  H+  H189  1  0.21999810  0.36226037  0.50995514  1
  H+  H190  1  0.38143745  0.85049800  0.32950529  1
  H+  H191  1  0.63255337  0.26843694  0.15081392  1
  H+  H192  1  0.08977398  0.45709934  0.66694168  1
  H+  H193  1  0.45839804  0.84242996  0.86635741  1
  H+  H194  1  0.99827010  0.62537305  0.35631508  1
  H+  H195  1  0.23837512  0.88039660  0.84243383  1
  H+  H196  1  0.61632695  0.14715560  0.66606181  1
  H+  H197  1  0.78145468  0.89864741  0.01220027  1
  H+  H198  1  0.46832955  0.35548056  0.99479114  1
  H+  H199  1  0.14166929  0.38504894  0.18256512  1
  H+  H200  1  1.02373157  0.12268704  0.83449732  1
  H+  H201  1  0.57984554  0.63550951  0.34309540  1
  H+  H202  1  0.79272000  0.73090826  0.38429315  1
  H+  H203  1  0.35888615  0.38890627  0.15991382  1
  H+  H204  1  0.12200667  0.73934191  0.34192925  1
  H+  H205  1  0.63874085  0.76185649  0.84166955  1
  H+  H206  1  0.80000820  0.37268084  0.81244954  1
  H+  H207  1  0.15132895  0.79110622  0.51145697  1
  H+  H208  1  0.82037062  0.92700450  0.40019460  1
  H+  H209  1  0.36867818  0.75636275  0.86666878  1
  H+  H210  1  0.79278669  0.69504874  0.15142914  1
  H+  H211  1  0.71076150  0.10555502  0.32909851  1
  H+  H212  1  0.13243505  0.78223794  0.17802556  1
  H+  H213  1  0.37729130  0.51943532  0.51036451  1
  H+  H214  1  0.86200907  0.33010337  0.66448819  1
  H+  H215  1  0.78951419  0.65967506  0.34183603  1
  H+  H216  1  0.66050109  1.05183418  0.64816481  1
  H+  H217  1  0.86201118  0.22388863  0.49598410  1
  H+  H218  1  0.39607559  0.53929106  0.80236286  1
  H+  H219  1  0.33047737  0.91387116  0.11116065  1
  H+  H220  1  0.80164591  0.30627836  0.30169439  1
  H+  H221  1  0.78151907  0.38695947  0.49711905  1
  H+  H222  1  0.97990453  0.86011759  0.66868509  1
  H+  H223  1  0.90253566  0.85442925  0.51348844  1
  H+  H224  1  0.14925645  0.78157504  -0.00332693  1
  H+  H225  1  0.35833980  0.72560539  0.34349360  1
  H+  H226  1  0.36133455  0.22399451  0.66828748  1
  H+  H227  1  0.27328916  0.87229040  0.34301716  1
  H+  H228  1  0.58834732  0.72927871  0.49444510  1
  H+  H229  1  0.87404448  0.90358494  1.01468018  1
  H+  H230  1  0.00116126  0.09265404  0.14225914  1
  H+  H231  1  0.89582052  0.39932884  0.35875716  1
  H+  H232  1  0.71519715  0.60743400  0.99672733  1
  H+  H233  1  0.38710493  0.61377879  0.98837351  1
  H+  H234  1  0.31672028  0.71003290  0.68093235  1
  H+  H235  1  0.59759576  0.37054732  0.15308201  1
  H+  H236  1  0.17795020  0.14341676  0.18777712  1
  H+  H237  1  0.24208865  0.63627921  0.84813641  1
  H+  H238  1  0.01892318  0.13607583  0.49063418  1
  H+  H239  1  0.73204216  0.86555620  0.16763963  1
  H+  H240  1  0.92557857  0.50611133  0.37407182  1
  H+  H241  1  0.58693336  0.36979645  0.82285560  1
  H+  H242  1  0.90848419  0.79830287  0.33122829  1
  H+  H243  1  0.37842669  0.61497211  0.66099719  1
  H+  H244  1  0.38640309  0.27368644  0.50475779  1
  H+  H245  1  0.59879376  0.21512280  0.32817673  1
  H+  H246  1  0.11746965  0.48501582  1.01063511  1
  H+  H247  1  0.59022872  0.20563071  0.82271636  1
  H+  H248  1  0.46544882  0.60979514  0.50862911  1
  H+  H249  1  0.47419009  0.35826506  0.65981354  1
  H+  H250  1  0.65512146  0.13647669  0.82853262  1
  H+  H251  1  0.37344748  0.98789458  0.66672588  1
  H+  H252  1  0.13085950  0.38850462  0.81827572  1
  H+  H253  1  0.26711366  0.63677832  0.49714654  1
  H+  H254  1  0.15160106  0.01310284  0.99654615  1
  H+  H255  1  0.56548731  0.41716652  0.34323001  1
  H+  H256  1  0.45964722  0.35342523  0.16848904  1
  H+  H257  1  0.15350836  0.57895747  0.56482050  1
  H+  H258  1  0.74052608  0.11752704  0.17851291  1
  H+  H259  1  0.22332278  0.61425599  0.33765175  1
  H+  H260  1  0.91019914  0.57672989  0.31700267  1
  H+  H261  1  0.65890285  0.29434472  0.99293179  1
  H+  H262  1  0.35688480  0.21112603  0.82481128  1
  H+  H263  1  0.96844557  0.84320900  0.82918027  1
  H+  H264  1  0.11052483  0.33510911  0.66085623  1
  H+  H265  1  0.86106408  0.14164628  0.34022837  1
  H+  H266  1  0.87367578  0.35950237  0.16903090  1
  H+  H267  1  0.07997156  0.41635115  0.41526841  1
  H+  H268  1  0.88434055  0.60827303  0.66070316  1
  H+  H269  1  0.77005777  0.38505439  0.66429063  1
  H+  H270  1  0.58488998  0.92161485  0.90036972  1
  H+  H271  1  0.44008953  0.78789810  0.64492103  1
  H+  H272  1  0.62095069  0.88648205  0.16041106  1
  H+  H273  1  0.11538898  0.13547863  0.34010844  1
  H+  H274  1  0.37786010  0.40306720  0.70113926  1
  H+  H275  1  0.61023486  0.47373347  0.67076115  1
  H+  H276  1  0.36046209  0.47294578  0.00223245  1
  H+  H277  1  0.72547377  0.85881951  0.32342216  1
  H+  H278  1  0.03656050  0.64701112  0.01431023  1
  H+  H279  1  0.88481212  0.03113428  0.99296316  1
  H+  H280  1  0.45874827  0.62081992  0.32694542  1
  H+  H281  1  0.63420989  0.61232152  0.66351393  1
  H+  H282  1  0.90979444  0.88549434  0.33125432  1
  H+  H283  1  0.85808525  0.64544842  0.00177802  1
  H+  H284  1  0.27324708  0.12814806  0.17098580  1
  H+  H285  1  0.10643558  0.64243777  0.16470988  1
  H+  H286  1  0.86103579  0.97798750  0.33994084  1
  H+  H287  1  0.46267519  0.34851604  0.83693139  1
  H+  H288  1  0.91671223  0.08574081  0.22998280  1
  H+  H289  1  0.58931912  0.17898851  0.42740615  1
  H+  H290  1  0.92256094  0.58440976  0.60296984  1
  H+  H291  1  0.34043926  0.66148959  0.06986113  1
  H+  H292  1  0.56363604  0.15283572  0.08283235  1
  H+  H293  1  0.43086595  0.83847928  0.58956768  1
  H+  H294  1  0.91860086  0.07830021  0.89512847  1
  H+  H295  1  0.82988045  0.41056072  0.09169608  1
  H+  H296  1  0.18389055  0.84356081  0.57339308  1
  H+  H297  1  0.56868356  0.66982611  0.43740898  1
  H+  H298  1  0.52376363  0.14121012  0.66575600  1
  H+  H299  1  0.47302650  0.85226637  0.32689229  1
  H+  H300  1  0.31224731  0.65105384  0.73640133  1
  H+  H301  1  0.51792705  0.63303176  0.82549507  1
  H+  H302  1  0.62707547  0.59609923  0.83024956  1
  H+  H303  1  0.16655107  0.33843086  0.93913264  1
  H+  H304  1  0.63158095  0.31363396  0.24668177  1
  H+  H305  1  0.12570186  0.64504425  0.01133667  1
  H+  H306  1  0.82820877  0.65523205  0.72838260  1
  H+  H307  1  0.66153046  0.07846040  0.24069950  1
  H+  H308  1  0.58078077  0.94949894  0.83068528  1
  H+  H309  1  0.57714248  0.15801707  0.75891054  1
  H+  H310  1  0.39693973  0.71816678  0.79625546  1
  H+  H311  1  0.33423468  0.42255764  0.06562698  1
  H+  H312  1  0.83106103  0.16678555  0.43464202  1
  H+  H313  1  0.33427856  0.15488708  0.11170082  1
  H+  H314  1  0.90942851  0.08723658  0.56860740  1
  H+  H315  1  0.94356293  0.86107192  0.23281691  1
  H+  H316  1  0.33146713  0.16853883  0.43144122  1
  H+  H317  1  0.41128921  0.33263512  0.60362191  1
  H+  H318  1  0.71774683  0.35947399  0.15960683  1
  H+  H319  1  0.41149341  0.31241388  0.90039712  1
  H+  H320  1  0.69560519  0.57406667  0.21355710  1
  H+  H321  1  0.84197152  0.42095147  0.75101947  1
  H+  H322  1  0.33782986  0.90513985  0.39991225  1
  H+  H323  1  0.83495874  0.69088585  0.05351496  1
  H+  H324  1  0.09624781  0.41763231  0.76279585  1
  H+  H325  1  0.08671624  0.14538774  0.74635395  1
  H+  H326  1  0.09556824  0.68535757  0.43939981  1
  H+  H327  1  0.37963136  0.98523248  0.49107295  1
  H+  H328  1  0.16479428  0.83922293  0.27221198  1
  H+  H329  1  0.17572267  0.59954950  0.94197505  1
  H+  H330  1  0.41205394  0.58276144  0.92709680  1
  H+  H331  1  0.09091541  0.67598957  0.76867261  1
  H+  H332  1  0.66901821  0.83053989  0.22522381  1
  H+  H333  1  0.32970360  0.15968033  0.72523310  1
  H+  H334  1  0.86373946  0.47095011  0.66391131  1
  H+  H335  1  0.62362305  0.39913373  0.49190213  1
  H+  H336  1  0.91808970  0.57946663  0.89616747  1
  H+  H337  1  0.57631692  0.40900974  0.72793560  1
  H+  H338  1  0.63731999  0.36668800  0.65503462  1
  H+  H339  1  0.35266419  0.95846120  0.76809923  1
  H+  H340  1  0.15209370  0.32130558  0.56523873  1
  H+  H341  1  0.41492747  0.82493544  0.23745535  1
  H+  H342  1  0.61705307  0.29817437  0.90518075  1
  H+  H343  1  0.61275062  0.93116552  0.70480371  1
  H+  H344  1  0.00567004  0.36533135  0.67842381  1
  H+  H345  1  0.32807466  0.66718475  0.40528462  1
  H+  H346  1  0.75612575  0.97873704  0.45299226  1
  H+  H347  1  0.98695731  0.87841971  1.00214617  1
  H+  H348  1  0.87197379  0.01862040  0.17363856  1
  H+  H349  1  0.85534885  0.71340576  0.81701896  1
  H+  H350  1  0.16721379  0.08253110  0.26602831  1
  H+  H351  1  0.15654992  0.64237503  0.84931447  1
  H+  H352  1  0.08369989  0.16561313  0.40162147  1
  H+  H353  1  0.92037816  0.83000034  0.60972637  1
  H+  H354  1  0.88307427  0.42710470  0.43120796  1
  H+  H355  1  0.88127365  0.84483974  0.82899593  1
  H+  H356  1  0.58586306  0.90345559  0.39413983  1
  H+  H357  1  0.37366219  0.32067138  0.25780418  1
  H+  H358  1  0.09439506  0.67720331  0.10045535  1
  H+  H359  1  0.10395974  0.93287383  0.07072157  1
  H+  H360  1  0.83910058  0.16848272  0.06665658  1
  H+  H361  1  0.18072442  0.07542125  0.92976603  1
  H+  H362  1  0.58070524  0.66436957  0.76804064  1
  H+  H363  1  0.16146311  0.04008316  0.56259782  1
  H+  H364  1  0.67167347  0.12613570  0.93389054  1
  H+  H365  1  0.88620259  0.51431363  0.24290673  1
  H+  H366  1  0.41085437  0.58598373  0.60318275  1
  H+  H367  1  0.17796661  0.56819456  0.24682190  1
  H+  H368  1  0.41083536  0.82679810  0.95375762  1
  H+  H369  1  0.53432718  0.90368466  -0.01454928  1
  H+  H370  1  0.68537407  0.83525546  0.94021625  1
  H+  H371  1  0.89620614  0.01565394  0.83792655  1
  H+  H372  1  0.85166559  0.21652446  0.73885707  1
  H+  H373  1  0.62165747  0.10871094  0.32607948  1
  H+  H374  1  0.38741051  0.11831002  0.34603736  1
  H+  H375  1  0.28237077  0.62883744  0.17049396  1
  H+  H376  1  0.61483826  0.00106672  0.97456348  1
  H+  H377  1  0.61799971  0.44737183  0.40357278  1
  H+  H378  1  0.83372707  0.91232976  0.76538981  1
  H+  H379  1  0.45800284  0.07312269  0.81989598  1
  H+  H380  1  0.85139596  0.52581292  0.24714767  1
  H+  H381  1  0.06940349  0.13908211  0.04737550  1
  H+  H382  1  0.40371721  0.57946085  0.24241055  1
  H+  H383  1  0.17938248  0.37227270  0.24579063  1
  O2-  O384  1  0.03985887  0.08285624  0.11627026  1
  O2-  O385  1  0.07674595  0.16794804  0.47247217  1
  O2-  O386  1  0.08722373  0.15103428  0.81961924  1
  O2-  O387  1  0.06168748  0.40632454  0.14566800  1
  O2-  O388  1  0.07582912  0.41497436  0.48743868  1
  O2-  O389  1  0.10293319  0.42230072  0.80772403  1
  O2-  O390  1  0.08290529  0.67539906  0.14601941  1
  O2-  O391  1  0.09482302  0.68423795  0.48478273  1
  O2-  O392  1  0.09414230  0.68305937  0.81389208  1
  O2-  O393  1  0.10025711  0.93871776  0.14592999  1
  O2-  O394  1  0.12287502  0.95275078  0.49660813  1
  O2-  O395  1  0.08372616  0.91166499  0.81097375  1
  O2-  O396  1  0.33582988  0.16131811  0.15626782  1
  O2-  O397  1  0.33845323  0.16900859  0.47752326  1
  O2-  O398  1  0.32329624  0.15234610  0.80604142  1
  O2-  O399  1  0.33785358  0.42975785  0.14758456  1
  O2-  O400  1  0.32721175  0.41618967  0.48579315  1
  O2-  O401  1  0.32533433  0.40602211  0.88277210  1
  O2-  O402  1  0.34153085  0.66174693  0.15247987  1
  O2-  O403  1  0.32773401  0.66698269  0.48194048  1
  O2-  O404  1  0.34410985  0.66460547  0.80490099  1
  O2-  O405  1  0.32500779  0.90677073  0.15623865  1
  O2-  O406  1  0.34957795  0.92270715  0.48032764  1
  O2-  O407  1  0.35200921  0.95763085  0.81380063  1
  O2-  O408  1  0.60455176  0.17726715  0.11717055  1
  O2-  O409  1  0.59162182  0.18397979  0.47291385  1
  O2-  O410  1  0.57305512  0.14858475  0.80446491  1
  O2-  O411  1  0.56361487  0.39887748  0.14035552  1
  O2-  O412  1  0.59263679  0.42829264  0.47587516  1
  O2-  O413  1  0.56113492  0.40166876  0.80418317  1
  O2-  O414  1  0.59403265  0.66899753  0.13171507  1
  O2-  O415  1  0.57198634  0.66946185  0.48228655  1
  O2-  O416  1  0.57985160  0.66158262  0.81347639  1
  O2-  O417  1  0.59012096  0.91970900  0.15063624  1
  O2-  O418  1  0.58103141  0.87959940  0.47253376  1
  O2-  O419  1  0.57233442  0.90131471  0.85560823  1
  O2-  O420  1  0.81742599  0.15913145  0.15891886  1
  O2-  O421  1  0.83209845  0.16391776  0.47976704  1
  O2-  O422  1  0.85810994  0.21614086  0.78827027  1
  O2-  O423  1  0.82638567  0.41253351  0.13750108  1
  O2-  O424  1  0.84597720  0.41518762  0.49054374  1
  O2-  O425  1  0.84911944  0.42485109  0.79709308  1
  O2-  O426  1  0.84985743  0.71124124  0.13611274  1
  O2-  O427  1  0.82906032  0.65518536  0.49138103  1
  O2-  O428  1  0.82342956  0.65076467  0.80245850  1
  O2-  O429  1  0.83397050  0.92232121  0.14764833  1
  O2-  O430  1  0.78169997  0.94521045  0.46758091  1
  O2-  O431  1  0.83622884  0.90875909  0.81031093  1
  O2-  O432  1  0.17606812  0.08907555  0.19487184  1
  O2-  O433  1  0.17672905  0.04073341  0.51872086  1
  O2-  O434  1  0.16832164  0.07423345  0.86210101  1
  O2-  O435  1  0.19526048  0.40436360  0.20625177  1
  O2-  O436  1  0.15758260  0.33276214  0.52032181  1
  O2-  O437  1  0.18567844  0.32796204  0.82074498  1
  O2-  O438  1  0.18992083  0.55409439  0.20495946  1
  O2-  O439  1  0.15998629  0.58287584  0.51937674  1
  O2-  O440  1  0.19046781  0.62207692  0.87213269  1
  O2-  O441  1  0.16392307  0.84127864  0.19479767  1
  O2-  O442  1  0.18643243  0.85047813  0.52800270  1
  O2-  O443  1  0.17937371  0.84588091  0.85852992  1
  O2-  O444  1  0.40727967  0.06805761  0.21500907  1
  O2-  O445  1  0.42744235  0.09097788  0.51481462  1
  O2-  O446  1  0.39700866  0.04873015  0.83332660  1
  O2-  O447  1  0.39818588  0.32780757  0.17997169  1
  O2-  O448  1  0.41491562  0.33428239  0.52017469  1
  O2-  O449  1  0.40420169  0.31218061  0.85544747  1
  O2-  O450  1  0.41076280  0.58013462  0.19550976  1
  O2-  O451  1  0.40535329  0.58090440  0.52421847  1
  O2-  O452  1  0.40555358  0.57569053  0.83814391  1
  O2-  O453  1  0.41407608  0.82380817  0.19125310  1
  O2-  O454  1  0.42359144  0.83411199  0.51732980  1
  O2-  O455  1  0.39871091  0.81578460  0.88185156  1
  O2-  O456  1  0.66964210  0.07903797  0.19390702  1
  O2-  O457  1  0.66038863  0.09407356  0.51263876  1
  O2-  O458  1  0.70674640  0.13797786  0.84818100  1
  O2-  O459  1  0.65579583  0.32641765  0.17074098  1
  O2-  O460  1  0.67886055  0.34521281  0.51432582  1
  O2-  O461  1  0.62916491  0.30795589  0.85925413  1
  O2-  O462  1  0.68010940  0.57203481  0.16971022  1
  O2-  O463  1  0.66326106  0.58879647  0.52481533  1
  O2-  O464  1  0.65297835  0.55965816  0.83839505  1
  O2-  O465  1  0.66940919  0.83376107  0.18004012  1
  O2-  O466  1  0.61321385  0.83389135  0.50989288  1
  O2-  O467  1  0.67382394  0.82255920  0.85673747  1
  O2-  O468  1  0.90222742  0.08150532  0.18623288  1
  O2-  O469  1  0.90720546  0.07890561  0.52376233  1
  O2-  O470  1  0.92934931  0.07685123  0.85066319  1
  O2-  O471  1  0.90021268  0.32802268  0.18920417  1
  O2-  O472  1  0.91343397  0.32315859  0.53062295  1
  O2-  O473  1  0.94603531  0.35378186  0.83862906  1
  O2-  O474  1  0.90906441  0.59648859  0.13380632  1
  O2-  O475  1  0.92808922  0.58788391  0.52464056  1
  O2-  O476  1  0.92259225  0.58271403  0.85194288  1
  O2-  O477  1  0.94069566  0.86248210  0.18781691  1
  O2-  O478  1  0.92103439  0.81926382  0.53495970  1
  O2-  O479  1  0.90679455  0.80836505  0.83900110  1
  O2-  O480  1  0.16284623  0.08403592  0.31295138  1
  O2-  O481  1  0.16787280  0.06854603  0.64049309  1
  O2-  O482  1  0.18666033  0.07454557  0.97683206  1
  O2-  O483  1  0.16095186  0.33546751  0.31922751  1
  O2-  O484  1  0.12882721  0.29867593  0.63893180  1
  O2-  O485  1  0.16590979  0.33966169  0.98341029  1
  O2-  O486  1  0.16278468  0.58373946  0.32127166  1
  O2-  O487  1  0.13940839  0.56274652  0.64158157  1
  O2-  O488  1  0.17049230  0.59110625  0.98802281  1
  O2-  O489  1  0.16678004  0.83453132  0.31754696  1
  O2-  O490  1  0.17452983  0.83129286  0.65019499  1
  O2-  O491  1  0.17920128  0.84272451  0.98286258  1
  O2-  O492  1  0.41809163  0.08642755  0.33739176  1
  O2-  O493  1  0.42128363  0.08665464  0.63756063  1
  O2-  O494  1  0.43211123  0.08940184  0.98532224  1
  O2-  O495  1  0.35068538  0.30487403  0.29960774  1
  O2-  O496  1  0.41208742  0.32887632  0.64865450  1
  O2-  O497  1  0.40724108  0.32099710  0.98040871  1
  O2-  O498  1  0.39918831  0.58574532  0.31086391  1
  O2-  O499  1  0.41662304  0.59303434  0.64834003  1
  O2-  O500  1  0.41465768  0.58121487  0.97194090  1
  O2-  O501  1  0.41314787  0.82033757  0.31162218  1
  O2-  O502  1  0.43987228  0.84083473  0.63560243  1
  O2-  O503  1  0.42517581  0.83599258  0.99885178  1
  O2-  O504  1  0.65245551  0.07622354  0.31074624  1
  O2-  O505  1  0.67899119  0.11199312  0.63647902  1
  O2-  O506  1  0.64462533  0.09976486  0.97278525  1
  O2-  O507  1  0.61249077  0.30278091  0.28986132  1
  O2-  O508  1  0.66863495  0.33742307  0.63891529  1
  O2-  O509  1  0.60548170  0.28617765  0.97553983  1
  O2-  O510  1  0.70840295  0.58960062  0.29218466  1
  O2-  O511  1  0.66238390  0.58094633  0.64600246  1
  O2-  O512  1  0.65236816  0.57360463  0.98829547  1
  O2-  O513  1  0.66605491  0.82882822  0.30703873  1
  O2-  O514  1  0.67670133  0.82264365  0.63710737  1
  O2-  O515  1  0.68598265  0.85056892  0.98356032  1
  O2-  O516  1  0.94508206  0.13323165  0.30505542  1
  O2-  O517  1  0.92208812  0.12293528  0.64605345  1
  O2-  O518  1  0.91053959  0.08833770  0.97268552  1
  O2-  O519  1  0.86076017  0.31851956  0.30630457  1
  O2-  O520  1  0.89405406  0.29983229  0.65277775  1
  O2-  O521  1  0.91852815  0.34051057  0.98824959  1
  O2-  O522  1  0.93302210  0.58137521  0.35804418  1
  O2-  O523  1  0.91749378  0.57913004  0.64828982  1
  O2-  O524  1  0.92403210  0.59252140  1.01092646  1
  O2-  O525  1  0.94257553  0.85824108  0.31653664  1
  O2-  O526  1  0.91863091  0.83324426  0.65532412  1
  O2-  O527  1  0.92789076  0.85896153  0.98852728  1
  O2-  O528  1  0.07259620  0.15917715  0.00485737  1
  O2-  O529  1  0.08648971  0.16815805  0.35497259  1
  O2-  O530  1  0.08321410  0.14178167  0.70002362  1
  O2-  O531  1  0.08606979  0.42441681  0.02593922  1
  O2-  O532  1  0.08213730  0.41817324  0.36869666  1
  O2-  O533  1  0.06812627  0.39938256  0.68601242  1
  O2-  O534  1  0.09810913  0.67880974  0.02703725  1
  O2-  O535  1  0.09408530  0.67953263  0.36091184  1
  O2-  O536  1  0.08234640  0.66422064  0.69000059  1
  O2-  O537  1  0.10195109  0.92869006  0.02484805  1
  O2-  O538  1  0.10221402  0.92784965  0.36919398  1
  O2-  O539  1  0.08759613  0.90795893  0.68895038  1
  O2-  O540  1  0.33694891  0.16136166  0.02354824  1
  O2-  O541  1  0.32141331  0.16415852  0.35959759  1
  O2-  O542  1  0.33228285  0.16134536  0.67996681  1
  O2-  O543  1  0.33113171  0.41469623  0.02082419  1
  O2-  O544  1  0.32393290  0.42328338  0.36258676  1
  O2-  O545  1  0.36246220  0.44165799  0.72237216  1
  O2-  O546  1  0.34081560  0.66611103  0.02491504  1
  O2-  O547  1  0.32472445  0.66463449  0.35949541  1
  O2-  O548  1  0.30164789  0.65103615  0.69005221  1
  O2-  O549  1  0.33933740  0.92011616  0.03262808  1
  O2-  O550  1  0.33192744  0.88842320  0.35648963  1
  O2-  O551  1  0.34550932  0.93131953  0.68936388  1
  O2-  O552  1  0.52207311  0.13593195  0.00575957  1
  O2-  O553  1  0.58012152  0.16008139  0.35061241  1
  O2-  O554  1  0.58290201  0.17306459  0.68383831  1
  O2-  O555  1  0.57112778  0.40544964  0.01781131  1
  O2-  O556  1  0.62455336  0.45200864  0.35743549  1
  O2-  O557  1  0.58168307  0.41175373  0.68233167  1
  O2-  O558  1  0.57302467  0.64566385  0.01552235  1
  O2-  O559  1  0.56129793  0.67559895  0.35545043  1
  O2-  O560  1  0.58438791  0.66686085  0.68876727  1
  O2-  O561  1  0.59441694  0.93729418  -0.03024440  1
  O2-  O562  1  0.58496462  0.90867444  0.34920563  1
  O2-  O563  1  0.61108994  0.93941563  0.66116163  1
  O2-  O564  1  0.84649979  0.18064716  0.02317367  1
  O2-  O565  1  0.82047545  0.16001471  0.35545016  1
  O2-  O566  1  0.84207867  0.21072696  0.67653648  1
  O2-  O567  1  0.84664023  0.42113781  0.01747509  1
  O2-  O568  1  0.92050734  0.44544818  0.39055364  1
  O2-  O569  1  0.83128031  0.40973184  0.67847646  1
  O2-  O570  1  0.82492464  0.67483037  0.00999403  1
  O2-  O571  1  0.82677832  0.70506431  0.37158793  1
  O2-  O572  1  0.83029209  0.65897567  0.68235363  1
  O2-  O573  1  0.84109334  0.93137195  0.03062754  1
  O2-  O574  1  0.83361878  0.92002266  0.35679696  1
  O2-  O575  1  0.84011061  0.92135927  0.68487009  1
