# generated using pymatgen
data_H2O
_symmetry_space_group_name_H-M   'P 1'
_cell_length_a   18.00321839
_cell_length_b   18.00439413
_cell_length_c   22.00955994
_cell_angle_alpha   90.01155798
_cell_angle_beta   90.00144924
_cell_angle_gamma   120.02110693
_symmetry_Int_Tables_number   1
_chemical_formula_structural   H2O
_chemical_formula_sum   'H384 O192'
_cell_volume   6177.00894773
_cell_formula_units_Z   192
loop_
 _symmetry_equiv_pos_site_id
 _symmetry_equiv_pos_as_xyz
  1  'x, y, z'
loop_
 _atom_type_symbol
 _atom_type_oxidation_number
  H+  1.0
  O2-  -2.0
loop_
 _atom_site_type_symbol
 _atom_site_label
 _atom_site_symmetry_multiplicity
 _atom_site_fract_x
 _atom_site_fract_y
 _atom_site_fract_z
 _atom_site_occupancy
  H+  H0  1  0.90406506  0.53010205  0.33694438  1
  H+  H1  1  0.86839425  0.80319174  0.64995230  1
  H+  H2  1  0.87374402  0.78033788  0.83392026  1
  H+  H3  1  0.63161441  0.76177544  0.33053995  1
  H+  H4  1  0.56584573  0.15877438  0.73330727  1
  H+  H5  1  0.11824660  0.15490196  0.81066395  1
  H+  H6  1  0.86508032  0.38470581  0.33487583  1
  H+  H7  1  0.81162303  0.13896135  0.83235570  1
  H+  H8  1  0.11525279  -0.02121058  0.15942443  1
  H+  H9  1  0.35977551  0.15343875  0.17409445  1
  H+  H10  1  0.88735535  0.48398608  0.48570958  1
  H+  H11  1  0.86394351  0.39204543  0.82144433  1
  H+  H12  1  -0.03260195  0.10489284  0.50828206  1
  H+  H13  1  0.32728662  0.11136498  0.87657305  1
  H+  H14  1  0.79490941  0.61507275  0.65244251  1
  H+  H15  1  0.90317734  0.29652206  0.83815065  1
  H+  H16  1  0.85502877  0.63763495  0.49844779  1
  H+  H17  1  0.78625572  0.87786035  1.00482747  1
  H+  H18  1  0.13873040  0.28116224  0.82864364  1
  H+  H19  1  0.39011323  0.27024676  0.50308670  1
  H+  H20  1  0.02063627  0.89171033  0.48947770  1
  H+  H21  1  0.08784069  0.96777342  0.80846606  1
  H+  H22  1  0.40338622  0.78313692  0.17283021  1
  H+  H23  1  0.84718794  0.41828711  0.42574896  1
  H+  H24  1  0.85636760  0.96643440  0.49604145  1
  H+  H25  1  0.12717644  0.35905644  0.17747307  1
  H+  H26  1  0.77278129  0.63766675  1.01032980  1
  H+  H27  1  0.72930480  0.88415174  0.66421352  1
  H+  H28  1  0.89942906  0.61589432  0.33575011  1
  H+  H29  1  0.26800022  0.64172032  0.47233619  1
  H+  H30  1  0.88228880  0.38786449  0.49351877  1
  H+  H31  1  0.01958472  0.64416236  0.37355255  1
  H+  H32  1  0.61592403  0.09997554  0.50740313  1
  H+  H33  1  0.39732016  0.38766435  0.17948202  1
  H+  H34  1  0.29434220  0.62467472  0.80730150  1
  H+  H35  1  0.91703796  0.12227272  0.86526873  1
  H+  H36  1  0.38924666  1.01495663  0.49249244  1
  H+  H37  1  0.37190030  0.12334527  0.33960257  1
  H+  H38  1  0.11856001  0.11064214  0.34149169  1
  H+  H39  1  0.12162433  0.85305874  0.17974909  1
  H+  H40  1  0.61400924  0.47271983  0.49147412  1
  H+  H41  1  0.21825846  0.11770268  0.17155603  1
  H+  H42  1  0.18469226  0.63433046  0.84979114  1
  H+  H43  1  0.87439718  0.50984959  0.18902792  1
  H+  H44  1  0.36860589  0.62846803  0.18404925  1
  H+  H45  1  0.02087807  0.14804528  0.34142006  1
  H+  H46  1  0.37724909  0.87990747  0.66919147  1
  H+  H47  1  0.90451391  0.03041711  0.84870221  1
  H+  H48  1  0.60315524  0.21678763  0.49277279  1
  H+  H49  1  0.27119009  0.88070779  0.33274652  1
  H+  H50  1  0.88440976  0.12881726  0.65695433  1
  H+  H51  1  0.45453385  1.11376736  0.84375927  1
  H+  H52  1  0.13359570  0.52702328  0.18635431  1
  H+  H53  1  0.71791745  0.35685809  0.65782128  1
  H+  H54  1  0.40908078  0.62325010  0.63610561  1
  H+  H55  1  0.12328088  0.86221212  0.99978044  1
  H+  H56  1  0.58569947  0.33968365  0.16948607  1
  H+  H57  1  0.35373871  0.63816556  0.47758498  1
  H+  H58  1  0.52013724  0.38567164  0.81788084  1
  H+  H59  1  0.74523888  0.60378972  0.30989110  1
  H+  H60  1  0.96824211  0.86079537  0.83427928  1
  H+  H61  1  0.13172621  0.85026946  0.65343371  1
  H+  H62  1  0.11763293  0.40198342  0.48811115  1
  H+  H63  1  0.50862272  0.62538905  0.34647797  1
  H+  H64  1  0.76804097  0.87494740  0.49723467  1
  H+  H65  1  0.52391332  0.38583468  0.48479989  1
  H+  H66  1  0.53921228  0.13502150  0.33749497  1
  H+  H67  1  0.67894750  0.51344176  0.10735644  1
  H+  H68  1  0.11280043  0.38520413  0.66758539  1
  H+  H69  1  0.08395320  0.75564281  0.46963093  1
  H+  H70  1  0.34313395  0.90682638  0.00061276  1
  H+  H71  1  0.47398237  0.85986883  0.31979172  1
  H+  H72  1  0.23596402  0.37558401  0.83079070  1
  H+  H73  1  0.12439166  0.64467067  0.16857653  1
  H+  H74  1  0.46705374  0.85132625  0.82978182  1
  H+  H75  1  0.51586331  0.12804237  0.66977677  1
  H+  H76  1  0.47591367  0.38329082  0.33625445  1
  H+  H77  1  0.22117304  0.36822414  0.32971378  1
  H+  H78  1  0.11259986  0.40304751  0.32934854  1
  H+  H79  1  0.62607435  0.63097146  0.84180968  1
  H+  H80  1  0.57828308  0.12429612  0.83127583  1
  H+  H81  1  0.63535763  0.26371030  0.18415308  1
  H+  H82  1  0.76662407  0.11918959  0.48142470  1
  H+  H83  1  0.71293429  0.34623379  0.83439661  1
  H+  H84  1  0.22423525  0.61096399  0.19488700  1
  H+  H85  1  0.71987991  0.60952056  0.50279396  1
  H+  H86  1  0.87891581  0.48314584  1.02678003  1
  H+  H87  1  0.37745698  0.09019891  0.63744578  1
  H+  H88  1  0.34371785  0.19415971  0.61560623  1
  H+  H89  1  0.63382894  0.11721502  0.66268927  1
  H+  H90  1  0.59348209  0.21962074  0.82626984  1
  H+  H91  1  0.74946677  0.38711665  0.02202410  1
  H+  H92  1  0.27360598  0.13904213  0.02600092  1
  H+  H93  1  0.88444857  0.61479937  1.01129623  1
  H+  H94  1  0.02991525  0.39485011  0.67528226  1
  H+  H95  1  0.98140656  0.86472678  0.99337123  1
  H+  H96  1  0.13254117  0.76662290  0.34045717  1
  H+  H97  1  0.61735519  0.13801120  0.16254856  1
  H+  H98  1  0.37441420  0.28806714  0.18448219  1
  H+  H99  1  0.38188657  0.27654390  0.81386216  1
  H+  H100  1  0.86987844  0.14427112  0.02622145  1
  H+  H101  1  0.12851029  0.85103797  0.33103674  1
  H+  H102  1  0.55598907  0.38060371  0.96052756  1
  H+  H103  1  0.62875148  0.26768647  0.66269343  1
  H+  H104  1  0.63987635  0.52700281  1.02038576  1
  H+  H105  1  0.61722962  0.71541583  0.16589086  1
  H+  H106  1  0.11298035  0.89782720  0.49048487  1
  H+  H107  1  0.13337009  0.51982698  1.00034935  1
  H+  H108  1  0.26299488  0.39071141  0.63534417  1
  H+  H109  1  0.22221733  0.60638613  0.00374691  1
  H+  H110  1  0.50111193  0.35573337  0.16542734  1
  H+  H111  1  0.76393785  0.67578742  0.76220729  1
  H+  H112  1  0.07394128  0.90675741  0.39677188  1
  H+  H113  1  0.10982058  -0.02434441  1.01289076  1
  H+  H114  1  0.64729401  0.98027246  0.01024024  1
  H+  H115  1  0.59330534  0.62073286  0.35637147  1
  H+  H116  1  0.67846607  0.08637535  0.84345160  1
  H+  H117  1  0.62369364  0.47358271  0.33145982  1
  H+  H118  1  0.14644351  -0.01176759  0.31125572  1
  H+  H119  1  0.71637089  0.57911055  0.87241698  1
  H+  H120  1  0.64473321  0.27419721  0.33448496  1
  H+  H121  1  0.32336148  0.64233618  0.12907973  1
  H+  H122  1  0.90569616  0.15591618  0.15454416  1
  H+  H123  1  0.52282894  0.15931731  0.00863325  1
  H+  H124  1  0.98133326  0.37472945  0.50439072  1
  H+  H125  1  0.65934537  0.52866005  0.65947837  1
  H+  H126  1  0.09460912  0.41901451  0.76043743  1
  H+  H127  1  0.84526807  0.19212267  0.07843110  1
  H+  H128  1  0.36283940  0.97910780  0.82531644  1
  H+  H129  1  0.89236740  0.27707317  0.99795975  1
  H+  H130  1  0.10261916  0.14584871  0.48804438  1
  H+  H131  1  0.11530765  0.14401708  0.16928284  1
  H+  H132  1  0.47359836  0.12489673  0.17488390  1
  H+  H133  1  1.01737458  0.86651211  0.66335065  1
  H+  H134  1  0.38911855  0.78129643  0.65533910  1
  H+  H135  1  0.53635695  0.40745577  0.66949513  1
  H+  H136  1  0.87781449  0.85023897  0.32818781  1
  H+  H137  1  0.48350759  0.46182811  0.60805277  1
  H+  H138  1  0.49075019  0.63311949  0.67000611  1
  H+  H139  1  0.61098442  0.75377814  0.68952378  1
  H+  H140  1  0.41302283  0.56196992  0.27244472  1
  H+  H141  1  0.89771992  0.73568981  0.64041759  1
  H+  H142  1  0.47927552  0.87648140  0.66612811  1
  H+  H143  1  0.38150926  0.77346675  0.31489032  1
  H+  H144  1  0.86840994  0.91880424  0.68083851  1
  H+  H145  1  0.02609618  0.89200304  0.16096973  1
  H+  H146  1  0.37221406  0.71912088  0.81298540  1
  H+  H147  1  0.74059189  0.11998997  1.00770191  1
  H+  H148  1  0.64069659  0.36208455  0.33224168  1
  H+  H149  1  0.38051374  0.90570079  0.15816701  1
  H+  H150  1  0.28084409  0.13726674  0.48587211  1
  H+  H151  1  0.75636799  0.13247796  0.32745655  1
  H+  H152  1  -0.01128941  0.56716776  0.78164721  1
  H+  H153  1  0.66927666  0.86347657  0.99662313  1
  H+  H154  1  0.43431850  0.65779274  0.95835346  1
  H+  H155  1  0.44499703  0.88483348  0.98417462  1
  H+  H156  1  0.89523524  0.38036397  0.65935877  1
  H+  H157  1  0.80344129  0.62863700  0.79701770  1
  H+  H158  1  0.12120846  0.28872512  0.32901177  1
  H+  H159  1  0.31533344  0.45120605  0.16920476  1
  H+  H160  1  0.99233863  0.38068610  0.83728515  1
  H+  H161  1  0.95498145  0.63534162  0.86084906  1
  H+  H162  1  -0.02758221  0.12377059  0.65572206  1
  H+  H163  1  0.88409710  0.08707831  0.30814968  1
  H+  H164  1  0.88208223  0.85893842  0.50100109  1
  H+  H165  1  0.42896701  0.84500329  0.22831797  1
  H+  H166  1  0.66248987  0.04294410  0.17594026  1
  H+  H167  1  0.32285001  0.19173726  0.90300562  1
  H+  H168  1  0.17992084  0.08409282  0.71575324  1
  H+  H169  1  0.66754304  0.60655469  0.27849085  1
  H+  H170  1  0.63567715  0.84823523  0.50603240  1
  H+  H171  1  0.39063784  0.13050916  0.00287738  1
  H+  H172  1  0.36562061  0.97423847  0.66524508  1
  H+  H173  1  0.17384196  0.10600549  0.42889954  1
  H+  H174  1  0.36094984  0.88037154  0.32839279  1
  H+  H175  1  0.85073841  0.47080719  0.82798343  1
  H+  H176  1  -0.01750331  0.20163721  0.36488254  1
  H+  H177  1  0.45422160  0.60020584  0.50540268  1
  H+  H178  1  0.61097124  -0.01327830  0.67690105  1
  H+  H179  1  0.19630824  0.09886287  0.85179762  1
  H+  H180  1  0.36413931  0.70109667  0.05050971  1
  H+  H181  1  0.86497097  0.89886743  0.83055601  1
  H+  H182  1  0.98492881  0.62795780  0.49042368  1
  H+  H183  1  0.38243416  0.50875239  0.66883285  1
  H+  H184  1  0.11909175  0.26660036  0.63460657  1
  H+  H185  1  0.85794221  0.95809170  0.33988232  1
  H+  H186  1  0.38434205  0.03962337  1.00323401  1
  H+  H187  1  0.21892183  0.85289355  0.49441696  1
  H+  H188  1  0.59174467  0.95889998  0.83750879  1
  H+  H189  1  0.78442458  0.91323241  0.18829053  1
  H+  H190  1  0.23056895  0.89948765  0.84540572  1
  H+  H191  1  1.01336516  0.87028439  0.33736792  1
  H+  H192  1  0.62542426  0.34786397  0.50245677  1
  H+  H193  1  0.82792509  0.90296795  0.40206718  1
  H+  H194  1  0.97519360  0.36668417  0.31468014  1
  H+  H195  1  0.48018975  0.58790373  0.17040717  1
  H+  H196  1  0.49277009  0.62938079  0.99462524  1
  H+  H197  1  0.64440424  0.09756487  1.01921404  1
  H+  H198  1  0.62260288  0.72481974  0.00913547  1
  H+  H199  1  1.02988967  0.15633877  0.15479734  1
  H+  H200  1  0.11629052  0.22583556  1.01127497  1
  H+  H201  1  0.02540316  0.64086200  0.01798176  1
  H+  H202  1  0.35294385  0.39360758  0.35111484  1
  H+  H203  1  0.64929490  0.31647130  1.02213535  1
  H+  H204  1  0.60803123  0.62943644  0.01222769  1
  H+  H205  1  0.12157434  0.54314050  0.34234197  1
  H+  H206  1  0.56817582  0.88507370  0.00761531  1
  H+  H207  1  0.36578177  0.48901892  -0.00036034  1
  H+  H208  1  0.21891771  0.84790187  0.65356707  1
  H+  H209  1  0.11195992  0.75825650  0.81689476  1
  H+  H210  1  0.72217375  0.84912539  0.33011087  1
  H+  H211  1  0.13507987  0.26689643  0.17696640  1
  H+  H212  1  0.35172502  0.23194817  1.01399126  1
  H+  H213  1  0.85064465  0.48212812  0.66566702  1
  H+  H214  1  -0.13529281  0.32192346  0.16737914  1
  H+  H215  1  0.76794548  0.36798357  0.17174022  1
  H+  H216  1  0.35156182  0.63661455  0.32827296  1
  H+  H217  1  0.36659939  0.36224669  0.97742320  1
  H+  H218  1  0.35926297  0.47739135  0.82482717  1
  H+  H219  1  0.62668560  0.96241486  0.48002836  1
  H+  H220  1  0.16021490  0.15160535  0.34756153  1
  H+  H221  1  0.86297499  0.72392687  0.00678003  1
  H+  H222  1  0.10843775  0.89636436  0.82700486  1
  H+  H223  1  0.26716542  0.37580459  0.51967346  1
  H+  H224  1  0.39868036  1.01948867  0.32297009  1
  H+  H225  1  0.25825407  0.11234353  0.63750195  1
  H+  H226  1  0.83893101  0.93850253  0.77426985  1
  H+  H227  1  0.10922256  0.48525654  0.47652621  1
  H+  H228  1  0.98186842  0.10683476  1.01366322  1
  H+  H229  1  0.33599715  0.18591642  0.11456610  1
  H+  H230  1  0.62860302  0.35224378  0.83590093  1
  H+  H231  1  0.63459912  0.14668515  0.34176119  1
  H+  H232  1  0.10796137  0.71625567  0.80721343  1
  H+  H233  1  0.85273407  0.11706365  0.49088120  1
  H+  H234  1  0.36658725  0.13135701  0.49608077  1
  H+  H235  1  0.36075524  0.79681579  0.98727107  1
  H+  H236  1  0.22675405  0.36868185  0.99485999  1
  H+  H237  1  0.20094272  0.09561837  0.95280112  1
  H+  H238  1  0.09835800  0.70560198  0.64588598  1
  H+  H239  1  0.62820347  0.60386073  0.50945589  1
  H+  H240  1  0.30699614  0.40978016  0.40860409  1
  H+  H241  1  0.01195694  0.36191820  0.16204496  1
  H+  H242  1  0.35727110  0.61574851  0.02913576  1
  H+  H243  1  0.12817875  0.48075597  0.82185881  1
  H+  H244  1  0.12081345  0.74836620  0.17336147  1
  H+  H245  1  0.61804530  0.19460352  -0.01390762  1
  H+  H246  1  0.33166492  0.67329545  0.38807218  1
  H+  H247  1  0.87677279  0.39268465  0.01746323  1
  H+  H248  1  0.60154520  0.87053204  0.32888229  1
  H+  H249  1  0.10563306  0.13411384  0.66548588  1
  H+  H250  1  0.34826305  0.37232948  0.49510182  1
  H+  H251  1  0.54059729  0.35795761  -0.00929351  1
  H+  H252  1  0.89128600  0.02609741  0.25871129  1
  H+  H253  1  0.40763178  0.40948384  0.65143596  1
  H+  H254  1  0.77352755  0.05144796  0.79856574  1
  H+  H255  1  0.88688551  0.23432798  0.34051877  1
  H+  H256  1  0.25633684  0.90385197  1.01112695  1
  H+  H257  1  0.66425772  0.60759861  0.15409010  1
  H+  H258  1  0.14574387  0.59974882  0.42777504  1
  H+  H259  1  0.67333269  0.43469950  1.05427963  1
  H+  H260  1  0.34855695  0.43991184  0.06154065  1
  H+  H261  1  0.54198600  0.89822190  0.16365210  1
  H+  H262  1  0.41096330  0.89523136  0.50303273  1
  H+  H263  1  0.40382552  0.61165012  0.82956860  1
  H+  H264  1  0.37383036  0.51659487  0.33593800  1
  H+  H265  1  0.66831271  0.82225977  0.23581557  1
  H+  H266  1  0.86317917  0.71923633  0.33685998  1
  H+  H267  1  0.77095966  0.14853741  0.66370780  1
  H+  H268  1  0.72801766  0.86800560  0.84198654  1
  H+  H269  1  0.53989684  0.63325868  0.83351376  1
  H+  H270  1  0.07603248  0.91395537  0.07124543  1
  H+  H271  1  0.09749623  0.67653303  0.10590065  1
  H+  H272  1  0.35895700  0.88753052  0.81942854  1
  H+  H273  1  0.91502634  0.58276954  0.23645158  1
  H+  H274  1  0.62772549  0.50226898  0.84731655  1
  H+  H275  1  0.53551125  0.88732196  0.48853053  1
  H+  H276  1  0.61248562  0.38409656  0.67262950  1
  H+  H277  1  0.07896941  0.57685022  0.77592873  1
  H+  H278  1  0.15625313  0.52923405  0.65968295  1
  H+  H279  1  0.97305400  0.61441441  0.59806273  1
  H+  H280  1  0.64488282  0.85997695  0.17828052  1
  H+  H281  1  0.85559811  0.16881014  0.39923369  1
  H+  H282  1  0.63826262  0.87851864  0.66037611  1
  H+  H283  1  0.60344115  0.71239572  0.50571038  1
  H+  H284  1  0.85952821  0.72636516  0.48797404  1
  H+  H285  1  0.02481831  0.38832663  0.01371826  1
  H+  H286  1  0.64589004  0.77247520  0.84520054  1
  H+  H287  1  0.07423933  0.41831226  0.38961072  1
  H+  H288  1  0.08430481  0.18082721  0.71753356  1
  H+  H289  1  0.58746989  0.41958102  0.76302716  1
  H+  H290  1  0.14626128  0.81699594  0.24185006  1
  H+  H291  1  0.38183578  0.18864735  0.75758206  1
  H+  H292  1  0.40992317  0.08016106  0.90842402  1
  H+  H293  1  0.12201742  0.61102910  0.49700558  1
  H+  H294  1  0.33825053  0.93233973  0.10522814  1
  H+  H295  1  0.41985636  0.05863042  0.59045789  1
  H+  H296  1  0.21090619  0.62826600  0.34346570  1
  H+  H297  1  0.04783305  0.61859834  0.68499476  1
  H+  H298  1  0.64589407  0.55913101  0.95055126  1
  H+  H299  1  0.77851028  0.38881972  0.34152097  1
  H+  H300  1  0.92468118  0.35476421  0.56554467  1
  H+  H301  1  0.98975100  0.57644792  0.88372268  1
  H+  H302  1  0.58376191  0.15993873  0.43084337  1
  H+  H303  1  0.14492737  0.11730462  1.00116982  1
  H+  H304  1  0.42369889  0.57810528  0.89215930  1
  H+  H305  1  0.90462695  0.07391917  0.56575852  1
  H+  H306  1  0.33341351  0.16355192  0.75737260  1
  H+  H307  1  0.92885362  0.07834846  0.95297544  1
  H+  H308  1  0.39966913  0.82354784  0.88383654  1
  H+  H309  1  0.83161547  0.42755755  0.72658992  1
  H+  H310  1  0.44110336  0.87929549  0.56757388  1
  H+  H311  1  0.57989650  0.92176779  0.73493300  1
  H+  H312  1  0.56578325  0.00709862  0.53297785  1
  H+  H313  1  0.58550755  0.66212850  0.10498996  1
  H+  H314  1  0.12466575  0.00786646  0.67154695  1
  H+  H315  1  0.66580917  0.82940812  0.56993220  1
  H+  H316  1  0.58975350  0.40643302  0.10927171  1
  H+  H317  1  0.23933186  0.07411409  0.31296896  1
  H+  H318  1  0.11305287  0.38771608  0.01330207  1
  H+  H319  1  0.91580536  0.82288416  0.55561361  1
  H+  H320  1  0.38654297  0.03648440  0.17445995  1
  H+  H321  1  0.86097696  0.64864005  0.70669174  1
  H+  H322  1  0.47994867  0.10272508  0.49683027  1
  H+  H323  1  0.13827210  0.37600748  0.83019901  1
  H+  H324  1  0.82885171  0.65852220  0.39561459  1
  H+  H325  1  0.42645058  0.08438875  0.26656951  1
  H+  H326  1  0.68232417  0.58340220  0.59881365  1
  H+  H327  1  0.42342364  0.34295329  0.55636472  1
  H+  H328  1  0.58952191  0.17383236  0.10509707  1
  H+  H329  1  0.07047365  0.89486444  0.72575814  1
  H+  H330  1  0.36533773  0.51412730  0.49868805  1
  H+  H331  1  0.87736699  0.97382513  0.01372706  1
  H+  H332  1  0.28826109  0.65011445  0.65631362  1
  H+  H333  1  0.33685623  0.15133141  0.39585701  1
  H+  H334  1  0.88176692  0.87950416  1.00233672  1
  H+  H335  1  0.16583138  0.33565354  0.93699659  1
  H+  H336  1  0.33200364  0.43733631  0.72416227  1
  H+  H337  1  0.92026994  0.83570663  0.93200445  1
  H+  H338  1  0.17697502  0.57790514  0.90638782  1
  H+  H339  1  0.13305936  0.77809433  0.99596901  1
  H+  H340  1  0.41372032  0.35697854  0.27997208  1
  H+  H341  1  0.60857083  0.92446585  0.10890942  1
  H+  H342  1  0.91020223  0.57597652  0.95616589  1
  H+  H343  1  0.87660496  0.92461408  0.18374554  1
  H+  H344  1  0.92384018  0.33993318  0.93932410  1
  H+  H345  1  0.56884134  0.65638301  0.44585476  1
  H+  H346  1  0.09719709  0.17413374  0.07356620  1
  H+  H347  1  0.71523260  0.57485030  0.19402049  1
  H+  H348  1  0.57427523  0.89845836  0.38827158  1
  H+  H349  1  0.64874029  0.31613971  0.56315440  1
  H+  H350  1  0.11348615  0.63971359  1.01047769  1
  H+  H351  1  0.39599246  0.32608385  0.87760004  1
  H+  H352  1  0.59093727  0.68862520  0.74536564  1
  H+  H353  1  0.69438914  0.10730277  0.27064267  1
  H+  H354  1  0.13495649  0.03209114  0.47686937  1
  H+  H355  1  0.68610337  0.82860747  0.93446201  1
  H+  H356  1  0.16423393  0.33516453  0.24102519  1
  H+  H357  1  0.89251255  0.29066989  0.65826324  1
  H+  H358  1  0.30297044  0.80267967  0.45816116  1
  H+  H359  1  0.07958336  0.40876622  0.10907667  1
  H+  H360  1  0.35674527  0.67804454  0.71018286  1
  H+  H361  1  0.32304390  0.88322960  0.41727163  1
  H+  H362  1  0.10198839  0.05931115  0.87603417  1
  H+  H363  1  0.66525055  0.32727829  0.24285540  1
  H+  H364  1  0.59194239  0.42234297  0.39567477  1
  H+  H365  1  0.60564765  0.87736654  0.83083241  1
  H+  H366  1  0.90821752  0.82495770  0.26703547  1
  H+  H367  1  0.16361727  0.83136493  0.55589010  1
  H+  H368  1  0.86443689  0.00436355  0.67847747  1
  H+  H369  1  0.74438550  0.14056577  0.17515202  1
  H+  H370  1  0.34972966  0.38412443  0.81420322  1
  H+  H371  1  0.16506651  0.06637825  0.22831530  1
  H+  H372  1  0.64119255  0.07167408  0.91019146  1
  H+  H373  1  0.33622918  0.91947661  0.73102151  1
  H+  H374  1  0.82221500  0.16881581  0.72432740  1
  H+  H375  1  0.44578139  0.34839870  0.96824406  1
  H+  H376  1  0.89758608  0.06211583  0.16033558  1
  H+  H377  1  0.65561778  0.08085220  0.60270756  1
  H+  H378  1  0.03337444  0.15533971  0.81945301  1
  H+  H379  1  0.83395849  0.40338860  0.11569204  1
  H+  H380  1  0.06200013  0.18642399  0.44530910  1
  H+  H381  1  0.17414136  0.87305754  0.90630811  1
  H+  H382  1  0.90708740  0.31613236  0.26082575  1
  H+  H383  1  0.14726003  0.60807770  0.63822167  1
  O2-  O384  1  0.09650645  0.18426262  0.15190381  1
  O2-  O385  1  0.06460530  0.17080694  0.48796795  1
  O2-  O386  1  0.09069226  0.18967418  0.79969329  1
  O2-  O387  1  0.07456603  0.39996266  0.15406584  1
  O2-  O388  1  0.08001527  0.42061296  0.47049433  1
  O2-  O389  1  0.09592772  0.41993346  0.80788300  1
  O2-  O390  1  0.09725650  0.67777748  0.15121400  1
  O2-  O391  1  0.03243297  0.71028194  0.44702584  1
  O2-  O392  1  0.02465813  0.55545126  0.75451387  1
  O2-  O393  1  0.08580396  0.91692102  0.14578087  1
  O2-  O394  1  0.08105914  0.92532072  0.47404315  1
  O2-  O395  1  0.06499720  0.90552554  0.80276372  1
  O2-  O396  1  0.32974365  0.18440219  0.15946245  1
  O2-  O397  1  0.34418652  0.16795614  0.48022797  1
  O2-  O398  1  0.28704376  0.13277344  0.88908258  1
  O2-  O399  1  0.37325593  0.47473274  0.15157257  1
  O2-  O400  1  0.31023902  0.39689555  0.48679306  1
  O2-  O401  1  0.31961500  0.41774252  0.80805630  1
  O2-  O402  1  0.33785275  0.65875571  0.17198697  1
  O2-  O403  1  0.32947814  0.67392724  0.46146929  1
  O2-  O404  1  0.35495023  0.66077296  0.79611557  1
  O2-  O405  1  0.35008033  0.93740918  0.14918953  1
  O2-  O406  1  0.31608922  0.86229790  0.46165682  1
  O2-  O407  1  0.33355854  0.92208674  0.80433362  1
  O2-  O408  1  0.58405207  0.16655805  0.14951579  1
  O2-  O409  1  0.57569018  0.15522747  0.47643183  1
  O2-  O410  1  0.55467159  0.15780325  0.81226257  1
  O2-  O411  1  0.54536711  0.34865060  0.14174734  1
  O2-  O412  1  0.58545184  0.41431561  0.47250539  1
  O2-  O413  1  0.58230572  0.41534807  0.80918311  1
  O2-  O414  1  0.58691678  0.65533406  0.14970505  1
  O2-  O415  1  0.57101640  0.65189595  0.49067131  1
  O2-  O416  1  0.60271838  0.66698365  0.82623464  1
  O2-  O417  1  0.60479251  0.92769266  0.15333811  1
  O2-  O418  1  0.59141800  0.90104458  0.46995259  1
  O2-  O419  1  0.57278288  0.90436734  0.81475368  1
  O2-  O420  1  0.84757736  0.20381558  0.15138857  1
  O2-  O421  1  0.82716637  0.14884495  0.47070196  1
  O2-  O422  1  0.77196108  0.10497455  0.80008746  1
  O2-  O423  1  0.82881834  0.38968857  0.15985763  1
  O2-  O424  1  0.85104897  0.42218747  0.47249899  1
  O2-  O425  1  0.82820912  0.41595436  0.80645557  1
  O2-  O426  1  0.87446056  0.77731226  0.14652382  1
  O2-  O427  1  0.82643613  0.66365859  0.47668040  1
  O2-  O428  1  0.81638248  0.68491524  0.78221078  1
  O2-  O429  1  0.84671557  0.95727059  0.19048756  1
  O2-  O430  1  0.82777710  0.90582079  0.48025382  1
  O2-  O431  1  0.83886888  0.93523390  0.81987430  1
  O2-  O432  1  0.15722894  0.08183931  0.18460601  1
  O2-  O433  1  0.16999706  0.09641412  0.47281884  1
  O2-  O434  1  0.13511147  0.07652644  0.83831566  1
  O2-  O435  1  0.16306915  0.33256519  0.19334593  1
  O2-  O436  1  0.22490854  0.35628956  0.59998129  1
  O2-  O437  1  0.16984177  0.34257186  0.84643503  1
  O2-  O438  1  0.16168981  0.58739001  0.19886594  1
  O2-  O439  1  0.15089835  0.58784319  0.47276703  1
  O2-  O440  1  0.18252725  0.58067311  0.86056031  1
  O2-  O441  1  0.14560386  0.81744143  0.19593077  1
  O2-  O442  1  0.16184236  0.83825655  0.51101093  1
  O2-  O443  1  0.18488772  0.90378860  0.86692168  1
  O2-  O444  1  0.41392682  0.09727076  0.19042366  1
  O2-  O445  1  0.41876574  0.06919489  0.51444638  1
  O2-  O446  1  0.39729948  0.07693589  0.86387585  1
  O2-  O447  1  0.41537086  0.34887612  0.19722914  1
  O2-  O448  1  0.41685192  0.33337134  0.51197439  1
  O2-  O449  1  0.40414018  0.33323550  0.83262832  1
  O2-  O450  1  0.41858257  0.55748053  0.18583207  1
  O2-  O451  1  0.39146766  0.57629966  0.50619745  1
  O2-  O452  1  0.42612936  0.57492065  0.84744231  1
  O2-  O453  1  0.43473845  0.84497926  0.18242438  1
  O2-  O454  1  0.46224519  0.90782982  0.52796597  1
  O2-  O455  1  0.40380808  0.82048992  0.83924183  1
  O2-  O456  1  0.68282601  0.10304017  0.18853994  1
  O2-  O457  1  0.62546905  0.05553037  0.52882825  1
  O2-  O458  1  0.62428228  0.06119931  0.86682630  1
  O2-  O459  1  0.66065909  0.32511945  0.19706932  1
  O2-  O460  1  0.64664798  0.31034206  0.51845631  1
  O2-  O461  1  0.65325103  0.31651757  0.84925821  1
  O2-  O462  1  0.70419114  0.58508531  0.15200549  1
  O2-  O463  1  0.66188188  0.57530173  0.52137450  1
  O2-  O464  1  0.65498510  0.55831902  0.87143993  1
  O2-  O465  1  0.67404141  0.82753021  0.19037265  1
  O2-  O466  1  0.66540607  0.81978043  0.52523898  1
  O2-  O467  1  0.66922681  0.83342812  0.85916897  1
  O2-  O468  1  0.93588631  0.12205537  0.14700328  1
  O2-  O469  1  0.90494543  0.06782651  0.52099518  1
  O2-  O470  1  0.94593008  0.08877579  0.86707802  1
  O2-  O471  1  0.89879854  0.29240273  0.17758864  1
  O2-  O472  1  0.92180175  0.35136638  0.52034227  1
  O2-  O473  1  0.93262563  0.35508611  0.85371685  1
  O2-  O474  1  0.88261201  0.56676547  0.19830835  1
  O2-  O475  1  0.96103324  0.57381656  0.51593572  1
  O2-  O476  1  0.93831663  0.57543388  0.86817965  1
  O2-  O477  1  0.91355100  0.84206885  0.18235342  1
  O2-  O478  1  0.91572616  0.82919884  0.51073830  1
  O2-  O479  1  0.90918335  0.83730175  0.85283111  1
  O2-  O480  1  0.19028708  0.03523879  0.28605705  1
  O2-  O481  1  0.15831207  0.07257440  0.67412974  1
  O2-  O482  1  0.17456143  0.08332128  0.99340691  1
  O2-  O483  1  0.16340095  0.34341745  0.30815675  1
  O2-  O484  1  0.13647341  0.32562418  0.61984075  1
  O2-  O485  1  0.16586402  0.33424583  0.98168719  1
  O2-  O486  1  0.14974682  0.60390661  0.35494820  1
  O2-  O487  1  0.18821901  0.58691619  0.64144997  1
  O2-  O488  1  0.16599181  0.57967680  0.98289623  1
  O2-  O489  1  0.15927218  0.82041131  0.31635487  1
  O2-  O490  1  0.16112610  0.82068025  0.63551508  1
  O2-  O491  1  0.15916057  0.83896133  0.98239356  1
  O2-  O492  1  0.43455283  0.08074530  0.31131927  1
  O2-  O493  1  0.41342248  0.06158625  0.63581006  1
  O2-  O494  1  0.41944906  0.09947053  0.98663204  1
  O2-  O495  1  0.41607771  0.36509882  0.32441414  1
  O2-  O496  1  0.45347900  0.40554069  0.62759861  1
  O2-  O497  1  0.38470181  0.32391312  0.95737874  1
  O2-  O498  1  0.41049102  0.57401930  0.31585682  1
  O2-  O499  1  0.44106288  0.59301960  0.64321935  1
  O2-  O500  1  0.43190998  0.60668496  0.97588765  1
  O2-  O501  1  0.41369577  0.83519873  0.30186897  1
  O2-  O502  1  0.41854988  0.84815838  0.64891278  1
  O2-  O503  1  0.39091053  0.84899524  0.96305693  1
  O2-  O504  1  0.69666061  0.11148672  0.31559656  1
  O2-  O505  1  0.66551161  0.08793098  0.64794103  1
  O2-  O506  1  0.67884249  0.08214728  0.99330266  1
  O2-  O507  1  0.67463720  0.33471507  0.31853205  1
  O2-  O508  1  0.65649852  0.32719495  0.64604714  1
  O2-  O509  1  0.69016356  0.37753188  1.01491345  1
  O2-  O510  1  0.69041854  0.56860511  0.28606903  1
  O2-  O511  1  0.69723604  0.58696546  0.64290406  1
  O2-  O512  1  0.65459342  0.57746078  0.99374041  1
  O2-  O513  1  0.66313314  0.81968022  0.31210605  1
  O2-  O514  1  0.67057378  0.84956535  0.64763521  1
  O2-  O515  1  0.69248042  0.82738251  0.97995653  1
  O2-  O516  1  0.90984898  0.05102833  0.30001058  1
  O2-  O517  1  0.90970837  0.09209073  0.64566914  1
  O2-  O518  1  0.92162690  0.07405225  0.99755715  1
  O2-  O519  1  0.91267586  0.32877151  0.30498457  1
  O2-  O520  1  0.92795977  0.35193429  0.64622491  1
  O2-  O521  1  0.92441099  0.33841901  0.98415653  1
  O2-  O522  1  0.93889727  0.59264212  0.32897666  1
  O2-  O523  1  0.92389119  0.59402387  0.56855372  1
  O2-  O524  1  0.91844414  0.58481321  1.00013399  1
  O2-  O525  1  0.90937901  0.82147084  0.31184078  1
  O2-  O526  1  0.91615083  0.79915828  0.63281877  1
  O2-  O527  1  0.92023713  0.83560105  0.97742013  1
  O2-  O528  1  0.09159718  0.16693695  0.02815032  1
  O2-  O529  1  0.03816069  0.20154125  0.36375593  1
  O2-  O530  1  0.07856890  0.16977665  0.67319144  1
  O2-  O531  1  0.08529462  0.41943054  0.02955596  1
  O2-  O532  1  0.07504028  0.42484490  0.34459771  1
  O2-  O533  1  0.08978651  0.41718113  0.69110208  1
  O2-  O534  1  0.08849145  0.67360497  0.02716079  1
  O2-  O535  1  0.07208081  0.68329977  0.40007490  1
  O2-  O536  1  0.06328697  0.64206224  0.64328600  1
  O2-  O537  1  0.07474889  0.91444733  0.02517580  1
  O2-  O538  1  0.07387552  0.89743595  0.35206434  1
  O2-  O539  1  0.07654605  0.90052027  0.68040371  1
  O2-  O540  1  0.33603225  0.17774510  0.03507990  1
  O2-  O541  1  0.32891478  0.13975457  0.35187450  1
  O2-  O542  1  0.31705470  0.13261143  0.62185072  1
  O2-  O543  1  0.33749590  0.43095523  0.01737359  1
  O2-  O544  1  0.31318466  0.41624923  0.36356471  1
  O2-  O545  1  0.34303837  0.44358797  0.68026266  1
  O2-  O546  1  0.32288705  0.63999942  0.04613218  1
  O2-  O547  1  0.32618989  0.67133086  0.34190503  1
  O2-  O548  1  0.35149934  0.68809729  0.66667660  1
  O2-  O549  1  0.31886315  0.93696406  0.02295844  1
  O2-  O550  1  0.33132625  0.90942195  0.34836378  1
  O2-  O551  1  0.33666415  0.91323462  0.68480471  1
  O2-  O552  1  0.58484986  0.19214505  0.02174929  1
  O2-  O553  1  0.59706443  0.17004175  0.35660000  1
  O2-  O554  1  0.57412370  0.16106957  0.68821239  1
  O2-  O555  1  0.64353850  0.46374978  0.07694484  1
  O2-  O556  1  0.58796291  0.41632190  0.35024998  1
  O2-  O557  1  0.59160418  0.42221206  0.68995563  1
  O2-  O558  1  0.58136805  0.66574850  0.02386542  1
  O2-  O559  1  0.56850260  0.65704052  0.36420128  1
  O2-  O560  1  0.56533331  0.70411402  0.71186931  1
  O2-  O561  1  0.62563922  0.91943757  0.02430429  1
  O2-  O562  1  0.56839249  0.89727731  0.34365560  1
  O2-  O563  1  0.57814741  0.92462976  0.68975031  1
  O2-  O564  1  0.84030015  0.17746012  0.03256642  1
  O2-  O565  1  0.87624974  0.17731611  0.35559764  1
  O2-  O566  1  0.83124558  0.17953003  0.68045016  1
  O2-  O567  1  0.84905559  0.42124979  0.03867196  1
  O2-  O568  1  0.84016914  0.41703189  0.35511041  1
  O2-  O569  1  0.83052014  0.42424513  0.68130888  1
  O2-  O570  1  0.83425119  0.66366087  0.02016834  1
  O2-  O571  1  0.83395776  0.65788089  0.35062185  1
  O2-  O572  1  0.85854016  0.63978671  0.66277399  1
  O2-  O573  1  0.84773013  0.90907822  0.02158680  1
  O2-  O574  1  0.82603032  0.89826089  0.35670318  1
  O2-  O575  1  0.83578276  0.94393528  0.69753921  1
