# generated using pymatgen
data_H2O
_symmetry_space_group_name_H-M   'P 1'
_cell_length_a   17.98833221
_cell_length_b   17.97168627
_cell_length_c   21.98325697
_cell_angle_alpha   90.01908466
_cell_angle_beta   89.98831588
_cell_angle_gamma   119.98826065
_symmetry_Int_Tables_number   1
_chemical_formula_structural   H2O
_chemical_formula_sum   'H384 O192'
_cell_volume   6155.36391274
_cell_formula_units_Z   192
loop_
 _symmetry_equiv_pos_site_id
 _symmetry_equiv_pos_as_xyz
  1  'x, y, z'
loop_
 _atom_type_symbol
 _atom_type_oxidation_number
  H+  1.0
  O2-  -2.0
loop_
 _atom_site_type_symbol
 _atom_site_label
 _atom_site_symmetry_multiplicity
 _atom_site_fract_x
 _atom_site_fract_y
 _atom_site_fract_z
 _atom_site_occupancy
  H+  H0  1  0.14055496  0.51929173  0.50053740  1
  H+  H1  1  0.41837944  0.32929298  0.90073393  1
  H+  H2  1  0.88274518  0.85227071  0.85110676  1
  H+  H3  1  0.31385864  0.69029872  0.09130242  1
  H+  H4  1  0.38276755  0.86454831  0.84068902  1
  H+  H5  1  0.79953795  0.15543690  0.33914619  1
  H+  H6  1  0.60795095  0.90049363  0.50712003  1
  H+  H7  1  0.92314279  0.31425255  0.57105945  1
  H+  H8  1  0.21563023  0.87191893  -0.00757451  1
  H+  H9  1  0.60783999  0.13154373  0.16549818  1
  H+  H10  1  0.87991279  0.88628876  0.51993812  1
  H+  H11  1  0.62366934  0.24847870  0.32978368  1
  H+  H12  1  0.35387751  0.48615337  0.34850111  1
  H+  H13  1  0.13341469  0.27715954  0.64596233  1
  H+  H14  1  -0.10388097  0.35667777  0.28224677  1
  H+  H15  1  0.39861674  0.80001321  0.18446858  1
  H+  H16  1  0.67087190  0.34889493  0.97485966  1
  H+  H17  1  0.08870793  0.34543729  0.98094715  1
  H+  H18  1  0.89176488  1.05842025  0.05449571  1
  H+  H19  1  0.27524151  0.89330805  0.67577139  1
  H+  H20  1  0.48678566  0.36341886  0.16266814  1
  H+  H21  1  0.10275757  0.88776988  0.00876427  1
  H+  H22  1  0.97449986  0.86853175  0.18180176  1
  H+  H23  1  0.11284106  0.63826992  0.66722411  1
  H+  H24  1  0.52670189  0.13639708  0.33073184  1
  H+  H25  1  0.88293678  0.05199701  0.59169283  1
  H+  H26  1  0.63680115  0.51678071  0.66897171  1
  H+  H27  1  0.04225446  0.63724071  0.52341618  1
  H+  H28  1  0.82810068  0.42347063  0.77403221  1
  H+  H29  1  0.08060024  0.21952145  0.98619363  1
  H+  H30  1  0.33167105  0.70279807  0.26370107  1
  H+  H31  1  0.35219886  0.73851544  0.47191652  1
  H+  H32  1  0.03723196  0.14934718  0.80189170  1
  H+  H33  1  0.17579889  0.33084346  0.29685494  1
  H+  H34  1  0.09740806  0.46582988  0.15783197  1
  H+  H35  1  0.67169219  0.08421508  0.24144368  1
  H+  H36  1  0.87621378  0.45557215  0.32916805  1
  H+  H37  1  0.36248969  0.63027598  0.66511932  1
  H+  H38  1  0.09090470  0.20788931  0.21045031  1
  H+  H39  1  0.35626310  -0.01705855  1.00047356  1
  H+  H40  1  0.61436999  1.00879916  0.83746570  1
  H+  H41  1  0.86965850  0.64097666  0.83611211  1
  H+  H42  1  0.38283421  0.53447695  0.82740844  1
  H+  H43  1  0.27580625  0.89034260  0.83029071  1
  H+  H44  1  -0.03796247  0.87429225  0.51994989  1
  H+  H45  1  0.63808026  0.78531349  0.67088652  1
  H+  H46  1  0.35019122  0.68454027  0.74565347  1
  H+  H47  1  0.36102358  0.98549434  0.15563397  1
  H+  H48  1  0.64349898  0.52342548  0.32624710  1
  H+  H49  1  0.02406835  0.35286139  0.35437742  1
  H+  H50  1  0.87932136  1.02279414  0.18084071  1
  H+  H51  1  0.51616852  0.89214116  0.49325142  1
  H+  H52  1  0.10207623  -0.03004047  0.84387553  1
  H+  H53  1  0.39333586  0.47404386  0.01037676  1
  H+  H54  1  0.37549521  0.53659118  0.49965757  1
  H+  H55  1  0.97231020  0.60799944  0.65679982  1
  H+  H56  1  0.22571759  0.61415531  0.49063543  1
  H+  H57  1  0.62890609  0.27289705  0.49495719  1
  H+  H58  1  0.62025962  0.33959326  0.68486941  1
  H+  H59  1  1.15666275  0.74306936  0.16006644  1
  H+  H60  1  0.35581784  0.12967414  0.00701292  1
  H+  H61  1  0.39587643  0.26444205  -0.00541714  1
  H+  H62  1  0.38146616  0.26507352  0.69658164  1
  H+  H63  1  -0.09676704  0.13216689  0.32896325  1
  H+  H64  1  0.39263777  0.03033239  0.83980565  1
  H+  H65  1  0.76848683  0.14316966  0.66672268  1
  H+  H66  1  0.39510517  0.61087611  0.18811514  1
  H+  H67  1  0.50419015  0.11942586  0.65342503  1
  H+  H68  1  0.13755213  0.11582667  0.84435664  1
  H+  H69  1  0.89836813  0.62095388  1.00346666  1
  H+  H70  1  0.54117112  0.38154355  0.33328157  1
  H+  H71  1  0.61882845  -0.00951395  0.68255288  1
  H+  H72  1  0.15061543  0.14806782  0.50443338  1
  H+  H73  1  0.35331065  0.22504121  0.83748441  1
  H+  H74  1  0.04143051  0.14442938  0.35096337  1
  H+  H75  1  0.89072010  0.27244969  0.66567240  1
  H+  H76  1  0.12633829  0.39429913  0.49972486  1
  H+  H77  1  0.73275861  0.87756122  0.33807479  1
  H+  H78  1  0.11678150  0.89596236  0.66763260  1
  H+  H79  1  0.39546952  0.12357396  0.50777630  1
  H+  H80  1  0.87426178  0.61338222  0.19041642  1
  H+  H81  1  0.40074576  0.63763875  0.32730838  1
  H+  H82  1  0.52391831  0.88896070  0.15101912  1
  H+  H83  1  0.35636252  0.57006994  0.97238500  1
  H+  H84  1  0.85457964  0.46757999  0.67549971  1
  H+  H85  1  0.10793817  0.67990563  0.06462112  1
  H+  H86  1  0.62709790  0.90897062  0.34920004  1
  H+  H87  1  0.65519119  0.12623031  0.32400856  1
  H+  H88  1  0.87952461  0.78866418  0.33494522  1
  H+  H89  1  0.72582963  0.61891722  0.32830387  1
  H+  H90  1  0.40948901  0.26416753  0.31757103  1
  H+  H91  1  0.38604614  0.65484752  0.80842008  1
  H+  H92  1  0.76360946  0.91095394  0.69985840  1
  H+  H93  1  0.13545166  0.11757394  0.99593973  1
  H+  H94  1  0.77595716  0.61568466  0.01741762  1
  H+  H95  1  0.38127066  0.77382378  0.64226742  1
  H+  H96  1  0.49080998  0.77856742  0.02502975  1
  H+  H97  1  0.62122476  0.59208821  0.51315156  1
  H+  H98  1  0.07663030  0.17095438  0.57572166  1
  H+  H99  1  0.52114236  0.13422854  0.48068834  1
  H+  H100  1  0.34924423  0.12969521  0.69367333  1
  H+  H101  1  0.20870587  0.57827901  0.19610863  1
  H+  H102  1  0.11586153  0.98244734  0.16577918  1
  H+  H103  1  0.11048642  0.49120343  0.33128495  1
  H+  H104  1  0.24955689  0.36984790  0.95771010  1
  H+  H105  1  0.83720758  0.53909958  0.34090191  1
  H+  H106  1  0.84730780  0.74288854  0.50024199  1
  H+  H107  1  0.39342589  0.37172756  0.16923994  1
  H+  H108  1  0.53348011  0.63766112  0.67154742  1
  H+  H109  1  0.90680300  0.83233578  0.61366894  1
  H+  H110  1  0.37543304  0.85830418  0.64878317  1
  H+  H111  1  0.72105615  0.11508488  0.50474000  1
  H+  H112  1  0.76799509  0.17943070  0.01323460  1
  H+  H113  1  0.84594048  0.47565946  0.48380973  1
  H+  H114  1  0.71500678  0.81958968  0.84594251  1
  H+  H115  1  0.13176556  0.85737090  0.50686747  1
  H+  H116  1  0.10619101  0.38585557  0.13513451  1
  H+  H117  1  0.60077759  0.42852227  0.75305721  1
  H+  H118  1  0.89404893  0.38269177  0.99758362  1
  H+  H119  1  0.89104287  0.29286929  0.99731562  1
  H+  H120  1  0.41408744  0.08500937  0.93228566  1
  H+  H121  1  0.53537649  0.33596535  0.00259819  1
  H+  H122  1  0.86987478  0.73560608  0.83474666  1
  H+  H123  1  0.14076794  0.28383988  0.13089743  1
  H+  H124  1  0.53164894  0.58638783  0.96407795  1
  H+  H125  1  0.38007590  0.41350286  0.49006843  1
  H+  H126  1  0.62434435  0.47778069  0.48867304  1
  H+  H127  1  0.14078403  0.77254816  0.50614817  1
  H+  H128  1  0.52219973  0.16001153  0.82604796  1
  H+  H129  1  0.76863227  0.37659532  0.68310558  1
  H+  H130  1  0.19204580  0.83802943  0.35430197  1
  H+  H131  1  0.39691868  0.88107932  0.15514540  1
  H+  H132  1  -0.03958756  0.10773048  0.63595778  1
  H+  H133  1  0.65677223  0.03822475  0.33225422  1
  H+  H134  1  0.72298518  0.61595878  0.17466750  1
  H+  H135  1  0.67641634  0.42617710  0.83369028  1
  H+  H136  1  0.22045483  0.62437219  0.00038399  1
  H+  H137  1  0.83815446  0.94527191  0.41046125  1
  H+  H138  1  0.01241815  0.14252712  0.17326411  1
  H+  H139  1  0.26732646  0.39001782  0.35641758  1
  H+  H140  1  0.38453243  0.26888677  0.16136052  1
  H+  H141  1  0.37077253  0.78504972  1.01785397  1
  H+  H142  1  0.38244698  0.24657502  0.47450497  1
  H+  H143  1  0.61192861  0.66949461  -0.01568181  1
  H+  H144  1  0.71838047  0.36040521  0.49704794  1
  H+  H145  1  0.73124952  0.14244846  0.83977040  1
  H+  H146  1  0.10173216  0.13683702  0.63381610  1
  H+  H147  1  0.31244658  0.86479345  0.32391414  1
  H+  H148  1  0.48385276  0.62603243  0.33224362  1
  H+  H149  1  0.88290397  0.53615540  0.84755991  1
  H+  H150  1  0.14032774  0.74181052  0.33440388  1
  H+  H151  1  0.35313835  0.37781293  0.69850716  1
  H+  H152  1  0.11131634  0.64369809  0.82219897  1
  H+  H153  1  0.37814307  0.86680628  0.49009217  1
  H+  H154  1  0.13032183  0.37869447  0.82959013  1
  H+  H155  1  0.27352562  0.63286574  0.66450476  1
  H+  H156  1  -0.03102380  0.36112923  0.17435055  1
  H+  H157  1  0.61265114  0.13751763  0.48338275  1
  H+  H158  1  1.02362401  0.64687172  0.82243093  1
  H+  H159  1  0.89209380  0.28042703  0.83341319  1
  H+  H160  1  0.13824323  0.77632775  0.83622474  1
  H+  H161  1  0.61122072  0.38141211  0.16574868  1
  H+  H162  1  0.56822910  0.23353601  0.02929350  1
  H+  H163  1  0.11664709  0.39355103  0.67254136  1
  H+  H164  1  0.64054762  0.35994083  0.32830081  1
  H+  H165  1  0.09557248  0.89654315  0.27255746  1
  H+  H166  1  0.63000035  0.98123456  -0.03521297  1
  H+  H167  1  0.89457571  0.02539004  0.95220588  1
  H+  H168  1  0.61955419  0.38401277  0.48627461  1
  H+  H169  1  0.01986654  0.40415112  -0.00171803  1
  H+  H170  1  -0.01811087  0.34173467  0.51251014  1
  H+  H171  1  0.90001019  0.04618932  0.78770951  1
  H+  H172  1  0.28482539  0.13386925  0.32873361  1
  H+  H173  1  0.23194021  0.87420238  0.17852530  1
  H+  H174  1  0.92300282  0.04433790  1.06391534  1
  H+  H175  1  0.11928791  0.64461999  0.00095671  1
  H+  H176  1  0.62343940  0.82214887  0.00723817  1
  H+  H177  1  0.63930148  0.55750947  0.00181024  1
  H+  H178  1  0.22903752  0.36988686  0.13776267  1
  H+  H179  1  0.58766460  -0.02928830  0.97891120  1
  H+  H180  1  0.13620319  0.12108912  0.17379757  1
  H+  H181  1  0.16530821  0.59839065  0.89265576  1
  H+  H182  1  0.97635589  0.85739484  0.85564562  1
  H+  H183  1  0.86155137  0.20159277  0.49886449  1
  H+  H184  1  0.13392797  0.53796204  0.83484358  1
  H+  H185  1  0.86053342  0.39330602  0.17142486  1
  H+  H186  1  0.26577545  0.38061628  0.68554891  1
  H+  H187  1  0.63555175  0.01743279  0.18410865  1
  H+  H188  1  0.83008220  0.93991771  0.85121098  1
  H+  H189  1  1.02368248  0.39691521  0.82352481  1
  H+  H190  1  0.10150136  0.57581164  0.33349414  1
  H+  H191  1  0.75815906  0.85408713  0.02058445  1
  H+  H192  1  0.33633586  0.91893757  0.77141290  1
  H+  H193  1  0.39915052  0.83005695  0.55052215  1
  H+  H194  1  0.64644773  0.80164965  0.52570501  1
  H+  H195  1  0.76929890  0.62648907  0.68366698  1
  H+  H196  1  0.62058213  0.63530820  0.17786036  1
  H+  H197  1  0.13136811  0.23509512  0.35644211  1
  H+  H198  1  0.75384177  0.11843152  0.16891415  1
  H+  H199  1  0.35486601  0.65172585  0.46554503  1
  H+  H200  1  0.42605822  0.36363470  1.00163287  1
  H+  H201  1  0.61665759  0.64083014  0.33660379  1
  H+  H202  1  0.13726921  0.53061775  -0.00960714  1
  H+  H203  1  0.38069325  0.50884359  0.67263429  1
  H+  H204  1  0.14697431  0.64738807  0.16102842  1
  H+  H205  1  0.86088665  0.65911478  0.34854111  1
  H+  H206  1  0.12137586  0.62937361  0.50033994  1
  H+  H207  1  1.00318932  0.62466030  0.35531466  1
  H+  H208  1  0.14024432  0.52630535  0.65454635  1
  H+  H209  1  0.16554921  0.29074881  0.51196634  1
  H+  H210  1  0.86316359  0.88784474  0.17126046  1
  H+  H211  1  0.62826102  0.03124553  0.50956591  1
  H+  H212  1  0.14901002  0.12673329  0.33070387  1
  H+  H213  1  0.26541150  0.13169541  0.83992361  1
  H+  H214  1  0.49865825  0.37841730  0.48475630  1
  H+  H215  1  0.46584733  0.11208872  -0.00353796  1
  H+  H216  1  0.38601826  0.12105965  0.17291345  1
  H+  H217  1  0.90874725  0.82882424  0.94192692  1
  H+  H218  1  0.87451482  0.52468333  0.19200992  1
  H+  H219  1  0.63232693  0.87365765  0.67689459  1
  H+  H220  1  0.02439797  0.89027959  0.67112792  1
  H+  H221  1  0.34082387  0.69716210  0.37921947  1
  H+  H222  1  0.97036235  0.87457004  0.32481539  1
  H+  H223  1  0.86034462  0.14369938  0.81636286  1
  H+  H224  1  0.88927505  0.36022607  0.66724726  1
  H+  H225  1  0.86713262  0.62648487  0.50361537  1
  H+  H226  1  0.60826214  0.25158588  0.83015761  1
  H+  H227  1  0.68769912  0.16071405  0.93170687  1
  H+  H228  1  0.67674408  0.52821654  0.94925026  1
  H+  H229  1  0.64526886  0.78543174  0.33692614  1
  H+  H230  1  0.21239531  0.11404416  0.67464537  1
  H+  H231  1  0.85819488  0.72991816  0.16932701  1
  H+  H232  1  0.34152736  0.49743931  0.92688843  1
  H+  H233  1  0.11489896  0.89211740  0.16717328  1
  H+  H234  1  0.83634460  0.66810392  0.77056551  1
  H+  H235  1  0.24197624  0.07712530  0.53864841  1
  H+  H236  1  0.37988938  0.48034440  0.17566771  1
  H+  H237  1  0.26334279  0.40121868  0.83760940  1
  H+  H238  1  0.85837781  0.62684373  0.68278094  1
  H+  H239  1  0.13219321  1.02658354  0.00044824  1
  H+  H240  1  0.39116159  0.09498305  0.32272657  1
  H+  H241  1  0.52534007  0.38501713  0.70491843  1
  H+  H242  1  0.71490022  0.29176840  0.96109377  1
  H+  H243  1  0.66640410  0.85524386  0.58735935  1
  H+  H244  1  0.35767515  -0.01935384  0.47925290  1
  H+  H245  1  0.26934079  0.13589383  1.00911256  1
  H+  H246  1  0.64329698  0.17239889  0.99346094  1
  H+  H247  1  0.76153443  0.64848579  0.49915609  1
  H+  H248  1  0.13982165  0.77739584  0.65958708  1
  H+  H249  1  0.12634026  0.01881734  0.66455187  1
  H+  H250  1  0.62080880  0.68784375  0.82270853  1
  H+  H251  1  0.72551210  0.36241354  0.17801823  1
  H+  H252  1  0.50602472  0.54393860  0.45167800  1
  H+  H253  1  0.27360979  0.14904326  0.15886218  1
  H+  H254  1  0.94249252  0.61505558  0.48058267  1
  H+  H255  1  0.61027573  0.46985187  0.15755833  1
  H+  H256  1  0.77132660  0.88344039  0.17253773  1
  H+  H257  1  0.52584177  0.63820427  0.18340652  1
  H+  H258  1  0.11311540  -0.02423577  0.51539631  1
  H+  H259  1  0.59397106  0.21747411  0.73337275  1
  H+  H260  1  0.85403521  0.84576724  0.01846984  1
  H+  H261  1  0.63623623  0.27056234  0.17635836  1
  H+  H262  1  0.83977651  0.10296728  0.49163797  1
  H+  H263  1  0.88917417  0.77170601  0.67040933  1
  H+  H264  1  0.68816872  0.90505159  0.96892332  1
  H+  H265  1  0.12125348  0.36583971  0.35558910  1
  H+  H266  1  0.34836351  0.89042016  -0.00138817  1
  H+  H267  1  0.89627722  1.04022638  0.33055552  1
  H+  H268  1  0.50205157  0.61557872  0.48741006  1
  H+  H269  1  0.13197199  0.77923886  0.99432350  1
  H+  H270  1  0.37413262  0.35947185  0.85124644  1
  H+  H271  1  0.53148696  0.91558053  0.83568180  1
  H+  H272  1  0.83427292  0.14562079  0.00896721  1
  H+  H273  1  0.10597169  0.88298712  0.83975110  1
  H+  H274  1  0.02652097  0.39161940  0.67227703  1
  H+  H275  1  0.14444445  1.03666305  0.31514636  1
  H+  H276  1  0.45846537  0.87488953  1.00627201  1
  H+  H277  1  0.63817522  0.85858988  0.18457694  1
  H+  H278  1  0.25413311  0.33137023  -0.05008898  1
  H+  H279  1  0.79891567  0.40709544  0.00845057  1
  H+  H280  1  0.53061303  0.61182372  0.80787454  1
  H+  H281  1  0.58163308  0.65942363  0.39716722  1
  H+  H282  1  0.38382609  0.11505827  0.84348680  1
  H+  H283  1  0.62070439  0.73369522  0.18439155  1
  H+  H284  1  0.37236683  0.97346594  0.67525113  1
  H+  H285  1  0.86504292  0.90668062  0.35356839  1
  H+  H286  1  0.85294278  0.12107908  0.16771775  1
  H+  H287  1  0.88386820  0.49623078  1.01797668  1
  H+  H288  1  0.13727141  0.29120373  0.82590473  1
  H+  H289  1  0.43588840  0.33147360  0.26401089  1
  H+  H290  1  0.17775064  0.82873024  0.23895338  1
  H+  H291  1  0.17451408  0.09972821  0.23160575  1
  H+  H292  1  0.77409358  0.92490203  0.51261128  1
  H+  H293  1  0.83199028  0.66736024  0.11089279  1
  H+  H294  1  0.60048803  0.41709592  0.39405008  1
  H+  H295  1  0.08067918  0.66709367  0.72620810  1
  H+  H296  1  0.33216644  0.17092637  0.09772283  1
  H+  H297  1  0.17358736  0.83722045  0.60098567  1
  H+  H298  1  0.83529498  0.40994807  0.43148586  1
  H+  H299  1  -0.02863536  0.86461113  0.00244204  1
  H+  H300  1  0.32596584  0.42212309  0.78214313  1
  H+  H301  1  0.08715198  0.41041855  0.43930334  1
  H+  H302  1  0.66386444  0.32419784  0.26509347  1
  H+  H303  1  0.59395332  0.94095604  0.74545934  1
  H+  H304  1  0.34736863  0.16322139  0.38609219  1
  H+  H305  1  0.60880511  0.94119838  0.10735166  1
  H+  H306  1  0.92008432  0.34000465  0.89244841  1
  H+  H307  1  0.81733816  0.88003439  0.08628362  1
  H+  H308  1  0.04975108  0.15609170  0.04441479  1
  H+  H309  1  0.26895113  0.89129483  0.47992157  1
  H+  H310  1  0.11763430  0.17940935  0.75857403  1
  H+  H311  1  0.66414524  0.58002821  0.23463906  1
  H+  H312  1  0.82393697  0.91073935  0.78204131  1
  H+  H313  1  0.17658580  0.08018090  0.58629207  1
  H+  H314  1  0.31838405  0.38293117  0.02372438  1
  H+  H315  1  0.17332237  0.58487384  0.59429816  1
  H+  H316  1  0.74294640  0.37510489  0.88188180  1
  H+  H317  1  0.60125455  0.94310596  0.40773033  1
  H+  H318  1  0.81915417  0.15838347  0.10588601  1
  H+  H319  1  0.99011472  0.62593624  0.99872747  1
  H+  H320  1  0.51973984  0.13505484  0.16514261  1
  H+  H321  1  0.08426858  0.43093041  0.76365271  1
  H+  H322  1  0.24781182  0.38466642  0.50815568  1
  H+  H323  1  0.89307561  0.58226581  0.27885387  1
  H+  H324  1  0.40507785  0.01181233  0.31826068  1
  H+  H325  1  0.07638605  0.91745241  0.07029962  1
  H+  H326  1  0.10614932  0.89325931  0.34239254  1
  H+  H327  1  0.91114436  0.84037289  0.24029771  1
  H+  H328  1  0.66295618  0.10839561  0.59803570  1
  H+  H329  1  0.38660067  0.60963764  0.54844517  1
  H+  H330  1  0.85529127  0.99234348  0.68912779  1
  H+  H331  1  0.91067156  0.08676954  0.24082344  1
  H+  H332  1  0.43091671  0.08305777  0.55890470  1
  H+  H333  1  0.64569961  0.14942797  0.83755118  1
  H+  H334  1  0.90640240  0.57944704  0.60118402  1
  H+  H335  1  0.41875233  0.32950678  0.64239393  1
  H+  H336  1  0.07607124  0.42656680  0.05852297  1
  H+  H337  1  0.92085759  0.59763608  0.90654968  1
  H+  H338  1  0.38121733  0.74836044  0.81326391  1
  H+  H339  1  0.59582726  0.65962479  0.72841758  1
  H+  H340  1  0.54483381  0.80892659  0.08530427  1
  H+  H341  1  0.65694421  0.79279759  0.90401721  1
  H+  H342  1  0.83520443  0.42677104  0.11179561  1
  H+  H343  1  0.84606959  0.16789738  0.40195045  1
  H+  H344  1  0.63899561  0.60723494  0.66193767  1
  H+  H345  1  0.06079831  0.30845849  0.24013049  1
  H+  H346  1  0.16226046  0.08573920  0.90685933  1
  H+  H347  1  0.85524704  0.71418150  0.01416003  1
  H+  H348  1  0.40899826  0.82336514  0.89614148  1
  H+  H349  1  0.32585426  0.92445838  0.09693806  1
  H+  H350  1  0.16451359  0.83226064  0.89806526  1
  H+  H351  1  0.42096334  0.83268301  0.33912839  1
  H+  H352  1  0.27304919  0.71119230  0.21497558  1
  H+  H353  1  0.99309610  0.09003914  0.95383757  1
  H+  H354  1  0.82376657  0.68609253  0.40563831  1
  H+  H355  1  0.06768049  0.64772711  0.41170720  1
  H+  H356  1  0.43672685  0.34353715  0.54151006  1
  H+  H357  1  0.08757890  0.35594097  0.24574044  1
  H+  H358  1  0.36740437  0.43417036  0.11005621  1
  H+  H359  1  0.07006058  0.92868278  0.45448726  1
  H+  H360  1  0.66324776  0.57255464  0.57206225  1
  H+  H361  1  0.82491396  0.16999815  0.76018763  1
  H+  H362  1  0.93278355  0.07369130  0.85718629  1
  H+  H363  1  0.32112453  0.15814022  0.75496404  1
  H+  H364  1  0.85094913  0.13040703  0.66453658  1
  H+  H365  1  0.42291577  0.55066092  0.61022807  1
  H+  H366  1  0.18401908  0.35389484  0.60268135  1
  H+  H367  1  0.10712341  0.17144219  0.45034784  1
  H+  H368  1  0.33984924  0.43739476  0.43001066  1
  H+  H369  1  0.28911200  0.16646654  0.47269038  1
  H+  H370  1  0.50353576  0.04045500  0.62470309  1
  H+  H371  1  0.43245075  0.60743684  0.87573141  1
  H+  H372  1  0.42380894  0.58700806  0.25051275  1
  H+  H373  1  0.24804257  0.72177346  0.08669712  1
  H+  H374  1  0.35321666  0.90796624  0.38654082  1
  H+  H375  1  0.41477653  0.08260871  0.22929655  1
  H+  H376  1  0.11262077  0.31658596  0.91824028  1
  H+  H377  1  0.65117498  0.15533986  0.65689460  1
  H+  H378  1  0.78337393  0.37353696  0.33054449  1
  H+  H379  1  0.67061830  0.83752626  0.24828817  1
  H+  H380  1  0.13427361  0.55412106  0.24334107  1
  H+  H381  1  0.58377623  0.16871131  0.39514542  1
  H+  H382  1  0.56644731  0.16388057  0.07432581  1
  H+  H383  1  0.59986889  0.37290704  0.05782381  1
  O2-  O384  1  0.07666736  0.17863079  0.17110527  1
  O2-  O385  1  0.12262627  0.18152504  0.49438664  1
  O2-  O386  1  0.10175923  0.18024866  0.80085646  1
  O2-  O387  1  0.06671641  0.41003565  0.13549377  1
  O2-  O388  1  0.09181147  0.42007653  0.48490499  1
  O2-  O389  1  0.08571165  0.43105089  0.80908545  1
  O2-  O390  1  0.16243497  0.69954751  0.13563445  1
  O2-  O391  1  0.08717142  0.66077981  0.49238168  1
  O2-  O392  1  0.08191610  0.67518738  0.80457683  1
  O2-  O393  1  0.08160609  0.92024908  0.15473107  1
  O2-  O394  1  0.07425240  0.91738611  0.49730960  1
  O2-  O395  1  0.06751958  0.90761008  0.83538436  1
  O2-  O396  1  0.33476176  0.17859172  0.14377595  1
  O2-  O397  1  0.34894809  0.18313803  0.46499314  1
  O2-  O398  1  0.32602942  0.16234155  0.82384397  1
  O2-  O399  1  0.35490472  0.42315735  0.15478729  1
  O2-  O400  1  0.34863575  0.44373333  0.47939555  1
  O2-  O401  1  0.32690728  0.43101087  0.82725515  1
  O2-  O402  1  0.32244781  0.70285501  0.21867567  1
  O2-  O403  1  0.32234965  0.67979707  0.45144169  1
  O2-  O404  1  0.35812814  0.68913951  0.79265872  1
  O2-  O405  1  0.32993426  0.92394812  0.14222843  1
  O2-  O406  1  0.32747044  0.92211134  0.46121362  1
  O2-  O407  1  0.33771797  0.92067534  0.81704719  1
  O2-  O408  1  0.58110921  0.16509069  0.15096723  1
  O2-  O409  1  0.58038758  0.16420799  0.46336491  1
  O2-  O410  1  0.58210791  0.19594431  0.80962875  1
  O2-  O411  1  0.57964454  0.40803802  0.14604077  1
  O2-  O412  1  0.59353074  0.42031772  0.46841319  1
  O2-  O413  1  0.62459199  0.43398010  0.83283760  1
  O2-  O414  1  0.58849539  0.67046575  0.16924002  1
  O2-  O415  1  0.54371756  0.60183977  0.46751433  1
  O2-  O416  1  0.59112274  0.63531867  0.79672679  1
  O2-  O417  1  0.58937132  0.90986581  0.14570256  1
  O2-  O418  1  0.57922123  0.92831027  0.48594280  1
  O2-  O419  1  0.59156938  0.94940557  0.82242746  1
  O2-  O420  1  0.81663223  0.14768991  0.15150072  1
  O2-  O421  1  0.82066644  0.14503980  0.47905717  1
  O2-  O422  1  0.82775230  0.17278601  0.80583847  1
  O2-  O423  1  0.82683796  0.42056989  0.15705163  1
  O2-  O424  1  0.81992408  0.41442094  0.47368222  1
  O2-  O425  1  0.82973775  0.43519047  0.81899374  1
  O2-  O426  1  0.82576909  0.66862254  0.15632163  1
  O2-  O427  1  0.82114813  0.68373805  0.48225473  1
  O2-  O428  1  0.84053396  0.67357300  0.81755631  1
  O2-  O429  1  0.82955910  0.91414258  0.15323094  1
  O2-  O430  1  0.83279342  0.95004432  0.49436026  1
  O2-  O431  1  0.82209365  0.89164115  0.82628626  1
  O2-  O432  1  0.17087223  0.09435945  0.18581449  1
  O2-  O433  1  0.18672862  0.07497148  0.53995941  1
  O2-  O434  1  0.16311186  0.08258973  0.86140055  1
  O2-  O435  1  0.17279121  0.34430439  0.11766147  1
  O2-  O436  1  0.18864371  0.35127283  0.52570562  1
  O2-  O437  1  0.16000879  0.34721711  0.84681483  1
  O2-  O438  1  0.14815999  0.56261196  0.19706474  1
  O2-  O439  1  0.17098469  0.58246318  0.51396130  1
  O2-  O440  1  0.16209024  0.59921383  0.84786822  1
  O2-  O441  1  0.17218534  0.83992963  0.19553410  1
  O2-  O442  1  0.17053376  0.83476645  0.51708409  1
  O2-  O443  1  0.17097164  0.83632658  0.85299873  1
  O2-  O444  1  0.41466008  0.08779291  0.18389543  1
  O2-  O445  1  0.41947282  0.08539753  0.51482679  1
  O2-  O446  1  0.42139110  0.09078721  0.85540926  1
  O2-  O447  1  0.42231745  0.33317342  0.17710770  1
  O2-  O448  1  0.43459344  0.34925980  0.49761329  1
  O2-  O449  1  0.39946421  0.32254080  0.85772800  1
  O2-  O450  1  0.42735497  0.58405513  0.20309860  1
  O2-  O451  1  0.40265241  0.60153491  0.50770003  1
  O2-  O452  1  0.42264871  0.59910064  0.83169751  1
  O2-  O453  1  0.42984908  0.84991131  0.15671458  1
  O2-  O454  1  0.40403768  0.83224534  0.50436733  1
  O2-  O455  1  0.41313607  0.83164645  0.85174346  1
  O2-  O456  1  0.66616534  0.07941197  0.19423503  1
  O2-  O457  1  0.66066200  0.09421440  0.51995217  1
  O2-  O458  1  0.67468858  0.12346222  0.86035225  1
  O2-  O459  1  0.66391525  0.33035193  0.19333519  1
  O2-  O460  1  0.65669285  0.33260909  0.51014763  1
  O2-  O461  1  0.73906598  0.38108153  0.83649473  1
  O2-  O462  1  0.66093507  0.58320925  0.18891080  1
  O2-  O463  1  0.66379917  0.57562679  0.52620491  1
  O2-  O464  1  0.64081390  0.50044011  0.87119349  1
  O2-  O465  1  0.66790514  0.82930980  0.20185367  1
  O2-  O466  1  0.66845161  0.85991304  0.54074565  1
  O2-  O467  1  0.65573073  0.78076581  0.86048230  1
  O2-  O468  1  0.90476808  0.08399693  0.19370825  1
  O2-  O469  1  0.87811120  0.03968352  0.51694269  1
  O2-  O470  1  0.93014095  0.09520202  0.81542866  1
  O2-  O471  1  0.91284188  0.34025444  0.19634116  1
  O2-  O472  1  0.92473281  0.29902713  0.52810967  1
  O2-  O473  1  0.92705684  0.34041075  0.84795698  1
  O2-  O474  1  0.89925258  0.58209867  0.21173355  1
  O2-  O475  1  0.89763963  0.59308262  0.51154742  1
  O2-  O476  1  0.91567977  0.59777852  0.86091952  1
  O2-  O477  1  0.91301410  0.83844198  0.19468245  1
  O2-  O478  1  0.90025823  0.84541849  0.53029728  1
  O2-  O479  1  0.91184684  0.82183772  0.86853655  1
  O2-  O480  1  0.17870270  0.09903861  0.30773817  1
  O2-  O481  1  0.15746984  0.08472194  0.65205988  1
  O2-  O482  1  0.16697321  0.08667320  0.98502145  1
  O2-  O483  1  0.17384919  0.32847264  0.34109376  1
  O2-  O484  1  0.17195170  0.34088085  0.64733064  1
  O2-  O485  1  0.08204056  0.29494677  0.95768504  1
  O2-  O486  1  0.13071875  0.54898894  0.31269354  1
  O2-  O487  1  0.17329564  0.58751904  0.63965856  1
  O2-  O488  1  0.16829491  0.59248152  0.97573841  1
  O2-  O489  1  0.18341819  0.80101806  0.31942332  1
  O2-  O490  1  0.17298983  0.83872212  0.64608665  1
  O2-  O491  1  0.15488230  0.83923488  0.97847615  1
  O2-  O492  1  0.42854327  0.07307587  0.30561797  1
  O2-  O493  1  0.46629024  0.06490823  0.63161513  1
  O2-  O494  1  0.40687807  0.08027257  0.97784483  1
  O2-  O495  1  0.44548316  0.32597418  0.30722698  1
  O2-  O496  1  0.41412790  0.32857027  0.68650919  1
  O2-  O497  1  0.43962253  0.32341177  0.98039370  1
  O2-  O498  1  0.42265969  0.59734913  0.31806248  1
  O2-  O499  1  0.41299042  0.56597700  0.65075699  1
  O2-  O500  1  0.38475543  0.54177320  0.95345127  1
  O2-  O501  1  0.44242889  0.79121594  0.33825454  1
  O2-  O502  1  0.40024062  0.83037289  0.62369678  1
  O2-  O503  1  0.41745957  0.82009710  0.98762748  1
  O2-  O504  1  0.68505814  0.09628987  0.30936811  1
  O2-  O505  1  0.66266838  0.10954334  0.64366645  1
  O2-  O506  1  0.69927220  0.18914972  0.97306549  1
  O2-  O507  1  0.66443677  0.32151101  0.31181171  1
  O2-  O508  1  0.64918219  0.30786666  0.66900930  1
  O2-  O509  1  0.72233325  0.35049110  0.95648459  1
  O2-  O510  1  0.66676474  0.58351881  0.31094730  1
  O2-  O511  1  0.66813784  0.57430433  0.64911205  1
  O2-  O512  1  0.68284448  0.54069026  0.99366428  1
  O2-  O513  1  0.67362154  0.84484467  0.32011739  1
  O2-  O514  1  0.66597116  0.84693886  0.65932957  1
  O2-  O515  1  0.67910210  0.84953269  0.98290739  1
  O2-  O516  1  0.92932540  0.09757529  0.31064846  1
  O2-  O517  1  0.89683888  0.07155019  0.63592239  1
  O2-  O518  1  0.94618685  0.04524098  0.92776648  1
  O2-  O519  1  0.94640600  0.36461826  0.25877381  1
  O2-  O520  1  0.92329191  0.33407955  0.65270297  1
  O2-  O521  1  0.91844473  0.34939515  0.97725104  1
  O2-  O522  1  0.89302964  0.58451306  0.32682831  1
  O2-  O523  1  0.90982449  0.57613972  0.64576481  1
  O2-  O524  1  0.92938630  0.59404259  0.98369299  1
  O2-  O525  1  0.90812675  0.84858686  0.31762248  1
  O2-  O526  1  0.92002306  0.83212336  0.65720487  1
  O2-  O527  1  0.90945512  0.83015442  0.98841119  1
  O2-  O528  1  0.07071555  0.16084270  0.00292459  1
  O2-  O529  1  0.10051378  0.16886194  0.36703553  1
  O2-  O530  1  0.07300101  0.16947259  0.62060137  1
  O2-  O531  1  0.08100439  0.43111235  0.01311933  1
  O2-  O532  1  0.08266900  0.39431283  0.36647821  1
  O2-  O533  1  0.08851469  0.42686958  0.68508307  1
  O2-  O534  1  0.09386417  0.67760756  0.02067070  1
  O2-  O535  1  0.06404423  0.64703112  0.36654609  1
  O2-  O536  1  0.08021136  0.66680956  0.68044098  1
  O2-  O537  1  0.07271239  0.91823959  0.02521866  1
  O2-  O538  1  0.08566762  0.91725642  0.31122053  1
  O2-  O539  1  0.08764580  0.92835939  0.67873211  1
  O2-  O540  1  0.33035755  0.16390933  0.02411676  1
  O2-  O541  1  0.34566760  0.15488831  0.34124339  1
  O2-  O542  1  0.32153782  0.16129629  0.70781026  1
  O2-  O543  1  0.37765458  0.42289791  0.03617097  1
  O2-  O544  1  0.33160789  0.42955977  0.36786805  1
  O2-  O545  1  0.32421727  0.41218983  0.70524577  1
  O2-  O546  1  0.29074139  0.71431935  0.06210230  1
  O2-  O547  1  0.36302858  0.70754961  0.33532510  1
  O2-  O548  1  0.33586081  0.66454661  0.67814134  1
  O2-  O549  1  0.32278594  0.92187232  0.01722764  1
  O2-  O550  1  0.36781728  0.90417230  0.34317253  1
  O2-  O551  1  0.33424962  0.91665154  0.69341024  1
  O2-  O552  1  0.56026223  0.17415006  0.03034411  1
  O2-  O553  1  0.58689119  0.17402243  0.34767593  1
  O2-  O554  1  0.59358479  0.21693886  0.68747877  1
  O2-  O555  1  0.58578545  0.33562534  0.02199887  1
  O2-  O556  1  0.60307083  0.41518742  0.34811012  1
  O2-  O557  1  0.58874228  0.41500969  0.70900581  1
  O2-  O558  1  0.57138428  0.61149377  -0.00187593  1
  O2-  O559  1  0.58914208  0.67314366  0.35302802  1
  O2-  O560  1  0.59482527  0.66886448  0.68224498  1
  O2-  O561  1  0.53711734  0.77642409  0.04760438  1
  O2-  O562  1  0.60887578  0.94978792  0.36283618  1
  O2-  O563  1  0.59276313  0.93281767  0.70028393  1
  O2-  O564  1  0.82000075  0.18155663  0.03400035  1
  O2-  O565  1  0.85715968  0.17925238  0.35732059  1
  O2-  O566  1  0.82764250  0.16545008  0.68306938  1
  O2-  O567  1  0.85201676  0.43588873  0.03418293  1
  O2-  O568  1  0.84361934  0.39589074  0.34303424  1
  O2-  O569  1  0.82929628  0.41073577  0.69612131  1
  O2-  O570  1  0.83517320  0.65823752  0.03421274  1
  O2-  O571  1  0.82678954  0.68691423  0.35977488  1
  O2-  O572  1  0.82901188  0.65635740  0.70079040  1
  O2-  O573  1  0.80330145  0.84904537  0.04493846  1
  O2-  O574  1  0.83538519  0.93872801  0.36542347  1
  O2-  O575  1  0.81915335  0.94930466  0.72069363  1
