# generated using pymatgen
data_H2O
_symmetry_space_group_name_H-M   'P 1'
_cell_length_a   17.98453428
_cell_length_b   17.99350571
_cell_length_c   21.99471176
_cell_angle_alpha   89.98064637
_cell_angle_beta   90.00568340
_cell_angle_gamma   119.99959026
_symmetry_Int_Tables_number   1
_chemical_formula_structural   H2O
_chemical_formula_sum   'H384 O192'
_cell_volume   6164.04294180
_cell_formula_units_Z   192
loop_
 _symmetry_equiv_pos_site_id
 _symmetry_equiv_pos_as_xyz
  1  'x, y, z'
loop_
 _atom_type_symbol
 _atom_type_oxidation_number
  H+  1.0
  O2-  -2.0
loop_
 _atom_site_type_symbol
 _atom_site_label
 _atom_site_symmetry_multiplicity
 _atom_site_fract_x
 _atom_site_fract_y
 _atom_site_fract_z
 _atom_site_occupancy
  H+  H0  1  0.37031599  0.90639560  0.81593109  1
  H+  H1  1  0.30698249  0.37085619  0.16859103  1
  H+  H2  1  0.17042563  0.33877305  0.18284348  1
  H+  H3  1  0.87708818  0.10608517  1.00397356  1
  H+  H4  1  0.35997021  0.15447815  0.17888970  1
  H+  H5  1  0.73490774  0.85901629  0.50264253  1
  H+  H6  1  0.07121918  0.41914026  0.05927768  1
  H+  H7  1  0.22298826  0.11576409  0.17733301  1
  H+  H8  1  0.85612920  -0.03289382  1.00702077  1
  H+  H9  1  0.40265013  0.79941076  0.83510603  1
  H+  H10  1  0.35957731  0.38800424  0.33777375  1
  H+  H11  1  0.51154517  0.88222683  0.00638317  1
  H+  H12  1  0.62886763  0.11565115  0.50832935  1
  H+  H13  1  0.85472347  0.96072366  0.15976428  1
  H+  H14  1  0.74569167  0.53827674  0.94325086  1
  H+  H15  1  0.65330136  0.57338871  0.21733527  1
  H+  H16  1  0.88919709  0.51976634  0.50525639  1
  H+  H17  1  0.71948861  0.10732869  1.00524677  1
  H+  H18  1  0.39966258  0.86200286  0.50076539  1
  H+  H19  1  0.10120443  0.10076394  0.66948376  1
  H+  H20  1  0.62787062  0.77679176  0.33434462  1
  H+  H21  1  0.66291584  0.33930604  0.18034682  1
  H+  H22  1  0.83572911  0.90747136  0.40453242  1
  H+  H23  1  0.79853475  0.39640506  0.16720967  1
  H+  H24  1  0.79144569  0.64547334  0.00441693  1
  H+  H25  1  0.68515837  0.59304452  0.88814005  1
  H+  H26  1  0.35900315  0.47339467  0.48990187  1
  H+  H27  1  0.36674245  0.89331894  0.17308726  1
  H+  H28  1  0.35570941  0.64442201  0.16350622  1
  H+  H29  1  0.65420870  0.28251379  0.99858871  1
  H+  H30  1  0.37446547  0.97098311  0.49204289  1
  H+  H31  1  -0.01878382  0.86973687  -0.00406253  1
  H+  H32  1  0.87236409  0.49144158  0.00941687  1
  H+  H33  1  0.77768355  0.13109638  0.66914037  1
  H+  H34  1  0.58266943  0.52176845  0.30543557  1
  H+  H35  1  0.97434370  0.09509232  0.17618508  1
  H+  H36  1  1.01863213  0.13337193  1.01325513  1
  H+  H37  1  0.84068159  0.66913418  0.10085391  1
  H+  H38  1  0.71445463  0.83762645  -0.00542343  1
  H+  H39  1  0.48166656  0.38318654  0.49527029  1
  H+  H40  1  0.97825404  0.36656371  0.65901869  1
  H+  H41  1  0.14348187  0.78537657  0.32639470  1
  H+  H42  1  0.37440033  0.40368598  0.66951915  1
  H+  H43  1  0.47953344  0.38924764  -0.02001335  1
  H+  H44  1  0.21442948  0.85849011  0.63865160  1
  H+  H45  1  0.24271350  0.88192041  0.83064512  1
  H+  H46  1  0.22502505  0.62402818  0.17226276  1
  H+  H47  1  0.37568148  0.58111799  0.83529596  1
  H+  H48  1  0.93345329  0.56961297  0.26382601  1
  H+  H49  1  0.55901569  0.37764473  0.14953473  1
  H+  H50  1  0.63842888  0.52241093  0.65444319  1
  H+  H51  1  0.27363130  -0.03884310  0.63280378  1
  H+  H52  1  0.06683628  0.39939427  0.90316639  1
  H+  H53  1  0.64450180  0.86203040  0.65822033  1
  H+  H54  1  0.43030027  0.32091016  0.84344364  1
  H+  H55  1  0.48034336  0.08636671  0.98438256  1
  H+  H56  1  0.17057773  0.35598104  0.60318218  1
  H+  H57  1  0.08914307  0.17380176  0.43375180  1
  H+  H58  1  0.79032362  0.39999608  0.82456260  1
  H+  H59  1  0.90311535  0.15457776  0.84121577  1
  H+  H60  1  0.14505134  0.87639909  0.32186293  1
  H+  H61  1  0.64208266  0.00272101  0.18667385  1
  H+  H62  1  0.92089774  0.79497180  0.33429663  1
  H+  H63  1  0.13605065  0.35321515  0.34036083  1
  H+  H64  1  0.02604197  0.38222821  0.34882955  1
  H+  H65  1  0.17566060  0.58724255  1.05256267  1
  H+  H66  1  0.23221726  0.39132088  0.66046678  1
  H+  H67  1  0.73791237  0.37518439  0.99779347  1
  H+  H68  1  0.46637716  0.85791972  0.33187374  1
  H+  H69  1  0.08025959  0.16209327  0.07107929  1
  H+  H70  1  0.11695510  0.64468251  0.82696815  1
  H+  H71  1  0.45173677  0.75438091  0.76131791  1
  H+  H72  1  0.37551007  0.61338040  0.33056540  1
  H+  H73  1  0.34480448  0.17991734  0.58511461  1
  H+  H74  1  0.89404678  0.62727670  -0.00592871  1
  H+  H75  1  0.38826485  0.12035454  0.33187058  1
  H+  H76  1  0.30622390  0.69178545  0.64753835  1
  H+  H77  1  0.86974219  0.39961415  0.01649862  1
  H+  H78  1  0.38741301  0.27595764  0.32970663  1
  H+  H79  1  0.22903685  0.35836099  0.83168346  1
  H+  H80  1  0.10791607  0.12885614  0.16672408  1
  H+  H81  1  0.10631508  0.63851863  1.01305210  1
  H+  H82  1  0.93731948  0.31806742  0.27322665  1
  H+  H83  1  0.61288371  0.20333422  0.34815224  1
  H+  H84  1  0.89263668  0.86560231  0.32759624  1
  H+  H85  1  0.02064223  0.85576357  0.50116384  1
  H+  H86  1  0.14485430  0.13181895  0.50038086  1
  H+  H87  1  0.13131430  0.52064764  0.85651744  1
  H+  H88  1  0.62241311  0.23578740  0.82931652  1
  H+  H89  1  0.61490202  0.63043478  0.48544941  1
  H+  H90  1  0.63499317  0.11444026  0.99966655  1
  H+  H91  1  0.37052040  -0.00648768  0.82286177  1
  H+  H92  1  0.59106657  0.75507143  0.85017011  1
  H+  H93  1  -0.03058604  0.08857541  0.65871990  1
  H+  H94  1  0.87224674  0.88553303  0.49666888  1
  H+  H95  1  0.36278628  0.46400841  0.82789299  1
  H+  H96  1  0.66592832  0.83839182  0.24001955  1
  H+  H97  1  0.89118384  0.31481475  0.95552731  1
  H+  H98  1  0.03925706  0.64213825  0.34412725  1
  H+  H99  1  0.31918638  0.62688798  0.75675944  1
  H+  H100  1  0.41909698  0.80423701  0.59154115  1
  H+  H101  1  0.12326534  0.23305162  0.82437854  1
  H+  H102  1  0.11623901  0.87893936  0.66759076  1
  H+  H103  1  0.63884701  0.97942923  0.38917857  1
  H+  H104  1  0.88071578  0.50795506  0.16531693  1
  H+  H105  1  0.09200765  0.20913412  0.17166512  1
  H+  H106  1  1.01842436  0.88841680  0.16494963  1
  H+  H107  1  0.38019195  0.52566295  0.32818331  1
  H+  H108  1  0.73104450  0.11526331  0.51178942  1
  H+  H109  1  0.35465242  0.34118503  0.83196559  1
  H+  H110  1  0.60530313  -0.01819892  1.01240581  1
  H+  H111  1  1.02255916  0.39748701  0.15234833  1
  H+  H112  1  0.39901462  0.28983448  0.64555919  1
  H+  H113  1  0.54320188  0.12629039  0.16984927  1
  H+  H114  1  0.78012498  0.14764683  0.82314333  1
  H+  H115  1  0.96700436  0.35331778  1.00369552  1
  H+  H116  1  0.23489203  0.11357883  0.63999999  1
  H+  H117  1  0.39696532  0.11381804  0.51191142  1
  H+  H118  1  0.98111323  0.11572060  0.50162645  1
  H+  H119  1  0.64610515  0.09177889  0.19064699  1
  H+  H120  1  0.38627909  0.77712865  0.17084695  1
  H+  H121  1  0.76801085  0.87676500  0.66250517  1
  H+  H122  1  0.82902441  0.16036274  0.44145809  1
  H+  H123  1  1.02341362  0.38557511  0.83688488  1
  H+  H124  1  0.35227266  0.72085085  0.33673571  1
  H+  H125  1  0.88239387  0.60624405  0.50982817  1
  H+  H126  1  0.60298804  0.70630071  0.01379113  1
  H+  H127  1  0.86824448  0.21980811  0.66908440  1
  H+  H128  1  0.85212777  0.87127240  0.16041891  1
  H+  H129  1  0.25494994  0.59432142  0.81205240  1
  H+  H130  1  0.14985607  0.13080931  0.34305956  1
  H+  H131  1  0.27872370  0.87486701  0.01405572  1
  H+  H132  1  0.35298412  0.23863374  0.16880061  1
  H+  H133  1  0.88915537  0.86457916  0.99311744  1
  H+  H134  1  0.37484593  0.24433900  0.50106767  1
  H+  H135  1  0.09923374  0.49451433  0.14869712  1
  H+  H136  1  0.13657602  0.62573495  0.17591470  1
  H+  H137  1  0.38741389  0.11809231  0.83961554  1
  H+  H138  1  0.12326864  0.41774460  0.66577245  1
  H+  H139  1  0.50869470  0.64466472  0.34068889  1
  H+  H140  1  0.10740845  0.12648895  0.82578086  1
  H+  H141  1  0.77025728  0.87103674  0.34754473  1
  H+  H142  1  0.41593587  0.13808704  0.03268843  1
  H+  H143  1  0.04650403  0.14217774  0.34901208  1
  H+  H144  1  0.87746683  0.76505793  0.65956251  1
  H+  H145  1  0.18158313  0.84531328  1.08282497  1
  H+  H146  1  0.86360777  0.38238212  0.66895983  1
  H+  H147  1  0.11337215  0.60657050  0.51713877  1
  H+  H148  1  0.52182016  0.87918913  0.16097177  1
  H+  H149  1  0.43377611  0.35899530  0.59405802  1
  H+  H150  1  0.44102198  0.37511098  0.17072050  1
  H+  H151  1  0.87187825  0.97527322  0.49268539  1
  H+  H152  1  0.59467667  0.47818417  0.14709357  1
  H+  H153  1  0.01607237  0.65360324  0.67541602  1
  H+  H154  1  0.47328419  0.60594810  0.99532106  1
  H+  H155  1  0.48051012  0.84834392  0.49270724  1
  H+  H156  1  0.88460543  0.26739010  0.51025294  1
  H+  H157  1  0.11119932  0.47364662  0.34555175  1
  H+  H158  1  0.78424508  0.65216914  0.81919832  1
  H+  H159  1  0.64429116  0.12426785  0.84299733  1
  H+  H160  1  0.62197379  0.08783404  0.34235801  1
  H+  H161  1  0.88301200  0.61571241  0.17277725  1
  H+  H162  1  0.78006770  0.12296598  0.17736751  1
  H+  H163  1  0.63901739  0.20745256  0.17476867  1
  H+  H164  1  0.61768946  0.72052607  0.48970519  1
  H+  H165  1  0.48212723  0.12713079  0.84032323  1
  H+  H166  1  0.61754518  0.63797659  0.66863639  1
  H+  H167  1  0.32640627  0.41319118  0.43082904  1
  H+  H168  1  -0.01737697  0.62695070  0.84064942  1
  H+  H169  1  0.40039084  0.59236387  0.23691817  1
  H+  H170  1  0.88326207  0.76748694  0.51508971  1
  H+  H171  1  0.34242103  0.70730605  0.51599766  1
  H+  H172  1  0.77364722  0.63009460  0.15661848  1
  H+  H173  1  0.86144446  0.12936109  0.49867666  1
  H+  H174  1  0.57302889  0.63071418  0.21503958  1
  H+  H175  1  0.41719526  0.76548323  0.75566415  1
  H+  H176  1  0.09463154  0.47524025  0.50616544  1
  H+  H177  1  0.39842128  0.02896374  0.17367021  1
  H+  H178  1  0.10487061  0.73383676  0.16387678  1
  H+  H179  1  0.27540250  0.89072362  0.33421937  1
  H+  H180  1  0.13876712  0.61939795  0.33035019  1
  H+  H181  1  0.13329790  0.36871121  0.51001414  1
  H+  H182  1  0.85061862  0.21464234  0.02548070  1
  H+  H183  1  0.86862066  0.45563793  0.33752850  1
  H+  H184  1  0.86466654  0.11771577  0.16601915  1
  H+  H185  1  0.38324459  0.86697886  0.32483823  1
  H+  H186  1  0.47678318  0.60698675  0.49959253  1
  H+  H187  1  0.72558597  0.61193510  0.65299247  1
  H+  H188  1  0.61708268  0.38181863  0.66905171  1
  H+  H189  1  0.88506941  0.76789210  0.17515284  1
  H+  H190  1  0.70289602  0.43740829  0.54044548  1
  H+  H191  1  0.63058663  0.51847608  0.49088653  1
  H+  H192  1  0.66144460  0.57416247  0.55482250  1
  H+  H193  1  0.72790204  0.61671292  0.37624914  1
  H+  H194  1  0.13547169  0.02532561  0.18149828  1
  H+  H195  1  0.88632612  0.52113920  0.65802224  1
  H+  H196  1  0.63652790  0.01492548  0.65943272  1
  H+  H197  1  0.45917963  0.61950416  0.17852619  1
  H+  H198  1  0.97037316  0.84590760  0.66459689  1
  H+  H199  1  0.12902258  0.26529147  0.99674497  1
  H+  H200  1  0.83411785  0.16289473  0.76051302  1
  H+  H201  1  -0.01930056  0.86613754  0.83899336  1
  H+  H202  1  0.90844514  0.38242233  0.80426387  1
  H+  H203  1  0.87539299  0.74040873  1.00801502  1
  H+  H204  1  0.37511087  0.49269824  0.67321497  1
  H+  H205  1  0.60961926  0.21582146  0.67358927  1
  H+  H206  1  0.11948657  0.89319617  0.82455244  1
  H+  H207  1  0.02435666  0.15207510  0.83145591  1
  H+  H208  1  0.66144856  0.51370108  -0.02057266  1
  H+  H209  1  0.51652321  0.62300075  0.82183162  1
  H+  H210  1  0.65855646  0.54368939  0.82552851  1
  H+  H211  1  0.72468359  0.35292973  0.66069480  1
  H+  H212  1  0.86034677  0.63330016  0.66756020  1
  H+  H213  1  0.35617477  0.40244517  1.01191076  1
  H+  H214  1  0.90063265  0.28968044  0.80279885  1
  H+  H215  1  0.73987170  0.38545512  0.50907340  1
  H+  H216  1  0.36410353  0.96148777  -0.00608215  1
  H+  H217  1  0.52416979  0.12061235  0.50562959  1
  H+  H218  1  0.11522916  0.89551829  0.02350272  1
  H+  H219  1  0.97671881  0.20821529  0.88821458  1
  H+  H220  1  0.61360624  0.85585938  0.47023514  1
  H+  H221  1  0.13859071  0.26169544  0.34208915  1
  H+  H222  1  0.15599238  0.65765598  0.66314887  1
  H+  H223  1  0.26250621  0.38989424  1.00861497  1
  H+  H224  1  0.04240930  0.90631605  0.32978279  1
  H+  H225  1  0.13041150  0.86772641  0.17472457  1
  H+  H226  1  0.64476279  0.77249469  0.65784780  1
  H+  H227  1  0.66676359  0.33066718  0.60183856  1
  H+  H228  1  0.74042398  0.34281139  0.33320432  1
  H+  H229  1  0.43563219  0.11783071  0.13756770  1
  H+  H230  1  0.60916952  0.72118709  0.18241671  1
  H+  H231  1  0.60252985  0.84781164  0.85227987  1
  H+  H232  1  0.20415233  0.10081112  0.82876159  1
  H+  H233  1  0.13189168  0.99137818  0.34071915  1
  H+  H234  1  0.11259603  0.98236559  0.00783019  1
  H+  H235  1  0.47338305  0.36975833  0.32500558  1
  H+  H236  1  0.13068091  0.10888667  -0.00870725  1
  H+  H237  1  0.69549059  0.31890729  0.24123545  1
  H+  H238  1  0.51648067  0.12482425  0.34677590  1
  H+  H239  1  0.48811331  0.62542295  0.65507979  1
  H+  H240  1  0.65771963  0.37608934  0.83807292  1
  H+  H241  1  0.10410026  0.37796139  1.00505681  1
  H+  H242  1  0.62422944  -0.01064925  0.82100222  1
  H+  H243  1  0.72195970  0.85611521  0.17850677  1
  H+  H244  1  0.15746526  0.57150934  0.66000483  1
  H+  H245  1  0.88359624  0.09836506  0.65842195  1
  H+  H246  1  0.09781795  0.73264815  0.49814637  1
  H+  H247  1  0.33104622  0.20377530  0.81973281  1
  H+  H248  1  0.52666324  0.87069193  0.66976475  1
  H+  H249  1  0.80816775  0.91103616  0.79180799  1
  H+  H250  1  0.99045164  0.77014901  0.41472085  1
  H+  H251  1  0.64213678  0.61142894  0.15847822  1
  H+  H252  1  0.84570848  0.12389291  0.34588546  1
  H+  H253  1  0.63751608  0.10474374  0.66517773  1
  H+  H254  1  0.37489205  0.63809985  0.00213985  1
  H+  H255  1  0.33806179  0.61846136  0.51773900  1
  H+  H256  1  0.74824887  0.66327391  0.36776347  1
  H+  H257  1  0.61822568  0.43767188  0.33219401  1
  H+  H258  1  0.28840121  0.64319580  0.00232608  1
  H+  H259  1  0.61332933  0.64168413  0.82266243  1
  H+  H260  1  0.95172260  0.69105599  0.37028541  1
  H+  H261  1  0.63582992  0.80651286  -0.05190544  1
  H+  H262  1  0.37747942  0.52414223  0.99622997  1
  H+  H263  1  0.87491554  0.49263633  0.82096206  1
  H+  H264  1  0.55894808  0.41793829  0.81830753  1
  H+  H265  1  0.64810330  0.33593505  0.33002428  1
  H+  H266  1  0.86503868  0.38047446  0.49789106  1
  H+  H267  1  0.54270190  0.18914178  0.04543713  1
  H+  H268  1  0.61207319  0.38422054  1.00076864  1
  H+  H269  1  0.60971937  0.87485605  0.15917732  1
  H+  H270  1  0.88943765  0.26208256  0.33285504  1
  H+  H271  1  0.53054019  0.90838888  0.82180104  1
  H+  H272  1  0.53129855  0.39029851  0.66872368  1
  H+  H273  1  0.85025004  0.99485780  0.32772368  1
  H+  H274  1  0.83444513  0.66805598  0.72667774  1
  H+  H275  1  0.13840946  0.35639707  0.84455360  1
  H+  H276  1  0.26565548  0.63157154  0.33878361  1
  H+  H277  1  0.36475192  -0.02093780  0.33591056  1
  H+  H278  1  0.16553651  0.01493381  0.64110511  1
  H+  H279  1  0.11395433  1.01384285  0.82597475  1
  H+  H280  1  0.86518672  0.87911937  0.66674007  1
  H+  H281  1  0.89357906  0.62714072  0.83649660  1
  H+  H282  1  0.10774478  0.23079455  0.49613340  1
  H+  H283  1  0.27887919  0.14352039  0.35060878  1
  H+  H284  1  0.22136970  0.36617615  0.50602078  1
  H+  H285  1  0.12444285  0.73714903  0.82879904  1
  H+  H286  1  0.28081999  0.15494126  0.50030248  1
  H+  H287  1  0.01852879  0.64183472  0.00623302  1
  H+  H288  1  0.13019600  0.51860706  1.00299467  1
  H+  H289  1  0.19005382  0.85502028  0.89283074  1
  H+  H290  1  0.82703601  0.90501507  0.06465727  1
  H+  H291  1  0.67103050  0.83056707  0.55942630  1
  H+  H292  1  0.17834720  0.09963986  0.28138108  1
  H+  H293  1  0.84810786  0.43745039  0.10111766  1
  H+  H294  1  0.08628389  0.44418972  0.72199591  1
  H+  H295  1  0.16778317  0.08872271  0.55452195  1
  H+  H296  1  0.58967819  0.17148586  0.77193974  1
  H+  H297  1  0.39867061  0.33834971  0.23630044  1
  H+  H298  1  0.27900994  0.89625862  0.17545854  1
  H+  H299  1  0.26859732  0.38370314  0.33952170  1
  H+  H300  1  0.16211833  0.32094254  0.93512680  1
  H+  H301  1  0.83667727  0.41913517  0.72605876  1
  H+  H302  1  0.92564966  0.25684375  0.18455052  1
  H+  H303  1  0.07907560  0.92566767  0.10634955  1
  H+  H304  1  0.98953165  0.53268064  0.28918248  1
  H+  H305  1  0.40569043  0.06464571  0.56948663  1
  H+  H306  1  0.66874332  0.08357309  0.57317979  1
  H+  H307  1  0.57538647  0.42091710  0.05234601  1
  H+  H308  1  0.86928452  0.36762330  0.33950167  1
  H+  H309  1  0.33498488  0.67393277  0.09957824  1
  H+  H310  1  0.68225398  0.34354906  0.89917589  1
  H+  H311  1  0.86794053  0.90043194  0.83674814  1
  H+  H312  1  0.19066742  0.59609738  0.53888514  1
  H+  H313  1  0.91947444  0.07717487  0.56048375  1
  H+  H314  1  0.31403932  0.14236238  0.76241747  1
  H+  H315  1  0.65400231  0.87374802  0.34927374  1
  H+  H316  1  0.59960714  0.61714570  0.30818034  1
  H+  H317  1  0.33582583  0.41709724  0.76209705  1
  H+  H318  1  0.41933371  0.08097447  0.93108791  1
  H+  H319  1  0.91649814  0.32798921  0.60171056  1
  H+  H320  1  1.02499226  0.30402897  0.20498344  1
  H+  H321  1  0.60636460  0.42839730  0.75564744  1
  H+  H322  1  0.07381196  0.67035600  0.10505578  1
  H+  H323  1  0.07928294  0.42089763  0.44340734  1
  H+  H324  1  0.38771145  0.37368330  0.50215138  1
  H+  H325  1  0.42082874  0.09718262  0.27027580  1
  H+  H326  1  0.97763444  0.47485452  0.92957656  1
  H+  H327  1  0.85275162  0.67665583  0.44750170  1
  H+  H328  1  0.13584098  0.30719649  0.25033739  1
  H+  H329  1  0.76929382  0.62980461  0.49309888  1
  H+  H330  1  0.92271175  0.83496277  0.89937607  1
  H+  H331  1  0.57521280  0.66833773  0.39703636  1
  H+  H332  1  0.39975365  0.34158210  0.93489748  1
  H+  H333  1  0.42091384  0.83376601  0.23189167  1
  H+  H334  1  0.97807792  0.62152647  0.17160194  1
  H+  H335  1  0.39898706  0.18732290  0.08774424  1
  H+  H336  1  0.42745783  0.84675743  0.89852321  1
  H+  H337  1  1.01790959  0.63956869  0.49277903  1
  H+  H338  1  0.57935938  0.14496469  0.44304333  1
  H+  H339  1  0.34363515  0.17344624  0.40793310  1
  H+  H340  1  0.34398052  0.91361180  0.43277415  1
  H+  H341  1  0.35821576  0.13121224  0.63963576  1
  H+  H342  1  0.14647604  0.07228800  0.93021164  1
  H+  H343  1  0.52490550  0.12196312  0.68459400  1
  H+  H344  1  0.28486166  0.40300876  0.10877278  1
  H+  H345  1  0.07583857  0.68622189  0.73445039  1
  H+  H346  1  0.91495556  0.83041628  0.23359469  1
  H+  H347  1  0.39183082  0.85777137  -0.01137704  1
  H+  H348  1  0.83871254  0.40795218  0.43585377  1
  H+  H349  1  0.18384758  0.60249944  0.89751400  1
  H+  H350  1  0.37907404  0.99783459  0.71559480  1
  H+  H351  1  0.13674768  0.77693091  1.03087865  1
  H+  H352  1  0.58646754  0.66774034  0.72870449  1
  H+  H353  1  0.07602368  0.89519332  0.76260312  1
  H+  H354  1  0.97373236  0.35886777  0.50944610  1
  H+  H355  1  0.60576869  0.17093441  0.08053103  1
  H+  H356  1  0.76353357  0.13175878  0.35236167  1
  H+  H357  1  0.91929696  0.59432139  0.93246863  1
  H+  H358  1  0.57628937  0.91371500  0.07349962  1
  H+  H359  1  0.90430809  0.05989649  0.23225965  1
  H+  H360  1  0.91215873  0.08898052  0.94233985  1
  H+  H361  1  0.60207789  0.39685385  0.47055355  1
  H+  H362  1  0.82245208  0.14973003  0.08142749  1
  H+  H363  1  0.40146315  0.77214599  0.98936532  1
  H+  H364  1  0.94031789  0.44297652  0.91103808  1
  H+  H365  1  0.91752315  0.58149822  0.59946924  1
  H+  H366  1  0.79089061  0.01529983  0.28774787  1
  H+  H367  1  0.07701438  0.14378948  0.72391080  1
  H+  H368  1  0.91936983  0.83221318  0.57087003  1
  H+  H369  1  0.16326618  0.83564065  0.23169113  1
  H+  H370  1  0.87464914  0.73864522  0.82113652  1
  H+  H371  1  0.57319615  0.43469197  0.40745317  1
  H+  H372  1  0.14760836  0.86790078  0.55110720  1
  H+  H373  1  0.05725448  0.78958690  0.69544010  1
  H+  H374  1  0.41424581  0.57090449  0.89951647  1
  H+  H375  1  0.86369965  0.97570705  0.66245967  1
  H+  H376  1  0.58626583  0.91332841  0.72852098  1
  H+  H377  1  0.67419345  0.09052423  0.89991371  1
  H+  H378  1  0.56238025  0.64461623  0.07065058  1
  H+  H379  1  0.65723959  0.05474466  0.28730557  1
  H+  H380  1  0.15902670  0.58490652  0.26793233  1
  H+  H381  1  0.40487308  0.63374969  0.64371391  1
  H+  H382  1  0.09245702  0.68076193  0.40611227  1
  H+  H383  1  0.42369054  0.57767136  0.56111021  1
  O2-  O384  1  0.07183482  0.15259368  0.15008257  1
  O2-  O385  1  0.07921825  0.17057640  0.48076184  1
  O2-  O386  1  0.08298180  0.16833861  0.81201124  1
  O2-  O387  1  0.05565239  0.44608886  0.12384579  1
  O2-  O388  1  0.07285537  0.41537951  0.48851066  1
  O2-  O389  1  0.08153216  0.41011200  0.86007965  1
  O2-  O390  1  0.07318858  0.67137058  0.15059578  1
  O2-  O391  1  0.07898975  0.67567396  0.47908417  1
  O2-  O392  1  0.08786433  0.67696642  0.81477038  1
  O2-  O393  1  0.08000472  0.92083105  0.15177464  1
  O2-  O394  1  0.07252696  0.85791868  0.48199609  1
  O2-  O395  1  0.08323891  0.91477061  0.80605096  1
  O2-  O396  1  0.33254005  0.17834354  0.15310181  1
  O2-  O397  1  0.34599972  0.18025181  0.49670908  1
  O2-  O398  1  0.30839810  0.14220212  0.80659791  1
  O2-  O399  1  0.26706554  0.38799831  0.15159975  1
  O2-  O400  1  0.32596643  0.41178558  0.47653791  1
  O2-  O401  1  0.32855952  0.40586025  0.80760448  1
  O2-  O402  1  0.32664746  0.67556115  0.14406613  1
  O2-  O403  1  0.30457232  0.64671155  0.52696793  1
  O2-  O404  1  0.30056669  0.58818470  0.79163229  1
  O2-  O405  1  0.34024779  0.92919265  0.16415428  1
  O2-  O406  1  0.34972176  0.91130419  0.47734335  1
  O2-  O407  1  0.34020851  0.93675446  0.80167314  1
  O2-  O408  1  0.60488512  0.14929215  0.15723229  1
  O2-  O409  1  0.58446061  0.14701535  0.48839688  1
  O2-  O410  1  0.58797669  0.17401510  0.81749463  1
  O2-  O411  1  0.55024871  0.42087471  0.12959180  1
  O2-  O412  1  0.57529433  0.43094146  0.45988172  1
  O2-  O413  1  0.61582204  0.43713902  0.80167368  1
  O2-  O414  1  0.57718959  0.65752212  0.17499070  1
  O2-  O415  1  0.58384264  0.66128362  0.47295518  1
  O2-  O416  1  0.57536324  0.66184784  0.80532262  1
  O2-  O417  1  0.58223335  0.90806084  0.14375384  1
  O2-  O418  1  0.58310610  0.87496650  0.44112875  1
  O2-  O419  1  0.58913347  0.93014038  0.80488258  1
  O2-  O420  1  0.83680806  0.15309117  0.15641353  1
  O2-  O421  1  0.82906243  0.15956161  0.48699512  1
  O2-  O422  1  0.83929038  0.17541857  0.80540249  1
  O2-  O423  1  0.85396261  0.44021713  0.14765387  1
  O2-  O424  1  0.83791093  0.41351952  0.48070610  1
  O2-  O425  1  0.84738637  0.43295975  0.80446625  1
  O2-  O426  1  0.83656650  0.66197222  0.14640558  1
  O2-  O427  1  0.83419414  0.66312305  0.49030072  1
  O2-  O428  1  0.84490692  0.67818595  0.80446450  1
  O2-  O429  1  0.82005702  0.89991554  0.14534625  1
  O2-  O430  1  0.84017582  0.91327007  0.48007241  1
  O2-  O431  1  0.84515409  0.93874294  0.82674303  1
  O2-  O432  1  0.16467842  0.08613737  0.19575855  1
  O2-  O433  1  0.18088856  0.10571427  0.51162186  1
  O2-  O434  1  0.14258529  0.07509437  0.84165077  1
  O2-  O435  1  0.11632886  0.30008718  0.20630638  1
  O2-  O436  1  0.16275545  0.33731858  0.52444904  1
  O2-  O437  1  0.16855336  0.32254010  0.84834105  1
  O2-  O438  1  0.16447444  0.59238492  0.18829388  1
  O2-  O439  1  0.12695781  0.56651626  0.53842428  1
  O2-  O440  1  0.16545881  0.58501100  0.85567023  1
  O2-  O441  1  0.16001499  0.83447972  0.18552923  1
  O2-  O442  1  0.09775841  0.81919687  0.53093140  1
  O2-  O443  1  0.18264515  0.84918786  0.84883880  1
  O2-  O444  1  0.43702565  0.09408036  0.17818870  1
  O2-  O445  1  0.42325847  0.07947994  0.52531528  1
  O2-  O446  1  0.42164191  0.09321370  0.85594921  1
  O2-  O447  1  0.38648449  0.33615535  0.19125364  1
  O2-  O448  1  0.42562263  0.35154683  0.51828685  1
  O2-  O449  1  0.36939778  0.29784802  0.85113370  1
  O2-  O450  1  0.39946565  0.59756589  0.19165203  1
  O2-  O451  1  0.41722750  0.57451745  0.51608162  1
  O2-  O452  1  0.41448546  0.56273020  0.85427855  1
  O2-  O453  1  0.42278222  0.83741136  0.18651900  1
  O2-  O454  1  0.42739814  0.82825451  0.51591724  1
  O2-  O455  1  0.42528509  0.85595289  0.85360508  1
  O2-  O456  1  0.67307058  0.05940190  0.20786079  1
  O2-  O457  1  0.66929178  0.08641612  0.52703812  1
  O2-  O458  1  0.67758631  0.09558692  0.85505974  1
  O2-  O459  1  0.70268103  0.32160197  0.19539976  1
  O2-  O460  1  0.68609969  0.37899146  0.52821000  1
  O2-  O461  1  0.68433901  0.34300153  0.85384090  1
  O2-  O462  1  0.66697315  0.57556579  0.17245883  1
  O2-  O463  1  0.66712234  0.57863308  0.50984665  1
  O2-  O464  1  0.68069368  0.60158423  0.84382765  1
  O2-  O465  1  0.66179526  0.82967672  0.19510063  1
  O2-  O466  1  0.67271635  0.82655775  0.51450217  1
  O2-  O467  1  0.58923078  0.79761789  0.87766718  1
  O2-  O468  1  0.91109572  0.06245429  0.18735927  1
  O2-  O469  1  0.91840395  0.07987515  0.51549672  1
  O2-  O470  1  0.94980695  0.15306034  0.86718891  1
  O2-  O471  1  0.97222112  0.31036687  0.20290548  1
  O2-  O472  1  0.91202123  0.32797974  0.52468023  1
  O2-  O473  1  0.94199248  0.35225328  0.80015867  1
  O2-  O474  1  0.91577896  0.58537336  0.18706516  1
  O2-  O475  1  0.91759689  0.57948776  0.52177237  1
  O2-  O476  1  0.92147211  0.59573139  0.85472535  1
  O2-  O477  1  0.91260271  0.82906780  0.18783857  1
  O2-  O478  1  0.91960993  0.82986795  0.52545082  1
  O2-  O479  1  0.92041314  0.83463808  0.85391761  1
  O2-  O480  1  0.18220718  0.09953690  0.32622930  1
  O2-  O481  1  0.17132147  0.07168829  0.63912933  1
  O2-  O482  1  0.15620982  0.07549175  0.97432934  1
  O2-  O483  1  0.16444430  0.32356968  0.32193500  1
  O2-  O484  1  0.17196220  0.36744876  0.64767437  1
  O2-  O485  1  0.15542083  0.32514104  0.97934212  1
  O2-  O486  1  0.15359862  0.57728866  0.31301377  1
  O2-  O487  1  0.19445675  0.63388020  0.66628109  1
  O2-  O488  1  0.16420239  0.58271184  1.00883723  1
  O2-  O489  1  0.17322169  0.84254983  0.30621722  1
  O2-  O490  1  0.21093147  0.90893761  0.62691607  1
  O2-  O491  1  0.17353245  0.84005869  1.03870761  1
  O2-  O492  1  0.41842620  0.09015468  0.31466620  1
  O2-  O493  1  0.35957690  0.04112640  0.63843306  1
  O2-  O494  1  0.42089325  0.07060191  0.97593829  1
  O2-  O495  1  0.41154437  0.33369722  0.31057605  1
  O2-  O496  1  0.43204954  0.35314315  0.63994768  1
  O2-  O497  1  0.42108175  0.37824128  0.97096556  1
  O2-  O498  1  0.40973944  0.58671472  0.31420081  1
  O2-  O499  1  0.42750985  0.59376967  0.63995036  1
  O2-  O500  1  0.41334480  0.58224742  0.97715901  1
  O2-  O501  1  0.41202841  0.83385081  0.31013925  1
  O2-  O502  1  0.41684424  0.80196870  0.63747988  1
  O2-  O503  1  0.43126531  0.83408416  0.97553364  1
  O2-  O504  1  0.65715007  0.06046062  0.33250920  1
  O2-  O505  1  0.66836145  0.07676639  0.64686343  1
  O2-  O506  1  0.66044506  0.07970596  0.98630180  1
  O2-  O507  1  0.67959514  0.30829646  0.31536221  1
  O2-  O508  1  0.66317401  0.32170385  0.64675778  1
  O2-  O509  1  0.67943160  0.34050012  0.97985515  1
  O2-  O510  1  0.60082796  0.57451442  0.27954972  1
  O2-  O511  1  0.66486793  0.58197601  0.63809520  1
  O2-  O512  1  0.71163535  0.56314351  0.95791685  1
  O2-  O513  1  0.66738477  0.83860256  0.32152790  1
  O2-  O514  1  0.67652858  0.83357038  0.64207450  1
  O2-  O515  1  0.65149125  0.80350093  0.99111319  1
  O2-  O516  1  0.84956862  0.04251444  0.30334668  1
  O2-  O517  1  0.90785070  0.06252089  0.64269893  1
  O2-  O518  1  0.91003220  0.07983033  0.98665971  1
  O2-  O519  1  0.92257095  0.32218986  0.31680217  1
  O2-  O520  1  0.91677191  0.32757776  0.64739268  1
  O2-  O521  1  0.90226322  0.32452291  0.99905056  1
  O2-  O522  1  0.95094204  0.55320986  0.30230521  1
  O2-  O523  1  0.91415137  0.58250647  0.64494973  1
  O2-  O524  1  0.91866926  0.59139256  0.97824039  1
  O2-  O525  1  0.92830274  0.84332025  0.30858018  1
  O2-  O526  1  0.91175366  0.82832351  0.64856246  1
  O2-  O527  1  0.92183431  0.83582973  0.97852632  1
  O2-  O528  1  0.08020592  0.16500803  0.02550694  1
  O2-  O529  1  0.10401517  0.17493957  0.36597076  1
  O2-  O530  1  0.06146369  0.12091434  0.68274659  1
  O2-  O531  1  0.07221154  0.40945950  0.01325344  1
  O2-  O532  1  0.08562212  0.41598998  0.36483571  1
  O2-  O533  1  0.08669564  0.44444137  0.67775436  1
  O2-  O534  1  0.07616703  0.66909223  0.02692545  1
  O2-  O535  1  0.09693077  0.68258308  0.35995240  1
  O2-  O536  1  0.07167402  0.70075344  0.69146904  1
  O2-  O537  1  0.08048449  0.92397682  0.02830447  1
  O2-  O538  1  0.10097253  0.92755125  0.34561910  1
  O2-  O539  1  0.06290909  0.84813775  0.69256315  1
  O2-  O540  1  0.44290250  0.17735924  0.06772219  1
  O2-  O541  1  0.34208794  0.17199733  0.36295524  1
  O2-  O542  1  0.34186090  0.17668358  0.63018030  1
  O2-  O543  1  0.31932178  0.42508683  0.02816826  1
  O2-  O544  1  0.33020221  0.41880282  0.35335316  1
  O2-  O545  1  0.34492658  0.43223120  0.68851994  1
  O2-  O546  1  0.34804151  0.67362657  0.01695840  1
  O2-  O547  1  0.32604703  0.66177358  0.35267198  1
  O2-  O548  1  0.36858879  0.71009677  0.65246008  1
  O2-  O549  1  0.34006809  0.89976555  0.00315538  1
  O2-  O550  1  0.33634242  0.91808401  0.34905102  1
  O2-  O551  1  0.41732059  1.03072727  0.68162246  1
  O2-  O552  1  0.59371623  0.18259921  0.03803408  1
  O2-  O553  1  0.57500204  0.14505803  0.36467895  1
  O2-  O554  1  0.58692490  0.15889839  0.69421290  1
  O2-  O555  1  0.58660710  0.42145545  0.00790738  1
  O2-  O556  1  0.56835755  0.43778708  0.34879241  1
  O2-  O557  1  0.59221018  0.41746686  0.68420275  1
  O2-  O558  1  0.56680185  0.64359127  0.02656343  1
  O2-  O559  1  0.57158056  0.67658042  0.35221474  1
  O2-  O560  1  0.59132219  0.67250772  0.68305831  1
  O2-  O561  1  0.57329007  0.91989248  0.02698108  1
  O2-  O562  1  0.65942183  0.94472555  0.41117202  1
  O2-  O563  1  0.58717868  0.90812356  0.68297099  1
  O2-  O564  1  0.81944584  0.15255093  0.03557339  1
  O2-  O565  1  0.82602933  0.16226123  0.36336625  1
  O2-  O566  1  0.83834815  0.15855930  0.68367994  1
  O2-  O567  1  0.84215559  0.43337531  0.02973471  1
  O2-  O568  1  0.83643598  0.39660780  0.35435179  1
  O2-  O569  1  0.83182861  0.41291154  0.68089845  1
  O2-  O570  1  0.84810040  0.67950423  0.02477764  1
  O2-  O571  1  0.93873395  0.73112548  0.39088199  1
  O2-  O572  1  0.83001370  0.66469531  0.68115285  1
  O2-  O573  1  0.83079072  0.90613466  0.01937326  1
  O2-  O574  1  0.83253801  0.90489726  0.35871293  1
  O2-  O575  1  0.83181089  0.91011990  0.67741985  1
