# generated using pymatgen
data_H2O
_symmetry_space_group_name_H-M   'P 1'
_cell_length_a   17.97123768
_cell_length_b   17.95884806
_cell_length_c   21.98984815
_cell_angle_alpha   90.00231431
_cell_angle_beta   89.97575514
_cell_angle_gamma   120.00207316
_symmetry_Int_Tables_number   1
_chemical_formula_structural   H2O
_chemical_formula_sum   'H384 O192'
_cell_volume   6146.10825799
_cell_formula_units_Z   192
loop_
 _symmetry_equiv_pos_site_id
 _symmetry_equiv_pos_as_xyz
  1  'x, y, z'
loop_
 _atom_type_symbol
 _atom_type_oxidation_number
  H+  1.0
  O2-  -2.0
loop_
 _atom_site_type_symbol
 _atom_site_label
 _atom_site_symmetry_multiplicity
 _atom_site_fract_x
 _atom_site_fract_y
 _atom_site_fract_z
 _atom_site_occupancy
  H+  H0  1  0.88604165  0.61483246  0.32812133  1
  H+  H1  1  0.08984879  0.66500667  0.73042177  1
  H+  H2  1  0.34791995  0.71569688  0.49187638  1
  H+  H3  1  0.61035399  -0.02371628  0.82823291  1
  H+  H4  1  0.85323100  0.91835715  0.06422403  1
  H+  H5  1  0.76825814  0.87924437  0.48872417  1
  H+  H6  1  0.02482200  0.38790806  0.48786625  1
  H+  H7  1  0.86308082  0.88356778  0.67259372  1
  H+  H8  1  0.61006841  0.71139134  0.33122732  1
  H+  H9  1  0.38372215  0.73789810  0.67345674  1
  H+  H10  1  0.13964857  0.11533063  0.67499507  1
  H+  H11  1  0.53715036  0.37977734  0.67368135  1
  H+  H12  1  0.86823484  0.15775001  0.17130181  1
  H+  H13  1  1.01460467  0.62903304  0.34584643  1
  H+  H14  1  0.61166136  0.24035267  0.00733439  1
  H+  H15  1  0.88325229  0.52558156  0.33138581  1
  H+  H16  1  0.37456090  0.61628529  0.65734962  1
  H+  H17  1  0.43520213  0.81791071  0.61148784  1
  H+  H18  1  0.52079282  0.87296268  0.67749158  1
  H+  H19  1  0.95972032  0.55393868  0.17265541  1
  H+  H20  1  0.72937341  0.37680219  0.99780877  1
  H+  H21  1  0.87713781  0.39433502  0.82825038  1
  H+  H22  1  0.35840431  0.13499430  0.32773322  1
  H+  H23  1  0.26723246  0.13125327  0.33408446  1
  H+  H24  1  0.63937189  0.78993906  0.84130259  1
  H+  H25  1  0.11754474  0.64551965  0.49487152  1
  H+  H26  1  0.41035619  0.12781547  0.49952239  1
  H+  H27  1  0.63440095  0.10924327  0.50870432  1
  H+  H28  1  0.88723993  0.05076417  0.18814457  1
  H+  H29  1  0.22547035  0.86650902  0.98726970  1
  H+  H30  1  0.61558337  0.21819950  0.67595257  1
  H+  H31  1  0.26375906  0.62485243  0.48741900  1
  H+  H32  1  0.13233515  0.07960967  0.58286470  1
  H+  H33  1  0.89102704  0.29179042  0.32276884  1
  H+  H34  1  0.46604494  0.35914671  0.31743917  1
  H+  H35  1  0.10626778  0.88242528  0.34937502  1
  H+  H36  1  0.86833890  0.48956849  0.00295178  1
  H+  H37  1  0.45665906  0.87485980  0.32611907  1
  H+  H38  1  0.37155526  0.52183741  0.50581679  1
  H+  H39  1  0.74709991  0.72528366  0.54467518  1
  H+  H40  1  0.49121853  0.63248853  0.14476770  1
  H+  H41  1  0.88496732  0.28728847  0.17191645  1
  H+  H42  1  0.97742197  0.38501278  0.32079978  1
  H+  H43  1  0.92079364  0.58148961  0.57028987  1
  H+  H44  1  0.46746376  0.37902986  0.50551082  1
  H+  H45  1  0.78831272  0.38808653  0.67533543  1
  H+  H46  1  0.47574937  0.86640610  0.99361719  1
  H+  H47  1  0.13787395  0.78164480  0.50386860  1
  H+  H48  1  0.36137838  0.51736432  0.65209898  1
  H+  H49  1  0.26979828  0.35762728  0.67091295  1
  H+  H50  1  0.77568056  0.63854255  0.69023527  1
  H+  H51  1  0.11527252  0.88638918  -0.00494704  1
  H+  H52  1  0.65211441  0.84229277  0.30411486  1
  H+  H53  1  0.89234958  0.27588801  0.84684782  1
  H+  H54  1  0.12880314  0.76391052  0.83967059  1
  H+  H55  1  0.62855265  0.10357835  0.66233084  1
  H+  H56  1  0.38645864  0.47532070  0.81028843  1
  H+  H57  1  0.74293019  0.85449872  0.31861415  1
  H+  H58  1  0.35598905  0.96762361  0.15450051  1
  H+  H59  1  0.88909114  0.77271084  0.66411359  1
  H+  H60  1  0.04550855  0.39076018  0.65057247  1
  H+  H61  1  0.47521834  0.85834140  0.84001363  1
  H+  H62  1  0.88984946  1.02725944  0.84302199  1
  H+  H63  1  0.03757049  0.14222502  0.17301517  1
  H+  H64  1  0.36240839  0.88940447  0.99874681  1
  H+  H65  1  0.80042558  0.37584462  0.49608441  1
  H+  H66  1  0.63183997  0.51013928  0.17217802  1
  H+  H67  1  0.57413956  0.41104343  0.09908693  1
  H+  H68  1  0.12555348  0.13822513  0.16740010  1
  H+  H69  1  0.03400742  0.14428105  0.01125831  1
  H+  H70  1  0.12239424  0.83273241  0.14781910  1
  H+  H71  1  0.11702423  0.63483420  0.82535057  1
  H+  H72  1  0.85903011  0.88314595  0.49053972  1
  H+  H73  1  0.60602869  0.37568709  0.32857235  1
  H+  H74  1  0.65190139  0.25741592  0.50993518  1
  H+  H75  1  0.09689648  0.41403684  0.77550552  1
  H+  H76  1  0.34894873  0.88723268  0.33819660  1
  H+  H77  1  0.09703519  0.13009634  0.83143420  1
  H+  H78  1  0.85973228  0.25323658  0.68552229  1
  H+  H79  1  0.87383033  0.48179304  0.67349391  1
  H+  H80  1  0.48545144  0.35345554  0.83565836  1
  H+  H81  1  0.86179536  -0.02159970  0.34344732  1
  H+  H82  1  0.85131968  0.73665329  -0.01331313  1
  H+  H83  1  0.98249712  0.80014616  0.19723947  1
  H+  H84  1  0.57947019  0.90357011  0.33908749  1
  H+  H85  1  0.59778402  -0.00107391  0.33483660  1
  H+  H86  1  0.03196382  0.91386554  0.14401845  1
  H+  H87  1  0.35626653  0.91294818  0.59879170  1
  H+  H88  1  -0.01861437  0.61705267  0.66290627  1
  H+  H89  1  0.72287599  0.36358884  0.32912052  1
  H+  H90  1  0.46948528  0.35911284  0.99130487  1
  H+  H91  1  0.15742875  0.36002154  0.56663297  1
  H+  H92  1  0.12912050  -0.01787469  0.15379275  1
  H+  H93  1  0.13814153  0.28869348  0.51415130  1
  H+  H94  1  0.62675136  0.38263442  0.82971121  1
  H+  H95  1  0.39683252  0.02145767  0.65128276  1
  H+  H96  1  0.88548129  0.28349301  0.99758699  1
  H+  H97  1  0.89083608  0.61597459  0.66477844  1
  H+  H98  1  0.48785238  0.58602502  0.98228329  1
  H+  H99  1  0.01583399  0.88213071  0.34862340  1
  H+  H100  1  0.37126351  0.21732165  0.15086259  1
  H+  H101  1  0.87940251  -0.01307798  1.00941757  1
  H+  H102  1  0.67511191  0.34634480  0.93637851  1
  H+  H103  1  0.12759792  0.77115324  0.34023681  1
  H+  H104  1  0.64415936  0.02744943  0.17220742  1
  H+  H105  1  0.14225977  0.11550683  -0.00257079  1
  H+  H106  1  1.02767306  0.88287173  0.67218707  1
  H+  H107  1  0.65035843  0.35769272  0.66484631  1
  H+  H108  1  0.61679298  0.22179928  0.33753854  1
  H+  H109  1  0.22262835  0.60453241  0.19300034  1
  H+  H110  1  0.02919786  0.39118870  0.00900670  1
  H+  H111  1  0.28644262  0.64644735  0.67138176  1
  H+  H112  1  0.84664337  0.43851256  0.06563789  1
  H+  H113  1  0.63840030  0.36467823  0.17090805  1
  H+  H114  1  0.78313935  0.07986332  0.03580544  1
  H+  H115  1  0.72930312  0.10888878  0.84750370  1
  H+  H116  1  0.90967106  0.37949233  0.65918240  1
  H+  H117  1  0.38800156  0.10662217  0.65943574  1
  H+  H118  1  0.02162293  0.88094744  0.82241297  1
  H+  H119  1  0.35890459  0.39487896  0.33943205  1
  H+  H120  1  0.38097375  0.26856167  0.98952043  1
  H+  H121  1  0.61651812  0.97541157  0.49700466  1
  H+  H122  1  0.98418477  0.61118537  0.51229213  1
  H+  H123  1  0.10239959  0.14700786  0.51083477  1
  H+  H124  1  0.40244529  0.32280085  0.23271279  1
  H+  H125  1  0.52927259  0.13731657  0.49259267  1
  H+  H126  1  0.73260543  0.88308349  -0.00347397  1
  H+  H127  1  0.27335418  0.63271090  0.82575811  1
  H+  H128  1  0.13967200  0.51177672  0.18566012  1
  H+  H129  1  0.47129664  0.11813139  -0.01149001  1
  H+  H130  1  0.36455724  0.37886477  -0.00173584  1
  H+  H131  1  0.37993953  0.87426369  0.65439181  1
  H+  H132  1  0.64025301  0.52540533  0.69474872  1
  H+  H133  1  0.63488537  0.85813622  0.66104263  1
  H+  H134  1  0.63228049  0.61037829  0.69361178  1
  H+  H135  1  0.10587214  0.72971981  0.99477594  1
  H+  H136  1  0.61186828  0.39369180  0.00491540  1
  H+  H137  1  0.86852777  0.63812416  0.83107322  1
  H+  H138  1  0.02523560  0.38869685  0.16107736  1
  H+  H139  1  0.51304491  0.63344973  0.66506502  1
  H+  H140  1  0.75494788  0.69849878  0.56720936  1
  H+  H141  1  0.36508952  0.73271661  0.33533725  1
  H+  H142  1  0.72284680  0.85559201  0.65850399  1
  H+  H143  1  0.38018524  0.53029334  0.33104388  1
  H+  H144  1  0.14525233  0.36958569  1.00261915  1
  H+  H145  1  1.02673979  0.63401967  0.82405024  1
  H+  H146  1  0.71605503  0.12755596  0.99580179  1
  H+  H147  1  0.47692790  0.86362672  0.17301011  1
  H+  H148  1  0.14861961  0.27727872  0.17738535  1
  H+  H149  1  0.48085118  0.10748878  0.17000828  1
  H+  H150  1  0.36734407  0.65162603  0.15723386  1
  H+  H151  1  0.89374127  0.87219103  0.98706606  1
  H+  H152  1  0.72880103  0.58824162  0.17469270  1
  H+  H153  1  0.07817661  0.67557354  0.15719181  1
  H+  H154  1  0.27539583  0.38704969  1.00273333  1
  H+  H155  1  0.14426067  0.61911744  0.65571340  1
  H+  H156  1  0.97895204  0.86351981  0.98649956  1
  H+  H157  1  0.39834959  0.55192009  0.15093552  1
  H+  H158  1  0.24669433  0.11385992  0.16251448  1
  H+  H159  1  0.71992751  0.11282956  0.66487394  1
  H+  H160  1  0.38480376  0.77613816  0.17334608  1
  H+  H161  1  0.13734547  0.36100558  0.84856174  1
  H+  H162  1  0.59099156  0.39953304  0.47852431  1
  H+  H163  1  0.26178342  0.86845636  0.82507457  1
  H+  H164  1  0.77814229  0.89484364  0.82613509  1
  H+  H165  1  0.09686467  0.61700545  0.35032829  1
  H+  H166  1  0.86871481  0.13851591  0.83527656  1
  H+  H167  1  0.74459219  0.37845824  0.84498333  1
  H+  H168  1  0.27455783  0.13762948  1.00205558  1
  H+  H169  1  0.61952903  0.13453645  0.33755936  1
  H+  H170  1  0.89985460  0.78105567  0.50843661  1
  H+  H171  1  0.09273054  0.59971473  0.17993362  1
  H+  H172  1  0.08204580  0.92534652  0.44030055  1
  H+  H173  1  0.26695818  0.39898981  0.49603785  1
  H+  H174  1  0.66232058  0.28596330  0.84171975  1
  H+  H175  1  0.63484028  0.72186307  0.13520186  1
  H+  H176  1  0.13896348  1.02460873  -0.00785435  1
  H+  H177  1  0.23512312  0.85973469  0.65266247  1
  H+  H178  1  0.87620845  0.47226742  0.49324467  1
  H+  H179  1  0.46549719  0.61528792  0.83952503  1
  H+  H180  1  0.42585856  0.09079724  0.56345602  1
  H+  H181  1  0.87860997  0.84102405  0.15898134  1
  H+  H182  1  0.85669511  0.39408017  0.33645617  1
  H+  H183  1  0.89322053  0.64172013  0.49045802  1
  H+  H184  1  0.39209109  0.38959955  0.80550870  1
  H+  H185  1  -0.04925654  0.25819469  0.53798986  1
  H+  H186  1  0.61069125  0.96588560  0.67504845  1
  H+  H187  1  0.58339472  0.91557279  0.76828819  1
  H+  H188  1  0.61999293  0.88603376  0.15375611  1
  H+  H189  1  0.39040516  0.24313614  0.48259459  1
  H+  H190  1  0.52282607  0.13174445  0.67439159  1
  H+  H191  1  -0.01897499  0.87388396  0.51194355  1
  H+  H192  1  0.11223578  0.38287826  0.16214942  1
  H+  H193  1  0.13862845  0.02446215  0.67051951  1
  H+  H194  1  0.36857847  -0.01622928  0.49323219  1
  H+  H195  1  0.88347080  0.01671036  0.66019539  1
  H+  H196  1  0.88564048  0.12882042  0.33267160  1
  H+  H197  1  0.70658946  0.05027380  0.30871396  1
  H+  H198  1  0.59908454  0.47627622  0.00722550  1
  H+  H199  1  0.47584117  0.62108646  0.32921196  1
  H+  H200  1  0.97463797  0.12804935  0.33886583  1
  H+  H201  1  0.10274842  0.02450208  0.52109385  1
  H+  H202  1  0.92169317  0.58871772  0.89660074  1
  H+  H203  1  0.88116329  0.86114524  0.33009505  1
  H+  H204  1  0.13749987  0.52719091  -0.00579774  1
  H+  H205  1  0.02849212  0.38985551  0.83035216  1
  H+  H206  1  0.11531464  0.89821873  0.49911866  1
  H+  H207  1  0.36664137  0.21478706  0.67480680  1
  H+  H208  1  0.90119877  0.12074076  0.99599790  1
  H+  H209  1  0.36445834  0.20857086  0.82722698  1
  H+  H210  1  0.35951905  0.88200205  0.15337449  1
  H+  H211  1  0.41738273  0.56686412  0.92617209  1
  H+  H212  1  0.92949420  0.33249241  0.60312682  1
  H+  H213  1  0.74442118  0.85172174  0.15783801  1
  H+  H214  1  0.12880062  0.85406918  0.83838879  1
  H+  H215  1  0.38418184  0.02745191  0.98877306  1
  H+  H216  1  0.13212027  0.52722598  0.50045108  1
  H+  H217  1  0.73214393  0.37556304  0.17283379  1
  H+  H218  1  0.60653363  -0.01213211  1.00787831  1
  H+  H219  1  0.61756196  0.46658779  0.82543409  1
  H+  H220  1  0.32239668  0.41562692  0.72851256  1
  H+  H221  1  0.39532157  0.43700998  0.15257818  1
  H+  H222  1  0.77226969  0.14448939  0.16729881  1
  H+  H223  1  0.33308894  0.92366013  0.43357019  1
  H+  H224  1  0.08034851  0.66779314  0.43628356  1
  H+  H225  1  0.85569071  0.57835230  0.17404657  1
  H+  H226  1  0.60012399  0.48980027  0.46044536  1
  H+  H227  1  0.27153910  0.39784890  0.34068907  1
  H+  H228  1  0.61889784  0.22738368  0.16056494  1
  H+  H229  1  0.11429105  0.24088417  0.34649913  1
  H+  H230  1  0.11187782  0.15063916  0.35173051  1
  H+  H231  1  0.11969160  0.72643234  0.67152346  1
  H+  H232  1  0.51662479  0.73496539  0.79142263  1
  H+  H233  1  0.89581607  0.52873261  0.83713625  1
  H+  H234  1  0.17057274  0.58740722  0.89904165  1
  H+  H235  1  0.62893393  0.62074642  0.46399635  1
  H+  H236  1  0.20536834  0.82676966  0.15122044  1
  H+  H237  1  0.11993879  0.01176009  0.33537492  1
  H+  H238  1  0.34017288  0.16294744  0.08768740  1
  H+  H239  1  0.11859353  0.88499193  0.67171768  1
  H+  H240  1  0.36507647  0.13786847  -0.00151717  1
  H+  H241  1  0.89019887  0.37433176  -0.00210373  1
  H+  H242  1  0.70907057  0.61205732  0.48232965  1
  H+  H243  1  0.35586804  0.97946745  0.33900704  1
  H+  H244  1  0.29174470  0.16389376  0.55804099  1
  H+  H245  1  0.97472171  0.62374290  0.98717273  1
  H+  H246  1  0.72558619  0.60116375  0.32693054  1
  H+  H247  1  -0.00626986  0.16537034  0.51893439  1
  H+  H248  1  0.35616188  0.84771894  0.50636834  1
  H+  H249  1  0.64435913  0.87892491  0.84106614  1
  H+  H250  1  0.14092482  0.52573406  0.84074258  1
  H+  H251  1  0.10164466  0.63869830  0.99513351  1
  H+  H252  1  0.62734029  0.12776119  -0.00674399  1
  H+  H253  1  0.76108336  0.13488698  0.48774238  1
  H+  H254  1  0.38862468  0.76597726  0.84069396  1
  H+  H255  1  0.90005213  0.93555205  0.16797335  1
  H+  H256  1  0.47574217  0.11231835  0.32415084  1
  H+  H257  1  0.11965654  0.01463469  0.83915648  1
  H+  H258  1  0.88592016  0.10378700  0.67451401  1
  H+  H259  1  0.23244004  0.37080613  0.17391295  1
  H+  H260  1  0.66236533  0.83065263  0.56281082  1
  H+  H261  1  0.63836384  0.60022746  0.82126214  1
  H+  H262  1  0.38082416  0.62878125  0.33119851  1
  H+  H263  1  0.67491520  0.35449942  0.51606913  1
  H+  H264  1  0.88161101  0.62023066  -0.01572767  1
  H+  H265  1  0.66877747  0.33253400  0.26686028  1
  H+  H266  1  0.36864669  0.61534629  0.50471337  1
  H+  H267  1  0.77511178  0.15786733  0.33069340  1
  H+  H268  1  0.27501687  0.12911292  0.67513710  1
  H+  H269  1  0.63494914  0.86351781  0.50266620  1
  H+  H270  1  0.84596729  0.72026561  0.34148216  1
  H+  H271  1  0.64134457  0.15316651  0.82654009  1
  H+  H272  1  0.51480278  0.37841163  0.15861419  1
  H+  H273  1  0.35257481  0.32032832  0.17220719  1
  H+  H274  1  0.89009108  0.72165748  0.18646761  1
  H+  H275  1  0.40489877  0.36378303  0.67200933  1
  H+  H276  1  0.88510215  0.77433979  0.83652839  1
  H+  H277  1  0.03055898  0.13581776  0.67796725  1
  H+  H278  1  0.62655972  0.63044050  0.14545637  1
  H+  H279  1  0.35058911  0.87126548  0.82585248  1
  H+  H280  1  0.27694781  0.11942074  0.54647063  1
  H+  H281  1  0.51747204  0.64255571  0.49377771  1
  H+  H282  1  0.36225749  0.64328760  1.01091116  1
  H+  H283  1  0.10695298  0.22548307  0.83362150  1
  H+  H284  1  0.92598210  0.10586841  0.24790441  1
  H+  H285  1  0.61957145  0.13869122  0.15898523  1
  H+  H286  1  0.36455028  0.73298900  0.00566798  1
  H+  H287  1  0.60353584  0.72335092  0.66650018  1
  H+  H288  1  0.22359840  0.61807998  0.99416516  1
  H+  H289  1  0.61860962  0.56772141  0.58299004  1
  H+  H290  1  0.36641229  0.18707293  0.42202111  1
  H+  H291  1  0.13986849  0.38174724  0.32496277  1
  H+  H292  1  0.63130360  0.50147763  0.31994457  1
  H+  H293  1  0.39580570  0.57943660  0.57539840  1
  H+  H294  1  0.84921818  0.42388499  0.76746774  1
  H+  H295  1  0.91924704  0.34932103  0.23016044  1
  H+  H296  1  0.67467045  0.85503057  0.93748789  1
  H+  H297  1  0.66637023  0.08120458  0.56863043  1
  H+  H298  1  0.33581814  0.65995262  0.76690671  1
  H+  H299  1  0.60710177  0.73358389  0.49231360  1
  H+  H300  1  0.66987038  0.56927864  0.25882416  1
  H+  H301  1  0.68436861  0.81902501  0.21491621  1
  H+  H302  1  0.68306681  0.32170942  0.60952054  1
  H+  H303  1  0.08561905  0.91046034  0.76543478  1
  H+  H304  1  0.58251422  0.17642154  0.06507121  1
  H+  H305  1  0.60756800  0.18074613  0.76870808  1
  H+  H306  1  0.08621720  0.44251830  0.39151570  1
  H+  H307  1  0.09072804  0.16995331  0.07243377  1
  H+  H308  1  0.19838643  0.08279988  0.22631576  1
  H+  H309  1  0.56806557  0.40825094  0.38329783  1
  H+  H310  1  0.16829664  0.83358625  0.59932264  1
  H+  H311  1  0.57863727  0.92312605  0.43669384  1
  H+  H312  1  0.57704625  0.52666482  0.57823242  1
  H+  H313  1  0.82652072  0.65683147  0.39707496  1
  H+  H314  1  0.97890053  0.11854441  0.84279204  1
  H+  H315  1  0.40058239  0.07448551  0.87730246  1
  H+  H316  1  0.61736344  0.90401056  0.00586046  1
  H+  H317  1  0.55432108  0.68518401  0.75618762  1
  H+  H318  1  0.33582378  0.67041477  0.39485318  1
  H+  H319  1  0.38130412  1.00761067  0.82608993  1
  H+  H320  1  0.11710643  0.40161188  0.48307894  1
  H+  H321  1  0.86541654  0.89098714  0.82350679  1
  H+  H322  1  0.30939786  0.77561000  0.55539103  1
  H+  H323  1  0.57013278  0.66969109  0.39585637  1
  H+  H324  1  0.59281743  0.40290193  0.73455353  1
  H+  H325  1  0.16699271  0.32975054  0.90580100  1
  H+  H326  1  0.83167154  0.41746190  0.40028633  1
  H+  H327  1  0.38441637  0.49348059  -0.00972076  1
  H+  H328  1  0.37526972  0.27184750  0.32126271  1
  H+  H329  1  0.10498588  0.06445769  0.28431336  1
  H+  H330  1  0.16874503  0.34414278  0.26977701  1
  H+  H331  1  0.15254111  0.07668598  0.89720728  1
  H+  H332  1  0.84430347  0.62019386  0.11534614  1
  H+  H333  1  0.17018391  0.58834712  0.56037771  1
  H+  H334  1  0.84773738  0.67372096  0.73816692  1
  H+  H335  1  0.32729267  0.42614763  0.43552765  1
  H+  H336  1  0.83001164  0.91273293  0.40111358  1
  H+  H337  1  0.37664264  0.37065695  0.51280326  1
  H+  H338  1  0.22672599  0.87227210  0.50353439  1
  H+  H339  1  0.88914774  0.28033552  0.50607142  1
  H+  H340  1  0.08731527  0.91633152  0.05525001  1
  H+  H341  1  0.41833164  0.32940237  0.89014400  1
  H+  H342  1  0.31908591  0.67293930  0.10691647  1
  H+  H343  1  0.69968318  0.62527752  0.98570460  1
  H+  H344  1  0.40442265  0.83605478  0.26435204  1
  H+  H345  1  0.92387849  0.34168157  0.90249854  1
  H+  H346  1  0.41744634  0.83054362  0.93318392  1
  H+  H347  1  0.83247738  0.91580458  0.73046976  1
  H+  H348  1  0.80955354  0.68203222  0.04478139  1
  H+  H349  1  0.83493773  0.17608622  0.78066384  1
  H+  H350  1  0.77671387  0.23064235  0.72345615  1
  H+  H351  1  0.21378511  0.86247969  0.33938350  1
  H+  H352  1  0.85679788  0.15184370  0.48759509  1
  H+  H353  1  0.77734107  0.63511917  0.83017899  1
  H+  H354  1  0.08783409  0.42102134  0.06856347  1
  H+  H355  1  0.94540971  0.71766840  0.44577065  1
  H+  H356  1  0.09019037  0.18736291  0.44670918  1
  H+  H357  1  0.66152827  0.08251922  0.90179712  1
  H+  H358  1  0.15220600  0.53381061  0.64787451  1
  H+  H359  1  0.42012118  0.33905750  0.60525058  1
  H+  H360  1  0.87651900  0.40537555  0.16270665  1
  H+  H361  1  0.16293624  0.83262136  0.92833455  1
  H+  H362  1  0.19048924  0.40655357  0.70055914  1
  H+  H363  1  0.08300277  0.16794660  0.73914457  1
  H+  H364  1  0.39238919  0.10683640  0.16563154  1
  H+  H365  1  0.14561659  0.54073226  0.28709965  1
  H+  H366  1  0.82780896  0.18234522  0.39300925  1
  H+  H367  1  0.92766915  0.08945220  0.93546326  1
  H+  H368  1  0.58970155  0.16557143  0.43257026  1
  H+  H369  1  0.33127364  0.91641006  0.05831907  1
  H+  H370  1  0.14583072  0.27960917  1.00479199  1
  H+  H371  1  0.64538912  0.58443915  0.89201260  1
  H+  H372  1  0.33451980  0.14027668  0.77674951  1
  H+  H373  1  0.37193048  0.59666945  0.84407252  1
  H+  H374  1  0.58629649  0.92052116  0.09970880  1
  H+  H375  1  0.60320961  0.63980183  0.04396642  1
  H+  H376  1  0.34224207  0.42433286  0.09194909  1
  H+  H377  1  0.41931860  0.08211104  0.26314929  1
  H+  H378  1  0.90944070  0.81736240  0.27664039  1
  H+  H379  1  0.67010911  0.08454433  0.23444811  1
  H+  H380  1  0.91829502  0.83872777  0.89283002  1
  H+  H381  1  0.91834078  0.83315872  0.60437029  1
  H+  H382  1  0.82761834  0.16025007  0.07820299  1
  H+  H383  1  0.92812014  0.12651321  0.57540467  1
  O2-  O384  1  0.09607271  0.17015715  0.15487808  1
  O2-  O385  1  0.09170900  0.19349762  0.49153411  1
  O2-  O386  1  0.07128949  0.16606387  0.81613799  1
  O2-  O387  1  0.08610093  0.41654632  0.14639844  1
  O2-  O388  1  0.08203370  0.42704634  0.46862687  1
  O2-  O389  1  0.09086314  0.42208741  0.81949181  1
  O2-  O390  1  0.05049683  0.61195329  0.15982016  1
  O2-  O391  1  0.08477640  0.67436192  0.48218111  1
  O2-  O392  1  0.08678431  0.66395014  0.80754561  1
  O2-  O393  1  0.08953754  0.92343387  0.13689269  1
  O2-  O394  1  0.08169159  0.92582961  0.48572918  1
  O2-  O395  1  0.08348596  0.90831011  0.81091516  1
  O2-  O396  1  0.34043435  0.15808940  0.13424590  1
  O2-  O397  1  0.40119009  0.20248665  0.45953046  1
  O2-  O398  1  0.32384672  0.14748343  0.81952722  1
  O2-  O399  1  0.34115393  0.43002539  0.13730736  1
  O2-  O400  1  0.32820169  0.42948197  0.48108728  1
  O2-  O401  1  0.38365901  0.43222528  0.78121793  1
  O2-  O402  1  0.32558965  0.67296632  0.15170198  1
  O2-  O403  1  0.32697199  0.65600268  0.47496287  1
  O2-  O404  1  0.33493959  0.65783608  0.81245473  1
  O2-  O405  1  0.32678497  0.90886445  0.13676356  1
  O2-  O406  1  0.33341713  0.92234344  0.47938782  1
  O2-  O407  1  0.31814665  0.89399356  0.80418985  1
  O2-  O408  1  0.58779035  0.16790138  0.14411043  1
  O2-  O409  1  0.59076790  0.16667460  0.47814593  1
  O2-  O410  1  0.64346830  0.20314068  0.80563724  1
  O2-  O411  1  0.57536002  0.41006032  0.14483529  1
  O2-  O412  1  0.56014216  0.42428128  0.45853719  1
  O2-  O413  1  0.59108201  0.40624407  0.81139290  1
  O2-  O414  1  0.60477211  0.66121402  0.12015753  1
  O2-  O415  1  0.57388086  0.67327101  0.47378542  1
  O2-  O416  1  0.54397886  0.70048659  0.79861170  1
  O2-  O417  1  0.58915226  0.91751619  0.14534462  1
  O2-  O418  1  0.58836256  0.91611828  0.47981773  1
  O2-  O419  1  0.58163077  0.91494874  0.81411214  1
  O2-  O420  1  0.83384338  0.18008142  0.15143132  1
  O2-  O421  1  0.81870672  0.16984093  0.46770477  1
  O2-  O422  1  0.83745050  0.17063468  0.82545421  1
  O2-  O423  1  0.84900465  0.44035473  0.14838950  1
  O2-  O424  1  0.85269448  0.41532451  0.47322799  1
  O2-  O425  1  0.84866734  0.42646759  0.81293694  1
  O2-  O426  1  0.83527501  0.61984049  0.15914663  1
  O2-  O427  1  0.88881634  0.68672276  0.46491408  1
  O2-  O428  1  0.83800498  0.66912076  0.81691045  1
  O2-  O429  1  0.86264983  0.88395740  0.14468549  1
  O2-  O430  1  0.82693275  0.90818173  0.47065415  1
  O2-  O431  1  0.83772572  0.92439442  0.80904384  1
  O2-  O432  1  0.18743829  0.08468479  0.18284403  1
  O2-  O433  1  0.10445556  0.07373838  0.54246583  1
  O2-  O434  1  0.12480613  0.06753450  0.85718454  1
  O2-  O435  1  0.17395974  0.33822338  0.19129831  1
  O2-  O436  1  0.16723612  0.35329939  0.52367208  1
  O2-  O437  1  0.16306846  0.32578557  0.86107776  1
  O2-  O438  1  0.16458663  0.56589753  0.21025442  1
  O2-  O439  1  0.16845939  0.58820239  0.51460597  1
  O2-  O440  1  0.17222839  0.58779085  0.85342027  1
  O2-  O441  1  0.14269018  0.79284987  0.15790450  1
  O2-  O442  1  0.16689530  0.84178926  0.52021133  1
  O2-  O443  1  0.15730198  0.82338533  0.85675616  1
  O2-  O444  1  0.42015166  0.07666079  0.18494246  1
  O2-  O445  1  0.42792789  0.08755249  0.51789865  1
  O2-  O446  1  0.42726758  0.06332560  0.84235062  1
  O2-  O447  1  0.40339270  0.31896021  0.18644094  1
  O2-  O448  1  0.41184039  0.34569791  0.52725065  1
  O2-  O449  1  0.42329969  0.32952576  0.84537528  1
  O2-  O450  1  0.43381506  0.61260962  0.16243757  1
  O2-  O451  1  0.39941649  0.58313013  0.52412580  1
  O2-  O452  1  0.40922441  0.57261125  0.85831849  1
  O2-  O453  1  0.41661785  0.83771584  0.18751847  1
  O2-  O454  1  0.35934722  0.80036213  0.52859263  1
  O2-  O455  1  0.41643667  0.82506490  0.85792225  1
  O2-  O456  1  0.67251274  0.08798976  0.18695956  1
  O2-  O457  1  0.66633503  0.08032424  0.52311963  1
  O2-  O458  1  0.66661045  0.07775891  0.85703488  1
  O2-  O459  1  0.67212025  0.33864474  0.18685151  1
  O2-  O460  1  0.69184104  0.31426416  0.53109305  1
  O2-  O461  1  0.68445628  0.34546150  0.86057630  1
  O2-  O462  1  0.66899024  0.57062764  0.18785255  1
  O2-  O463  1  0.66026216  0.58893645  0.45461764  1
  O2-  O464  1  0.66309843  0.57789293  0.85061997  1
  O2-  O465  1  0.68352464  0.82468085  0.16990737  1
  O2-  O466  1  0.66204110  0.82885317  0.51740280  1
  O2-  O467  1  0.67585139  0.84911724  0.85641945  1
  O2-  O468  1  0.92969985  0.10841379  0.20134294  1
  O2-  O469  1  0.93940048  0.15893992  0.53669418  1
  O2-  O470  1  0.91777577  0.08639577  0.86085998  1
  O2-  O471  1  0.91992199  0.34892262  0.18427631  1
  O2-  O472  1  0.94192646  0.30888268  0.53115294  1
  O2-  O473  1  0.92425313  0.33877349  0.85733481  1
  O2-  O474  1  0.89359513  0.51826842  0.18634966  1
  O2-  O475  1  0.92212560  0.57936821  0.52470930  1
  O2-  O476  1  0.92458301  0.59028093  0.85097769  1
  O2-  O477  1  0.92188462  0.78425116  0.19829487  1
  O2-  O478  1  0.91948826  0.83866959  0.52588798  1
  O2-  O479  1  0.91575451  0.83687305  0.84748736  1
  O2-  O480  1  0.14516738  0.07217136  0.31679720  1
  O2-  O481  1  0.16951160  0.08535018  0.65655952  1
  O2-  O482  1  0.17281745  0.08672625  0.98075562  1
  O2-  O483  1  0.16725779  0.34686624  0.31523253  1
  O2-  O484  1  0.12927340  0.39212190  0.70572917  1
  O2-  O485  1  0.17791765  0.34040192  0.98959747  1
  O2-  O486  1  0.13482157  0.53703354  0.33246255  1
  O2-  O487  1  0.17947686  0.59565745  0.63685587  1
  O2-  O488  1  0.16459824  0.58632934  0.97680278  1
  O2-  O489  1  0.15154142  0.83235978  0.32923153  1
  O2-  O490  1  0.17212654  0.83140818  0.64460062  1
  O2-  O491  1  0.16381324  0.83681800  0.97450752  1
  O2-  O492  1  0.41571678  0.08491174  0.30859939  1
  O2-  O493  1  0.42469861  0.08384047  0.64145063  1
  O2-  O494  1  0.41044474  0.08859331  0.97554765  1
  O2-  O495  1  0.40417647  0.33285494  0.30599737  1
  O2-  O496  1  0.42778777  0.33263217  0.64979682  1
  O2-  O497  1  0.40962998  0.33063080  0.97514050  1
  O2-  O498  1  0.41127589  0.59150281  0.31584962  1
  O2-  O499  1  0.39696452  0.57669346  0.63563090  1
  O2-  O500  1  0.42454389  0.56224771  0.97303336  1
  O2-  O501  1  0.39815680  0.83360186  0.30990770  1
  O2-  O502  1  0.42882441  0.82083116  0.65544408  1
  O2-  O503  1  0.41516328  0.83205250  0.97902199  1
  O2-  O504  1  0.67318201  0.07923218  0.30405199  1
  O2-  O505  1  0.66246678  0.07613272  0.64705301  1
  O2-  O506  1  0.65712764  0.09522352  0.97982639  1
  O2-  O507  1  0.66252508  0.33004926  0.31205216  1
  O2-  O508  1  0.68198396  0.32623174  0.65459350  1
  O2-  O509  1  0.66940393  0.34764898  0.98201866  1
  O2-  O510  1  0.66643846  0.56526723  0.30564480  1
  O2-  O511  1  0.66861256  0.58662891  0.70721134  1
  O2-  O512  1  0.63658904  0.58503729  0.97713354  1
  O2-  O513  1  0.68728091  0.81626034  0.29591146  1
  O2-  O514  1  0.66242678  0.82590554  0.64303432  1
  O2-  O515  1  0.67297744  0.85996313  0.98242405  1
  O2-  O516  1  0.91608168  0.09688869  0.32028925  1
  O2-  O517  1  0.91347759  0.07980298  0.64946586  1
  O2-  O518  1  0.93164539  0.09104688  0.98167289  1
  O2-  O519  1  0.91750539  0.35142968  0.30557867  1
  O2-  O520  1  0.93586712  0.34332193  0.64814667  1
  O2-  O521  1  0.91992158  0.34266267  0.98325665  1
  O2-  O522  1  0.91966146  0.58676001  0.31859493  1
  O2-  O523  1  0.92038650  0.58535532  0.64832542  1
  O2-  O524  1  0.91122910  0.58858410  0.97310604  1
  O2-  O525  1  0.90711830  0.82391055  0.32108977  1
  O2-  O526  1  0.91963755  0.83394979  0.64987909  1
  O2-  O527  1  0.91808322  0.83654442  0.97112876  1
  O2-  O528  1  0.09415371  0.17431247  0.02743197  1
  O2-  O529  1  0.08225294  0.18190174  0.36444013  1
  O2-  O530  1  0.08957942  0.16646185  0.69400393  1
  O2-  O531  1  0.08997356  0.42088797  0.02298556  1
  O2-  O532  1  0.08748338  0.44379345  0.34541181  1
  O2-  O533  1  0.11035538  0.41928736  0.64750505  1
  O2-  O534  1  0.06906992  0.66788431  0.00584832  1
  O2-  O535  1  0.07557104  0.65591489  0.36253825  1
  O2-  O536  1  0.08875526  0.66474374  0.68464739  1
  O2-  O537  1  0.08254518  0.91569777  0.01037288  1
  O2-  O538  1  0.07670069  0.91676487  0.36195226  1
  O2-  O539  1  0.08781941  0.91400503  0.68797836  1
  O2-  O540  1  0.33622928  0.17013981  0.01620787  1
  O2-  O541  1  0.32911829  0.16703496  0.34215265  1
  O2-  O542  1  0.33723591  0.15353206  0.68606854  1
  O2-  O543  1  0.34002062  0.41697105  0.01366396  1
  O2-  O544  1  0.33228472  0.42772680  0.35624417  1
  O2-  O545  1  0.28986668  0.41401718  0.68916205  1
  O2-  O546  1  0.33067227  0.67229974  0.02248967  1
  O2-  O547  1  0.34164052  0.67186476  0.34990358  1
  O2-  O548  1  0.34561386  0.66786936  0.68693639  1
  O2-  O549  1  0.33195342  0.91993805  0.01284025  1
  O2-  O550  1  0.32451314  0.92089774  0.35749956  1
  O2-  O551  1  0.34914258  0.90802135  0.64278189  1
  O2-  O552  1  0.58035557  0.17856151  0.01972231  1
  O2-  O553  1  0.58698752  0.16159705  0.35337593  1
  O2-  O554  1  0.58336656  0.15713258  0.68964153  1
  O2-  O555  1  0.57467829  0.41631518  0.02169175  1
  O2-  O556  1  0.57459179  0.40844083  0.33799009  1
  O2-  O557  1  0.59724288  0.40877038  0.68899735  1
  O2-  O558  1  0.59280702  0.63166389  -0.00158906  1
  O2-  O559  1  0.56560669  0.65854987  0.35118320  1
  O2-  O560  1  0.56906916  0.66478998  0.68599571  1
  O2-  O561  1  0.58102645  0.92774667  0.02303405  1
  O2-  O562  1  0.55673863  0.93894646  0.35452759  1
  O2-  O563  1  0.58481770  0.90678384  0.69196954  1
  O2-  O564  1  0.81925931  0.14234678  0.03374590  1
  O2-  O565  1  0.83532470  0.18734056  0.34736821  1
  O2-  O566  1  0.81087254  0.20556869  0.70888900  1
  O2-  O567  1  0.84104035  0.42998559  0.02099757  1
  O2-  O568  1  0.82318915  0.41893960  0.35487221  1
  O2-  O569  1  0.85001750  0.42121193  0.68842793  1
  O2-  O570  1  0.81042556  0.67533249  0.00088476  1
  O2-  O571  1  0.81526003  0.65755877  0.35278327  1
  O2-  O572  1  0.84021335  0.66937869  0.69297151  1
  O2-  O573  1  0.84670243  0.92435035  0.02037325  1
  O2-  O574  1  0.83397307  0.91657678  0.35390963  1
  O2-  O575  1  0.83054211  0.91317338  0.68485494  1
