# generated using pymatgen
data_H2O
_symmetry_space_group_name_H-M   'P 1'
_cell_length_a   17.99418032
_cell_length_b   17.99299669
_cell_length_c   22.01597312
_cell_angle_alpha   90.00537040
_cell_angle_beta   90.00050695
_cell_angle_gamma   120.00284630
_symmetry_Int_Tables_number   1
_chemical_formula_structural   H2O
_chemical_formula_sum   'H384 O192'
_cell_volume   6172.93390167
_cell_formula_units_Z   192
loop_
 _symmetry_equiv_pos_site_id
 _symmetry_equiv_pos_as_xyz
  1  'x, y, z'
loop_
 _atom_type_symbol
 _atom_type_oxidation_number
  H+  1.0
  O2-  -2.0
loop_
 _atom_site_type_symbol
 _atom_site_label
 _atom_site_symmetry_multiplicity
 _atom_site_fract_x
 _atom_site_fract_y
 _atom_site_fract_z
 _atom_site_occupancy
  H+  H0  1  0.36890711  0.85809339  0.15995680  1
  H+  H1  1  0.86297034  0.72038314  0.48890941  1
  H+  H2  1  0.10986572  0.21728403  0.15050661  1
  H+  H3  1  0.11201706  0.21441688  0.81160270  1
  H+  H4  1  0.64185565  0.14129445  0.64703284  1
  H+  H5  1  0.27893365  0.40655917  0.48022687  1
  H+  H6  1  0.46871791  0.86744115  0.66065021  1
  H+  H7  1  0.89208309  0.77196566  0.32247329  1
  H+  H8  1  0.90232666  0.78897251  1.01126331  1
  H+  H9  1  0.64757474  1.04231396  0.51559440  1
  H+  H10  1  0.22351953  0.60069149  0.83718480  1
  H+  H11  1  0.60409839  0.47665459  1.01438603  1
  H+  H12  1  0.05581629  0.12421818  0.66624730  1
  H+  H13  1  0.37821936  0.60684656  0.18254583  1
  H+  H14  1  0.17369664  0.81645898  0.15819554  1
  H+  H15  1  0.48723403  0.64727151  0.66125096  1
  H+  H16  1  0.27288155  0.61310143  0.34106960  1
  H+  H17  1  0.96835865  0.35735657  0.99440135  1
  H+  H18  1  0.51749693  0.39158390  0.33683505  1
  H+  H19  1  0.62455011  0.75007122  0.17493055  1
  H+  H20  1  -0.01381660  0.10631469  0.33933916  1
  H+  H21  1  0.66696146  0.34143064  0.22703445  1
  H+  H22  1  0.90857723  0.12172338  0.98676595  1
  H+  H23  1  0.58476058  0.65878358  0.43128274  1
  H+  H24  1  0.70383280  0.61169848  1.00103503  1
  H+  H25  1  0.89828649  0.85184125  0.79338371  1
  H+  H26  1  0.75681862  0.10459261  0.31240262  1
  H+  H27  1  0.87704995  0.51032833  -0.00703048  1
  H+  H28  1  0.26408890  0.88302673  0.32652776  1
  H+  H29  1  0.15325132  1.02265782  0.84556666  1
  H+  H30  1  0.89399953  0.86344206  0.32563623  1
  H+  H31  1  0.02492761  0.38546776  0.48336979  1
  H+  H32  1  0.80820734  0.39930087  0.67544383  1
  H+  H33  1  0.63195732  0.84106718  0.18761254  1
  H+  H34  1  0.89263837  0.60647588  -0.00391246  1
  H+  H35  1  0.85321720  0.37712061  0.00896318  1
  H+  H36  1  0.38525064  0.64420984  0.66141456  1
  H+  H37  1  0.88025634  0.51399887  0.83701906  1
  H+  H38  1  0.86886935  0.63258823  0.48939103  1
  H+  H39  1  0.66216011  0.80996471  0.66535490  1
  H+  H40  1  0.40075926  0.82645028  0.91775089  1
  H+  H41  1  0.62748734  0.27176481  0.87110123  1
  H+  H42  1  0.47024625  0.86362009  0.30159782  1
  H+  H43  1  0.02116798  0.62629776  0.82538711  1
  H+  H44  1  0.14500812  0.62542415  0.18111183  1
  H+  H45  1  -0.02099404  0.35948307  0.84161922  1
  H+  H46  1  0.86970938  0.39893060  0.16261751  1
  H+  H47  1  0.39826893  0.12842646  0.50623598  1
  H+  H48  1  0.90023873  0.53640018  0.16619267  1
  H+  H49  1  0.90188881  1.03461989  0.66667654  1
  H+  H50  1  0.37604915  0.86555994  -0.01916543  1
  H+  H51  1  0.13164667  0.85399945  0.83691984  1
  H+  H52  1  0.38365628  0.86629097  0.30950833  1
  H+  H53  1  0.16379824  0.38668383  0.64751311  1
  H+  H54  1  0.37214174  0.30247408  0.90484143  1
  H+  H55  1  0.62671728  0.02521960  0.14936249  1
  H+  H56  1  0.62403639  0.59059499  0.74633122  1
  H+  H57  1  0.34821723  0.40914589  0.70891561  1
  H+  H58  1  0.11375645  0.46926749  0.82812530  1
  H+  H59  1  0.37754646  0.52040477  -0.01975075  1
  H+  H60  1  0.86368609  0.62961838  0.83253535  1
  H+  H61  1  0.89749476  0.62393305  0.17283258  1
  H+  H62  1  0.86650287  0.37144525  0.82767241  1
  H+  H63  1  0.62995943  0.71067641  0.49290974  1
  H+  H64  1  0.59659475  0.89770590  0.83775115  1
  H+  H65  1  0.61120967  0.47716275  0.16032678  1
  H+  H66  1  0.08980980  0.17447323  0.40539693  1
  H+  H67  1  0.91605455  0.33010242  0.90050418  1
  H+  H68  1  0.35471049  -0.02409887  0.48683862  1
  H+  H69  1  0.83937771  0.67891853  0.21942424  1
  H+  H70  1  0.71872256  0.36108707  0.86116772  1
  H+  H71  1  0.29670024  0.90616218  0.20771921  1
  H+  H72  1  0.13622821  0.36787253  0.16183470  1
  H+  H73  1  0.57886976  0.88400380  0.11462515  1
  H+  H74  1  0.79324894  0.09078339  0.02123163  1
  H+  H75  1  0.04804460  1.00229447  0.69871401  1
  H+  H76  1  0.71824563  0.13859813  0.99184617  1
  H+  H77  1  0.12348752  0.99168528  0.67244330  1
  H+  H78  1  0.11604237  0.83590937  0.65611346  1
  H+  H79  1  0.64172598  0.28432494  0.16676967  1
  H+  H80  1  0.63488596  0.26923902  0.49629900  1
  H+  H81  1  0.52388680  0.13540644  0.49154641  1
  H+  H82  1  0.62507145  0.25670158  0.65658711  1
  H+  H83  1  0.02013535  0.62936102  -0.00523969  1
  H+  H84  1  0.75503288  0.16872600  0.13641443  1
  H+  H85  1  0.77624614  0.63581469  0.33219630  1
  H+  H86  1  0.34307795  0.09011273  0.84287745  1
  H+  H87  1  0.36928609  0.30709886  0.32699610  1
  H+  H88  1  0.31084282  0.17905137  0.49491169  1
  H+  H89  1  0.47193486  0.87268137  0.51088485  1
  H+  H90  1  0.14471538  0.10869849  0.16892834  1
  H+  H91  1  0.20443520  0.11017263  0.90130577  1
  H+  H92  1  0.11748982  0.22492379  0.34058197  1
  H+  H93  1  0.38790818  0.53280983  0.51017304  1
  H+  H94  1  0.74134705  0.90755578  0.65075141  1
  H+  H95  1  0.60921346  0.71606370  0.34256104  1
  H+  H96  1  0.40286646  0.30600241  0.50543770  1
  H+  H97  1  0.86036148  0.98124168  0.00286284  1
  H+  H98  1  0.03276314  0.63834631  0.33502147  1
  H+  H99  1  0.03055238  0.63565280  0.67212577  1
  H+  H100  1  0.02595991  0.63678398  0.49092413  1
  H+  H101  1  0.37592158  0.84857869  0.83251377  1
  H+  H102  1  0.08792969  0.66072046  0.73285949  1
  H+  H103  1  0.17003202  0.08582996  0.49269258  1
  H+  H104  1  0.88369714  0.25050275  0.65373738  1
  H+  H105  1  0.36872737  0.64340449  0.49834801  1
  H+  H106  1  0.63451802  0.51478747  0.84884012  1
  H+  H107  1  0.86009606  0.22246249  0.82289799  1
  H+  H108  1  0.88970672  0.52192931  0.50457115  1
  H+  H109  1  0.48186402  0.61378103  0.51171188  1
  H+  H110  1  0.25235995  0.11018581  0.64696628  1
  H+  H111  1  0.53469804  0.17266697  0.65295961  1
  H+  H112  1  0.64378028  0.60565439  0.47256004  1
  H+  H113  1  0.21649398  0.10044453  0.32967084  1
  H+  H114  1  0.68558873  0.39495820  0.71043639  1
  H+  H115  1  0.50813886  0.62571017  0.16670424  1
  H+  H116  1  0.88017573  0.85844042  0.49894880  1
  H+  H117  1  0.86378727  0.38203820  0.49345741  1
  H+  H118  1  0.10950687  0.63369193  1.00099212  1
  H+  H119  1  0.37016856  0.41188771  0.48420032  1
  H+  H120  1  0.14235831  0.37343948  0.48938679  1
  H+  H121  1  0.64028309  0.12947089  0.50634294  1
  H+  H122  1  0.10175721  0.47190748  0.00513846  1
  H+  H123  1  0.35978194  0.47529292  0.15615969  1
  H+  H124  1  0.12763861  0.76206948  0.98563204  1
  H+  H125  1  0.10765965  0.87659505  0.31853517  1
  H+  H126  1  0.02918180  0.46284400  0.69949207  1
  H+  H127  1  0.36782283  0.01538788  0.84183507  1
  H+  H128  1  0.88189856  0.26711935  -0.01181857  1
  H+  H129  1  0.61158849  0.38122927  0.49637330  1
  H+  H130  1  0.76263559  0.36086499  0.33863757  1
  H+  H131  1  0.40877710  0.83628772  0.21676488  1
  H+  H132  1  0.35965799  0.38600388  0.15385806  1
  H+  H133  1  0.71923739  0.61271829  0.17403729  1
  H+  H134  1  0.77100379  0.87790355  0.15655313  1
  H+  H135  1  0.91450045  0.30927567  0.55685640  1
  H+  H136  1  0.11402716  0.88422690  0.00498689  1
  H+  H137  1  0.77691768  0.38448325  0.49777128  1
  H+  H138  1  0.82388167  0.68951197  0.68256149  1
  H+  H139  1  0.10191306  0.38320758  1.01881591  1
  H+  H140  1  0.46275830  0.35722639  0.16834714  1
  H+  H141  1  0.49977280  0.89099167  0.13912017  1
  H+  H142  1  0.62716642  0.97501625  0.31088479  1
  H+  H143  1  0.60489527  0.38286446  0.83982039  1
  H+  H144  1  0.35449225  0.71145640  0.82555953  1
  H+  H145  1  0.27923429  0.38867281  0.79805430  1
  H+  H146  1  0.41194724  0.36191544  0.56428636  1
  H+  H147  1  0.36454138  0.47547304  0.39057326  1
  H+  H148  1  0.39343109  0.60496157  0.82753291  1
  H+  H149  1  -0.03946007  0.11528500  0.51454646  1
  H+  H150  1  0.58839283  0.78515137  0.52490446  1
  H+  H151  1  0.62425629  0.27516458  0.31875097  1
  H+  H152  1  0.25607910  0.97103420  0.72520237  1
  H+  H153  1  1.03664417  0.12988935  0.99376836  1
  H+  H154  1  0.37179435  0.47154665  0.80560527  1
  H+  H155  1  0.11619736  0.22152697  0.01300904  1
  H+  H156  1  0.46180688  0.83811101  0.83284118  1
  H+  H157  1  0.86469883  0.11428715  0.15578740  1
  H+  H158  1  0.15927129  0.32685114  1.07650550  1
  H+  H159  1  0.72106121  0.36734146  1.00871663  1
  H+  H160  1  0.38095451  0.86645639  0.50192842  1
  H+  H161  1  0.44601403  0.12733456  0.73685233  1
  H+  H162  1  0.61047793  0.14480870  0.86593279  1
  H+  H163  1  0.87575831  1.02703182  0.50346789  1
  H+  H164  1  0.17021811  0.14771291  -0.02433428  1
  H+  H165  1  0.55479826  0.37639648  0.67644435  1
  H+  H166  1  0.35335116  0.11166620  0.34106230  1
  H+  H167  1  0.16079081  0.25070444  0.66352435  1
  H+  H168  1  0.67555775  0.07547976  0.20952383  1
  H+  H169  1  0.99573380  0.08358051  0.18761659  1
  H+  H170  1  1.03864288  0.65923408  0.16497191  1
  H+  H171  1  0.87002866  0.04590784  0.60220478  1
  H+  H172  1  0.10131433  0.86569969  0.49890287  1
  H+  H173  1  0.63112291  0.36615948  0.32084495  1
  H+  H174  1  0.60062169  0.14667063  1.00649861  1
  H+  H175  1  0.61383845  0.38885974  0.01670008  1
  H+  H176  1  0.57164397  0.46848923  0.69859775  1
  H+  H177  1  0.78136196  0.88013164  0.33822950  1
  H+  H178  1  0.08012368  0.93284113  0.77235834  1
  H+  H179  1  0.11058057  0.97248543  0.16362523  1
  H+  H180  1  0.36060455  0.12451235  1.02025152  1
  H+  H181  1  0.51917998  0.62396376  0.34650816  1
  H+  H182  1  0.68460720  0.12474844  0.29675805  1
  H+  H183  1  0.02626692  0.38184817  0.32970742  1
  H+  H184  1  0.35812272  0.71993941  0.15744433  1
  H+  H185  1  0.39957117  0.40528175  0.32006417  1
  H+  H186  1  0.00268530  0.87089019  0.32071908  1
  H+  H187  1  0.13046720  0.76720672  0.50155385  1
  H+  H188  1  0.21673577  0.85301385  -0.01550962  1
  H+  H189  1  0.27042445  0.63194211  0.16584062  1
  H+  H190  1  0.50326225  0.13539777  0.33450184  1
  H+  H191  1  0.84717451  0.88894380  0.00703246  1
  H+  H192  1  0.58861217  0.13302376  0.33691522  1
  H+  H193  1  0.84808626  0.07254403  0.13904618  1
  H+  H194  1  0.64357209  0.85189277  0.32032051  1
  H+  H195  1  0.34537091  0.62190517  0.00343484  1
  H+  H196  1  0.14654065  0.61580270  0.65589159  1
  H+  H197  1  0.36358471  0.72927542  0.49187707  1
  H+  H198  1  0.37601674  0.59157895  0.34043740  1
  H+  H199  1  0.46585416  0.11119433  0.99126873  1
  H+  H200  1  0.10919064  0.23939779  0.49902431  1
  H+  H201  1  0.48638430  0.14924091  0.17033969  1
  H+  H202  1  0.93387589  0.06474784  0.27771158  1
  H+  H203  1  0.98980319  0.88443925  0.65461952  1
  H+  H204  1  0.76894482  0.92946630  0.81847932  1
  H+  H205  1  0.53010431  0.39810367  0.49900406  1
  H+  H206  1  0.59840866  -0.07143139  0.96138076  1
  H+  H207  1  0.26344924  0.87297425  0.82906671  1
  H+  H208  1  0.76581119  0.13860828  0.82602859  1
  H+  H209  1  0.53049875  0.62780201  0.82126678  1
  H+  H210  1  0.09424936  -0.04261028  0.50074657  1
  H+  H211  1  0.13157832  0.10759292  0.33200571  1
  H+  H212  1  0.60905277  0.14364248  0.15611154  1
  H+  H213  1  0.81929579  0.88346373  0.74868040  1
  H+  H214  1  0.87138446  0.97116923  0.34293249  1
  H+  H215  1  0.94364016  0.78522967  0.64287423  1
  H+  H216  1  0.14940700  0.52944223  0.65217397  1
  H+  H217  1  0.63705019  0.60944965  0.32638178  1
  H+  H218  1  0.35740900  0.97648515  -0.00097149  1
  H+  H219  1  1.00229433  0.86459754  0.49468978  1
  H+  H220  1  0.38010800  0.02036257  0.30944204  1
  H+  H221  1  0.40208638  0.08055671  0.93271625  1
  H+  H222  1  0.15921497  0.31558631  0.25992114  1
  H+  H223  1  0.88236319  0.34295378  0.32530190  1
  H+  H224  1  0.90947717  0.56943352  0.89795484  1
  H+  H225  1  0.76968901  0.87926455  0.48783281  1
  H+  H226  1  0.18879112  0.24971591  0.68857329  1
  H+  H227  1  0.41889103  0.57449870  0.88694959  1
  H+  H228  1  0.63477265  0.06535251  0.82111045  1
  H+  H229  1  0.90244794  0.61799412  0.31965135  1
  H+  H230  1  0.59534324  0.23220029  1.01188743  1
  H+  H231  1  0.13620018  0.35305071  0.31719409  1
  H+  H232  1  0.33456975  0.24637757  0.66884881  1
  H+  H233  1  0.41599530  0.30614874  0.96911073  1
  H+  H234  1  0.21596751  0.59932085  0.99804358  1
  H+  H235  1  0.97761091  0.37142272  0.17146425  1
  H+  H236  1  0.34704805  0.37915750  -0.00718165  1
  H+  H237  1  0.86127736  0.71913531  0.82656603  1
  H+  H238  1  0.87030248  0.86298802  0.69724794  1
  H+  H239  1  0.63699576  0.52125629  0.32463590  1
  H+  H240  1  0.25180361  0.90553080  0.67629847  1
  H+  H241  1  0.26639231  0.88706116  0.48694233  1
  H+  H242  1  0.36577411  0.18083198  0.69011009  1
  H+  H243  1  0.62568281  0.90758494  0.51887668  1
  H+  H244  1  0.84572510  0.16498461  0.39092160  1
  H+  H245  1  0.61667133  0.62429442  0.83254320  1
  H+  H246  1  0.11257284  0.48374125  0.16163532  1
  H+  H247  1  0.95918593  0.72021164  0.06012343  1
  H+  H248  1  0.74232728  0.60881439  0.47067154  1
  H+  H249  1  0.27971693  0.64350414  0.66362400  1
  H+  H250  1  0.47243251  0.86368194  0.97833368  1
  H+  H251  1  0.14396811  0.61048306  0.32893581  1
  H+  H252  1  0.43771758  0.37801709  0.66567465  1
  H+  H253  1  0.78150266  0.40102255  0.16081553  1
  H+  H254  1  0.87934816  0.10744600  0.83459590  1
  H+  H255  1  0.11686190  0.63940840  0.49100833  1
  H+  H256  1  0.03716996  0.90252753  0.01121419  1
  H+  H257  1  0.02508117  0.89446541  0.83174884  1
  H+  H258  1  0.13780964  0.35761116  0.82410627  1
  H+  H259  1  0.13749830  0.51747690  0.32401819  1
  H+  H260  1  0.13397205  0.76679397  0.32419962  1
  H+  H261  1  0.89077326  0.34261256  0.65060850  1
  H+  H262  1  0.36767512  0.74014045  0.66751891  1
  H+  H263  1  0.61403793  0.90548292  0.66949736  1
  H+  H264  1  0.71444239  0.96625441  -0.09193505  1
  H+  H265  1  0.88701015  0.60482037  0.66322199  1
  H+  H266  1  0.35705322  0.32258705  0.81316749  1
  H+  H267  1  0.89803049  0.26438540  0.31740087  1
  H+  H268  1  0.01416674  0.37947152  0.66883388  1
  H+  H269  1  0.09421412  0.14525241  0.51054899  1
  H+  H270  1  0.88041892  0.12486258  0.33915553  1
  H+  H271  1  0.64369599  0.50963930  0.47298753  1
  H+  H272  1  0.60448585  -0.01201911  0.67421051  1
  H+  H273  1  -0.03686064  0.09905659  0.83296849  1
  H+  H274  1  0.10699560  0.96959943  0.32343414  1
  H+  H275  1  0.58911994  0.63436045  0.00594393  1
  H+  H276  1  0.13530060  0.60253766  0.83780094  1
  H+  H277  1  0.13760020  0.76162399  0.65997520  1
  H+  H278  1  0.51887022  0.14179616  0.86108020  1
  H+  H279  1  0.10883022  0.71653512  0.82577598  1
  H+  H280  1  0.72570734  0.12668987  0.65867689  1
  H+  H281  1  0.46205435  0.61216619  -0.01537622  1
  H+  H282  1  0.69728626  0.59150231  0.70485431  1
  H+  H283  1  0.83180753  0.10681202  0.67262755  1
  H+  H284  1  0.84653384  0.25655585  0.14164508  1
  H+  H285  1  0.61200926  0.65952095  0.67579006  1
  H+  H286  1  0.22773959  0.61434888  0.49895449  1
  H+  H287  1  0.28119506  0.13097303  0.04241417  1
  H+  H288  1  0.92139974  0.08225623  0.92528057  1
  H+  H289  1  0.59680263  0.18560257  0.75412487  1
  H+  H290  1  0.86523982  0.67689632  0.08108632  1
  H+  H291  1  0.83401067  0.41570793  0.06961271  1
  H+  H292  1  0.91621165  0.33435091  0.22972413  1
  H+  H293  1  0.25889324  0.41015745  0.63463338  1
  H+  H294  1  0.24391239  0.02209954  0.62235578  1
  H+  H295  1  0.22672052  0.36684676  0.15858179  1
  H+  H296  1  0.35634448  0.11082729  0.11327220  1
  H+  H297  1  0.57724816  0.17476212  0.09849158  1
  H+  H298  1  0.83997347  0.66577543  0.38909885  1
  H+  H299  1  0.35334461  0.17784428  0.43322776  1
  H+  H300  1  0.58720731  0.13984422  0.75250900  1
  H+  H301  1  0.67242736  0.10677823  0.57778952  1
  H+  H302  1  0.59657399  0.62410238  0.15968901  1
  H+  H303  1  0.65739123  0.57692403  0.23053033  1
  H+  H304  1  0.18482606  0.36676491  0.55008142  1
  H+  H305  1  0.16863747  0.58414631  0.23701912  1
  H+  H306  1  0.09136565  0.91707828  0.10390723  1
  H+  H307  1  0.55316682  0.40007196  0.78696836  1
  H+  H308  1  0.16094033  0.57227349  0.93591495  1
  H+  H309  1  0.32304348  0.91351455  0.77121035  1
  H+  H310  1  0.72610498  0.60414594  0.85027957  1
  H+  H311  1  0.91903094  0.82929488  0.94616882  1
  H+  H312  1  0.91397904  0.83148039  0.55921610  1
  H+  H313  1  0.89318385  0.19875054  0.50353200  1
  H+  H314  1  0.56899727  0.93250775  0.03105369  1
  H+  H315  1  0.08995726  0.66922965  0.39618198  1
  H+  H316  1  0.40518852  0.56919589  0.24022864  1
  H+  H317  1  0.97732138  0.86183138  0.14603752  1
  H+  H318  1  0.88421947  0.85919643  0.14071905  1
  H+  H319  1  0.32933113  0.65873377  0.76425496  1
  H+  H320  1  0.16798790  0.08011807  0.22974032  1
  H+  H321  1  0.08590543  0.41325033  0.38860194  1
  H+  H322  1  0.41206312  0.09666914  0.25710394  1
  H+  H323  1  0.28162677  0.05896963  0.38840554  1
  H+  H324  1  0.32511152  0.97127857  0.15491772  1
  H+  H325  1  0.69958916  0.41903179  0.64153840  1
  H+  H326  1  0.57611926  0.41038775  0.39589832  1
  H+  H327  1  0.08151757  0.14934587  0.09659108  1
  H+  H328  1  0.67300446  0.81107351  0.26935164  1
  H+  H329  1  0.11055892  0.47878203  0.48423323  1
  H+  H330  1  0.55729658  0.66023030  0.06404949  1
  H+  H331  1  0.91993327  0.58460235  0.56241230  1
  H+  H332  1  0.58793924  0.69319589  0.73137492  1
  H+  H333  1  0.40800266  0.83616712  0.60223546  1
  H+  H334  1  0.18268323  0.32970646  0.87366790  1
  H+  H335  1  0.78074344  0.34213926  0.79052649  1
  H+  H336  1  0.83166646  0.90952872  0.42989361  1
  H+  H337  1  0.22170104  0.36254474  1.02008961  1
  H+  H338  1  0.11919678  0.13100848  0.82082214  1
  H+  H339  1  0.86779981  0.74232170  0.16098087  1
  H+  H340  1  0.58161087  0.41883887  0.08392925  1
  H+  H341  1  0.65524665  0.57471805  0.93839636  1
  H+  H342  1  0.82098029  0.15567757  0.73142540  1
  H+  H343  1  0.66400735  0.83599897  0.57243276  1
  H+  H344  1  0.57675797  0.16284834  0.42916265  1
  H+  H345  1  0.32499449  0.91014151  0.05453985  1
  H+  H346  1  0.87010656  0.42139115  0.73026612  1
  H+  H347  1  0.65935994  0.10463472  0.93443634  1
  H+  H348  1  0.31855396  0.64411504  0.06741893  1
  H+  H349  1  0.04010933  0.10934523  0.73636114  1
  H+  H350  1  0.41879269  0.08637941  0.56249959  1
  H+  H351  1  0.33980861  0.41895752  0.05772080  1
  H+  H352  1  0.82266162  0.38982575  0.39737160  1
  H+  H353  1  0.07702003  0.42496404  0.10143752  1
  H+  H354  1  0.33181961  0.64642965  0.40135295  1
  H+  H355  1  0.32548155  0.91654762  0.38487377  1
  H+  H356  1  0.82500430  0.17655584  0.05996692  1
  H+  H357  1  0.61501444  0.38772255  0.15881755  1
  H+  H358  1  0.16923667  0.58448224  0.55782319  1
  H+  H359  1  0.93720356  0.59265043  0.26212506  1
  H+  H360  1  0.66114435  0.34500963  0.94956271  1
  H+  H361  1  0.64824313  0.30213254  0.56180234  1
  H+  H362  1  0.67938961  0.76141220  0.83145033  1
  H+  H363  1  0.42415762  0.60268755  0.60132522  1
  H+  H364  1  0.90464359  -0.00218501  0.18783176  1
  H+  H365  1  0.40716509  0.34096229  0.22686755  1
  H+  H366  1  0.38885849  0.06113373  0.68832386  1
  H+  H367  1  0.67270517  0.56971918  0.58504202  1
  H+  H368  1  0.57235015  0.91351274  0.36384791  1
  H+  H369  1  0.07621912  0.41203924  0.76820330  1
  H+  H370  1  0.15958740  0.82533667  0.56238580  1
  H+  H371  1  0.16577059  0.05924897  0.56278924  1
  H+  H372  1  0.56622067  0.89330174  0.76862493  1
  H+  H373  1  0.15807207  0.82187228  0.89673212  1
  H+  H374  1  0.14903993  0.80735377  0.25850302  1
  H+  H375  1  0.90509230  0.52693141  0.65805019  1
  H+  H376  1  0.27201701  0.20301753  0.95664389  1
  H+  H377  1  0.32898381  0.22229096  0.82488632  1
  H+  H378  1  0.82369887  0.64500828  0.74496131  1
  H+  H379  1  0.66964602  0.02067816  0.88298649  1
  H+  H380  1  0.85871098  0.83362760  0.85685241  1
  H+  H381  1  0.60335310  0.93543096  0.45897379  1
  H+  H382  1  0.62843885  0.56398916  0.58721851  1
  H+  H383  1  0.82380465  0.92134523  0.09512866  1
  O2-  O384  1  0.08296855  0.15516073  0.14133576  1
  O2-  O385  1  0.07111760  0.17663054  0.48867307  1
  O2-  O386  1  0.08056673  0.15104422  0.80572690  1
  O2-  O387  1  0.08201398  0.42303768  0.14663380  1
  O2-  O388  1  0.08445439  0.41920790  0.46776155  1
  O2-  O389  1  0.08179327  0.40788565  0.81283559  1
  O2-  O390  1  0.10282573  0.69247817  0.15882126  1
  O2-  O391  1  0.08693658  0.67119385  0.47732533  1
  O2-  O392  1  0.08103549  0.65639406  0.80939194  1
  O2-  O393  1  0.07836931  0.91186816  0.14827890  1
  O2-  O394  1  0.06764657  0.89617047  0.48433728  1
  O2-  O395  1  0.08490365  0.92359181  0.81657226  1
  O2-  O396  1  0.36689217  0.07563967  0.14524994  1
  O2-  O397  1  0.36706445  0.19797037  0.47690103  1
  O2-  O398  1  0.26980100  0.11523503  0.81739049  1
  O2-  O399  1  0.33122968  0.41790721  0.13614531  1
  O2-  O400  1  0.34160461  0.44381016  0.46998495  1
  O2-  O401  1  0.33975298  0.41474468  0.78455630  1
  O2-  O402  1  0.33071217  0.65713851  0.15032223  1
  O2-  O403  1  0.33505381  0.66779890  0.47987265  1
  O2-  O404  1  0.32730717  0.65152452  0.80884011  1
  O2-  O405  1  0.30164959  0.90846096  0.16353846  1
  O2-  O406  1  0.32596132  0.91665353  0.47067883  1
  O2-  O407  1  0.32523513  0.90546392  0.81524247  1
  O2-  O408  1  0.58371522  0.17973798  0.14426348  1
  O2-  O409  1  0.58333513  0.16487513  0.47452220  1
  O2-  O410  1  0.57825650  0.17565528  0.87562356  1
  O2-  O411  1  0.58218728  0.41675670  0.14324321  1
  O2-  O412  1  0.58641520  0.41503950  0.47870808  1
  O2-  O413  1  0.58125671  0.41974557  0.82658675  1
  O2-  O414  1  0.56732798  0.65670105  0.14825021  1
  O2-  O415  1  0.59119481  0.65275954  0.47725929  1
  O2-  O416  1  0.59205071  0.65358899  0.80728763  1
  O2-  O417  1  0.55902686  0.92496707  0.11983807  1
  O2-  O418  1  0.59726223  0.93923804  0.50268571  1
  O2-  O419  1  0.55162317  0.86216604  0.80756285  1
  O2-  O420  1  0.80272805  0.21472370  0.11284960  1
  O2-  O421  1  0.86749285  0.23083223  0.48515234  1
  O2-  O422  1  0.82607433  0.16302632  0.80708170  1
  O2-  O423  1  0.84151537  0.43060472  0.14516230  1
  O2-  O424  1  0.83678314  0.41681731  0.48295122  1
  O2-  O425  1  0.83018709  0.39392018  0.80658970  1
  O2-  O426  1  0.83317605  0.67486133  0.17530773  1
  O2-  O427  1  0.83792117  0.66149296  0.47137179  1
  O2-  O428  1  0.82986289  0.65621686  0.81686093  1
  O2-  O429  1  0.82932117  0.91359091  0.14013713  1
  O2-  O430  1  0.83036983  0.90988567  0.47603615  1
  O2-  O431  1  0.73832508  0.87485893  0.79620547  1
  O2-  O432  1  0.17181391  0.07665822  0.18535705  1
  O2-  O433  1  0.13032515  0.05248093  0.52510294  1
  O2-  O434  1  0.18900584  0.08700716  0.85232551  1
  O2-  O435  1  0.16284514  0.33057179  0.16431254  1
  O2-  O436  1  0.17537405  0.34687042  0.50661653  1
  O2-  O437  1  0.17149987  0.32700112  0.83013553  1
  O2-  O438  1  0.16744848  0.58658256  0.19127342  1
  O2-  O439  1  0.16635947  0.58464616  0.51265986  1
  O2-  O440  1  0.16296960  0.56989898  0.85265010  1
  O2-  O441  1  0.12434005  0.77658488  0.18344836  1
  O2-  O442  1  0.15671758  0.82901073  0.51726877  1
  O2-  O443  1  0.15986078  0.82156837  0.85022780  1
  O2-  O444  1  0.42954398  0.13756095  0.18830456  1
  O2-  O445  1  0.41883563  0.08796099  0.51815329  1
  O2-  O446  1  0.38994022  0.07633612  0.85308933  1
  O2-  O447  1  0.40341412  0.33463320  0.18228280  1
  O2-  O448  1  0.42767956  0.36553140  0.52040696  1
  O2-  O449  1  0.37092268  0.28407152  0.83595045  1
  O2-  O450  1  0.40812689  0.57467227  0.19538385  1
  O2-  O451  1  0.42352761  0.59236112  0.52838020  1
  O2-  O452  1  0.42490901  0.57552129  0.84127571  1
  O2-  O453  1  0.40658425  0.83447846  0.17042347  1
  O2-  O454  1  0.41041775  0.83723838  0.52028146  1
  O2-  O455  1  0.40085597  0.81460667  0.85002889  1
  O2-  O456  1  0.65990881  0.08342980  0.16809492  1
  O2-  O457  1  0.67395248  0.10479249  0.52729466  1
  O2-  O458  1  0.67239264  0.09752497  0.85481381  1
  O2-  O459  1  0.67041800  0.34531360  0.18151138  1
  O2-  O460  1  0.66100412  0.32421392  0.52012006  1
  O2-  O461  1  0.65948605  0.33827600  0.87473082  1
  O2-  O462  1  0.65713393  0.57700561  0.18491719  1
  O2-  O463  1  0.67673277  0.57445086  0.46155073  1
  O2-  O464  1  0.66564549  0.57639542  0.86489672  1
  O2-  O465  1  0.66285752  0.80996296  0.19320696  1
  O2-  O466  1  0.65015407  0.82554168  0.52716961  1
  O2-  O467  1  0.73260307  0.81462648  0.84436056  1
  O2-  O468  1  0.95021027  0.04087631  0.21454223  1
  O2-  O469  1  0.89888789  0.08173176  0.52605087  1
  O2-  O470  1  0.90473120  0.07294441  0.85009565  1
  O2-  O471  1  0.91609866  0.34299037  0.18464126  1
  O2-  O472  1  0.91747259  0.31836161  0.51142003  1
  O2-  O473  1  0.91745741  0.33072647  0.85466161  1
  O2-  O474  1  0.93351665  0.59740221  0.18053611  1
  O2-  O475  1  0.91904634  0.58401632  0.51719599  1
  O2-  O476  1  0.91248487  0.57324616  0.85206818  1
  O2-  O477  1  0.91294934  0.82404757  0.13735042  1
  O2-  O478  1  0.91053042  0.82696443  0.51378208  1
  O2-  O479  1  0.90339692  0.82866997  0.83449883  1
  O2-  O480  1  0.15712731  0.07380455  0.31425467  1
  O2-  O481  1  0.21128136  0.05209047  0.62522628  1
  O2-  O482  1  0.21986576  0.14402387  0.95670992  1
  O2-  O483  1  0.16052076  0.31643999  0.30448035  1
  O2-  O484  1  0.21029059  0.41594525  0.61840511  1
  O2-  O485  1  0.15886462  0.32873353  1.03152967  1
  O2-  O486  1  0.17294244  0.57975126  0.31243945  1
  O2-  O487  1  0.17942590  0.58966786  0.63802929  1
  O2-  O488  1  0.15492270  0.57086518  0.98069820  1
  O2-  O489  1  0.15886219  0.82426769  0.30237072  1
  O2-  O490  1  0.15898837  0.82144383  0.64259376  1
  O2-  O491  1  0.15705184  0.82337439  0.96901157  1
  O2-  O492  1  0.40970335  0.08394282  0.30220102  1
  O2-  O493  1  0.43282876  0.12253443  0.69336787  1
  O2-  O494  1  0.40451170  0.07611614  0.97782385  1
  O2-  O495  1  0.41559833  0.36035063  0.31027074  1
  O2-  O496  1  0.38122859  0.35359734  0.64315023  1
  O2-  O497  1  0.36557442  0.30464826  0.95145530  1
  O2-  O498  1  0.41607944  0.56508031  0.32533229  1
  O2-  O499  1  0.42588048  0.61397686  0.64680752  1
  O2-  O500  1  0.40484883  0.57957313  0.96333003  1
  O2-  O501  1  0.40991393  0.83604043  0.28907136  1
  O2-  O502  1  0.40796210  0.83212281  0.64718723  1
  O2-  O503  1  0.40526086  0.83395533  0.96460754  1
  O2-  O504  1  0.69828682  0.07918783  0.29159755  1
  O2-  O505  1  0.66675211  0.10331925  0.63850081  1
  O2-  O506  1  0.65772688  0.10616513  0.97956196  1
  O2-  O507  1  0.65930578  0.33478129  0.30410723  1
  O2-  O508  1  0.69783981  0.37775298  0.67122927  1
  O2-  O509  1  0.65956754  0.34337917  0.99534160  1
  O2-  O510  1  0.66822210  0.58152257  0.30897917  1
  O2-  O511  1  0.63517816  0.57322883  0.70634424  1
  O2-  O512  1  0.64723944  0.57300299  0.98424184  1
  O2-  O513  1  0.67291783  0.81801507  0.31471775  1
  O2-  O514  1  0.68085179  0.86409259  0.64223434  1
  O2-  O515  1  0.65894443  0.96090140  0.89931478  1
  O2-  O516  1  0.92591536  0.07305546  0.32325327  1
  O2-  O517  1  0.85033827  0.02661323  0.64482277  1
  O2-  O518  1  0.93199875  0.08646774  0.97054018  1
  O2-  O519  1  0.92180728  0.32521368  0.30542895  1
  O2-  O520  1  0.91695575  0.30924031  0.63498373  1
  O2-  O521  1  0.90858620  0.32782690  0.97634808  1
  O2-  O522  1  0.93743827  0.59248143  0.30721136  1
  O2-  O523  1  0.92557593  0.58685084  0.64402522  1
  O2-  O524  1  0.90699184  0.56817481  0.97291123  1
  O2-  O525  1  0.92406365  0.83348133  0.30852951  1
  O2-  O526  1  0.93726913  0.83503921  0.63489922  1
  O2-  O527  1  0.91639895  0.84213392  0.98878628  1
  O2-  O528  1  0.09596398  0.15870250  0.01139057  1
  O2-  O529  1  0.09035492  0.16622892  0.36093029  1
  O2-  O530  1  0.02067807  0.07999826  0.69581140  1
  O2-  O531  1  0.06718433  0.41207893  0.02306629  1
  O2-  O532  1  0.08765902  0.41287589  0.34337541  1
  O2-  O533  1  0.05904671  0.43110824  0.69133309  1
  O2-  O534  1  0.07910402  0.66600740  0.01004946  1
  O2-  O535  1  0.09418890  0.66980909  0.35118948  1
  O2-  O536  1  0.09114039  0.66322765  0.68696305  1
  O2-  O537  1  0.09603334  0.92197275  0.02513150  1
  O2-  O538  1  0.07567368  0.90608915  0.33390900  1
  O2-  O539  1  0.06851245  0.95949318  0.69534673  1
  O2-  O540  1  0.34095446  0.15009173  0.05234644  1
  O2-  O541  1  0.31306378  0.11681476  0.37135714  1
  O2-  O542  1  0.31512023  0.18674356  0.68224695  1
  O2-  O543  1  0.32825384  0.41654919  0.01294087  1
  O2-  O544  1  0.36882811  0.47433376  0.34529522  1
  O2-  O545  1  0.35051768  0.41201872  0.66275301  1
  O2-  O546  1  0.31025421  0.64367255  0.02294702  1
  O2-  O547  1  0.33214082  0.63427225  0.35740319  1
  O2-  O548  1  0.34001236  0.67563437  0.68040254  1
  O2-  O549  1  0.32771439  0.91301116  0.01026567  1
  O2-  O550  1  0.32552671  0.91869047  0.33987158  1
  O2-  O551  1  0.29241700  0.95895196  0.69870862  1
  O2-  O552  1  0.56528717  0.17084206  0.02434295  1
  O2-  O553  1  0.56304766  0.16553643  0.35293382  1
  O2-  O554  1  0.59298595  0.20223031  0.63434073  1
  O2-  O555  1  0.57936398  0.41721726  0.03266271  1
  O2-  O556  1  0.57806572  0.41592845  0.35112471  1
  O2-  O557  1  0.53046594  0.40450016  0.70047841  1
  O2-  O558  1  0.55741091  0.66287956  0.01917513  1
  O2-  O559  1  0.58100216  0.65671517  0.36026356  1
  O2-  O560  1  0.59024085  0.69871967  0.68633985  1
  O2-  O561  1  0.55585655  0.89650502  -0.00533920  1
  O2-  O562  1  0.58933192  0.91308397  0.32194736  1
  O2-  O563  1  0.57678756  0.92695189  0.68575358  1
  O2-  O564  1  0.83096931  0.15278328  0.01825591  1
  O2-  O565  1  0.84622700  0.15573904  0.34714444  1
  O2-  O566  1  0.81801609  0.15225072  0.68538044  1
  O2-  O567  1  0.82557648  0.40974550  0.02419201  1
  O2-  O568  1  0.81043477  0.35844506  0.35873830  1
  O2-  O569  1  0.86977405  0.42269036  0.68489574  1
  O2-  O570  1  0.90048699  0.69239711  0.04427830  1
  O2-  O571  1  0.83820828  0.66884533  0.34421373  1
  O2-  O572  1  0.81242860  0.63454205  0.69929508  1
  O2-  O573  1  0.82089862  0.92339510  0.01954120  1
  O2-  O574  1  0.84041902  0.90864608  0.35586270  1
  O2-  O575  1  0.87639237  0.89306177  0.73546447  1
