# generated using pymatgen
data_H2O
_symmetry_space_group_name_H-M   'P 1'
_cell_length_a   17.98930958
_cell_length_b   17.99451389
_cell_length_c   22.00998023
_cell_angle_alpha   89.99936966
_cell_angle_beta   90.00293117
_cell_angle_gamma   119.98925849
_symmetry_Int_Tables_number   1
_chemical_formula_structural   H2O
_chemical_formula_sum   'H384 O192'
_cell_volume   6170.94812271
_cell_formula_units_Z   192
loop_
 _symmetry_equiv_pos_site_id
 _symmetry_equiv_pos_as_xyz
  1  'x, y, z'
loop_
 _atom_type_symbol
 _atom_type_oxidation_number
  H+  1.0
  O2-  -2.0
loop_
 _atom_site_type_symbol
 _atom_site_label
 _atom_site_symmetry_multiplicity
 _atom_site_fract_x
 _atom_site_fract_y
 _atom_site_fract_z
 _atom_site_occupancy
  H+  H0  1  0.11717025  0.98649167  0.01360231  1
  H+  H1  1  0.10352031  0.38873354  0.35126348  1
  H+  H2  1  0.62847563  0.26850065  0.83181764  1
  H+  H3  1  0.35606992  0.13805475  0.50131729  1
  H+  H4  1  0.12549879  0.15310446  0.17283813  1
  H+  H5  1  0.60279362  0.38532516  0.00558221  1
  H+  H6  1  0.38688067  0.10886565  0.33067068  1
  H+  H7  1  0.14595254  0.36721126  -0.00652213  1
  H+  H8  1  0.61360974  -0.02408680  0.33514327  1
  H+  H9  1  0.27729520  0.37463179  0.82581122  1
  H+  H10  1  -0.03391868  0.10194881  0.50713793  1
  H+  H11  1  0.64059895  0.37609447  0.32718864  1
  H+  H12  1  0.48904430  0.37005282  0.17002692  1
  H+  H13  1  0.37090598  0.63482307  0.15672707  1
  H+  H14  1  0.13989874  0.27577621  0.67022175  1
  H+  H15  1  0.00743385  0.13647636  0.83559681  1
  H+  H16  1  -0.01534749  0.12143447  0.66124991  1
  H+  H17  1  0.97355181  0.61557167  0.17703392  1
  H+  H18  1  0.96656952  0.36715545  0.83992492  1
  H+  H19  1  0.38648896  0.89270777  0.35140213  1
  H+  H20  1  0.36820393  0.72163566  0.15185756  1
  H+  H21  1  0.77561807  0.39851170  0.33534192  1
  H+  H22  1  0.10494474  0.88258093  0.48421738  1
  H+  H23  1  0.60789413  0.97815465  0.82511922  1
  H+  H24  1  0.08891625  0.20302808  0.50130355  1
  H+  H25  1  0.11308893  0.77750255  0.82063220  1
  H+  H26  1  0.89141798  0.11573831  0.16784094  1
  H+  H27  1  0.59984179  0.13598059  0.48340696  1
  H+  H28  1  0.22530634  0.60917392  0.65873614  1
  H+  H29  1  0.02904091  0.26580391  0.55629734  1
  H+  H30  1  0.76589085  0.13368332  0.49150573  1
  H+  H31  1  0.13343466  0.85061454  0.31660327  1
  H+  H32  1  0.35387454  0.71793200  0.67247994  1
  H+  H33  1  0.48212304  0.37071994  0.82753541  1
  H+  H34  1  0.96750214  0.36360035  0.32342961  1
  H+  H35  1  0.88072570  0.66461208  0.33337322  1
  H+  H36  1  0.47614829  0.61527084  0.51032007  1
  H+  H37  1  0.11190241  0.64034939  0.48550029  1
  H+  H38  1  0.11768923  0.74898446  0.64334004  1
  H+  H39  1  0.61646288  0.49165685  0.15682664  1
  H+  H40  1  0.86249343  0.97880991  0.02070045  1
  H+  H41  1  0.12973487  0.12121657  1.00415165  1
  H+  H42  1  0.96450616  0.49817888  0.61500878  1
  H+  H43  1  0.63231641  0.26975099  0.49486702  1
  H+  H44  1  0.53018203  0.40466196  0.33889165  1
  H+  H45  1  0.88374847  0.27223405  0.84584149  1
  H+  H46  1  0.38073332  0.86816772  0.82918113  1
  H+  H47  1  0.22158156  0.10757877  0.50586588  1
  H+  H48  1  0.33021057  0.66599055  0.76792513  1
  H+  H49  1  0.46390760  0.11478391  0.66058415  1
  H+  H50  1  0.09827981  0.93169313  0.10596417  1
  H+  H51  1  0.62465161  0.40703658  0.15726483  1
  H+  H52  1  0.26984641  0.89697421  0.49654948  1
  H+  H53  1  0.58342243  0.42669966  0.06408994  1
  H+  H54  1  0.87724418  0.85547428  0.46753273  1
  H+  H55  1  0.35131926  0.61545258  0.48869224  1
  H+  H56  1  0.42602967  0.65383780  0.94999727  1
  H+  H57  1  0.87220859  0.73463900  0.83333894  1
  H+  H58  1  0.11454849  0.63002690  0.67379195  1
  H+  H59  1  0.32952947  0.41162007  0.75125957  1
  H+  H60  1  0.48016869  0.85496915  0.32165514  1
  H+  H61  1  0.11968776  0.14635025  0.68616238  1
  H+  H62  1  0.51592996  0.88964277  0.82337563  1
  H+  H63  1  0.20947897  0.25592796  0.87534136  1
  H+  H64  1  0.73024074  0.87447317  0.50265151  1
  H+  H65  1  0.07967498  0.66417083  0.10986570  1
  H+  H66  1  0.82802646  0.57813583  0.68939203  1
  H+  H67  1  1.03658384  0.88043223  0.67756149  1
  H+  H68  1  0.86104814  0.38335807  0.16525099  1
  H+  H69  1  0.27198572  0.38379983  0.67526663  1
  H+  H70  1  0.85695082  -0.02648212  0.49561001  1
  H+  H71  1  0.10322523  0.72202057  0.16882068  1
  H+  H72  1  0.73528453  0.87717007  0.02615416  1
  H+  H73  1  0.10427988  0.88730357  0.77294563  1
  H+  H74  1  0.39704145  0.27337696  0.51789955  1
  H+  H75  1  0.89763331  0.77920607  0.99775393  1
  H+  H76  1  0.73610053  0.38231204  0.17264164  1
  H+  H77  1  0.56981571  0.16924555  0.42616709  1
  H+  H78  1  0.64535026  0.61519398  0.50575812  1
  H+  H79  1  0.08442109  0.42568577  0.05862152  1
  H+  H80  1  0.87525399  0.36063345  0.50342239  1
  H+  H81  1  0.76350172  0.68842572  0.67900778  1
  H+  H82  1  0.00737768  0.39140358  0.49417338  1
  H+  H83  1  0.81774817  0.39722198  0.00995234  1
  H+  H84  1  0.62728069  0.02163685  0.49026974  1
  H+  H85  1  0.60681148  -0.00591704  0.65160458  1
  H+  H86  1  0.13724058  0.51928573  0.65667585  1
  H+  H87  1  0.23543953  0.41769132  0.50527397  1
  H+  H88  1  0.23354425  0.60198172  0.84451791  1
  H+  H89  1  0.62993007  0.72638355  0.01674654  1
  H+  H90  1  0.88396479  0.14856527  0.67820403  1
  H+  H91  1  0.40484616  0.51798800  0.50210184  1
  H+  H92  1  0.27893057  0.89498713  0.02058298  1
  H+  H93  1  0.46443738  0.85787583  0.97781319  1
  H+  H94  1  0.17563440  0.34625721  0.41150541  1
  H+  H95  1  0.71600591  0.78334739  0.63589856  1
  H+  H96  1  0.13236496  -0.04264238  0.68115941  1
  H+  H97  1  0.61116774  0.23397531  0.33687941  1
  H+  H98  1  0.92102535  0.09143579  0.60174650  1
  H+  H99  1  0.88549364  0.52486385  0.17927975  1
  H+  H100  1  0.07847990  0.42212214  0.73123841  1
  H+  H101  1  0.35510854  0.97284313  0.66930038  1
  H+  H102  1  0.32771531  0.23172373  0.03244312  1
  H+  H103  1  0.15357006  0.88606062  0.15966939  1
  H+  H104  1  0.48592785  0.85649404  0.17287255  1
  H+  H105  1  0.90542114  0.32103084  0.22920071  1
  H+  H106  1  0.39518153  0.74451149  0.50843331  1
  H+  H107  1  0.08518377  0.17709993  0.07712297  1
  H+  H108  1  0.62241742  0.38943310  0.48996020  1
  H+  H109  1  0.91477560  0.36818417  0.00085881  1
  H+  H110  1  0.62223018  0.49145308  0.33865169  1
  H+  H111  1  0.03554921  0.15148128  0.17196914  1
  H+  H112  1  0.85717149  0.21114074  0.00823675  1
  H+  H113  1  0.40409714  0.39412759  0.49707576  1
  H+  H114  1  0.69399054  0.46616647  0.70138336  1
  H+  H115  1  0.50635224  0.63882541  0.16058914  1
  H+  H116  1  0.25913651  0.04061875  0.29973574  1
  H+  H117  1  0.61962018  0.26147973  0.99361027  1
  H+  H118  1  0.35434764  0.62828765  0.67185924  1
  H+  H119  1  0.26771056  0.62680380  0.49129604  1
  H+  H120  1  0.36124755  0.47423981  0.67644907  1
  H+  H121  1  0.09006568  0.38414492  0.49676309  1
  H+  H122  1  0.63960397  0.76876658  0.18146062  1
  H+  H123  1  0.88847184  1.01988921  0.85194266  1
  H+  H124  1  0.88873138  0.80735305  0.25902504  1
  H+  H125  1  1.01728197  0.65020576  0.82302021  1
  H+  H126  1  0.53752485  0.37867561  0.66407880  1
  H+  H127  1  0.77700810  0.64202313  0.15880006  1
  H+  H128  1  0.54599549  0.71410923  0.11300597  1
  H+  H129  1  0.29273657  0.89830249  0.16250596  1
  H+  H130  1  0.65194615  0.52943817  0.99100286  1
  H+  H131  1  0.38060713  0.86337512  0.98518107  1
  H+  H132  1  0.88450946  0.89054934  0.82922563  1
  H+  H133  1  0.87732608  0.26316511  0.16774298  1
  H+  H134  1  0.11052412  0.23114999  1.01523693  1
  H+  H135  1  0.67314102  0.83708429  0.56315023  1
  H+  H136  1  0.63532901  0.86914036  0.82207923  1
  H+  H137  1  0.79709676  0.14757867  0.69397269  1
  H+  H138  1  0.36760559  0.24225291  0.34744359  1
  H+  H139  1  1.03963295  0.38908425  0.99593168  1
  H+  H140  1  0.35777236  0.11994247  0.66611062  1
  H+  H141  1  0.13115867  0.52655383  0.50461006  1
  H+  H142  1  0.02342423  0.38632927  0.67083192  1
  H+  H143  1  0.73802547  0.12112693  0.99742925  1
  H+  H144  1  0.09032783  0.75689404  0.97638121  1
  H+  H145  1  0.82460812  0.71586742  0.73651437  1
  H+  H146  1  0.85874796  0.98775917  0.34139680  1
  H+  H147  1  0.12764462  0.84068812  0.65031345  1
  H+  H148  1  0.10201599  0.47234650  0.15272076  1
  H+  H149  1  0.46116391  0.84996828  0.66356867  1
  H+  H150  1  0.01600066  0.88341617  0.47056239  1
  H+  H151  1  0.61276207  0.13532145  0.82451180  1
  H+  H152  1  0.25506725  0.11158584  0.67027213  1
  H+  H153  1  0.13931284  0.36443804  0.66694978  1
  H+  H154  1  0.77716274  0.63367634  0.51705310  1
  H+  H155  1  0.72611699  0.11179451  0.84198086  1
  H+  H156  1  0.59937749  0.31837814  0.63976139  1
  H+  H157  1  0.92111988  0.33214230  0.93629801  1
  H+  H158  1  0.13920724  0.61524231  0.31816011  1
  H+  H159  1  0.85036101  0.99743692  0.68036181  1
  H+  H160  1  0.60010748  0.87178306  0.67876367  1
  H+  H161  1  0.37815757  0.14079437  0.16207882  1
  H+  H162  1  0.69699843  0.35612808  0.98244155  1
  H+  H163  1  0.69462770  0.07533642  0.63622439  1
  H+  H164  1  0.88061058  0.36667844  0.32229023  1
  H+  H165  1  0.37986072  0.39065704  0.15909097  1
  H+  H166  1  0.37562841  0.97462557  0.35002361  1
  H+  H167  1  1.04256617  0.89039368  1.01266847  1
  H+  H168  1  0.39308620  0.03327729  1.02996887  1
  H+  H169  1  0.63491723  0.87728473  0.17300192  1
  H+  H170  1  0.87039635  0.88735027  0.17994228  1
  H+  H171  1  0.36253098  0.22945036  0.81063021  1
  H+  H172  1  0.10342757  0.12154229  0.49602903  1
  H+  H173  1  0.72093645  0.11438172  0.32993345  1
  H+  H174  1  1.02117407  0.61463553  0.66728847  1
  H+  H175  1  0.13756779  0.13061381  0.84387217  1
  H+  H176  1  0.86355327  0.13340129  0.84245362  1
  H+  H177  1  0.47575668  0.63091136  0.86187188  1
  H+  H178  1  0.49122704  0.35762766  0.51030113  1
  H+  H179  1  0.65828850  0.62064739  0.99193445  1
  H+  H180  1  0.53093387  0.13940970  0.02458635  1
  H+  H181  1  0.89718763  0.81168774  0.66040439  1
  H+  H182  1  0.26402440  0.89105009  0.81793994  1
  H+  H183  1  0.66736810  0.19687119  0.15672838  1
  H+  H184  1  0.90048007  0.61839900  -0.00255588  1
  H+  H185  1  0.16063205  -0.00115782  0.31838372  1
  H+  H186  1  0.70556758  0.72449440  0.44673966  1
  H+  H187  1  0.77296164  0.89489509  0.34177786  1
  H+  H188  1  0.10974942  0.48801707  0.82772806  1
  H+  H189  1  0.89711042  0.02993360  0.17654453  1
  H+  H190  1  0.38993423  0.76600971  0.32257459  1
  H+  H191  1  0.39408609  0.12162436  1.02395267  1
  H+  H192  1  0.34791600  0.92647484  0.45003500  1
  H+  H193  1  0.61235380  0.72620637  0.82519499  1
  H+  H194  1  0.14927128  0.52859457  0.99587386  1
  H+  H195  1  0.61754441  0.89176825  0.48811393  1
  H+  H196  1  0.38363724  0.36859209  0.31245918  1
  H+  H197  1  0.36599235  0.38213712  1.00140224  1
  H+  H198  1  0.87820843  0.76963632  0.19201040  1
  H+  H199  1  0.02722036  0.64025397  0.33270136  1
  H+  H200  1  0.63472170  0.86049294  0.32728878  1
  H+  H201  1  0.23722168  0.57592577  0.17253035  1
  H+  H202  1  0.88456592  0.61713436  0.84010452  1
  H+  H203  1  0.35800713  0.13649869  0.80781059  1
  H+  H204  1  -0.02456274  0.60961574  0.49647372  1
  H+  H205  1  0.23150254  0.35936561  0.99866904  1
  H+  H206  1  0.12962269  0.77586485  0.48954196  1
  H+  H207  1  0.08665893  0.02520546  0.64328316  1
  H+  H208  1  0.64427786  0.62337116  0.32339194  1
  H+  H209  1  0.35329920  0.88337175  0.66910227  1
  H+  H210  1  0.24036995  0.61277294  0.99294663  1
  H+  H211  1  0.65110876  0.55458043  0.67174743  1
  H+  H212  1  0.61422699  0.07701926  0.17495904  1
  H+  H213  1  0.69999257  0.34527546  0.65655637  1
  H+  H214  1  0.85314407  0.38282704  0.82938226  1
  H+  H215  1  0.77403935  0.12888185  0.15357915  1
  H+  H216  1  0.61378641  0.39078261  0.83049741  1
  H+  H217  1  0.15500519  0.29135626  0.18530044  1
  H+  H218  1  0.86034565  0.47400297  0.48859902  1
  H+  H219  1  0.13209647  0.01538282  0.49913566  1
  H+  H220  1  0.86366918  0.63814773  0.16337030  1
  H+  H221  1  0.64430387  0.29767129  0.17148537  1
  H+  H222  1  0.46455137  0.60750002  0.66206894  1
  H+  H223  1  0.89171423  0.86481560  1.00052822  1
  H+  H224  1  0.76471693  0.38380454  0.82857281  1
  H+  H225  1  0.85540213  0.23024717  0.33985318  1
  H+  H226  1  0.78504733  0.88940375  0.17223006  1
  H+  H227  1  0.37906612  0.89050112  0.16590539  1
  H+  H228  1  0.40979231  0.03288562  0.17391506  1
  H+  H229  1  0.00468981  0.39511393  0.14685692  1
  H+  H230  1  0.60531498  0.14295795  0.33759915  1
  H+  H231  1  0.88980220  0.27887321  0.66366681  1
  H+  H232  1  0.37751278  0.02508301  0.81154051  1
  H+  H233  1  0.99482015  0.85564086  0.84943181  1
  H+  H234  1  0.40186264  0.27756379  0.17183358  1
  H+  H235  1  0.23401903  0.37626911  0.49764701  1
  H+  H236  1  0.63257624  0.76922833  0.32946565  1
  H+  H237  1  0.13435660  0.52499832  0.32544994  1
  H+  H238  1  0.88296685  0.52717534  0.83968167  1
  H+  H239  1  0.52488329  0.87923389  0.48771875  1
  H+  H240  1  0.60461530  0.89223754  0.01984659  1
  H+  H241  1  0.88302837  0.12120043  0.32501409  1
  H+  H242  1  0.34376553  0.91607074  0.07608452  1
  H+  H243  1  0.27126431  0.63276527  0.33480301  1
  H+  H244  1  0.86040163  0.71847572  0.49199659  1
  H+  H245  1  0.60200350  0.20938912  0.66501053  1
  H+  H246  1  0.13329834  0.99099988  0.16544345  1
  H+  H247  1  0.39233580  0.51977402  0.17287912  1
  H+  H248  1  0.29142837  0.39172205  0.15961299  1
  H+  H249  1  0.87000336  0.60104224  0.70620882  1
  H+  H250  1  0.87100825  0.35627500  0.66323827  1
  H+  H251  1  0.23217586  0.14113874  0.84158795  1
  H+  H252  1  0.64641031  0.32016914  0.89416132  1
  H+  H253  1  0.41383132  0.27740179  0.97096437  1
  H+  H254  1  0.37684736  1.02338871  0.51255605  1
  H+  H255  1  0.84824979  0.45635233  0.66909592  1
  H+  H256  1  0.85445639  0.22303202  0.49539388  1
  H+  H257  1  0.38003078  0.60438005  0.32581560  1
  H+  H258  1  0.12636357  0.64327769  1.01516717  1
  H+  H259  1  0.59065247  0.11539195  0.66661708  1
  H+  H260  1  0.79265318  0.88374046  0.82368900  1
  H+  H261  1  0.48217303  0.32783276  0.60672363  1
  H+  H262  1  0.82905082  0.93598998  0.73774027  1
  H+  H263  1  0.01421168  0.85645129  0.33767997  1
  H+  H264  1  0.49528144  0.12433740  0.17949509  1
  H+  H265  1  0.24057088  0.12694384  0.17662592  1
  H+  H266  1  0.27753811  0.38648873  0.26392804  1
  H+  H267  1  0.77015301  0.38389952  0.48711943  1
  H+  H268  1  0.64931588  0.74992746  0.48597715  1
  H+  H269  1  0.59536493  0.72316720  0.68011141  1
  H+  H270  1  0.64169301  0.62751096  0.17253921  1
  H+  H271  1  0.79071621  0.64059343  0.00653664  1
  H+  H272  1  0.63782234  0.61542879  0.84255514  1
  H+  H273  1  0.38968994  0.63375311  0.85420288  1
  H+  H274  1  0.37207790  0.38695570  0.81666323  1
  H+  H275  1  0.12554884  0.27082471  0.36198873  1
  H+  H276  1  0.73601648  0.87133716  0.66413366  1
  H+  H277  1  0.92625546  0.58804068  0.93663294  1
  H+  H278  1  0.59642705  0.63695208  0.67639045  1
  H+  H279  1  0.61874240  0.48439569  0.83540317  1
  H+  H280  1  0.14796673  0.82373036  0.55278763  1
  H+  H281  1  0.88839861  0.53791245  0.32841808  1
  H+  H282  1  0.25808759  0.13928760  0.01088322  1
  H+  H283  1  0.63965938  0.03712346  0.99327634  1
  H+  H284  1  0.03446110  0.63482582  0.01355418  1
  H+  H285  1  0.51632762  0.62714662  0.33953080  1
  H+  H286  1  0.87036230  0.10866495  0.00311198  1
  H+  H287  1  0.46898435  0.11379704  0.81416711  1
  H+  H288  1  0.83484233  0.42284324  0.39425513  1
  H+  H289  1  0.77965724  0.64839889  0.82914404  1
  H+  H290  1  0.57325108  0.90984607  0.73511860  1
  H+  H291  1  0.64167534  0.00662148  0.17776936  1
  H+  H292  1  0.01889957  0.14652574  0.33949901  1
  H+  H293  1  0.58306295  0.91445921  0.39303879  1
  H+  H294  1  0.56824976  0.65713700  0.77402546  1
  H+  H295  1  0.89340127  0.49424790  0.00991316  1
  H+  H296  1  0.42399926  0.82633710  0.23095859  1
  H+  H297  1  0.87992236  0.10949881  0.50834334  1
  H+  H298  1  0.66686074  0.08649847  0.90054642  1
  H+  H299  1  0.37298593  0.51223735  0.31403010  1
  H+  H300  1  0.03190125  0.47838730  0.78891452  1
  H+  H301  1  0.35233279  0.64813215  0.05980373  1
  H+  H302  1  0.62348292  0.14344600  0.00703949  1
  H+  H303  1  0.73897639  0.63394742  0.32161143  1
  H+  H304  1  0.63445494  0.91805097  0.11004267  1
  H+  H305  1  0.34233523  0.41216833  0.06333043  1
  H+  H306  1  0.16649492  0.58650607  0.56320446  1
  H+  H307  1  0.10448342  0.80811176  0.91600308  1
  H+  H308  1  0.67236236  0.82569425  0.24396737  1
  H+  H309  1  0.84366044  0.92041155  0.08128038  1
  H+  H310  1  0.82516860  0.92603683  0.43011662  1
  H+  H311  1  0.59139975  0.42439292  0.43352479  1
  H+  H312  1  0.11895061  0.72625503  0.32978462  1
  H+  H313  1  0.41575273  0.57930039  0.23408966  1
  H+  H314  1  0.32381072  0.91320067  0.75900041  1
  H+  H315  1  0.88782664  0.61067220  0.51390917  1
  H+  H316  1  0.91698859  0.59312076  0.26751925  1
  H+  H317  1  0.54484963  0.91688543  0.05841171  1
  H+  H318  1  0.67625176  0.58979137  0.90034024  1
  H+  H319  1  0.33924271  0.16498236  0.10465389  1
  H+  H320  1  0.40754051  0.08973231  0.59722613  1
  H+  H321  1  0.58369252  0.16119149  0.76244388  1
  H+  H322  1  0.18729904  0.31970367  0.91051799  1
  H+  H323  1  0.31869086  0.15655088  0.73060235  1
  H+  H324  1  0.28723728  0.14640679  0.34784937  1
  H+  H325  1  0.60845882  0.18556787  0.09956003  1
  H+  H326  1  0.41648734  0.43794941  0.43235037  1
  H+  H327  1  0.18744953  0.08479912  0.23601989  1
  H+  H328  1  0.18341626  0.55298827  0.23343957  1
  H+  H329  1  0.65865221  0.59499518  0.60547810  1
  H+  H330  1  0.42109108  0.33937681  0.88479177  1
  H+  H331  1  0.48739191  0.37293832  0.98432140  1
  H+  H332  1  0.82913160  0.16956948  0.39919627  1
  H+  H333  1  0.46607436  0.11552095  0.50738207  1
  H+  H334  1  0.40749828  0.04904616  0.92224813  1
  H+  H335  1  0.12420394  0.31009893  0.57912317  1
  H+  H336  1  0.10168340  0.22283356  0.83326264  1
  H+  H337  1  0.84582003  0.67102589  0.06815696  1
  H+  H338  1  0.90964395  0.07667420  0.91393448  1
  H+  H339  1  0.42925051  0.33912582  0.26605732  1
  H+  H340  1  0.40964108  0.83862686  0.88924298  1
  H+  H341  1  0.66410927  0.32266148  0.55665833  1
  H+  H342  1  0.66739892  0.84184501  0.97296232  1
  H+  H343  1  0.08099174  0.90404202  0.39077394  1
  H+  H344  1  0.64293142  0.07229538  0.55118035  1
  H+  H345  1  0.35895994  0.73350188  0.82281339  1
  H+  H346  1  0.62036630  0.45164193  0.74829892  1
  H+  H347  1  0.58736576  0.66589562  0.39427409  1
  H+  H348  1  0.25689170  0.37830953  0.33251369  1
  H+  H349  1  0.67106638  0.35009831  0.26676043  1
  H+  H350  1  0.15569620  0.06793590  0.59125715  1
  H+  H351  1  0.07079544  0.15564232  0.40021030  1
  H+  H352  1  0.40785633  0.57131851  0.60113760  1
  H+  H353  1  0.47717304  0.77094381  0.54756315  1
  H+  H354  1  0.58399044  0.64723700  0.05891276  1
  H+  H355  1  0.67813927  0.85103367  0.87680768  1
  H+  H356  1  0.84932004  0.17039753  0.78038908  1
  H+  H357  1  0.89851557  0.81001193  0.41196176  1
  H+  H358  1  0.32934548  0.65855423  0.39488309  1
  H+  H359  1  0.08244812  0.66465341  0.42328541  1
  H+  H360  1  0.06660921  0.42455734  0.39916473  1
  H+  H361  1  0.82761445  0.15746195  0.08938027  1
  H+  H362  1  0.81461747  0.40810376  0.73390460  1
  H+  H363  1  0.33238861  0.17774535  0.44421524  1
  H+  H364  1  0.16610734  0.10338246  0.94245549  1
  H+  H365  1  0.67089259  0.59705027  0.23167418  1
  H+  H366  1  0.40905251  0.81659382  0.60239008  1
  H+  H367  1  0.36025172  0.01866100  0.92482586  1
  H+  H368  1  0.17524836  0.38953043  0.19417363  1
  H+  H369  1  0.17569820  0.82509686  0.11996650  1
  H+  H370  1  0.07570655  0.16883994  0.74188772  1
  H+  H371  1  0.90401191  0.33267418  0.56522363  1
  H+  H372  1  0.93266206  0.83891392  0.90599049  1
  H+  H373  1  0.92760697  0.55164595  0.58334671  1
  H+  H374  1  0.17593491  0.57269564  0.90554491  1
  H+  H375  1  0.96406700  0.11247123  1.00533589  1
  H+  H376  1  0.39880242  0.07443200  0.26717727  1
  H+  H377  1  0.07363532  0.67412928  0.76143177  1
  H+  H378  1  0.16616162  0.82546046  0.25777622  1
  H+  H379  1  0.91636083  0.09261186  0.26641267  1
  H+  H380  1  0.63356480  0.52011109  0.51135287  1
  H+  H381  1  0.94875338  0.83743425  0.59860211  1
  H+  H382  1  0.66286848  0.08044757  0.27040501  1
  H+  H383  1  0.84857226  0.42754727  0.10667095  1
  O2-  O384  1  0.09689196  0.18552226  0.15873208  1
  O2-  O385  1  0.06750554  0.14644897  0.48158124  1
  O2-  O386  1  0.06434869  0.16608424  0.81377974  1
  O2-  O387  1  0.05428411  0.43902594  0.12371978  1
  O2-  O388  1  0.06873615  0.42098542  0.47993741  1
  O2-  O389  1  0.05748721  0.44381532  0.80063330  1
  O2-  O390  1  0.07125955  0.66226835  0.15494053  1
  O2-  O391  1  0.07798179  0.66544639  0.46887126  1
  O2-  O392  1  0.07527291  0.68806170  0.80544275  1
  O2-  O393  1  0.10644546  0.93063747  0.15138894  1
  O2-  O394  1  0.08003565  0.91830443  0.46765558  1
  O2-  O395  1  0.10406441  0.88807216  0.81845523  1
  O2-  O396  1  0.34744446  0.17168860  0.14930067  1
  O2-  O397  1  0.32694000  0.17126731  0.48966823  1
  O2-  O398  1  0.32474918  0.16862410  0.79823513  1
  O2-  O399  1  0.35148061  0.42266059  0.14331589  1
  O2-  O400  1  0.38938088  0.43180864  0.47172946  1
  O2-  O401  1  0.33359686  0.41105705  0.80352321  1
  O2-  O402  1  0.34169676  0.66227685  0.13560921  1
  O2-  O403  1  0.32807191  0.65247886  0.47498259  1
  O2-  O404  1  0.33212363  0.67105287  0.81290643  1
  O2-  O405  1  0.35510293  0.92683152  0.15079369  1
  O2-  O406  1  0.33348052  0.92961313  0.49348766  1
  O2-  O407  1  0.32476536  0.91615511  0.80526344  1
  O2-  O408  1  0.61172296  0.19013259  0.14567085  1
  O2-  O409  1  0.57024293  0.16826688  0.47239719  1
  O2-  O410  1  0.58469075  0.16681902  0.80762082  1
  O2-  O411  1  0.58960646  0.43178105  0.14061960  1
  O2-  O412  1  0.59091078  0.42051413  0.47889401  1
  O2-  O413  1  0.58759872  0.42550058  0.81601482  1
  O2-  O414  1  0.56279753  0.68086137  0.13893592  1
  O2-  O415  1  0.64739629  0.70005519  0.46302417  1
  O2-  O416  1  0.57953063  0.66326309  0.81853770  1
  O2-  O417  1  0.60847745  0.90887363  0.15032809  1
  O2-  O418  1  0.58325742  0.91674949  0.47083831  1
  O2-  O419  1  0.57755631  0.91851293  0.80800567  1
  O2-  O420  1  0.83281819  0.16129739  0.13758063  1
  O2-  O421  1  0.82800952  0.16281145  0.48014018  1
  O2-  O422  1  0.83702929  0.16625573  0.82450909  1
  O2-  O423  1  0.83648887  0.42013202  0.15112794  1
  O2-  O424  1  0.83155934  0.41335769  0.47310713  1
  O2-  O425  1  0.82466729  0.41404218  0.81243702  1
  O2-  O426  1  0.83785969  0.67158960  0.14563606  1
  O2-  O427  1  0.84055701  0.66547520  0.51648893  1
  O2-  O428  1  0.83936617  0.67731425  0.81295087  1
  O2-  O429  1  0.84578772  0.92043414  0.15863859  1
  O2-  O430  1  0.82336193  0.91589920  0.47652141  1
  O2-  O431  1  0.85400193  0.92123083  0.81473835  1
  O2-  O432  1  0.18110570  0.09900825  0.19301053  1
  O2-  O433  1  0.15978638  0.07366733  0.51941273  1
  O2-  O434  1  0.18780257  0.14107303  0.86874873  1
  O2-  O435  1  0.19844220  0.35082857  0.19901623  1
  O2-  O436  1  0.08774160  0.29198617  0.54125137  1
  O2-  O437  1  0.19775098  0.30355325  0.86822737  1
  O2-  O438  1  0.19268332  0.52739793  0.19616750  1
  O2-  O439  1  0.16719436  0.58758116  0.51766094  1
  O2-  O440  1  0.17745477  0.55826203  0.86199818  1
  O2-  O441  1  0.18382253  0.84769758  0.16125831  1
  O2-  O442  1  0.15503640  0.83450845  0.50714058  1
  O2-  O443  1  0.14910762  0.84245622  0.83707354  1
  O2-  O444  1  0.43420975  0.09230642  0.19069564  1
  O2-  O445  1  0.40816274  0.08730965  0.52680450  1
  O2-  O446  1  0.40634166  0.08909167  0.80947043  1
  O2-  O447  1  0.42950897  0.33798093  0.18719706  1
  O2-  O448  1  0.43590094  0.33300509  0.53337043  1
  O2-  O449  1  0.41964809  0.33844384  0.83938798  1
  O2-  O450  1  0.41771963  0.58051521  0.18849972  1
  O2-  O451  1  0.41645786  0.57502954  0.52068658  1
  O2-  O452  1  0.42113347  0.61553179  0.88221244  1
  O2-  O453  1  0.42518058  0.82950472  0.18477767  1
  O2-  O454  1  0.44246238  0.79435055  0.53171160  1
  O2-  O455  1  0.41435510  0.84059142  0.84323084  1
  O2-  O456  1  0.65984095  0.06726937  0.18986866  1
  O2-  O457  1  0.65518784  0.08142162  0.50715652  1
  O2-  O458  1  0.66469915  0.08216447  0.85488672  1
  O2-  O459  1  0.67464766  0.35749255  0.18682712  1
  O2-  O460  1  0.66749323  0.32996294  0.51148855  1
  O2-  O461  1  0.65608630  0.32818261  0.84956989  1
  O2-  O462  1  0.66804399  0.59419120  0.18582578  1
  O2-  O463  1  0.66111667  0.57877865  0.53008027  1
  O2-  O464  1  0.67124134  0.58692444  0.85472793  1
  O2-  O465  1  0.67653095  0.82770503  0.19770084  1
  O2-  O466  1  0.66813825  0.84055290  0.51823795  1
  O2-  O467  1  0.66984898  0.84097696  0.83334135  1
  O2-  O468  1  0.92469061  0.09182877  0.18834201  1
  O2-  O469  1  0.90793931  0.07857487  0.52646845  1
  O2-  O470  1  0.91156824  0.07939825  0.86790631  1
  O2-  O471  1  0.90344630  0.32314780  0.18402080  1
  O2-  O472  1  0.90586750  0.33051732  0.52002614  1
  O2-  O473  1  0.90811764  0.33367870  0.85822219  1
  O2-  O474  1  0.91200317  0.58581101  0.19261887  1
  O2-  O475  1  0.91754002  0.57509198  0.51603388  1
  O2-  O476  1  0.91468235  0.58667964  0.85553854  1
  O2-  O477  1  0.89301192  0.82223998  0.21527166  1
  O2-  O478  1  0.90554342  0.82159500  0.45756457  1
  O2-  O479  1  0.93473334  0.83798882  0.86018428  1
  O2-  O480  1  0.21085045  0.05263322  0.30349449  1
  O2-  O481  1  0.14818090  0.06430390  0.63776684  1
  O2-  O482  1  0.16273555  0.09412773  0.98727064  1
  O2-  O483  1  0.16206728  0.33744940  0.36824587  1
  O2-  O484  1  0.16853972  0.33364269  0.65033639  1
  O2-  O485  1  0.17091708  0.32997981  0.98183288  1
  O2-  O486  1  0.17022732  0.58334870  0.30770476  1
  O2-  O487  1  0.16517160  0.57960302  0.64168999  1
  O2-  O488  1  0.17924226  0.59069412  0.98321095  1
  O2-  O489  1  0.16648170  0.82299711  0.30201347  1
  O2-  O490  1  0.13958269  0.80492399  0.62250001  1
  O2-  O491  1  0.06346242  0.77987158  0.94930598  1
  O2-  O492  1  0.36615654  0.05663614  0.30595681  1
  O2-  O493  1  0.40381485  0.08878938  0.64416939  1
  O2-  O494  1  0.42785287  0.09588362  1.03796132  1
  O2-  O495  1  0.42407392  0.34587471  0.31077751  1
  O2-  O496  1  0.50983538  0.32228547  0.64416878  1
  O2-  O497  1  0.43036515  0.33724276  0.96306851  1
  O2-  O498  1  0.41251059  0.57567799  0.31109583  1
  O2-  O499  1  0.40419296  0.57243935  0.64625679  1
  O2-  O500  1  0.43186668  0.68082950  0.99201150  1
  O2-  O501  1  0.42042245  0.82506830  0.30507512  1
  O2-  O502  1  0.40195358  0.82080309  0.64681643  1
  O2-  O503  1  0.40565461  0.83390894  0.96234921  1
  O2-  O504  1  0.65997801  0.08145748  0.31539856  1
  O2-  O505  1  0.63321579  0.05252123  0.63187023  1
  O2-  O506  1  0.67343238  0.09707886  0.97915686  1
  O2-  O507  1  0.67078319  0.34594413  0.31191532  1
  O2-  O508  1  0.64762103  0.30541825  0.63345513  1
  O2-  O509  1  0.63648116  0.31950959  0.97330231  1
  O2-  O510  1  0.67790701  0.59692106  0.30777463  1
  O2-  O511  1  0.66128879  0.60786387  0.65002995  1
  O2-  O512  1  0.68758258  0.58919898  0.97579400  1
  O2-  O513  1  0.66626365  0.82974460  0.31495231  1
  O2-  O514  1  0.68968229  0.81927208  0.64018709  1
  O2-  O515  1  0.66993071  0.84671362  1.01700200  1
  O2-  O516  1  0.91506750  0.09197907  0.31193500  1
  O2-  O517  1  0.92400857  0.09692396  0.64738443  1
  O2-  O518  1  0.90478382  0.07769265  0.98946313  1
  O2-  O519  1  0.90674068  0.33138505  0.30909126  1
  O2-  O520  1  0.90982116  0.33677007  0.64576397  1
  O2-  O521  1  0.93119359  0.32945288  0.98062850  1
  O2-  O522  1  0.92023265  0.59825905  0.31324332  1
  O2-  O523  1  0.93653327  0.53112792  0.62484945  1
  O2-  O524  1  0.92721924  0.58450770  0.98182531  1
  O2-  O525  1  0.89455261  0.78210692  0.33951524  1
  O2-  O526  1  0.94950587  0.85877011  0.63939742  1
  O2-  O527  1  0.92369472  0.83910202  0.98206400  1
  O2-  O528  1  0.07865593  0.17126925  0.03206083  1
  O2-  O529  1  0.07794341  0.17506334  0.35738230  1
  O2-  O530  1  0.08498754  0.17300873  0.69599913  1
  O2-  O531  1  0.09827309  0.42297402  0.01403082  1
  O2-  O532  1  0.07132607  0.42046711  0.35434304  1
  O2-  O533  1  0.08322558  0.41392256  0.68626805  1
  O2-  O534  1  0.09270353  0.66921690  0.03147831  1
  O2-  O535  1  0.08815874  0.66553162  0.34647078  1
  O2-  O536  1  0.07758078  0.65444843  0.68604666  1
  O2-  O537  1  0.09751521  0.92987287  0.03260269  1
  O2-  O538  1  0.07628280  0.89525556  0.34564315  1
  O2-  O539  1  0.09460226  0.89936627  0.69672866  1
  O2-  O540  1  0.32069469  0.17500632  0.02557626  1
  O2-  O541  1  0.34225957  0.18571352  0.36828095  1
  O2-  O542  1  0.31557189  0.14611058  0.68358808  1
  O2-  O543  1  0.33124797  0.40491415  0.01891787  1
  O2-  O544  1  0.30708811  0.40250933  0.30377510  1
  O2-  O545  1  0.33122453  0.41407703  0.69331301  1
  O2-  O546  1  0.34610661  0.62601511  0.01711644  1
  O2-  O547  1  0.33242458  0.66007369  0.34967700  1
  O2-  O548  1  0.32327646  0.65723625  0.68768089  1
  O2-  O549  1  0.33949568  0.91930870  0.03042048  1
  O2-  O550  1  0.38532491  0.93670207  0.37733787  1
  O2-  O551  1  0.32711233  0.91511975  0.68725760  1
  O2-  O552  1  0.59570443  0.17564862  0.02605340  1
  O2-  O553  1  0.57659024  0.17435940  0.35207280  1
  O2-  O554  1  0.56774014  0.15064072  0.68403720  1
  O2-  O555  1  0.58173535  0.42462872  0.01834478  1
  O2-  O556  1  0.59012979  0.43167226  0.35486811  1
  O2-  O557  1  0.64015090  0.46650663  0.70443413  1
  O2-  O558  1  0.60358762  0.66350810  0.01685681  1
  O2-  O559  1  0.57892319  0.66156910  0.34959520  1
  O2-  O560  1  0.56166689  0.66273879  0.69328428  1
  O2-  O561  1  0.57187581  0.92364181  0.01883527  1
  O2-  O562  1  0.58516002  0.91387866  0.34767349  1
  O2-  O563  1  0.56934432  0.90202214  0.68902054  1
  O2-  O564  1  0.82146150  0.15143818  0.02224972  1
  O2-  O565  1  0.82601806  0.16906735  0.35400050  1
  O2-  O566  1  0.85889205  0.18169203  0.69953080  1
  O2-  O567  1  0.87191541  0.43503412  0.02971331  1
  O2-  O568  1  0.83707547  0.42776799  0.34897056  1
  O2-  O569  1  0.80720498  0.40070219  0.68868060  1
  O2-  O570  1  0.85055649  0.67135864  0.02270454  1
  O2-  O571  1  0.84335463  0.68824514  0.34724291  1
  O2-  O572  1  0.81238184  0.73829732  0.69894466  1
  O2-  O573  1  0.83352022  0.91786359  0.03619645  1
  O2-  O574  1  0.82973270  0.93025066  0.36115209  1
  O2-  O575  1  0.80330724  0.94776278  0.70183321  1
