# generated using pymatgen
data_H2O
_symmetry_space_group_name_H-M   'P 1'
_cell_length_a   17.98540149
_cell_length_b   17.98168341
_cell_length_c   22.00591795
_cell_angle_alpha   89.98520201
_cell_angle_beta   90.01621806
_cell_angle_gamma   120.00733390
_symmetry_Int_Tables_number   1
_chemical_formula_structural   H2O
_chemical_formula_sum   'H384 O192'
_cell_volume   6162.94772982
_cell_formula_units_Z   192
loop_
 _symmetry_equiv_pos_site_id
 _symmetry_equiv_pos_as_xyz
  1  'x, y, z'
loop_
 _atom_type_symbol
 _atom_type_oxidation_number
  H+  1.0
  O2-  -2.0
loop_
 _atom_site_type_symbol
 _atom_site_label
 _atom_site_symmetry_multiplicity
 _atom_site_fract_x
 _atom_site_fract_y
 _atom_site_fract_z
 _atom_site_occupancy
  H+  H0  1  0.35712291  0.63684575  1.00508803  1
  H+  H1  1  0.84126700  0.57916947  0.84073663  1
  H+  H2  1  0.86011724  0.47654394  0.00905804  1
  H+  H3  1  0.96652218  0.08903922  0.65036851  1
  H+  H4  1  0.61736058  0.49713374  -0.01049994  1
  H+  H5  1  0.38084030  0.73336572  0.16887822  1
  H+  H6  1  0.51099834  0.13936867  0.16814938  1
  H+  H7  1  0.62295365  0.64180232  0.64472295  1
  H+  H8  1  0.90084536  0.26176489  0.86340000  1
  H+  H9  1  0.37901942  0.29507910  0.49113219  1
  H+  H10  1  0.22785944  0.86914876  0.99057716  1
  H+  H11  1  0.76056844  0.78184327  0.36741633  1
  H+  H12  1  0.11388668  -0.00670209  0.64760079  1
  H+  H13  1  0.72854220  0.85952734  0.83805924  1
  H+  H14  1  0.88762149  0.62150616  0.99629069  1
  H+  H15  1  0.72567280  0.10234975  0.49722198  1
  H+  H16  1  0.13280661  0.36292492  -0.00170833  1
  H+  H17  1  0.51738829  0.37921363  0.99085239  1
  H+  H18  1  0.78759917  0.64786405  0.16453049  1
  H+  H19  1  0.12348989  0.10030623  0.18155188  1
  H+  H20  1  0.22278608  0.60995220  0.99421216  1
  H+  H21  1  0.96954648  0.35982963  0.32867751  1
  H+  H22  1  0.34929685  0.97348841  0.16043503  1
  H+  H23  1  0.67022143  0.07295465  0.91461872  1
  H+  H24  1  0.86379384  0.21476993  0.64658361  1
  H+  H25  1  0.61443914  0.95312904  0.16028317  1
  H+  H26  1  0.54042176  0.66125287  0.47199537  1
  H+  H27  1  0.41640246  0.36913797  0.81242408  1
  H+  H28  1  0.35817085  0.72357320  0.33180670  1
  H+  H29  1  0.01411585  0.13850870  0.02449656  1
  H+  H30  1  0.36804398  0.47761394  0.15784547  1
  H+  H31  1  0.62592734  0.60128492  -0.00906886  1
  H+  H32  1  0.19999124  0.09815190  0.99840874  1
  H+  H33  1  0.86696956  0.38876130  0.67186124  1
  H+  H34  1  0.14052085  0.50996644  0.84558691  1
  H+  H35  1  0.57297075  0.17349089  0.09981899  1
  H+  H36  1  0.37892451  0.60984285  0.31620977  1
  H+  H37  1  0.86034236  0.09940472  0.17708117  1
  H+  H38  1  0.10968831  0.39147794  0.32338961  1
  H+  H39  1  0.09192533  0.96086099  0.35532017  1
  H+  H40  1  0.90482767  0.78245152  0.50871363  1
  H+  H41  1  0.52448830  0.62554539  0.15767752  1
  H+  H42  1  0.83704243  0.68453215  0.76689904  1
  H+  H43  1  0.09441295  0.91701563  0.41680960  1
  H+  H44  1  0.32405537  0.67876461  0.61212760  1
  H+  H45  1  0.10913918  0.13036553  0.65830887  1
  H+  H46  1  0.88482426  -0.02331362  0.16643345  1
  H+  H47  1  0.42036347  0.08744610  0.93621924  1
  H+  H48  1  0.80185718  0.20970072  0.15485554  1
  H+  H49  1  0.02666292  0.36270420  0.84134698  1
  H+  H50  1  0.25550578  0.62526985  0.48267741  1
  H+  H51  1  0.31005020  0.38391931  0.84486740  1
  H+  H52  1  0.86194429  0.97623014  0.01016893  1
  H+  H53  1  0.11750395  0.63616640  0.99744172  1
  H+  H54  1  0.60216549  0.83392603  0.32284828  1
  H+  H55  1  0.42431805  0.84119876  0.90171123  1
  H+  H56  1  1.01963869  0.27366526  0.43780456  1
  H+  H57  1  0.84945362  0.21608515  0.01131004  1
  H+  H58  1  0.87109626  0.47448104  0.16338046  1
  H+  H59  1  0.25561007  0.39283524  0.50059653  1
  H+  H60  1  0.62184304  0.97600139  0.83518207  1
  H+  H61  1  0.52575707  0.39110130  0.32839748  1
  H+  H62  1  0.86118995  0.37682110  0.34037846  1
  H+  H63  1  0.77604693  0.64966716  0.82545549  1
  H+  H64  1  0.48164689  0.12592095  0.66335958  1
  H+  H65  1  0.13855125  0.77610371  0.48840808  1
  H+  H66  1  0.75389020  0.12232676  0.00614357  1
  H+  H67  1  0.28320127  0.89667996  0.82788430  1
  H+  H68  1  0.11116499  0.64224379  0.33172997  1
  H+  H69  1  0.78666377  0.14640335  0.34546007  1
  H+  H70  1  0.27469337  0.39173560  0.67416365  1
  H+  H71  1  0.41331340  0.58195305  0.60772846  1
  H+  H72  1  0.10923005  0.97311184  0.02403644  1
  H+  H73  1  0.31619224  0.14973556  0.28573161  1
  H+  H74  1  0.39800389  0.61335938  0.17196632  1
  H+  H75  1  0.25143140  0.10158426  0.66501103  1
  H+  H76  1  0.53783133  0.14052023  0.32437855  1
  H+  H77  1  0.32567574  0.21521581  -0.04845982  1
  H+  H78  1  0.38209509  0.35715994  -0.01817256  1
  H+  H79  1  0.51923031  0.63064997  1.00206589  1
  H+  H80  1  0.03741461  0.89570775  0.51421223  1
  H+  H81  1  0.09938118  0.23743034  0.80872288  1
  H+  H82  1  0.98239060  0.86852772  0.83731846  1
  H+  H83  1  0.91915841  0.27983054  0.18324271  1
  H+  H84  1  0.61162791  0.38344787  -0.00812162  1
  H+  H85  1  0.40475775  0.41904036  0.27070955  1
  H+  H86  1  0.38160407  0.87529245  0.17155888  1
  H+  H87  1  0.14838843  0.61187843  0.16567226  1
  H+  H88  1  0.25920565  0.88289967  0.15762574  1
  H+  H89  1  0.11708236  -0.01882325  0.81487004  1
  H+  H90  1  0.99671424  0.85249909  0.67303213  1
  H+  H91  1  0.34784745  0.40160920  0.49322102  1
  H+  H92  1  0.13254682  0.22531736  0.17990053  1
  H+  H93  1  0.51561095  0.88336398  0.34117980  1
  H+  H94  1  -0.00103209  0.64817366  0.83397264  1
  H+  H95  1  0.37125198  -0.01387221  0.67522803  1
  H+  H96  1  0.87240973  0.11285099  1.01166160  1
  H+  H97  1  0.58051928  0.66412469  0.91582020  1
  H+  H98  1  0.37403727  0.22848943  0.80744213  1
  H+  H99  1  0.22369262  0.61812815  0.32325167  1
  H+  H100  1  0.22486668  0.60221749  0.85057005  1
  H+  H101  1  0.61372246  0.72696138  0.86037144  1
  H+  H102  1  0.12157590  0.09732676  1.03222223  1
  H+  H103  1  0.03387752  0.64881889  -0.00480904  1
  H+  H104  1  0.73869491  0.64048806  0.65721666  1
  H+  H105  1  0.32427314  0.09082896  0.33313815  1
  H+  H106  1  0.59330549  0.91350600  0.05839334  1
  H+  H107  1  0.61288044  0.72324002  0.00091636  1
  H+  H108  1  0.97779884  0.20921085  0.28443650  1
  H+  H109  1  0.62696009  0.98219336  0.67324180  1
  H+  H110  1  0.87495056  0.12289918  0.85592260  1
  H+  H111  1  0.36468880  0.97392196  0.00729812  1
  H+  H112  1  0.77758712  0.88385319  1.00997208  1
  H+  H113  1  0.13906262  0.27468906  0.65615666  1
  H+  H114  1  0.01311937  0.87895818  0.00222193  1
  H+  H115  1  0.87272326  0.38690097  0.16361704  1
  H+  H116  1  0.12080966  0.86434207  0.33225632  1
  H+  H117  1  0.53867736  0.89491068  0.67765150  1
  H+  H118  1  0.65784881  0.66053211  0.34295966  1
  H+  H119  1  0.98867302  0.60855607  0.81618229  1
  H+  H120  1  0.39476226  0.11206036  1.00032522  1
  H+  H121  1  0.62129580  0.23208046  0.33404023  1
  H+  H122  1  0.73010157  0.42756635  0.54100620  1
  H+  H123  1  0.12581539  0.60771755  0.49717902  1
  H+  H124  1  0.39716935  0.37792938  0.65659291  1
  H+  H125  1  0.13355664  0.85862509  0.66156387  1
  H+  H126  1  0.25389538  0.09145006  0.19223043  1
  H+  H127  1  0.78801778  0.38249168  0.49129226  1
  H+  H128  1  0.36565276  0.73525630  0.83871827  1
  H+  H129  1  0.89697900  0.87062266  0.99440894  1
  H+  H130  1  0.64778298  0.78376685  0.50199919  1
  H+  H131  1  0.17248510  0.58983096  0.23099312  1
  H+  H132  1  0.23408223  0.85444390  0.49369366  1
  H+  H133  1  0.86358090  0.87866536  0.82185801  1
  H+  H134  1  0.11860432  0.73122418  0.66787558  1
  H+  H135  1  0.47214471  0.56224002  0.53494628  1
  H+  H136  1  0.72961446  0.36281483  0.32817781  1
  H+  H137  1  0.77582920  0.63297258  0.34049747  1
  H+  H138  1  0.88362870  0.73522182  0.15776571  1
  H+  H139  1  0.42550455  0.07272000  0.36346469  1
  H+  H140  1  0.35130038  0.70431069  0.48740676  1
  H+  H141  1  0.84590028  0.84715390  0.67449223  1
  H+  H142  1  0.52130880  0.87389313  0.50838479  1
  H+  H143  1  0.56685198  0.41377592  0.56336145  1
  H+  H144  1  0.72596493  0.11281052  0.64561079  1
  H+  H145  1  0.10388141  0.17650484  0.11521406  1
  H+  H146  1  1.00226134  0.85492627  0.16484534  1
  H+  H147  1  0.10524056  0.22176168  1.01566909  1
  H+  H148  1  0.64344672  0.86482403  0.66073125  1
  H+  H149  1  0.32579684  0.40284340  0.06285218  1
  H+  H150  1  0.98063992  0.36230812  1.00766961  1
  H+  H151  1  0.14509785  0.13324085  0.81714040  1
  H+  H152  1  0.64400377  0.61215938  0.16877163  1
  H+  H153  1  1.02646234  0.13864278  0.80865621  1
  H+  H154  1  0.19708700  0.08678119  0.32366447  1
  H+  H155  1  0.72487615  0.36592497  -0.00713837  1
  H+  H156  1  0.89913981  0.02640469  0.49541991  1
  H+  H157  1  0.08273011  0.40871709  0.73750217  1
  H+  H158  1  0.89531696  0.00581652  0.82517703  1
  H+  H159  1  0.14201044  0.77837961  0.98718393  1
  H+  H160  1  0.63429069  0.53026337  0.51135099  1
  H+  H161  1  0.46878821  0.61062157  0.85721457  1
  H+  H162  1  0.64092241  0.86360981  0.84140944  1
  H+  H163  1  0.61840395  0.73832113  0.64354912  1
  H+  H164  1  0.91962558  0.32983260  0.24363361  1
  H+  H165  1  0.39252833  0.35938453  0.15299985  1
  H+  H166  1  0.13338126  0.52986366  0.32482007  1
  H+  H167  1  0.47992653  0.91448331  0.18403867  1
  H+  H168  1  0.11974436  0.89342433  0.82018890  1
  H+  H169  1  0.36281757  0.97679632  0.34151126  1
  H+  H170  1  0.63924172  0.01711542  0.33170141  1
  H+  H171  1  0.66803741  0.32994731  0.93174339  1
  H+  H172  1  0.36503281  0.05487527  0.50986327  1
  H+  H173  1  0.63128307  0.48917059  0.67445144  1
  H+  H174  1  0.64013935  0.10113319  0.99679179  1
  H+  H175  1  0.48529988  0.37857384  0.65501691  1
  H+  H176  1  0.10500335  0.72914530  0.33080006  1
  H+  H177  1  0.38357356  0.51498906  1.00071834  1
  H+  H178  1  0.89386205  0.77864017  0.84048573  1
  H+  H179  1  0.12354472  0.12981115  0.53543164  1
  H+  H180  1  0.20920861  0.88101737  0.30415603  1
  H+  H181  1  0.89027738  0.11012995  0.50149803  1
  H+  H182  1  0.61747073  0.97568219  0.49843527  1
  H+  H183  1  0.26712914  0.37735170  0.00302640  1
  H+  H184  1  0.22639405  0.86714784  0.66666606  1
  H+  H185  1  0.12924015  0.89783733  0.50740150  1
  H+  H186  1  0.48504525  0.86861110  -0.00733500  1
  H+  H187  1  0.73506510  0.36481374  0.66917428  1
  H+  H188  1  0.53034662  0.38517450  0.14713350  1
  H+  H189  1  0.90543110  0.87062730  0.51003403  1
  H+  H190  1  0.78872003  0.12426887  0.87101138  1
  H+  H191  1  0.89418415  0.35622898  0.50510817  1
  H+  H192  1  0.62416122  0.88229803  0.50140263  1
  H+  H193  1  0.84964471  0.20986709  0.49777685  1
  H+  H194  1  0.78035414  0.64279988  0.49513451  1
  H+  H195  1  0.92094392  0.86793402  0.16912459  1
  H+  H196  1  0.49863418  0.36426807  0.82859257  1
  H+  H197  1  0.87270869  0.77194846  0.34047249  1
  H+  H198  1  0.86848211  0.37621170  0.83088567  1
  H+  H199  1  0.63924546  0.37434327  0.51552763  1
  H+  H200  1  0.60758248  0.21113935  0.48764167  1
  H+  H201  1  0.10486547  0.46985614  0.67813634  1
  H+  H202  1  0.46659104  0.11851058  0.50027046  1
  H+  H203  1  0.22255364  0.37263048  0.30911309  1
  H+  H204  1  0.73004845  0.36070420  0.17004754  1
  H+  H205  1  0.34265364  0.48268126  0.83424530  1
  H+  H206  1  0.30823705  0.12522022  -0.07283542  1
  H+  H207  1  0.38870570  0.11348913  0.83715099  1
  H+  H208  1  0.36783642  0.51898408  0.32650692  1
  H+  H209  1  0.39567166  0.78977726  0.66370705  1
  H+  H210  1  0.85970071  0.94498461  0.66384807  1
  H+  H211  1  0.12011236  0.60342626  0.65538916  1
  H+  H212  1  0.14532489  0.65368729  0.81770576  1
  H+  H213  1  1.02942062  0.62411381  0.14070541  1
  H+  H214  1  0.64622925  0.76059691  0.17667408  1
  H+  H215  1  0.76346817  0.59985871  1.02054726  1
  H+  H216  1  0.26729727  0.84774688  0.36100992  1
  H+  H217  1  0.35699234  0.12036039  0.66514988  1
  H+  H218  1  0.15275076  0.37305207  0.20505359  1
  H+  H219  1  0.63384435  0.73974012  0.33790904  1
  H+  H220  1  0.34315885  0.19805428  0.18483526  1
  H+  H221  1  0.63185780  0.09676018  0.49424184  1
  H+  H222  1  1.03323452  0.15692127  0.33652520  1
  H+  H223  1  0.61144967  0.13584217  0.67342166  1
  H+  H224  1  0.11595967  0.47542723  0.01919843  1
  H+  H225  1  0.64539865  0.10820902  0.32556408  1
  H+  H226  1  0.87888150  0.26407080  0.33732929  1
  H+  H227  1  0.85741834  0.12152699  0.64461863  1
  H+  H228  1  0.52303267  0.63833987  0.65092215  1
  H+  H229  1  0.88472541  0.53637339  0.66538412  1
  H+  H230  1  0.14595639  0.33391962  0.93304700  1
  H+  H231  1  0.88488610  0.61162118  0.50728948  1
  H+  H232  1  0.04511783  0.39343621  0.17804783  1
  H+  H233  1  0.53961178  0.85540819  0.14894609  1
  H+  H234  1  0.84541227  0.45276481  0.83332603  1
  H+  H235  1  0.11188703  0.88192550  0.00338385  1
  H+  H236  1  0.52642883  0.13137672  0.83242348  1
  H+  H237  1  0.62820562  0.39772823  0.67548356  1
  H+  H238  1  0.11666122  0.10469422  0.32775220  1
  H+  H239  1  0.89024496  0.62115798  0.17065065  1
  H+  H240  1  0.65064733  0.52736154  0.16775692  1
  H+  H241  1  0.97523045  0.60909596  0.32809250  1
  H+  H242  1  0.48169652  0.86625043  0.84095128  1
  H+  H243  1  0.86579550  0.63566001  0.34491936  1
  H+  H244  1  0.38010753  0.85381912  0.33267169  1
  H+  H245  1  0.40146217  0.84756977  0.50838236  1
  H+  H246  1  0.37206315  0.89461911  0.83030723  1
  H+  H247  1  0.13780174  1.00604573  0.55007638  1
  H+  H248  1  0.91074392  0.05867651  0.59074151  1
  H+  H249  1  0.58307601  0.65679226  0.09758396  1
  H+  H250  1  0.13390894  0.76556848  0.16243619  1
  H+  H251  1  0.13659511  0.36243617  0.66468861  1
  H+  H252  1  0.12613337  0.05147277  0.25129697  1
  H+  H253  1  0.39390002  0.86666907  -0.00537352  1
  H+  H254  1  0.78947177  0.89511658  0.49178525  1
  H+  H255  1  0.16254217  0.78910770  0.82919790  1
  H+  H256  1  0.89081888  0.52449109  0.50765943  1
  H+  H257  1  0.62902059  0.38758043  0.82723662  1
  H+  H258  1  0.36996947  0.17059568  0.47410935  1
  H+  H259  1  0.09361772  0.33307297  0.48308306  1
  H+  H260  1  0.14382366  0.26132797  0.52074548  1
  H+  H261  1  0.72925131  0.85374507  0.65916310  1
  H+  H262  1  0.63541646  0.26347329  0.84174047  1
  H+  H263  1  0.18654554  0.11349659  0.87428381  1
  H+  H264  1  0.61129493  0.38768405  0.33382541  1
  H+  H265  1  0.69761106  0.08164376  0.17185302  1
  H+  H266  1  0.34216609  0.39177352  0.35833562  1
  H+  H267  1  0.38817628  1.02443583  0.84411296  1
  H+  H268  1  0.87225505  0.66935809  0.67060258  1
  H+  H269  1  0.63781838  0.86087047  0.99472034  1
  H+  H270  1  0.63398388  0.60888971  0.85527269  1
  H+  H271  1  0.86346705  0.46805224  0.34512190  1
  H+  H272  1  0.65042038  0.10652866  0.85049897  1
  H+  H273  1  0.38521162  0.94763320  0.48925573  1
  H+  H274  1  0.64344000  0.52364601  0.84231408  1
  H+  H275  1  0.89358613  0.36521916  -0.00001006  1
  H+  H276  1  0.52820421  0.14127179  0.01147022  1
  H+  H277  1  0.38846555  0.53044141  0.67090871  1
  H+  H278  1  0.92753920  0.84353962  0.93334945  1
  H+  H279  1  0.60813852  0.23667711  0.16359729  1
  H+  H280  1  0.62406325  -0.01988560  1.00097370  1
  H+  H281  1  0.18951902  0.38139132  0.83178130  1
  H+  H282  1  0.38436377  0.11050317  0.19932768  1
  H+  H283  1  0.61485378  0.23246299  1.01276291  1
  H+  H284  1  0.20595121  0.59989425  0.65339723  1
  H+  H285  1  0.27855783  0.14581186  0.81049541  1
  H+  H286  1  0.97408588  0.35745271  0.66273044  1
  H+  H287  1  0.64013249  0.52473756  0.32266469  1
  H+  H288  1  0.84584818  0.89846798  0.43554098  1
  H+  H289  1  0.40655007  0.57439326  0.94223789  1
  H+  H290  1  0.59511366  0.92204503  0.77237724  1
  H+  H291  1  0.95210513  0.68655890  0.94720841  1
  H+  H292  1  0.07867788  0.39728318  0.38935880  1
  H+  H293  1  0.51037320  0.39198740  0.50630436  1
  H+  H294  1  0.58443365  0.15876038  0.77285257  1
  H+  H295  1  0.67290107  0.33581370  0.26683327  1
  H+  H296  1  0.33596674  0.18772869  0.41227788  1
  H+  H297  1  0.32003830  0.14969995  0.72615442  1
  H+  H298  1  0.30363357  0.42348132  0.40982503  1
  H+  H299  1  0.87323617  0.56067344  0.90153223  1
  H+  H300  1  0.79373618  0.17208218  0.74193508  1
  H+  H301  1  0.07174389  0.09042770  0.92890958  1
  H+  H302  1  0.14815547  0.56921530  0.55427539  1
  H+  H303  1  0.63042901  0.80147544  0.26253308  1
  H+  H304  1  0.34265671  0.88768070  0.42786624  1
  H+  H305  1  0.41942616  0.34123553  0.91888225  1
  H+  H306  1  0.60397167  0.42477804  0.76811637  1
  H+  H307  1  0.86097671  0.91948587  0.10695306  1
  H+  H308  1  0.59358001  0.41768019  0.09112798  1
  H+  H309  1  0.96010049  0.05242776  0.87904665  1
  H+  H310  1  0.64373959  0.36735459  0.16723680  1
  H+  H311  1  0.83822586  0.66838686  0.43575680  1
  H+  H312  1  0.83012781  0.16517525  0.43083118  1
  H+  H313  1  0.66379343  0.57242049  0.93011459  1
  H+  H314  1  0.91321422  0.59020060  0.60416534  1
  H+  H315  1  0.42868850  0.33749619  0.20996121  1
  H+  H316  1  0.67352182  0.33446234  0.61112015  1
  H+  H317  1  0.67233085  0.83322271  0.93733797  1
  H+  H318  1  0.34063332  0.32097862  0.27882424  1
  H+  H319  1  0.67664754  0.84114966  0.56389832  1
  H+  H320  1  0.41673302  0.83909940  0.26892564  1
  H+  H321  1  0.40232573  0.88175388  0.66655752  1
  H+  H322  1  0.67620557  0.58616382  0.26387128  1
  H+  H323  1  0.28192799  0.38854598  0.16823153  1
  H+  H324  1  0.82899072  0.90047268  0.76031303  1
  H+  H325  1  0.64250263  0.62349261  0.50316836  1
  H+  H326  1  0.90731012  0.09355490  0.23538583  1
  H+  H327  1  0.92087567  0.33343781  0.60024331  1
  H+  H328  1  0.29323831  0.64565380  0.16666374  1
  H+  H329  1  0.32578840  0.41960341  0.73618311  1
  H+  H330  1  0.34556780  0.92917826  0.73583296  1
  H+  H331  1  0.42456559  0.10087493  0.60140605  1
  H+  H332  1  0.34936475  0.17943603  0.06717263  1
  H+  H333  1  0.72783328  0.34811581  0.84032789  1
  H+  H334  1  0.36168705  0.72705291  -0.00376048  1
  H+  H335  1  0.41847165  0.57458782  0.23023224  1
  H+  H336  1  0.38316927  0.61772743  0.84891151  1
  H+  H337  1  0.96833846  0.33165116  0.50087390  1
  H+  H338  1  0.34712345  0.13686899  0.07200735  1
  H+  H339  1  0.57693965  0.16052364  0.42564481  1
  H+  H340  1  0.32251479  0.66030906  0.38972610  1
  H+  H341  1  0.83857454  0.41285430  0.73405253  1
  H+  H342  1  0.90083876  0.16251143  0.33272922  1
  H+  H343  1  0.13405930  0.48199784  0.17249569  1
  H+  H344  1  0.43543736  0.83798228  0.57485145  1
  H+  H345  1  0.16199297  0.33483079  0.56999286  1
  H+  H346  1  0.97073147  0.63641934  0.20983728  1
  H+  H347  1  0.37859141  0.52868455  0.51384955  1
  H+  H348  1  0.84472603  0.41245530  0.43207061  1
  H+  H349  1  0.01820452  0.63879612  0.49002469  1
  H+  H350  1  0.08226903  0.16557534  0.71561491  1
  H+  H351  1  0.04898275  0.04217496  0.92665317  1
  H+  H352  1  0.06508547  0.90290542  0.72593989  1
  H+  H353  1  0.90376971  0.10048951  0.94975629  1
  H+  H354  1  0.62188672  0.68422052  0.75282461  1
  H+  H355  1  0.15632285  0.56728543  0.93973913  1
  H+  H356  1  0.02537233  0.64643268  0.67306780  1
  H+  H357  1  0.32773544  0.91366589  0.06568484  1
  H+  H358  1  0.14576734  0.82576717  0.21886984  1
  H+  H359  1  0.93333592  0.33649559  0.90996795  1
  H+  H360  1  0.17231647  0.84075985  0.89198077  1
  H+  H361  1  0.90122782  0.56506847  0.27706336  1
  H+  H362  1  0.80782202  0.15812643  0.09727825  1
  H+  H363  1  0.65275315  0.07649791  0.59710862  1
  H+  H364  1  0.57509597  0.90665073  0.40042395  1
  H+  H365  1  0.36029598  0.64219263  0.66062447  1
  H+  H366  1  0.04097394  0.13290217  0.51231657  1
  H+  H367  1  0.42401125  0.06639912  0.24078606  1
  H+  H368  1  0.09448839  0.66460684  0.08584981  1
  H+  H369  1  0.79836979  0.17903833  0.77576678  1
  H+  H370  1  0.12584532  0.68719341  0.75582980  1
  H+  H371  1  0.65617179  0.85197299  0.17304934  1
  H+  H372  1  0.32906225  0.67364756  0.78176255  1
  H+  H373  1  0.12752694  0.22874040  0.32526862  1
  H+  H374  1  0.07205218  0.66428794  0.42753091  1
  H+  H375  1  0.58335270  0.69000247  0.75349058  1
  H+  H376  1  0.83436585  0.41850819  0.06787154  1
  H+  H377  1  0.40509389  0.34481839  0.55648533  1
  H+  H378  1  0.65228982  0.05016010  0.23541836  1
  H+  H379  1  0.68178834  0.59808638  0.59631617  1
  H+  H380  1  0.82589267  0.63098408  0.07835985  1
  H+  H381  1  0.61638512  0.22698761  0.68001516  1
  H+  H382  1  0.62336197  0.69386607  0.42714763  1
  H+  H383  1  0.09537759  0.41638827  0.07922493  1
  O2-  O384  1  0.13077459  0.17900645  0.15530840  1
  O2-  O385  1  0.10451742  0.16313707  0.51079416  1
  O2-  O386  1  0.08598190  0.18004529  0.79386741  1
  O2-  O387  1  0.10534888  0.41808123  0.16402698  1
  O2-  O388  1  0.04814760  0.33165388  0.45467861  1
  O2-  O389  1  0.08857162  0.39388834  0.82298349  1
  O2-  O390  1  0.09106359  0.65772638  0.13148071  1
  O2-  O391  1  0.07716389  0.66620490  0.47250903  1
  O2-  O392  1  0.15770680  0.70578913  0.79510988  1
  O2-  O393  1  0.18314806  1.02831316  0.17579359  1
  O2-  O394  1  0.10160003  0.93467028  0.50699227  1
  O2-  O395  1  0.08464368  0.91917363  0.80552328  1
  O2-  O396  1  0.32397530  0.14534021  0.20843786  1
  O2-  O397  1  0.34499525  0.20280436  0.45566131  1
  O2-  O398  1  0.33898433  0.16673986  0.79576057  1
  O2-  O399  1  0.33520863  0.41522172  0.14400374  1
  O2-  O400  1  0.31494147  0.43137591  0.48283327  1
  O2-  O401  1  0.30246233  0.42279214  0.81809131  1
  O2-  O402  1  0.35496642  0.67345805  0.15599889  1
  O2-  O403  1  0.31505313  0.65152070  0.46498126  1
  O2-  O404  1  0.33399896  0.67246579  0.82581322  1
  O2-  O405  1  0.32168006  0.91457030  0.14363181  1
  O2-  O406  1  0.35111000  0.88774375  0.47745292  1
  O2-  O407  1  0.34520467  0.92827649  0.81487387  1
  O2-  O408  1  0.57113721  0.17519527  0.14754404  1
  O2-  O409  1  0.57114438  0.15359008  0.47110669  1
  O2-  O410  1  0.58685477  0.16043446  0.81813010  1
  O2-  O411  1  0.59313860  0.41631497  0.13595696  1
  O2-  O412  1  0.57278521  0.41747838  0.51909851  1
  O2-  O413  1  0.60030802  0.42070218  0.81363021  1
  O2-  O414  1  0.58536030  0.65381001  0.14205551  1
  O2-  O415  1  0.60287315  0.68657164  0.47244478  1
  O2-  O416  1  0.58037876  0.66360086  0.87110887  1
  O2-  O417  1  0.59727336  0.89819501  0.13602880  1
  O2-  O418  1  0.58565704  0.90932802  0.48838408  1
  O2-  O419  1  0.58918756  0.91591142  0.81733547  1
  O2-  O420  1  0.80284006  0.15771381  0.14415853  1
  O2-  O421  1  0.82157022  0.15241558  0.47786517  1
  O2-  O422  1  0.85216615  0.15463753  0.87818565  1
  O2-  O423  1  0.84068023  0.41491240  0.14783355  1
  O2-  O424  1  0.84825180  0.41483123  0.47796620  1
  O2-  O425  1  0.83169082  0.39713905  0.81302625  1
  O2-  O426  1  0.84627715  0.67040945  0.14720709  1
  O2-  O427  1  0.84059203  0.66799470  0.48129899  1
  O2-  O428  1  0.83644994  0.67671803  0.81191241  1
  O2-  O429  1  0.87874105  0.92282483  0.14950998  1
  O2-  O430  1  0.84934718  0.92157750  0.47740650  1
  O2-  O431  1  0.83187628  0.90737306  0.80579294  1
  O2-  O432  1  0.11685125  0.04401277  0.20170388  1
  O2-  O433  1  0.16871221  0.06765393  0.57254423  1
  O2-  O434  1  0.17600236  0.10248965  0.83052121  1
  O2-  O435  1  0.18532912  0.34500939  0.22222833  1
  O2-  O436  1  0.16169236  0.32503768  0.52523680  1
  O2-  O437  1  0.12872443  0.34429557  0.84566291  1
  O2-  O438  1  0.17919152  0.58562712  0.18602502  1
  O2-  O439  1  0.15539130  0.57591795  0.50989024  1
  O2-  O440  1  0.16295151  0.56898513  0.86113162  1
  O2-  O441  1  0.15830681  0.82616727  0.17522538  1
  O2-  O442  1  0.17368619  0.83965151  0.49162170  1
  O2-  O443  1  0.17780806  0.84711708  0.84703596  1
  O2-  O444  1  0.42341650  0.08244024  0.19794816  1
  O2-  O445  1  0.41418010  0.10928754  0.52262382  1
  O2-  O446  1  0.41572977  0.08563373  0.86004500  1
  O2-  O447  1  0.42507915  0.33018717  0.16547213  1
  O2-  O448  1  0.40605653  0.35306051  0.51145983  1
  O2-  O449  1  0.43410077  0.33505068  0.83649624  1
  O2-  O450  1  0.42295660  0.57607772  0.18422641  1
  O2-  O451  1  0.42869944  0.57946112  0.53408481  1
  O2-  O452  1  0.40517017  0.57905554  0.86269126  1
  O2-  O453  1  0.42531106  0.86093226  0.18819310  1
  O2-  O454  1  0.43827707  0.82705349  0.53029043  1
  O2-  O455  1  0.42089774  0.83813386  0.85577865  1
  O2-  O456  1  0.64130896  0.04171227  0.19074460  1
  O2-  O457  1  0.66192903  0.06813807  0.51140162  1
  O2-  O458  1  0.67503483  0.07240145  0.86679721  1
  O2-  O459  1  0.66929221  0.33310065  0.18445958  1
  O2-  O460  1  0.68895784  0.36827611  0.52964045  1
  O2-  O461  1  0.66764127  0.32515116  0.85567040  1
  O2-  O462  1  0.67854574  0.58630936  0.18458984  1
  O2-  O463  1  0.67048544  0.59244777  0.52102240  1
  O2-  O464  1  0.66992256  0.58135875  0.86268384  1
  O2-  O465  1  0.67303493  0.81672358  0.19747864  1
  O2-  O466  1  0.67538453  0.84449960  0.51843909  1
  O2-  O467  1  0.67063598  0.83275689  0.85745298  1
  O2-  O468  1  0.89664037  0.07689332  0.19201590  1
  O2-  O469  1  0.92468098  0.08391532  0.51558214  1
  O2-  O470  1  0.93610155  0.06469304  0.84312662  1
  O2-  O471  1  0.92986279  0.33598041  0.19723397  1
  O2-  O472  1  0.91510774  0.31917343  0.52324022  1
  O2-  O473  1  0.93267176  0.32651977  0.86502311  1
  O2-  O474  1  0.92275241  0.59112270  0.18717420  1
  O2-  O475  1  0.91619251  0.58316584  0.52497512  1
  O2-  O476  1  0.83569970  0.53158481  0.86636332  1
  O2-  O477  1  0.94300285  0.82688682  0.17869778  1
  O2-  O478  1  0.93614290  0.84146111  0.52498970  1
  O2-  O479  1  0.92301642  0.83985948  0.85470816  1
  O2-  O480  1  0.13426622  0.06097031  0.31366678  1
  O2-  O481  1  0.15510449  0.05706003  0.63895308  1
  O2-  O482  1  0.15392390  0.06611746  1.02831202  1
  O2-  O483  1  0.16560455  0.33833014  0.28801325  1
  O2-  O484  1  0.17133012  0.33772783  0.64769847  1
  O2-  O485  1  0.15860734  0.33197753  0.97653240  1
  O2-  O486  1  0.16180353  0.58933556  0.30843525  1
  O2-  O487  1  0.14477126  0.56620712  0.64242512  1
  O2-  O488  1  0.15873461  0.57390894  0.98490508  1
  O2-  O489  1  0.14856210  0.83743956  0.30549773  1
  O2-  O490  1  0.16794501  0.83159664  0.65040051  1
  O2-  O491  1  0.16761735  0.84004933  0.97433156  1
  O2-  O492  1  0.39308600  0.04173864  0.32759710  1
  O2-  O493  1  0.42098145  0.09577168  0.64654806  1
  O2-  O494  1  0.42456791  0.08480044  0.98185687  1
  O2-  O495  1  0.40001699  0.36581139  0.28621407  1
  O2-  O496  1  0.42902309  0.35454539  0.63461441  1
  O2-  O497  1  0.41322897  0.32936341  0.96321926  1
  O2-  O498  1  0.40315897  0.57290204  0.30399207  1
  O2-  O499  1  0.41870019  0.59024292  0.65339962  1
  O2-  O500  1  0.41546488  0.57615791  0.98707514  1
  O2-  O501  1  0.41676837  0.83064166  0.31340827  1
  O2-  O502  1  0.43293532  0.85082246  0.65198004  1
  O2-  O503  1  0.42430231  0.83847083  0.97674975  1
  O2-  O504  1  0.67282445  0.07520876  0.31255596  1
  O2-  O505  1  0.66038076  0.08253096  0.64167669  1
  O2-  O506  1  0.67231461  0.07426748  0.98197809  1
  O2-  O507  1  0.66909842  0.33255762  0.31190347  1
  O2-  O508  1  0.67230549  0.33459092  0.65606399  1
  O2-  O509  1  0.66458918  0.33478612  0.97738707  1
  O2-  O510  1  0.67663532  0.58591902  0.30924822  1
  O2-  O511  1  0.67844393  0.60155121  0.64199709  1
  O2-  O512  1  0.65413971  0.56623653  0.97737141  1
  O2-  O513  1  0.60002603  0.78346006  0.30338723  1
  O2-  O514  1  0.66873403  0.83132484  0.64146141  1
  O2-  O515  1  0.66656958  0.82669726  0.98241441  1
  O2-  O516  1  0.94651715  0.15486522  0.30611882  1
  O2-  O517  1  0.90672680  0.05139331  0.63621894  1
  O2-  O518  1  0.90776257  0.08853995  0.99270176  1
  O2-  O519  1  0.90890239  0.32716300  0.31455032  1
  O2-  O520  1  0.91513465  0.33201599  0.64561512  1
  O2-  O521  1  0.92306021  0.33361954  0.98766431  1
  O2-  O522  1  0.91083520  0.57281691  0.32113045  1
  O2-  O523  1  0.91180653  0.59580471  0.64938025  1
  O2-  O524  1  0.93506945  0.63112377  0.96595048  1
  O2-  O525  1  0.87860829  0.82943685  0.33169357  1
  O2-  O526  1  0.88802879  0.78676897  0.66471552  1
  O2-  O527  1  0.93010859  0.84312596  0.97870156  1
  O2-  O528  1  0.07516026  0.16672931  0.03805317  1
  O2-  O529  1  0.09409724  0.17372166  0.34667119  1
  O2-  O530  1  0.08054302  0.16278854  0.67039975  1
  O2-  O531  1  0.08777577  0.41448205  0.03440596  1
  O2-  O532  1  0.08200658  0.41793178  0.34678786  1
  O2-  O533  1  0.08038422  0.40891823  0.69268244  1
  O2-  O534  1  0.09360628  0.67405540  0.01091483  1
  O2-  O535  1  0.07634752  0.66876436  0.34573288  1
  O2-  O536  1  0.08711200  0.66892185  0.68194760  1
  O2-  O537  1  0.07617948  0.90518297  0.02242963  1
  O2-  O538  1  0.08103398  0.90583039  0.37322645  1
  O2-  O539  1  0.05890712  0.89649687  0.68101866  1
  O2-  O540  1  0.27957048  0.15634429  -0.05981952  1
  O2-  O541  1  0.30390319  0.13269611  0.32982725  1
  O2-  O542  1  0.31349919  0.13903325  0.68003595  1
  O2-  O543  1  0.32778802  0.40368795  0.01749720  1
  O2-  O544  1  0.30461095  0.41607474  0.36398152  1
  O2-  O545  1  0.33437217  0.42376723  0.69166601  1
  O2-  O546  1  0.32286516  0.66564306  0.00614557  1
  O2-  O547  1  0.32335588  0.66174995  0.34385617  1
  O2-  O548  1  0.32863684  0.67471495  0.65610748  1
  O2-  O549  1  0.33057583  0.91307640  0.02009018  1
  O2-  O550  1  0.32827562  0.88848608  0.36599639  1
  O2-  O551  1  0.34481570  0.92638807  0.69038465  1
  O2-  O552  1  0.58442868  0.17471506  0.03266609  1
  O2-  O553  1  0.59011481  0.17007536  0.34873561  1
  O2-  O554  1  0.58114023  0.16496377  0.69130406  1
  O2-  O555  1  0.57871162  0.41340735  0.00533624  1
  O2-  O556  1  0.58310631  0.42075976  0.34619597  1
  O2-  O557  1  0.59822624  0.42916568  0.68933794  1
  O2-  O558  1  0.58393028  0.65834649  0.00625355  1
  O2-  O559  1  0.66100043  0.71055263  0.36517719  1
  O2-  O560  1  0.58572910  0.67088914  0.63748400  1
  O2-  O561  1  0.58984768  0.91521688  0.01326640  1
  O2-  O562  1  0.57710990  0.91297880  0.35608284  1
  O2-  O563  1  0.60037533  0.92203412  0.68965329  1
  O2-  O564  1  0.81729000  0.15737648  0.02822391  1
  O2-  O565  1  0.84324904  0.18326719  0.36418843  1
  O2-  O566  1  0.82522171  0.15244169  0.64024125  1
  O2-  O567  1  0.83046921  0.41679321  0.02251169  1
  O2-  O568  1  0.83022259  0.40648551  0.35780300  1
  O2-  O569  1  0.83660629  0.41827489  0.68892426  1
  O2-  O570  1  0.81071548  0.59630112  0.03965402  1
  O2-  O571  1  0.83501587  0.66567435  0.35853801  1
  O2-  O572  1  0.83961925  0.69653378  0.68748978  1
  O2-  O573  1  0.83945692  0.91494144  0.02109349  1
  O2-  O574  1  0.82040904  0.83203878  0.37637364  1
  O2-  O575  1  0.82243853  0.88780717  0.68359376  1
