# generated using pymatgen
data_H2O
_symmetry_space_group_name_H-M   'P 1'
_cell_length_a   17.99293957
_cell_length_b   17.98856840
_cell_length_c   22.00976811
_cell_angle_alpha   90.00395573
_cell_angle_beta   89.99712263
_cell_angle_gamma   119.98020131
_symmetry_Int_Tables_number   1
_chemical_formula_structural   H2O
_chemical_formula_sum   'H384 O192'
_cell_volume   6170.65733469
_cell_formula_units_Z   192
loop_
 _symmetry_equiv_pos_site_id
 _symmetry_equiv_pos_as_xyz
  1  'x, y, z'
loop_
 _atom_type_symbol
 _atom_type_oxidation_number
  H+  1.0
  O2-  -2.0
loop_
 _atom_site_type_symbol
 _atom_site_label
 _atom_site_symmetry_multiplicity
 _atom_site_fract_x
 _atom_site_fract_y
 _atom_site_fract_z
 _atom_site_occupancy
  H+  H0  1  0.38726181  0.27723290  0.84168898  1
  H+  H1  1  0.72389108  0.11557864  0.33716626  1
  H+  H2  1  0.37305403  0.89023280  0.82213373  1
  H+  H3  1  0.61993139  0.25446552  0.50944431  1
  H+  H4  1  0.77866395  0.39099024  0.66848213  1
  H+  H5  1  0.10968528  0.63289652  0.81777349  1
  H+  H6  1  0.35885058  0.20840469  0.16301806  1
  H+  H7  1  0.84416565  0.90868668  0.43480868  1
  H+  H8  1  0.89490832  0.85793020  0.51110475  1
  H+  H9  1  0.88925367  0.61977708  0.98316361  1
  H+  H10  1  0.37744283  0.88050729  0.02509521  1
  H+  H11  1  0.47573283  0.60929379  0.49817832  1
  H+  H12  1  0.35775142  0.64112187  0.16460167  1
  H+  H13  1  0.51718125  0.13448683  0.16916928  1
  H+  H14  1  0.82449427  0.16139042  0.73556704  1
  H+  H15  1  0.23343686  0.87129525  0.66982057  1
  H+  H16  1  -0.01680175  0.11953797  0.00040634  1
  H+  H17  1  0.86147499  0.23020669  -0.00506478  1
  H+  H18  1  0.86076608  0.72734102  0.81763889  1
  H+  H19  1  0.61656839  0.13654005  0.65392177  1
  H+  H20  1  0.08552954  0.46645399  0.15814479  1
  H+  H21  1  0.13256548  0.11437002  0.83305638  1
  H+  H22  1  0.60011543  0.36612506  0.16341475  1
  H+  H23  1  0.18440988  0.17168047  0.66128755  1
  H+  H24  1  0.05025782  0.90144349  0.64259903  1
  H+  H25  1  -0.02608361  0.61441389  0.82652888  1
  H+  H26  1  0.10294195  0.24159861  0.16473424  1
  H+  H27  1  0.72252647  0.12118082  0.82796512  1
  H+  H28  1  0.22684713  0.39082929  0.17424478  1
  H+  H29  1  0.95132343  0.49280709  0.54366872  1
  H+  H30  1  0.53251689  0.15346113  0.01538232  1
  H+  H31  1  0.87930031  0.64197205  0.16094805  1
  H+  H32  1  0.13108565  0.77171848  0.16829771  1
  H+  H33  1  1.01568532  0.63637264  0.16022570  1
  H+  H34  1  0.08730057  0.18070159  0.06739371  1
  H+  H35  1  0.51588774  0.62961944  0.34480090  1
  H+  H36  1  -0.03512146  0.37024678  0.33842349  1
  H+  H37  1  0.28527610  0.33671534  0.69521581  1
  H+  H38  1  0.73453814  0.84597775  0.50545138  1
  H+  H39  1  0.60469136  0.72392929  0.16991046  1
  H+  H40  1  0.87733339  0.35155276  0.49789123  1
  H+  H41  1  0.47770423  0.61805489  0.83416675  1
  H+  H42  1  1.01856238  0.63612437  1.00103821  1
  H+  H43  1  0.81088163  0.67429604  0.16831879  1
  H+  H44  1  0.52558006  0.89841239  0.80197686  1
  H+  H45  1  0.90229725  0.87718192  0.32674456  1
  H+  H46  1  0.61753411  0.84062487  0.65385158  1
  H+  H47  1  1.02844244  0.64624264  0.66740780  1
  H+  H48  1  0.12876169  0.28016340  0.82950174  1
  H+  H49  1  0.40004288  0.28297030  0.65148903  1
  H+  H50  1  0.97264601  0.36123383  0.99346043  1
  H+  H51  1  0.48280957  0.05061200  0.95722171  1
  H+  H52  1  0.11071239  0.38290471  0.35121673  1
  H+  H53  1  1.02101906  0.13027630  0.68599030  1
  H+  H54  1  0.12937088  0.52248083  0.98704419  1
  H+  H55  1  0.85587607  0.22536362  0.33971451  1
  H+  H56  1  0.88482969  0.36376658  0.99250603  1
  H+  H57  1  0.39463368  0.64695028  -0.01590949  1
  H+  H58  1  0.87714023  0.89535792  0.17492108  1
  H+  H59  1  0.22756592  0.35582195  0.49317370  1
  H+  H60  1  0.45710620  0.59330083  0.64790334  1
  H+  H61  1  0.76210247  0.89601714  0.82579946  1
  H+  H62  1  0.26246843  0.64964064  0.48975871  1
  H+  H63  1  0.37378588  0.76807011  0.65410854  1
  H+  H64  1  0.90748762  0.79220485  0.32832356  1
  H+  H65  1  0.78035915  0.88358475  0.34369208  1
  H+  H66  1  0.57166331  0.82815255  0.03344676  1
  H+  H67  1  0.34507333  0.40731243  0.12531284  1
  H+  H68  1  0.86429631  0.84831401  0.67034727  1
  H+  H69  1  0.40186647  0.37151991  0.65963943  1
  H+  H70  1  0.49458386  0.11618717  0.64993899  1
  H+  H71  1  0.70347654  0.39900475  0.35429892  1
  H+  H72  1  0.35576766  0.11995249  0.16327983  1
  H+  H73  1  0.48856130  0.83521699  0.04520609  1
  H+  H74  1  0.89224410  1.03138263  0.84739288  1
  H+  H75  1  0.36121313  0.63457619  0.81179996  1
  H+  H76  1  0.60392957  0.13881402  0.80310960  1
  H+  H77  1  0.22400294  0.10662242  0.49145462  1
  H+  H78  1  0.84453690  0.21242084  0.67350334  1
  H+  H79  1  0.36207300  0.13809899  1.00675092  1
  H+  H80  1  0.63291024  0.51606593  0.66116506  1
  H+  H81  1  0.33607475  0.41238918  0.74215027  1
  H+  H82  1  0.51920341  0.56941016  0.71681559  1
  H+  H83  1  0.72755476  0.61312483  0.83652218  1
  H+  H84  1  0.87680787  0.35489785  0.65525690  1
  H+  H85  1  0.37692823  0.77539156  0.50296194  1
  H+  H86  1  0.94724839  0.84339670  0.68984315  1
  H+  H87  1  1.02536251  0.39086019  0.50158362  1
  H+  H88  1  0.71872751  0.11618795  0.19014645  1
  H+  H89  1  0.85108854  0.37869048  0.17832962  1
  H+  H90  1  0.61795546  0.98145298  0.01100020  1
  H+  H91  1  0.86878427  0.47320992  0.82218958  1
  H+  H92  1  0.03396708  0.17170526  0.66919001  1
  H+  H93  1  0.01867260  0.13958449  0.83292899  1
  H+  H94  1  0.15628146  0.30754385  0.63776565  1
  H+  H95  1  0.67051733  0.81558438  0.56241206  1
  H+  H96  1  0.61863725  0.26786580  0.18487661  1
  H+  H97  1  0.48288149  0.36783818  0.50131855  1
  H+  H98  1  0.11388269  0.59648929  0.17548659  1
  H+  H99  1  0.21647833  0.14181280  0.32905019  1
  H+  H100  1  0.22255645  0.11024778  0.99301520  1
  H+  H101  1  0.43459503  0.58704221  0.98559621  1
  H+  H102  1  0.08961148  0.37969464  0.15368818  1
  H+  H103  1  0.62746152  0.61395982  0.34332216  1
  H+  H104  1  0.50583471  0.37394123  0.33505140  1
  H+  H105  1  0.35735994  0.88471041  0.17322590  1
  H+  H106  1  0.27026644  0.13660122  0.82646691  1
  H+  H107  1  0.37809266  0.98615167  0.67290815  1
  H+  H108  1  0.89240995  0.35884974  0.83678432  1
  H+  H109  1  0.58644425  0.92991099  0.74552179  1
  H+  H110  1  0.18644227  0.84215546  0.60198366  1
  H+  H111  1  0.33944780  0.39212041  0.99410342  1
  H+  H112  1  0.47138631  0.34116308  0.17412165  1
  H+  H113  1  0.10937248  0.21867688  0.49154031  1
  H+  H114  1  0.65504168  0.37758104  -0.00701818  1
  H+  H115  1  0.67345279  0.35134784  0.58798040  1
  H+  H116  1  0.65330556  0.62712277  0.99250540  1
  H+  H117  1  0.01478917  0.80857214  0.51111793  1
  H+  H118  1  0.50260335  0.88558324  0.49552198  1
  H+  H119  1  0.60264289  -0.03415109  0.97914050  1
  H+  H120  1  0.10612511  0.72323686  1.00348947  1
  H+  H121  1  0.13945563  0.13324808  0.17162308  1
  H+  H122  1  0.88320827  0.86779178  0.83084856  1
  H+  H123  1  0.12400012  0.48926555  0.81401733  1
  H+  H124  1  0.46770762  0.61357432  0.17572630  1
  H+  H125  1  0.84491733  0.44809415  0.48671307  1
  H+  H126  1  0.14292922  0.57334592  0.47340361  1
  H+  H127  1  0.16337354  0.08560673  0.93351533  1
  H+  H128  1  0.29065128  0.91903088  0.03185475  1
  H+  H129  1  0.12681752  0.60424412  0.32680307  1
  H+  H130  1  0.04370760  0.93407864  0.38627492  1
  H+  H131  1  0.86727724  -0.02307821  1.00371404  1
  H+  H132  1  0.88600072  0.11642618  0.18750499  1
  H+  H133  1  0.40599789  0.11741432  0.65513037  1
  H+  H134  1  0.11922023  0.73648607  0.66936692  1
  H+  H135  1  0.59613759  0.97148501  0.49992184  1
  H+  H136  1  0.13105158  0.89272352  0.66351731  1
  H+  H137  1  0.57370282  0.67403039  0.10791504  1
  H+  H138  1  0.65242898  0.28816873  0.00171900  1
  H+  H139  1  0.62400665  0.39784243  0.66956477  1
  H+  H140  1  0.62284087  0.48084067  0.00380430  1
  H+  H141  1  0.64234354  0.52141457  0.16977300  1
  H+  H142  1  0.62774978  0.11094641  0.18480915  1
  H+  H143  1  0.50816126  0.89962606  0.34660685  1
  H+  H144  1  0.34537815  0.62618363  0.65621389  1
  H+  H145  1  0.74017780  0.88274756  -0.00963153  1
  H+  H146  1  0.62195402  0.16129133  0.00601082  1
  H+  H147  1  0.84264231  0.67471926  0.05875346  1
  H+  H148  1  0.21344402  0.36941827  -0.02201711  1
  H+  H149  1  0.38155456  0.52079819  0.33018150  1
  H+  H150  1  0.10950038  0.97899576  0.00340517  1
  H+  H151  1  0.86967752  0.47321307  0.67603145  1
  H+  H152  1  0.38222751  0.38984200  0.48960830  1
  H+  H153  1  0.96530196  0.36323894  0.17977508  1
  H+  H154  1  0.16505513  0.57607227  0.89104754  1
  H+  H155  1  0.35404541  0.08756863  0.85030036  1
  H+  H156  1  0.89168398  0.11580540  0.99301495  1
  H+  H157  1  0.13257476  0.61914333  0.64258615  1
  H+  H158  1  0.70989325  0.34408726  0.50356854  1
  H+  H159  1  0.22628526  0.61033876  0.83095867  1
  H+  H160  1  0.86425247  0.22882195  0.83066191  1
  H+  H161  1  0.84649591  1.00248053  0.65066791  1
  H+  H162  1  0.61079495  0.74898363  0.66013497  1
  H+  H163  1  0.58704102  0.45031313  0.15202342  1
  H+  H164  1  0.38451430  1.02050243  0.18649679  1
  H+  H165  1  0.01948142  0.88941168  0.00077948  1
  H+  H166  1  0.35419385  0.49432522  0.15311920  1
  H+  H167  1  0.64489668  0.77279649  0.33884241  1
  H+  H168  1  0.77712151  0.64041137  0.00159382  1
  H+  H169  1  0.32659599  0.66777248  0.39669595  1
  H+  H170  1  0.77746995  0.65128245  0.34686232  1
  H+  H171  1  0.60118673  0.99520552  0.35191302  1
  H+  H172  1  0.37868025  0.86712966  0.50445626  1
  H+  H173  1  0.38333492  0.33694729  0.19278186  1
  H+  H174  1  0.37727334  0.48509819  0.48443513  1
  H+  H175  1  0.59644536  0.60582150  0.67053960  1
  H+  H176  1  0.63499613  0.48272672  0.35173312  1
  H+  H177  1  0.36285969  0.48471062  0.83048090  1
  H+  H178  1  0.94884993  0.85347159  0.24110168  1
  H+  H179  1  0.51213077  0.87386898  0.65708971  1
  H+  H180  1  0.58970041  0.21701701  0.81016540  1
  H+  H181  1  0.11924568  0.39230764  0.81049921  1
  H+  H182  1  0.86367890  0.72712081  0.50267529  1
  H+  H183  1  0.32778557  0.15470992  0.06905481  1
  H+  H184  1  0.14177721  0.35791455  0.50320603  1
  H+  H185  1  0.26528508  0.63664973  0.00349642  1
  H+  H186  1  0.37932498  0.60955370  0.32965055  1
  H+  H187  1  0.10938991  0.76405108  0.82333228  1
  H+  H188  1  0.84858954  0.09256767  0.65524248  1
  H+  H189  1  0.87529703  0.22606276  0.48723304  1
  H+  H190  1  0.61570065  0.46816893  0.49772362  1
  H+  H191  1  0.27820111  0.37466398  0.34502462  1
  H+  H192  1  0.11142897  0.40229316  0.66207649  1
  H+  H193  1  0.12811317  0.27649394  0.98419987  1
  H+  H194  1  0.63178831  0.03487869  0.82076679  1
  H+  H195  1  0.23168665  0.39470564  0.66040844  1
  H+  H196  1  0.66810098  0.90720245  0.97253265  1
  H+  H197  1  0.38673056  0.02429054  0.50124150  1
  H+  H198  1  0.39658661  1.03636348  0.33465145  1
  H+  H199  1  0.38026411  0.76285529  0.81541364  1
  H+  H200  1  0.69699164  0.74096461  0.05412923  1
  H+  H201  1  0.77963960  0.39604626  0.00276537  1
  H+  H202  1  0.60197045  0.41571480  0.40616185  1
  H+  H203  1  0.20437267  0.86024254  0.95953756  1
  H+  H204  1  0.60776586  0.62501365  0.49478945  1
  H+  H205  1  0.42035791  0.60665502  0.89184068  1
  H+  H206  1  0.73436683  0.85546084  0.18551852  1
  H+  H207  1  0.35194341  0.97927884  0.83727085  1
  H+  H208  1  0.87493676  0.52010767  0.17607722  1
  H+  H209  1  0.64704316  0.25386373  0.35482899  1
  H+  H210  1  0.52091266  0.13434210  0.49367142  1
  H+  H211  1  0.65238790  0.31868917  0.89783915  1
  H+  H212  1  0.38510968  0.77600682  0.33007472  1
  H+  H213  1  0.09162904  0.43136507  0.74470438  1
  H+  H214  1  0.11635647  0.14473223  0.00999800  1
  H+  H215  1  0.38502054  0.36526938  0.84178511  1
  H+  H216  1  0.92126869  0.79390233  0.18040911  1
  H+  H217  1  0.40074074  1.01083268  0.00438187  1
  H+  H218  1  0.92757534  0.08669938  0.90985884  1
  H+  H219  1  0.13151780  0.02481875  0.47595592  1
  H+  H220  1  0.73389722  0.62089555  0.17213271  1
  H+  H221  1  0.86381022  0.63902643  0.81983688  1
  H+  H222  1  0.70232843  0.35867764  0.19805213  1
  H+  H223  1  0.36314930  0.22398116  0.49746415  1
  H+  H224  1  0.87538299  0.61050008  0.32681640  1
  H+  H225  1  0.61367276  0.96839445  0.17716571  1
  H+  H226  1  0.13417322  0.76730582  0.32616423  1
  H+  H227  1  0.13532678  0.26811586  0.34123846  1
  H+  H228  1  0.28845429  0.14044227  0.65801286  1
  H+  H229  1  0.88402302  0.60661275  0.65831166  1
  H+  H230  1  0.97467487  0.11774373  0.33352703  1
  H+  H231  1  0.10810448  0.12884475  0.48908135  1
  H+  H232  1  0.74841461  0.85692300  0.67344985  1
  H+  H233  1  0.11678996  0.47493372  0.51083016  1
  H+  H234  1  0.12280228  0.87747009  0.15411601  1
  H+  H235  1  0.35913702  0.88989703  0.34371494  1
  H+  H236  1  0.13128948  0.02537706  0.83047691  1
  H+  H237  1  0.15234624  0.33756243  0.88977265  1
  H+  H238  1  0.72567010  0.60742377  0.50755493  1
  H+  H239  1  0.60424372  -0.04446989  0.64470131  1
  H+  H240  1  0.13250182  0.51853141  0.33179179  1
  H+  H241  1  0.47335726  0.85968697  0.18562300  1
  H+  H242  1  0.15280799  0.03036874  0.64317211  1
  H+  H243  1  0.03601968  0.89383177  0.16138747  1
  H+  H244  1  0.64559475  0.85663032  0.19071721  1
  H+  H245  1  0.72172618  0.13774479  0.96425106  1
  H+  H246  1  0.21889673  0.11718035  0.17254939  1
  H+  H247  1  0.86644324  0.97665812  0.34302013  1
  H+  H248  1  0.22352904  0.86198373  0.17264059  1
  H+  H249  1  0.34828576  0.63834022  0.48967431  1
  H+  H250  1  0.37021686  0.89266141  0.67457200  1
  H+  H251  1  0.36587534  0.13593280  0.49376796  1
  H+  H252  1  0.85049188  0.71235065  0.67080879  1
  H+  H253  1  0.64901244  0.76695645  0.84301451  1
  H+  H254  1  0.09617103  0.88387677  0.81244704  1
  H+  H255  1  0.00868042  0.62337496  0.33184195  1
  H+  H256  1  0.86170295  0.88618746  0.99462232  1
  H+  H257  1  0.52984702  0.38740156  0.67027391  1
  H+  H258  1  0.12256963  0.86333499  0.98448524  1
  H+  H259  1  0.10497149  0.48768154  0.65873096  1
  H+  H260  1  0.62689539  0.15776013  0.34729744  1
  H+  H261  1  0.72849640  0.44697133  0.60927625  1
  H+  H262  1  0.10662690  0.14221749  0.33838171  1
  H+  H263  1  0.27846028  0.89209010  0.50327697  1
  H+  H264  1  0.36004284  0.25326435  0.35209402  1
  H+  H265  1  0.36358166  0.27304549  -0.00250853  1
  H+  H266  1  0.34600733  0.73018136  1.01520714  1
  H+  H267  1  0.27033412  0.88886668  0.34267430  1
  H+  H268  1  0.36894718  0.50786012  0.64815124  1
  H+  H269  1  0.88984518  0.53096339  -0.01942272  1
  H+  H270  1  0.11333570  0.82333276  0.51097170  1
  H+  H271  1  0.65495127  0.11297653  0.91115946  1
  H+  H272  1  0.10170304  0.64982883  0.48786351  1
  H+  H273  1  0.86020381  0.23651584  0.18544029  1
  H+  H274  1  0.61681722  0.71911097  0.49549806  1
  H+  H275  1  0.60780406  0.37350345  0.49756742  1
  H+  H276  1  0.26889335  0.63563814  0.33665146  1
  H+  H277  1  0.86786850  0.13359915  0.48650585  1
  H+  H278  1  0.97537204  0.57809654  0.50706895  1
  H+  H279  1  0.58822028  0.17036460  0.71224783  1
  H+  H280  1  0.96962454  0.10344128  0.50647938  1
  H+  H281  1  0.88958638  0.77618447  0.98388598  1
  H+  H282  1  0.61724400  0.63247127  0.82892703  1
  H+  H283  1  0.61672634  0.35189765  0.84500970  1
  H+  H284  1  0.41893130  0.08777024  0.24239458  1
  H+  H285  1  0.86516740  0.64003454  0.49426998  1
  H+  H286  1  0.10338610  0.38641433  -0.00070841  1
  H+  H287  1  0.63791014  0.75073512  1.00869515  1
  H+  H288  1  0.58269724  0.40862571  0.05544059  1
  H+  H289  1  0.67767013  0.83141890  0.90116799  1
  H+  H290  1  0.15801291  0.59224271  0.57884222  1
  H+  H291  1  0.16248381  0.83048752  0.27065678  1
  H+  H292  1  0.58184412  0.17041082  0.11148413  1
  H+  H293  1  0.92271453  0.08755724  0.24224096  1
  H+  H294  1  0.52203774  0.39292153  0.82746107  1
  H+  H295  1  0.85155541  0.44306944  0.05625937  1
  H+  H296  1  0.57348206  0.65650257  0.40655092  1
  H+  H297  1  0.91577142  0.34085830  0.24653576  1
  H+  H298  1  0.91131444  0.82584918  0.57523883  1
  H+  H299  1  0.34873085  0.92938936  0.76154590  1
  H+  H300  1  0.90499155  0.58049025  0.23541113  1
  H+  H301  1  0.06722431  0.88698420  0.43714680  1
  H+  H302  1  0.67159643  0.58826062  0.93193541  1
  H+  H303  1  0.83797860  0.40812281  0.76750586  1
  H+  H304  1  0.83586233  0.17812234  0.12749943  1
  H+  H305  1  0.90937613  0.33118388  0.56162893  1
  H+  H306  1  0.89845265  0.07091070  0.56061058  1
  H+  H307  1  0.17154577  0.33116764  0.28362702  1
  H+  H308  1  0.67696552  0.82543793  0.27793520  1
  H+  H309  1  0.16777932  0.20142402  0.72556748  1
  H+  H310  1  0.16135752  0.10491018  0.26734969  1
  H+  H311  1  0.40636816  0.57707845  0.23477455  1
  H+  H312  1  0.63730781  0.52357518  0.83853467  1
  H+  H313  1  0.29532579  0.20911971  0.70017305  1
  H+  H314  1  0.79145535  0.38882645  0.42935307  1
  H+  H315  1  0.40651907  0.57172328  0.55226638  1
  H+  H316  1  0.05237405  0.70775614  0.47848810  1
  H+  H317  1  0.08414152  0.41748676  0.40852869  1
  H+  H318  1  0.01858957  0.14965958  0.16490803  1
  H+  H319  1  0.19173579  0.78041126  0.53639525  1
  H+  H320  1  0.79845687  0.15012667  0.03751817  1
  H+  H321  1  0.66012642  0.59006692  0.22970778  1
  H+  H322  1  0.48383660  0.12642635  0.33296248  1
  H+  H323  1  0.59186000  0.66848355  0.77058725  1
  H+  H324  1  0.38227918  0.77269318  0.17741085  1
  H+  H325  1  0.41999972  0.08290364  0.56084374  1
  H+  H326  1  0.43097495  0.81738811  0.87230076  1
  H+  H327  1  0.33879547  0.92759856  0.11525642  1
  H+  H328  1  0.04856616  0.16317201  0.76589722  1
  H+  H329  1  0.33825302  0.16271673  0.77274245  1
  H+  H330  1  0.86183971  0.13881879  0.83451141  1
  H+  H331  1  0.07206783  0.41393846  0.06025887  1
  H+  H332  1  0.06198838  0.65041256  0.39287338  1
  H+  H333  1  0.78410848  0.36489240  0.12727999  1
  H+  H334  1  0.18021126  0.42096393  0.21969104  1
  H+  H335  1  0.57584820  0.88910104  0.12829026  1
  H+  H336  1  0.86749971  -0.03280800  0.49386791  1
  H+  H337  1  0.13061909  0.61138105  0.98248684  1
  H+  H338  1  0.27220721  0.39548704  0.82955319  1
  H+  H339  1  0.44303530  0.33602974  0.27715401  1
  H+  H340  1  0.79111888  0.98175557  0.78842494  1
  H+  H341  1  0.91839941  0.56884643  0.60459761  1
  H+  H342  1  0.97397625  0.87303032  0.82417687  1
  H+  H343  1  0.56267765  0.92782653  0.41942954  1
  H+  H344  1  0.08118265  0.92638953  0.75292680  1
  H+  H345  1  0.37548266  0.38609693  0.34076154  1
  H+  H346  1  0.40152342  0.33287720  0.94000195  1
  H+  H347  1  0.88289102  0.11282022  0.32955459  1
  H+  H348  1  0.66324911  0.58922347  0.28373181  1
  H+  H349  1  0.58803249  0.17365179  0.43898254  1
  H+  H350  1  0.41267604  0.83509059  0.27086310  1
  H+  H351  1  0.91954761  0.83620181  0.92435793  1
  H+  H352  1  0.91757361  0.58993038  0.88717352  1
  H+  H353  1  0.42151799  0.85954860  0.96855663  1
  H+  H354  1  0.40342496  0.83090600  0.59652683  1
  H+  H355  1  0.83459205  0.16648205  0.39905861  1
  H+  H356  1  0.32899439  0.91907291  0.43674532  1
  H+  H357  1  0.91522207  0.32714707  0.89729016  1
  H+  H358  1  0.08481081  0.91206964  0.09189808  1
  H+  H359  1  0.34734009  0.41574089  0.42170413  1
  H+  H360  1  0.72026222  0.60745641  0.66065519  1
  H+  H361  1  0.82431619  0.65365967  0.72931173  1
  H+  H362  1  0.65882056  0.08581311  0.28028481  1
  H+  H363  1  0.07411672  0.66353124  0.10019491  1
  H+  H364  1  0.32885639  0.66961933  0.10537992  1
  H+  H365  1  0.32251162  0.65546001  0.75121751  1
  H+  H366  1  0.31734475  0.18808057  0.40672966  1
  H+  H367  1  0.31117825  0.44034110  0.04138616  1
  H+  H368  1  0.07450057  0.16465419  0.40231045  1
  H+  H369  1  0.81184273  0.90507248  0.73002818  1
  H+  H370  1  0.84145713  0.67805342  0.40181819  1
  H+  H371  1  0.08364279  0.66251535  0.75617274  1
  H+  H372  1  0.86485709  0.97619383  0.17535124  1
  H+  H373  1  0.87238430  0.36706631  0.32512759  1
  H+  H374  1  0.38743265  0.05307067  0.90861384  1
  H+  H375  1  0.86191576  0.51325841  0.31774830  1
  H+  H376  1  0.12289753  0.81816891  0.88312875  1
  H+  H377  1  0.25839089  0.63007715  0.65463637  1
  H+  H378  1  0.58342229  0.41887093  0.76868812  1
  H+  H379  1  0.96476555  0.35563748  0.65301906  1
  H+  H380  1  0.17424647  0.08065542  0.57964089  1
  H+  H381  1  0.13942834  0.56211464  0.23469221  1
  H+  H382  1  0.42302508  0.34607231  0.56081927  1
  H+  H383  1  0.66501182  0.57644531  0.56641308  1
  O2-  O384  1  0.07721033  0.18505796  0.14567253  1
  O2-  O385  1  0.07427075  0.15736583  0.47829568  1
  O2-  O386  1  0.07321895  0.17065522  0.80668030  1
  O2-  O387  1  0.05641265  0.40587508  0.13852122  1
  O2-  O388  1  0.08787951  0.41959352  0.48962755  1
  O2-  O389  1  0.09706191  0.43015139  0.79257401  1
  O2-  O390  1  0.07599003  0.66736236  0.14551603  1
  O2-  O391  1  0.04938470  0.65100721  0.47078788  1
  O2-  O392  1  0.07763532  0.66017001  0.80163044  1
  O2-  O393  1  0.09263089  0.91267789  0.13760840  1
  O2-  O394  1  0.05652012  0.80160037  0.48653890  1
  O2-  O395  1  0.07437076  0.92377149  0.79779315  1
  O2-  O396  1  0.32762540  0.15066601  0.14420713  1
  O2-  O397  1  0.33242247  0.16492227  0.48164301  1
  O2-  O398  1  0.33309212  0.16321364  0.81730569  1
  O2-  O399  1  0.31390517  0.43819047  0.13023246  1
  O2-  O400  1  0.35024237  0.42078168  0.47017086  1
  O2-  O401  1  0.33317957  0.42339496  0.81599187  1
  O2-  O402  1  0.33293520  0.67609367  0.15006089  1
  O2-  O403  1  0.32545680  0.67438564  0.47439717  1
  O2-  O404  1  0.32673104  0.66089305  0.79665935  1
  O2-  O405  1  0.32689328  0.91606523  0.16050537  1
  O2-  O406  1  0.33742184  0.92285190  0.48195585  1
  O2-  O407  1  0.34461738  0.92297291  0.80836729  1
  O2-  O408  1  0.57952540  0.16781064  0.15682351  1
  O2-  O409  1  0.58339229  0.16730619  0.48396580  1
  O2-  O410  1  0.57108550  0.16440001  0.78517498  1
  O2-  O411  1  0.56483259  0.39069601  0.13931301  1
  O2-  O412  1  0.58160578  0.40836398  0.48142759  1
  O2-  O413  1  0.58311673  0.42472019  0.81362928  1
  O2-  O414  1  0.56635281  0.66546551  0.15205015  1
  O2-  O415  1  0.57809675  0.65633642  0.48125402  1
  O2-  O416  1  0.58723952  0.66477475  0.81511018  1
  O2-  O417  1  0.58534992  0.90525817  0.17235419  1
  O2-  O418  1  0.56249846  0.91734898  0.47723314  1
  O2-  O419  1  0.58570282  0.93605754  0.79025166  1
  O2-  O420  1  0.82945136  0.17397226  0.17142973  1
  O2-  O421  1  0.84343101  0.16830084  0.46931189  1
  O2-  O422  1  0.83135421  0.16603507  0.81632777  1
  O2-  O423  1  0.81640163  0.40381582  0.16030085  1
  O2-  O424  1  0.80791035  0.38821905  0.47271573  1
  O2-  O425  1  0.84528743  0.41204981  0.81212477  1
  O2-  O426  1  0.86048687  0.68375910  0.14377533  1
  O2-  O427  1  0.83251791  0.66779555  0.48288460  1
  O2-  O428  1  0.82974418  0.66634245  0.80458131  1
  O2-  O429  1  0.83603285  0.91447777  0.16456292  1
  O2-  O430  1  0.84385885  0.90592466  0.48039867  1
  O2-  O431  1  0.81377097  0.94537297  0.80238253  1
  O2-  O432  1  0.16171541  0.09843761  0.19019531  1
  O2-  O433  1  0.16226584  0.07514537  0.50392336  1
  O2-  O434  1  0.16299934  0.08490520  0.84792622  1
  O2-  O435  1  0.17392741  0.36914158  0.20045723  1
  O2-  O436  1  0.16960805  0.32308395  0.50993962  1
  O2-  O437  1  0.15854944  0.34087931  0.84381753  1
  O2-  O438  1  0.12584673  0.55170008  0.19055806  1
  O2-  O439  1  0.16696272  0.61400204  0.50690259  1
  O2-  O440  1  0.16532990  0.57679150  0.84517776  1
  O2-  O441  1  0.15958774  0.83346265  0.18151056  1
  O2-  O442  1  0.19518175  0.83603493  0.54057249  1
  O2-  O443  1  0.12695156  0.82277364  0.83850750  1
  O2-  O444  1  0.41587597  0.08329678  0.19619115  1
  O2-  O445  1  0.41673616  0.08585092  0.51572393  1
  O2-  O446  1  0.35071591  0.03645054  0.87083611  1
  O2-  O447  1  0.41780749  0.30994940  0.19973750  1
  O2-  O448  1  0.42104162  0.34419313  0.51534483  1
  O2-  O449  1  0.41795129  0.33767413  0.85585169  1
  O2-  O450  1  0.40572733  0.57864795  0.18944934  1
  O2-  O451  1  0.41181134  0.57431602  0.50710569  1
  O2-  O452  1  0.41649876  0.59209575  0.84690416  1
  O2-  O453  1  0.41118593  0.83267025  0.19581583  1
  O2-  O454  1  0.40707325  0.83445785  0.52121545  1
  O2-  O455  1  0.41383224  0.82378296  0.83159552  1
  O2-  O456  1  0.65744030  0.08112980  0.20198917  1
  O2-  O457  1  0.65727709  0.06785953  0.54896383  1
  O2-  O458  1  0.66006551  0.09468327  0.83755579  1
  O2-  O459  1  0.63920426  0.32847280  0.19888135  1
  O2-  O460  1  0.65134165  0.31952998  0.52212103  1
  O2-  O461  1  0.62173922  0.30245326  0.85882002  1
  O2-  O462  1  0.66857311  0.58567884  0.18240180  1
  O2-  O463  1  0.66461450  0.57339458  0.52101418  1
  O2-  O464  1  0.66815808  0.58497006  0.85374101  1
  O2-  O465  1  0.67267615  0.82099468  0.19935059  1
  O2-  O466  1  0.67317840  0.81153229  0.51788454  1
  O2-  O467  1  0.68731652  0.82660544  0.85737420  1
  O2-  O468  1  0.92182567  0.09013346  0.19617314  1
  O2-  O469  1  0.90686478  0.07096688  0.51536637  1
  O2-  O470  1  0.92870713  0.09018373  0.86388592  1
  O2-  O471  1  0.90781416  0.33579877  0.20054522  1
  O2-  O472  1  0.92123702  0.34053008  0.51667595  1
  O2-  O473  1  0.91790003  0.32395817  0.85266274  1
  O2-  O474  1  0.90737322  0.58092610  0.18892359  1
  O2-  O475  1  0.92785728  0.52967806  0.53276111  1
  O2-  O476  1  0.91365044  0.58840856  0.84191583  1
  O2-  O477  1  0.95091207  0.85407645  0.19429947  1
  O2-  O478  1  0.91655143  0.82159712  0.53099129  1
  O2-  O479  1  0.91475184  0.83898430  0.84275685  1
  O2-  O480  1  0.15750119  0.10476048  0.31264784  1
  O2-  O481  1  0.18527574  0.08877742  0.62475127  1
  O2-  O482  1  0.16169743  0.08315919  0.97857772  1
  O2-  O483  1  0.17396081  0.33162529  0.32830740  1
  O2-  O484  1  0.17520073  0.36859334  0.64087397  1
  O2-  O485  1  0.15056210  0.33423299  0.96526637  1
  O2-  O486  1  0.16082432  0.57682933  0.31306182  1
  O2-  O487  1  0.15708791  0.58463922  0.62498445  1
  O2-  O488  1  0.16083443  0.58090219  0.96809888  1
  O2-  O489  1  0.16764065  0.82874340  0.31499813  1
  O2-  O490  1  0.17533681  0.84252715  0.65136222  1
  O2-  O491  1  0.14257825  0.82544691  0.96523956  1
  O2-  O492  1  0.42564074  0.09406485  0.31572624  1
  O2-  O493  1  0.42871847  0.08216184  0.63939345  1
  O2-  O494  1  0.43972594  0.06351146  0.97302374  1
  O2-  O495  1  0.44585101  0.35208270  0.32054951  1
  O2-  O496  1  0.43079792  0.34428569  0.63796118  1
  O2-  O497  1  0.38506162  0.33210371  0.98295714  1
  O2-  O498  1  0.41161080  0.58063258  0.31488497  1
  O2-  O499  1  0.39781131  0.56617508  0.63106879  1
  O2-  O500  1  0.43788687  0.63561909  0.96352204  1
  O2-  O501  1  0.41421184  0.83725476  0.31682832  1
  O2-  O502  1  0.40648384  0.82978385  0.64233383  1
  O2-  O503  1  0.40214172  0.84043390  1.00978924  1
  O2-  O504  1  0.66109202  0.08877757  0.32574769  1
  O2-  O505  1  0.65123609  0.06277787  0.60635691  1
  O2-  O506  1  0.66296463  0.12531334  0.95602177  1
  O2-  O507  1  0.73832907  0.37073362  0.36218073  1
  O2-  O508  1  0.69605419  0.38933197  0.62634108  1
  O2-  O509  1  0.68705357  0.34583089  0.98261055  1
  O2-  O510  1  0.66576215  0.58868856  0.32840542  1
  O2-  O511  1  0.65953251  0.57672246  0.64472430  1
  O2-  O512  1  0.67596386  0.59024041  0.97742652  1
  O2-  O513  1  0.68097101  0.83131494  0.32302480  1
  O2-  O514  1  0.64819318  0.80738696  0.64565976  1
  O2-  O515  1  0.67596449  0.85755188  0.97700412  1
  O2-  O516  1  0.91486831  0.08335862  0.31624629  1
  O2-  O517  1  0.87469322  0.06122669  0.63473150  1
  O2-  O518  1  0.92354852  0.08515077  0.98340068  1
  O2-  O519  1  0.90812641  0.33789214  0.31855919  1
  O2-  O520  1  0.90546992  0.32417846  0.63724985  1
  O2-  O521  1  0.91083249  0.32836063  0.98035305  1
  O2-  O522  1  0.90018237  0.57718293  0.30791201  1
  O2-  O523  1  0.91997852  0.58000289  0.64900851  1
  O2-  O524  1  0.92102432  0.59199857  0.96645240  1
  O2-  O525  1  0.93822120  0.85173390  0.31285823  1
  O2-  O526  1  0.90164589  0.82152321  0.65945723  1
  O2-  O527  1  0.92055930  0.83715000  0.96957438  1
  O2-  O528  1  0.08675186  0.17677108  0.02203393  1
  O2-  O529  1  0.07545094  0.17284480  0.35706512  1
  O2-  O530  1  0.20225198  0.22325067  0.68870922  1
  O2-  O531  1  0.07482582  0.41832921  0.01493018  1
  O2-  O532  1  0.08049636  0.41417762  0.36342100  1
  O2-  O533  1  0.07876302  0.42968242  0.67913309  1
  O2-  O534  1  0.07776525  0.66360765  0.01914693  1
  O2-  O535  1  0.06849224  0.65125327  0.34775383  1
  O2-  O536  1  0.08973344  0.67364330  0.68019749  1
  O2-  O537  1  0.07970268  0.91749246  0.01754551  1
  O2-  O538  1  0.07219512  0.94242106  0.42546879  1
  O2-  O539  1  0.09747955  0.92573145  0.67169123  1
  O2-  O540  1  0.32498411  0.15827669  0.02321044  1
  O2-  O541  1  0.30455792  0.21173017  0.37017740  1
  O2-  O542  1  0.33128745  0.18480585  0.68641862  1
  O2-  O543  1  0.31210831  0.42908251  -0.00222846  1
  O2-  O544  1  0.34072091  0.41141078  0.35707063  1
  O2-  O545  1  0.33069291  0.39802806  0.69697090  1
  O2-  O546  1  0.32400196  0.66760728  0.02119732  1
  O2-  O547  1  0.32972201  0.66535256  0.35125134  1
  O2-  O548  1  0.31738293  0.65700645  0.67330161  1
  O2-  O549  1  0.35037666  0.94050080  0.04223920  1
  O2-  O550  1  0.33028218  0.92097219  0.35939543  1
  O2-  O551  1  0.34636098  0.92765007  0.69254795  1
  O2-  O552  1  0.59161605  0.18469675  0.03188713  1
  O2-  O553  1  0.60173762  0.19354620  0.36092823  1
  O2-  O554  1  0.58713431  0.16749903  0.66617591  1
  O2-  O555  1  0.59875524  0.41895224  0.01229028  1
  O2-  O556  1  0.61374385  0.42136642  0.36124223  1
  O2-  O557  1  0.58793397  0.41928404  0.68929005  1
  O2-  O558  1  0.64244493  0.70696939  0.03299165  1
  O2-  O559  1  0.57578229  0.65564370  0.36074433  1
  O2-  O560  1  0.55156183  0.61807709  0.68960669  1
  O2-  O561  1  0.53426582  0.82853526  0.06538232  1
  O2-  O562  1  0.56558928  0.93391438  0.36790576  1
  O2-  O563  1  0.57482191  0.90083923  0.66735167  1
  O2-  O564  1  0.82959445  0.16465479  -0.00068555  1
  O2-  O565  1  0.82772434  0.16438460  0.35259625  1
  O2-  O566  1  0.81507684  0.15419696  0.69098929  1
  O2-  O567  1  0.84498216  0.43073651  0.01284255  1
  O2-  O568  1  0.81020868  0.40983302  0.31840884  1
  O2-  O569  1  0.83639058  0.41097183  0.68641963  1
  O2-  O570  1  0.83958017  0.67345744  0.01392387  1
  O2-  O571  1  0.83941236  0.67737977  0.35664657  1
  O2-  O572  1  0.82205938  0.65078543  0.68342562  1
  O2-  O573  1  0.83006388  0.91414349  0.01062693  1
  O2-  O574  1  0.84288826  0.91620081  0.35689966  1
  O2-  O575  1  0.81021054  0.89028982  0.68621301  1
