# generated using pymatgen
data_H2O
_symmetry_space_group_name_H-M   'P 1'
_cell_length_a   17.98384345
_cell_length_b   17.98358982
_cell_length_c   22.00162134
_cell_angle_alpha   89.99948269
_cell_angle_beta   89.97511805
_cell_angle_gamma   119.97031509
_symmetry_Int_Tables_number   1
_chemical_formula_structural   H2O
_chemical_formula_sum   'H384 O192'
_cell_volume   6164.16129539
_cell_formula_units_Z   192
loop_
 _symmetry_equiv_pos_site_id
 _symmetry_equiv_pos_as_xyz
  1  'x, y, z'
loop_
 _atom_type_symbol
 _atom_type_oxidation_number
  H+  1.0
  O2-  -2.0
loop_
 _atom_site_type_symbol
 _atom_site_label
 _atom_site_symmetry_multiplicity
 _atom_site_fract_x
 _atom_site_fract_y
 _atom_site_fract_z
 _atom_site_occupancy
  H+  H0  1  0.39021141  0.50772836  1.00482781  1
  H+  H1  1  0.49647676  0.86636178  0.31917045  1
  H+  H2  1  0.12781855  0.52598284  -0.01328335  1
  H+  H3  1  0.83837519  0.95630253  0.02792923  1
  H+  H4  1  0.70567996  0.35049134  0.63404385  1
  H+  H5  1  0.89839039  0.86766795  0.33183741  1
  H+  H6  1  0.22334786  0.87610633  0.97999554  1
  H+  H7  1  0.76896483  0.63728467  1.00887360  1
  H+  H8  1  0.36632704  0.34799578  0.17569776  1
  H+  H9  1  0.12517700  0.37508011  0.66281885  1
  H+  H10  1  0.71932110  0.84961951  0.18561403  1
  H+  H11  1  0.21832974  0.27615982  0.92050957  1
  H+  H12  1  0.96829881  0.11395803  0.65984725  1
  H+  H13  1  0.76261681  0.12103722  0.66903545  1
  H+  H14  1  0.13838918  0.87220061  0.17308638  1
  H+  H15  1  0.41596447  0.59057925  0.59525867  1
  H+  H16  1  0.36008112  0.18635345  0.47538694  1
  H+  H17  1  0.14710905  0.30994428  0.16308603  1
  H+  H18  1  0.28603894  0.66557309  0.65854663  1
  H+  H19  1  0.37850252  0.30237381  0.52149475  1
  H+  H20  1  0.64547477  0.77013981  0.65974833  1
  H+  H21  1  0.27704505  0.41080988  0.15455416  1
  H+  H22  1  0.37752201  0.53197734  0.50133489  1
  H+  H23  1  0.63152206  0.75656682  0.18630037  1
  H+  H24  1  0.58240822  0.16410713  0.72432924  1
  H+  H25  1  0.20004553  0.71202812  0.61906072  1
  H+  H26  1  0.59981946  0.12911340  0.00414193  1
  H+  H27  1  0.13228939  0.10743825  0.51112991  1
  H+  H28  1  0.90674294  0.53099637  0.84647902  1
  H+  H29  1  0.32734137  0.17846537  0.72984144  1
  H+  H30  1  0.31994410  0.39451859  0.06025304  1
  H+  H31  1  0.36850652  0.72412923  0.33142632  1
  H+  H32  1  0.63899709  0.52215783  -0.00296135  1
  H+  H33  1  0.11058886  0.72923357  0.81314881  1
  H+  H34  1  0.39759866  0.76667409  0.49432571  1
  H+  H35  1  0.12369842  0.77477440  0.63827388  1
  H+  H36  1  0.97194970  0.86156143  0.17357202  1
  H+  H37  1  0.72552455  0.10632966  0.83898911  1
  H+  H38  1  0.58410164  0.22019480  0.49178863  1
  H+  H39  1  0.63394790  0.60110552  0.35950616  1
  H+  H40  1  0.89291699  0.59533261  0.33769040  1
  H+  H41  1  0.38221987  0.97739127  0.33903196  1
  H+  H42  1  0.02092118  0.12917578  0.50611582  1
  H+  H43  1  0.25275697  0.87487612  0.47935075  1
  H+  H44  1  0.88495110  0.76994613  0.17675215  1
  H+  H45  1  0.36345074  0.15373456  0.82217788  1
  H+  H46  1  0.01862718  0.88578971  0.00909451  1
  H+  H47  1  0.82029062  0.40935181  0.57084542  1
  H+  H48  1  0.11290288  0.49522611  0.15312606  1
  H+  H49  1  0.66864222  0.33463769  0.94187903  1
  H+  H50  1  0.74181550  0.89741312  0.85472574  1
  H+  H51  1  0.36487081  0.98106836  -0.00600995  1
  H+  H52  1  0.12750698  0.22163266  0.36822508  1
  H+  H53  1  0.36119586  0.40586129  0.49779014  1
  H+  H54  1  0.02306351  0.13155623  -0.00175762  1
  H+  H55  1  0.88297377  0.76704731  0.51979054  1
  H+  H56  1  0.40318113  0.52995061  0.20772227  1
  H+  H57  1  1.00678843  0.56509705  0.68922695  1
  H+  H58  1  0.77399784  0.63718932  0.16914802  1
  H+  H59  1  0.34768438  0.39709969  0.67637576  1
  H+  H60  1  0.83132447  0.66579467  0.10753512  1
  H+  H61  1  0.38000891  0.37036089  0.85596766  1
  H+  H62  1  0.36367406  0.36952536  1.00622929  1
  H+  H63  1  0.49190847  0.10509114  0.32282039  1
  H+  H64  1  0.77627279  0.88410555  0.49742894  1
  H+  H65  1  0.10959908  0.97402346  0.00525870  1
  H+  H66  1  0.87700640  0.35225170  0.33447468  1
  H+  H67  1  0.11538055  0.26292489  0.82093304  1
  H+  H68  1  0.36714293  0.73068527  0.81331133  1
  H+  H69  1  0.84039266  0.92256905  0.73711004  1
  H+  H70  1  0.82633581  0.65484650  0.46116124  1
  H+  H71  1  0.37172062  0.71630258  0.18539681  1
  H+  H72  1  0.62739379  0.75763920  1.00348082  1
  H+  H73  1  0.37400298  0.34732961  0.33389455  1
  H+  H74  1  0.10763334  0.60567601  0.66860292  1
  H+  H75  1  0.26761933  0.14158641  0.82534096  1
  H+  H76  1  1.01886913  0.87713849  0.50038194  1
  H+  H77  1  0.08825685  0.36066107  0.81718843  1
  H+  H78  1  0.74999669  0.86653686  1.01863594  1
  H+  H79  1  0.05890507  0.47674795  0.69217596  1
  H+  H80  1  0.36345832  0.47448829  0.34253771  1
  H+  H81  1  0.27418496  0.90063372  0.15767137  1
  H+  H82  1  0.03707270  0.90167639  0.33839381  1
  H+  H83  1  0.22119560  0.35934785  0.51313534  1
  H+  H84  1  0.52966766  0.63901658  0.66453525  1
  H+  H85  1  0.50147214  0.85397582  0.64981335  1
  H+  H86  1  0.27854695  0.64197178  0.81627447  1
  H+  H87  1  0.66731836  0.82018337  0.27629158  1
  H+  H88  1  0.32663412  0.96154498  0.83544113  1
  H+  H89  1  0.62401558  0.88678755  0.48793752  1
  H+  H90  1  0.57979706  0.11754758  0.66186028  1
  H+  H91  1  0.91346278  0.15560365  0.47446795  1
  H+  H92  1  0.21807879  0.85049188  0.64840581  1
  H+  H93  1  0.62996016  0.87935344  0.67683448  1
  H+  H94  1  0.71434183  0.58443741  0.83946059  1
  H+  H95  1  0.61839921  0.63618224  0.66555275  1
  H+  H96  1  0.61214840  0.09953163  0.49895693  1
  H+  H97  1  0.35205201  -0.03852467  0.49151811  1
  H+  H98  1  0.38064029  0.28599417  0.66198058  1
  H+  H99  1  0.87949018  0.52418721  0.50751361  1
  H+  H100  1  0.42763219  0.09903301  0.92648378  1
  H+  H101  1  0.86350943  0.38474278  0.00964385  1
  H+  H102  1  0.13283747  0.86338096  0.49493019  1
  H+  H103  1  0.64737547  0.27897984  0.17370097  1
  H+  H104  1  0.32304224  0.41849119  0.43508497  1
  H+  H105  1  0.14728092  0.92429757  0.69031380  1
  H+  H106  1  0.12168833  0.87353668  0.83273204  1
  H+  H107  1  0.08006027  0.33161729  0.35259862  1
  H+  H108  1  0.28282131  0.11418862  0.16472467  1
  H+  H109  1  0.13930487  1.02419444  0.83666644  1
  H+  H110  1  0.14537749  0.39710165  0.16772323  1
  H+  H111  1  0.87110582  0.00551692  0.82157884  1
  H+  H112  1  0.35627056  0.88929155  0.01214999  1
  H+  H113  1  0.85074064  0.46739834  0.00969931  1
  H+  H114  1  0.47431566  0.60826451  0.83127036  1
  H+  H115  1  0.47932748  0.85988591  0.22245225  1
  H+  H116  1  0.86024649  0.72370142  1.00810015  1
  H+  H117  1  0.13522014  0.10746982  -0.00600305  1
  H+  H118  1  0.10175250  0.97997837  0.15686049  1
  H+  H119  1  0.59496002  0.37681764  0.83082631  1
  H+  H120  1  0.10607204  0.96821606  0.50101404  1
  H+  H121  1  0.73624081  0.36879023  0.17662095  1
  H+  H122  1  0.27599741  0.63585160  0.33097042  1
  H+  H123  1  0.38300374  0.31103972  0.23766611  1
  H+  H124  1  0.91999815  0.82849128  0.61009387  1
  H+  H125  1  0.10244694  0.23498165  0.67036661  1
  H+  H126  1  0.86614991  0.25985022  0.83413967  1
  H+  H127  1  0.62100360  0.50545794  0.35503686  1
  H+  H128  1  0.40484308  0.77702933  0.64801956  1
  H+  H129  1  0.39263951  0.62445700  0.65474426  1
  H+  H130  1  0.64241798  0.26429543  0.32055301  1
  H+  H131  1  0.11652405  0.21414695  -0.01171980  1
  H+  H132  1  0.53573934  0.13845441  0.16272494  1
  H+  H133  1  0.11660123  0.74051330  0.16647889  1
  H+  H134  1  0.90286811  0.27525792  0.49141756  1
  H+  H135  1  0.14883749  0.12634019  0.31784329  1
  H+  H136  1  0.21640119  0.37763933  0.66577761  1
  H+  H137  1  0.38800849  0.61217404  0.82636428  1
  H+  H138  1  0.60853933  0.62687102  0.82283560  1
  H+  H139  1  0.50680291  0.37978804  0.83033434  1
  H+  H140  1  0.37761601  0.88564295  0.34032638  1
  H+  H141  1  0.64485329  0.14764642  0.81908758  1
  H+  H142  1  0.39546144  0.02269728  0.17052150  1
  H+  H143  1  0.87109126  0.88565977  0.68104488  1
  H+  H144  1  0.63079829  1.02084946  0.83406579  1
  H+  H145  1  0.09844126  0.71665701  0.46983697  1
  H+  H146  1  0.85283541  0.12412841  0.67000653  1
  H+  H147  1  -0.01222302  0.37357832  -0.01162180  1
  H+  H148  1  0.52645305  0.63495163  0.35391692  1
  H+  H149  1  0.28268219  0.39657927  0.82086887  1
  H+  H150  1  0.61995907  0.50921093  0.84345306  1
  H+  H151  1  0.15055395  0.88853526  0.32375556  1
  H+  H152  1  0.82650918  0.73377636  0.82693185  1
  H+  H153  1  0.72056137  0.37753865  0.84169024  1
  H+  H154  1  0.88357708  0.61231586  0.52095774  1
  H+  H155  1  0.49921585  0.85937655  0.49425621  1
  H+  H156  1  0.01315625  0.62873184  0.48428153  1
  H+  H157  1  0.77417336  0.62517421  0.66924845  1
  H+  H158  1  0.65736919  0.12591326  0.16757580  1
  H+  H159  1  0.86965873  0.14051512  0.82283818  1
  H+  H160  1  0.15473578  0.62463222  0.83319360  1
  H+  H161  1  0.52337668  0.62583549  0.02145288  1
  H+  H162  1  0.13833773  0.62304762  0.48865981  1
  H+  H163  1  -0.00575108  0.37961790  0.67042457  1
  H+  H164  1  0.86460458  0.59806464  -0.00201723  1
  H+  H165  1  0.86386489  0.12866604  0.32872290  1
  H+  H166  1  0.85660540  0.60762732  0.82584910  1
  H+  H167  1  0.99381968  0.61983667  0.84538526  1
  H+  H168  1  0.89365769  0.37355344  0.17905534  1
  H+  H169  1  0.18721215  0.63201258  0.57942140  1
  H+  H170  1  0.38227068  0.81438178  1.07748801  1
  H+  H171  1  0.62101156  0.64149811  0.50791369  1
  H+  H172  1  0.01064779  0.13765937  0.81719846  1
  H+  H173  1  0.14234969  0.59983483  0.31594874  1
  H+  H174  1  0.73647525  0.85971613  0.66272485  1
  H+  H175  1  0.51058613  0.17583427  0.83542793  1
  H+  H176  1  0.83147384  0.77489920  0.83957220  1
  H+  H177  1  0.11788666  0.99076316  0.67465927  1
  H+  H178  1  0.58498394  0.94644075  0.01389740  1
  H+  H179  1  0.88050779  0.92349041  0.83314474  1
  H+  H180  1  0.13790263  0.40730882  0.49774421  1
  H+  H181  1  -0.07729205  0.34403365  0.23971901  1
  H+  H182  1  0.64899766  0.53022443  0.18296836  1
  H+  H183  1  0.79672211  0.12775992  0.92902134  1
  H+  H184  1  0.37679842  0.27956938  0.84303630  1
  H+  H185  1  0.95906003  0.33821742  0.33801276  1
  H+  H186  1  0.09911042  0.42099101  0.43799598  1
  H+  H187  1  0.37258523  0.25624561  0.33052862  1
  H+  H188  1  0.07624995  0.16232940  0.15699656  1
  H+  H189  1  0.88069364  0.01305190  0.18224579  1
  H+  H190  1  0.27226572  0.38782548  0.33648602  1
  H+  H191  1  0.61796580  0.38793151  0.01441652  1
  H+  H192  1  0.44824995  0.08287281  0.81555781  1
  H+  H193  1  0.64684396  0.61702329  0.18486103  1
  H+  H194  1  0.40356619  0.11463845  0.17582716  1
  H+  H195  1  0.97838093  0.61953272  0.17549507  1
  H+  H196  1  0.86758664  0.35166417  0.83573837  1
  H+  H197  1  0.63975941  0.76628191  0.33926119  1
  H+  H198  1  0.37119968  0.11988182  0.65950427  1
  H+  H199  1  0.15789106  0.54507942  0.49687249  1
  H+  H200  1  0.31461542  0.98400502  0.67863455  1
  H+  H201  1  0.87886865  0.85755812  1.00162696  1
  H+  H202  1  0.45390445  0.10810460  0.66427967  1
  H+  H203  1  0.63884976  0.52714939  0.65710417  1
  H+  H204  1  0.18304702  0.13678217  0.14840117  1
  H+  H205  1  0.34556676  0.09578371  0.49310898  1
  H+  H206  1  0.77655985  0.88436476  0.34617482  1
  H+  H207  1  0.98744902  0.97329392  0.89414345  1
  H+  H208  1  0.76790814  0.37803375  0.34320323  1
  H+  H209  1  0.27817067  0.65655897  0.48303537  1
  H+  H210  1  0.39207289  0.26647328  -0.00239027  1
  H+  H211  1  0.79869984  0.17016546  -0.07263641  1
  H+  H212  1  0.14637763  0.26919136  0.28958610  1
  H+  H213  1  0.23450471  0.87858413  0.32230451  1
  H+  H214  1  0.63874681  0.77347860  0.50920098  1
  H+  H215  1  0.79729779  0.49091904  0.79755909  1
  H+  H216  1  0.86876314  0.49232888  0.65516143  1
  H+  H217  1  1.01504376  0.91809229  0.85070977  1
  H+  H218  1  0.89606692  0.10894480  0.18296079  1
  H+  H219  1  0.75636119  0.59132504  0.37617091  1
  H+  H220  1  0.59449784  0.86320722  1.01996238  1
  H+  H221  1  0.62569897  1.01803897  0.49702151  1
  H+  H222  1  0.86626183  0.34007594  0.50156746  1
  H+  H223  1  0.36784386  0.86353367  0.83607324  1
  H+  H224  1  0.67376155  0.07367388  0.25125433  1
  H+  H225  1  0.56915119  0.40753740  0.43453168  1
  H+  H226  1  0.76144477  0.64026557  0.51662641  1
  H+  H227  1  0.23985968  0.33946043  0.97440550  1
  H+  H228  1  0.97995283  0.10999446  0.33139693  1
  H+  H229  1  0.22935793  0.62061371  0.16543226  1
  H+  H230  1  0.34177131  0.68944546  1.02479643  1
  H+  H231  1  0.88628268  0.01677092  0.50737952  1
  H+  H232  1  0.53028341  -0.01046053  0.62605795  1
  H+  H233  1  0.00642834  0.28528999  0.40393508  1
  H+  H234  1  0.16102857  0.10790293  0.21811929  1
  H+  H235  1  0.51712446  0.89200926  0.82539132  1
  H+  H236  1  0.74307830  0.36944288  0.49130488  1
  H+  H237  1  0.12475234  0.39753701  1.01494495  1
  H+  H238  1  0.88064673  0.57926246  0.68370800  1
  H+  H239  1  0.22499351  0.10809582  -0.00490082  1
  H+  H240  1  0.36099675  0.13093309  1.00484082  1
  H+  H241  1  0.68820866  0.07450186  0.98973668  1
  H+  H242  1  0.38626620  0.59300355  0.01866018  1
  H+  H243  1  0.72806570  0.09614124  0.31413696  1
  H+  H244  1  0.86462164  0.03471508  0.95161672  1
  H+  H245  1  0.26676576  0.14965405  0.67088095  1
  H+  H246  1  0.36790748  0.11973286  0.33037852  1
  H+  H247  1  0.62822146  0.11875949  0.32214289  1
  H+  H248  1  0.89461459  0.24800956  1.00924392  1
  H+  H249  1  0.61106101  0.22451412  0.00618869  1
  H+  H250  1  0.82373330  0.16377671  0.76572550  1
  H+  H251  1  0.14130630  0.62012846  0.98680766  1
  H+  H252  1  0.52906453  0.64345759  0.50217386  1
  H+  H253  1  0.21718361  0.09839866  0.50639375  1
  H+  H254  1  0.08086953  0.15250747  0.41724525  1
  H+  H255  1  0.88868865  0.11772911  0.99274976  1
  H+  H256  1  0.88885826  0.85912887  0.51490712  1
  H+  H257  1  0.91996141  0.33681307  0.93208683  1
  H+  H258  1  0.23628573  0.12836459  0.30520081  1
  H+  H259  1  0.62098144  0.96590464  0.32749009  1
  H+  H260  1  0.52002476  0.39762239  0.49769478  1
  H+  H261  1  0.69599767  0.23011621  0.77789844  1
  H+  H262  1  0.59960559  0.38208211  0.67207079  1
  H+  H263  1  0.98210007  0.85816338  0.66726294  1
  H+  H264  1  0.59491067  0.85469776  0.18361659  1
  H+  H265  1  0.86971928  0.48365793  0.16376377  1
  H+  H266  1  0.61406190  -0.03923907  0.67322032  1
  H+  H267  1  0.80999781  0.17260995  0.03602508  1
  H+  H268  1  0.59723071  0.36355903  0.34085758  1
  H+  H269  1  0.64051737  0.06247222  0.92850207  1
  H+  H270  1  0.61765058  0.26402123  0.65228202  1
  H+  H271  1  0.64046133  0.54284284  0.51213898  1
  H+  H272  1  0.65014054  0.28139482  0.84268583  1
  H+  H273  1  0.39028460  0.60962485  0.33798099  1
  H+  H274  1  0.14766882  0.75441107  0.00711382  1
  H+  H275  1  0.87022621  0.25923389  0.65154936  1
  H+  H276  1  0.14266197  0.62973266  0.16529741  1
  H+  H277  1  0.50631756  0.36214091  0.33959472  1
  H+  H278  1  0.47122826  0.37380799  0.66624532  1
  H+  H279  1  0.99276802  0.36417846  0.82276954  1
  H+  H280  1  0.38712451  0.62495259  0.49894092  1
  H+  H281  1  0.72733701  0.35615625  1.00175663  1
  H+  H282  1  0.61020659  0.35235371  0.49999309  1
  H+  H283  1  0.42083104  0.32882777  0.93893395  1
  H+  H284  1  0.62211574  0.39522655  0.16771170  1
  H+  H285  1  0.52900092  0.38657808  0.01301654  1
  H+  H286  1  0.88730352  0.24416546  0.17314413  1
  H+  H287  1  0.13133641  0.12467178  0.65822828  1
  H+  H288  1  0.16121930  0.33455666  0.57294638  1
  H+  H289  1  0.11040288  0.22101566  0.50692419  1
  H+  H290  1  0.64917281  0.88838764  0.85511095  1
  H+  H291  1  0.90935880  0.07772840  0.56625896  1
  H+  H292  1  0.08664239  0.19623801  0.08996416  1
  H+  H293  1  0.13013897  0.86607982  0.98756644  1
  H+  H294  1  0.85594861  0.87654830  0.17234314  1
  H+  H295  1  0.43037862  0.59044148  0.27933779  1
  H+  H296  1  0.05565424  0.62815514  0.37370519  1
  H+  H297  1  0.58400061  0.65796164  0.76226250  1
  H+  H298  1  0.81520652  0.40408707  0.43932702  1
  H+  H299  1  0.41766382  0.36029885  0.57928426  1
  H+  H300  1  0.33781000  0.67885741  0.72205581  1
  H+  H301  1  0.83740905  0.91341622  0.43892512  1
  H+  H302  1  0.16953307  0.82244262  0.54496413  1
  H+  H303  1  0.17797185  0.58779150  0.88943418  1
  H+  H304  1  0.55556269  0.88540092  0.13099127  1
  H+  H305  1  0.47829443  0.11836664  -0.01052240  1
  H+  H306  1  0.66373856  0.57855813  0.93597058  1
  H+  H307  1  0.33388850  0.15736250  0.06732238  1
  H+  H308  1  0.32635568  0.93319292  0.09562735  1
  H+  H309  1  0.92940782  0.11335026  0.88212261  1
  H+  H310  1  0.23890333  0.87385273  0.82656242  1
  H+  H311  1  0.90427399  0.57355657  0.94105229  1
  H+  H312  1  0.02621206  0.40194746  0.16240493  1
  H+  H313  1  0.21065625  0.73611182  0.04497592  1
  H+  H314  1  0.63262127  0.31468616  0.55932949  1
  H+  H315  1  0.53587688  0.15677260  0.43571160  1
  H+  H316  1  0.39534134  0.06089647  0.57314643  1
  H+  H317  1  0.45852692  0.09188295  0.51420485  1
  H+  H318  1  0.90525062  0.31423174  0.58902482  1
  H+  H319  1  0.87412555  0.17617451  0.41524621  1
  H+  H320  1  0.37607892  0.62876707  0.18436208  1
  H+  H321  1  0.35192254  0.48611797  0.67034782  1
  H+  H322  1  0.09725003  0.68814198  0.10511813  1
  H+  H323  1  0.92679388  0.85651169  0.94085284  1
  H+  H324  1  0.17449538  0.84999651  0.23307163  1
  H+  H325  1  0.79898617  0.54506557  0.40957175  1
  H+  H326  1  0.31891232  0.12714509  0.38790157  1
  H+  H327  1  0.58219166  0.91203748  0.76926781  1
  H+  H328  1  0.58801359  0.17050551  0.10108656  1
  H+  H329  1  0.07535698  0.16987242  0.72666143  1
  H+  H330  1  0.83857429  0.41948693  0.10570833  1
  H+  H331  1  0.18417589  0.58675419  0.25756255  1
  H+  H332  1  0.33443709  0.91280539  0.42105962  1
  H+  H333  1  0.86606568  0.70919375  0.67873694  1
  H+  H334  1  0.85350962  0.21355938  0.32866650  1
  H+  H335  1  0.84223792  0.45910653  0.75500544  1
  H+  H336  1  0.14786405  0.82959614  0.88835291  1
  H+  H337  1  0.36905984  0.48663500  0.13206454  1
  H+  H338  1  0.86084803  0.46350641  0.34453821  1
  H+  H339  1  0.88776641  0.61563369  0.17738081  1
  H+  H340  1  0.10318333  0.13537087  0.82040042  1
  H+  H341  1  0.52161134  0.63202642  0.17800019  1
  H+  H342  1  0.36260481  0.48353832  0.84724807  1
  H+  H343  1  0.15391672  0.32949838  0.87633061  1
  H+  H344  1  0.08099963  0.92898012  0.77648985  1
  H+  H345  1  0.74811930  0.12913870  0.17101029  1
  H+  H346  1  0.88426336  0.01964618  0.66294984  1
  H+  H347  1  0.58113523  0.66004003  0.11591302  1
  H+  H348  1  0.28156521  0.92131244  0.73614098  1
  H+  H349  1  0.59300029  0.91152973  0.42480484  1
  H+  H350  1  0.08290257  0.64677806  0.76735635  1
  H+  H351  1  0.58654517  0.67004512  0.41358891  1
  H+  H352  1  0.33377271  0.64479947  0.08727439  1
  H+  H353  1  0.16892005  0.35305536  0.25653966  1
  H+  H354  1  0.66935342  0.58952405  0.59502473  1
  H+  H355  1  0.09068276  0.92408469  0.39843750  1
  H+  H356  1  0.84159304  0.36626485  0.62575443  1
  H+  H357  1  0.43114055  0.07554747  0.26394300  1
  H+  H358  1  0.04994500  0.39894116  0.75701785  1
  H+  H359  1  0.66241459  0.83186122  0.94869067  1
  H+  H360  1  0.61148395  0.05140104  0.58538810  1
  H+  H361  1  0.67181110  0.83713929  0.56653168  1
  H+  H362  1  0.57403221  0.41216051  0.73385868  1
  H+  H363  1  0.86467045  0.97503621  0.34504808  1
  H+  H364  1  0.62686989  0.15959296  0.38512521  1
  H+  H365  1  0.08279617  0.42272865  0.06939243  1
  H+  H366  1  0.81686984  0.89730465  0.11423829  1
  H+  H367  1  0.33773641  0.67816553  0.42235649  1
  H+  H368  1  0.66985704  0.33239536  0.26671068  1
  H+  H369  1  0.61536827  0.63248439  0.01468851  1
  H+  H370  1  0.45763414  0.84337532  1.03129755  1
  H+  H371  1  0.39771491  0.82914580  0.89191852  1
  H+  H372  1  0.81677375  0.61624485  0.76181752  1
  H+  H373  1  0.35198069  0.21414231  0.16512616  1
  H+  H374  1  0.92100910  0.57599926  0.27276397  1
  H+  H375  1  0.16936657  0.08793834  0.89506343  1
  H+  H376  1  0.07901892  0.91724083  0.10031307  1
  H+  H377  1  0.87546432  0.18986561  0.11383421  1
  H+  H378  1  0.16343682  0.08949083  0.60230722  1
  H+  H379  1  0.92491621  0.83804548  0.27217320  1
  H+  H380  1  0.44333337  0.82725252  0.56233221  1
  H+  H381  1  0.92343831  0.07663701  0.26897877  1
  H+  H382  1  0.59221207  0.42672224  0.11098355  1
  H+  H383  1  0.61920295  0.87465105  0.33585857  1
  O2-  O384  1  0.08859708  0.21312832  0.13313144  1
  O2-  O385  1  0.08266584  0.15994034  0.49208308  1
  O2-  O386  1  0.07481560  0.16550184  0.80235209  1
  O2-  O387  1  0.08341952  0.43194799  0.14131082  1
  O2-  O388  1  0.13260922  0.45131976  0.47433993  1
  O2-  O389  1  0.05229324  0.39137144  0.80422693  1
  O2-  O390  1  0.08675620  0.68029178  0.14954849  1
  O2-  O391  1  0.06965317  0.65438956  0.46226198  1
  O2-  O392  1  0.08658323  0.66597656  0.81005389  1
  O2-  O393  1  0.07759396  0.91867895  0.14568644  1
  O2-  O394  1  0.07948536  0.90878640  0.48442863  1
  O2-  O395  1  0.08994652  0.93101255  0.82070763  1
  O2-  O396  1  0.33810134  0.15572877  0.14705149  1
  O2-  O397  1  0.31802048  0.12562170  0.47160067  1
  O2-  O398  1  0.32805347  0.17795902  0.80818267  1
  O2-  O399  1  0.33420632  0.42423604  0.13650821  1
  O2-  O400  1  0.32234740  0.42477069  0.48029569  1
  O2-  O401  1  0.32850988  0.41740860  0.85095106  1
  O2-  O402  1  0.34345311  0.65916400  0.16703841  1
  O2-  O403  1  0.34000116  0.68316037  0.46876986  1
  O2-  O404  1  0.33809524  0.67252076  0.79595215  1
  O2-  O405  1  0.33349866  0.93159808  0.13993621  1
  O2-  O406  1  0.32009989  0.90567648  0.46844795  1
  O2-  O407  1  0.30477408  0.90740415  0.81374129  1
  O2-  O408  1  0.59524355  0.17347415  0.14595416  1
  O2-  O409  1  0.55268624  0.15662903  0.47785931  1
  O2-  O410  1  0.63972996  0.19550963  0.79687237  1
  O2-  O411  1  0.59268770  0.42709110  0.15590457  1
  O2-  O412  1  0.57691867  0.41501108  0.47973746  1
  O2-  O413  1  0.56644203  0.40627210  0.81240063  1
  O2-  O414  1  0.58341770  0.66194888  0.16100282  1
  O2-  O415  1  0.59022620  0.67446839  0.48982258  1
  O2-  O416  1  0.57824458  0.65604991  0.80709533  1
  O2-  O417  1  0.55212274  0.87355042  0.17461269  1
  O2-  O418  1  0.59061382  0.91341663  0.47040194  1
  O2-  O419  1  0.57866209  0.92177005  0.81376053  1
  O2-  O420  1  0.86175341  0.18360156  0.15758991  1
  O2-  O421  1  0.91724985  0.20280253  0.44855741  1
  O2-  O422  1  0.82673762  0.16600242  0.81078006  1
  O2-  O423  1  0.84033222  0.42146221  0.15109293  1
  O2-  O424  1  0.80647571  0.40066514  0.48473239  1
  O2-  O425  1  0.81318508  0.44438314  0.79525303  1
  O2-  O426  1  0.83602711  0.66783300  0.15256290  1
  O2-  O427  1  0.82669905  0.66678265  0.50535538  1
  O2-  O428  1  0.80215547  0.58739343  0.80275722  1
  O2-  O429  1  0.82197352  0.90473340  0.15908548  1
  O2-  O430  1  0.83796874  0.91420045  0.48472120  1
  O2-  O431  1  0.84197663  0.94104565  0.81309231  1
  O2-  O432  1  0.14309633  0.08993411  0.17430620  1
  O2-  O433  1  0.16029095  0.07427464  0.52620205  1
  O2-  O434  1  0.16897787  0.08929150  0.84993187  1
  O2-  O435  1  0.17884971  0.36885613  0.18190023  1
  O2-  O436  1  0.16073268  0.32583883  0.52796004  1
  O2-  O437  1  0.13954990  0.32591640  0.83263053  1
  O2-  O438  1  0.16695623  0.59127499  0.17431043  1
  O2-  O439  1  0.17949086  0.60736974  0.50784028  1
  O2-  O440  1  0.18811126  0.59674601  0.84472471  1
  O2-  O441  1  0.17197103  0.84492331  0.18665905  1
  O2-  O442  1  0.16736321  0.83230383  0.50055079  1
  O2-  O443  1  0.14807896  0.83266065  0.84307888  1
  O2-  O444  1  0.43186591  0.08211332  0.18960340  1
  O2-  O445  1  0.39758034  0.05415549  0.52770278  1
  O2-  O446  1  0.45227905  0.12828744  0.84202581  1
  O2-  O447  1  0.36677982  0.29847358  0.19411514  1
  O2-  O448  1  0.41753935  0.36181071  0.53248390  1
  O2-  O449  1  0.41156502  0.33642476  0.86304258  1
  O2-  O450  1  0.43048548  0.59218653  0.20822150  1
  O2-  O451  1  0.41290634  0.59203179  0.51664753  1
  O2-  O452  1  0.41399968  0.58172076  0.84671103  1
  O2-  O453  1  0.42224020  0.84458305  0.24278432  1
  O2-  O454  1  0.43905872  0.82740295  0.51414624  1
  O2-  O455  1  0.40667790  0.84114177  0.84852624  1
  O2-  O456  1  0.68643250  0.09444052  0.18174362  1
  O2-  O457  1  0.64181982  0.07254001  0.51890939  1
  O2-  O458  1  0.66340354  0.08126477  0.85158878  1
  O2-  O459  1  0.67567769  0.33753655  0.19204919  1
  O2-  O460  1  0.63412890  0.31398447  0.51364164  1
  O2-  O461  1  0.66451693  0.33755938  0.86070555  1
  O2-  O462  1  0.68266930  0.59149126  0.19630059  1
  O2-  O463  1  0.66693293  0.59977783  0.53095901  1
  O2-  O464  1  0.65792201  0.56921618  0.85792002  1
  O2-  O465  1  0.65996943  0.81767568  0.20301763  1
  O2-  O466  1  0.66998781  0.83687560  0.52116835  1
  O2-  O467  1  0.69070101  0.88194902  0.88050009  1
  O2-  O468  1  0.91903009  0.07233412  0.19774758  1
  O2-  O469  1  0.91748024  0.07847739  0.52138784  1
  O2-  O470  1  0.92139422  0.10672204  0.83818423  1
  O2-  O471  1  0.92783952  0.34697206  0.19422507  1
  O2-  O472  1  0.90422360  0.32039202  0.51834338  1
  O2-  O473  1  0.89742079  0.32236640  0.85056675  1
  O2-  O474  1  0.91870817  0.58506257  0.19142734  1
  O2-  O475  1  0.91749053  0.58219341  0.52328966  1
  O2-  O476  1  0.93412699  0.58943068  0.86333311  1
  O2-  O477  1  0.91283501  0.83139769  0.19091827  1
  O2-  O478  1  0.91940837  0.83014312  0.53159024  1
  O2-  O479  1  0.96182616  0.91622398  0.87616069  1
  O2-  O480  1  0.19203736  0.13818776  0.28624062  1
  O2-  O481  1  0.16482806  0.09549633  0.64767707  1
  O2-  O482  1  0.16562630  0.07784670  0.97787837  1
  O2-  O483  1  0.16218109  0.32838742  0.29898521  1
  O2-  O484  1  0.15470235  0.34374676  0.65040324  1
  O2-  O485  1  0.19045695  0.29901271  0.94656098  1
  O2-  O486  1  0.18597585  0.58381270  0.30233932  1
  O2-  O487  1  0.19468685  0.65461567  0.62262073  1
  O2-  O488  1  0.13677346  0.57381702  0.96030669  1
  O2-  O489  1  0.17776816  0.85731789  0.30423331  1
  O2-  O490  1  0.18086195  0.80085610  0.62031491  1
  O2-  O491  1  0.16192190  0.83963731  0.96788708  1
  O2-  O492  1  0.43084770  0.07517367  0.31013879  1
  O2-  O493  1  0.39424195  0.08079009  0.64785736  1
  O2-  O494  1  0.41919119  0.08791509  0.97046157  1
  O2-  O495  1  0.40220669  0.31670974  0.31596149  1
  O2-  O496  1  0.41108689  0.34776938  0.64965915  1
  O2-  O497  1  0.42398927  0.32784852  0.98457230  1
  O2-  O498  1  0.42238018  0.57994121  0.32593655  1
  O2-  O499  1  0.41973489  0.59073713  0.64060051  1
  O2-  O500  1  0.42531197  0.57067332  1.00781015  1
  O2-  O501  1  0.43155838  0.83706063  0.30856669  1
  O2-  O502  1  0.44604201  0.83391493  0.62781099  1
  O2-  O503  1  0.39318397  0.81883499  1.03377007  1
  O2-  O504  1  0.66779198  0.06580406  0.29772996  1
  O2-  O505  1  0.58914493  0.03735903  0.62974001  1
  O2-  O506  1  0.63110758  0.05583686  0.97371531  1
  O2-  O507  1  0.66536964  0.32615937  0.31252648  1
  O2-  O508  1  0.64157517  0.32290316  0.63536136  1
  O2-  O509  1  0.66593051  0.32780414  0.98674627  1
  O2-  O510  1  0.66358204  0.56709590  0.35807862  1
  O2-  O511  1  0.67379910  0.58747933  0.64380721  1
  O2-  O512  1  0.66748456  0.58249391  0.98141567  1
  O2-  O513  1  0.66992737  0.82649025  0.32218756  1
  O2-  O514  1  0.67649331  0.83261606  0.64661608  1
  O2-  O515  1  0.65517417  0.82146074  0.99363901  1
  O2-  O516  1  0.92073363  0.08018803  0.31538470  1
  O2-  O517  1  0.90679859  0.07930804  0.64649830  1
  O2-  O518  1  0.91015730  0.08020451  0.97568624  1
  O2-  O519  1  0.90523859  0.32233880  0.31482069  1
  O2-  O520  1  0.90031909  0.31866663  0.63515470  1
  O2-  O521  1  0.92558302  0.33935013  0.97698387  1
  O2-  O522  1  0.91679105  0.56267820  0.31708608  1
  O2-  O523  1  0.89932476  0.53585199  0.68766379  1
  O2-  O524  1  0.88422240  0.55818857  0.98348585  1
  O2-  O525  1  0.93359151  0.84337797  0.31681459  1
  O2-  O526  1  0.92061411  0.82662803  0.65576481  1
  O2-  O527  1  0.91504976  0.83538390  0.98407115  1
  O2-  O528  1  0.08231393  0.16184957  0.01402218  1
  O2-  O529  1  0.08719402  0.16027326  0.37165906  1
  O2-  O530  1  0.07402127  0.17257825  0.68095958  1
  O2-  O531  1  0.08532400  0.41853451  0.02324325  1
  O2-  O532  1  0.03957644  0.33825047  0.37928901  1
  O2-  O533  1  0.05051648  0.41694402  0.69179941  1
  O2-  O534  1  0.15067190  0.70933145  0.03271696  1
  O2-  O535  1  0.06574456  0.62612312  0.32957448  1
  O2-  O536  1  0.06437679  0.57450549  0.70143085  1
  O2-  O537  1  0.08052729  0.91410120  0.02167875  1
  O2-  O538  1  0.09757127  0.93452107  0.35434958  1
  O2-  O539  1  0.09608490  0.93064162  0.68900183  1
  O2-  O540  1  0.33065074  0.15986537  0.02205374  1
  O2-  O541  1  0.33107040  0.14334209  0.34466902  1
  O2-  O542  1  0.32867814  0.17874468  0.68429082  1
  O2-  O543  1  0.32327128  0.39163244  0.01517105  1
  O2-  O544  1  0.32907300  0.41246410  0.35630686  1
  O2-  O545  1  0.31578462  0.42692469  0.68674936  1
  O2-  O546  1  0.32286633  0.63308527  0.04302499  1
  O2-  O547  1  0.33617491  0.66714991  0.35093421  1
  O2-  O548  1  0.34362136  0.68315052  0.67616473  1
  O2-  O549  1  0.32574925  0.92269433  0.01049938  1
  O2-  O550  1  0.34995944  0.91777896  0.35693646  1
  O2-  O551  1  0.26453870  0.93096012  0.69518233  1
  O2-  O552  1  0.57454816  0.16317817  0.02026840  1
  O2-  O553  1  0.60416734  0.15348123  0.34406892  1
  O2-  O554  1  0.56383815  0.15828049  0.68141159  1
  O2-  O555  1  0.58954080  0.42063580  0.02731065  1
  O2-  O556  1  0.56433184  0.38923049  0.35879529  1
  O2-  O557  1  0.57340622  0.41524597  0.68849774  1
  O2-  O558  1  0.58672262  0.66287944  0.03227472  1
  O2-  O559  1  0.58757353  0.66725307  0.36792839  1
  O2-  O560  1  0.58975126  0.66892066  0.68007339  1
  O2-  O561  1  0.56224028  0.89156917  0.03578372  1
  O2-  O562  1  0.58795065  0.90757639  0.34693372  1
  O2-  O563  1  0.59435664  0.90482802  0.69306737  1
  O2-  O564  1  0.87032829  0.19023266  0.03067843  1
  O2-  O565  1  0.82696107  0.15272228  0.34320829  1
  O2-  O566  1  0.82123416  0.15497006  0.68396208  1
  O2-  O567  1  0.82731970  0.40665450  0.02701459  1
  O2-  O568  1  0.82595607  0.40431984  0.36267873  1
  O2-  O569  1  0.81200323  0.39965712  0.61499282  1
  O2-  O570  1  0.82901385  0.66489594  0.02533118  1
  O2-  O571  1  0.81434131  0.60001614  0.39099056  1
  O2-  O572  1  0.83284231  0.64694244  0.68811950  1
  O2-  O573  1  0.81198242  0.89456470  0.03459700  1
  O2-  O574  1  0.83642729  0.91592492  0.36243991  1
  O2-  O575  1  0.84008104  0.91722759  0.69149011  1
