# generated using pymatgen
data_H2O
_symmetry_space_group_name_H-M   'P 1'
_cell_length_a   17.97031485
_cell_length_b   17.96743197
_cell_length_c   21.99808912
_cell_angle_alpha   90.01929909
_cell_angle_beta   89.98248636
_cell_angle_gamma   120.01613830
_symmetry_Int_Tables_number   1
_chemical_formula_structural   H2O
_chemical_formula_sum   'H384 O192'
_cell_volume   6150.16271502
_cell_formula_units_Z   192
loop_
 _symmetry_equiv_pos_site_id
 _symmetry_equiv_pos_as_xyz
  1  'x, y, z'
loop_
 _atom_type_symbol
 _atom_type_oxidation_number
  H+  1.0
  O2-  -2.0
loop_
 _atom_site_type_symbol
 _atom_site_label
 _atom_site_symmetry_multiplicity
 _atom_site_fract_x
 _atom_site_fract_y
 _atom_site_fract_z
 _atom_site_occupancy
  H+  H0  1  0.63756659  0.27141870  0.32748856  1
  H+  H1  1  0.52923816  0.13861886  0.49503901  1
  H+  H2  1  0.13519013  0.28134369  0.66596095  1
  H+  H3  1  0.38564110  0.61400602  0.83421676  1
  H+  H4  1  0.86621649  0.39214249  0.67313273  1
  H+  H5  1  0.14827596  0.75852068  0.66692968  1
  H+  H6  1  0.28162966  0.40563272  0.16888280  1
  H+  H7  1  0.20786001  0.10388519  0.16995002  1
  H+  H8  1  0.64768753  0.61572325  0.50706727  1
  H+  H9  1  0.82577029  -0.00636092  0.33154852  1
  H+  H10  1  0.98777313  0.36442121  0.84922877  1
  H+  H11  1  0.38255313  0.77567590  0.18000098  1
  H+  H12  1  0.27439573  0.88413728  0.14202289  1
  H+  H13  1  0.86334429  0.22671991  0.67819239  1
  H+  H14  1  0.48077021  0.85875800  0.99111692  1
  H+  H15  1  0.60908143  0.13372620  0.33751456  1
  H+  H16  1  0.38878055  0.02238210  0.50653772  1
  H+  H17  1  0.26865449  0.87662676  0.49359821  1
  H+  H18  1  0.72604081  0.35443178  0.82057377  1
  H+  H19  1  0.62581016  0.24632208  0.82868374  1
  H+  H20  1  0.91500523  0.87195134  0.27160524  1
  H+  H21  1  0.57826859  0.66159578  0.43676541  1
  H+  H22  1  0.87000050  0.22875310  0.00531674  1
  H+  H23  1  0.38405801  0.86627785  0.17384016  1
  H+  H24  1  0.13851704  0.11146029  0.50695179  1
  H+  H25  1  0.62076704  0.76075542  0.32547755  1
  H+  H26  1  0.63727722  0.55137591  0.88139252  1
  H+  H27  1  0.66935044  0.08131492  0.60768294  1
  H+  H28  1  0.35601394  0.64186415  0.34027725  1
  H+  H29  1  0.73006423  0.11893202  0.99391982  1
  H+  H30  1  0.60857676  -0.01913798  1.00482132  1
  H+  H31  1  0.66062355  0.49677079  0.18516491  1
  H+  H32  1  0.39127935  0.11290158  0.50917579  1
  H+  H33  1  0.14179789  0.28975212  0.19422828  1
  H+  H34  1  0.71920802  0.61961062  0.33784165  1
  H+  H35  1  0.12952355  0.24035214  0.11252388  1
  H+  H36  1  0.98157921  0.13360651  0.16019199  1
  H+  H37  1  0.13966790  0.11167547  0.83418099  1
  H+  H38  1  0.88197084  0.48288907  0.49188403  1
  H+  H39  1  0.87791056  0.64224390  0.67401300  1
  H+  H40  1  0.62063492  0.49325129  0.68044316  1
  H+  H41  1  0.53406041  0.88508337  0.82858407  1
  H+  H42  1  0.24826726  0.60678167  1.00069122  1
  H+  H43  1  0.36964823  0.23135124  0.67471027  1
  H+  H44  1  0.13717436  0.85827537  0.14251385  1
  H+  H45  1  0.64501053  0.12612085  -0.00986418  1
  H+  H46  1  0.11288352  0.47675726  0.83592727  1
  H+  H47  1  0.88925944  0.12763775  0.16409443  1
  H+  H48  1  0.78298148  0.34552189  0.02303923  1
  H+  H49  1  0.37012729  0.15486416  1.00602904  1
  H+  H50  1  0.13444166  0.60634462  0.84677780  1
  H+  H51  1  0.86263260  0.38771555  0.34018042  1
  H+  H52  1  0.77619195  0.88381035  0.82444816  1
  H+  H53  1  0.59809740  0.39804746  -0.00023962  1
  H+  H54  1  0.14185005  0.60509269  0.62086709  1
  H+  H55  1  0.38101337  0.51901462  0.51265330  1
  H+  H56  1  0.75024344  0.88512994  -0.00515689  1
  H+  H57  1  0.36039577  0.87882333  0.49544419  1
  H+  H58  1  0.39194671  0.36924714  0.66627565  1
  H+  H59  1  0.78181079  0.14112490  0.83254227  1
  H+  H60  1  0.71305890  0.10992369  0.29937223  1
  H+  H61  1  0.61762982  0.22895535  0.49544643  1
  H+  H62  1  0.64081189  0.11758685  0.51134633  1
  H+  H63  1  0.14428724  0.36459575  0.84026311  1
  H+  H64  1  0.11734430  0.60760715  0.51730155  1
  H+  H65  1  0.88404270  0.85529633  0.83616567  1
  H+  H66  1  0.60187357  0.13540458  0.14737390  1
  H+  H67  1  0.26148667  0.64833950  0.68144442  1
  H+  H68  1  0.38303661  0.53025067  0.30909056  1
  H+  H69  1  0.81231877  0.60136053  0.00363569  1
  H+  H70  1  0.84012038  -0.07967033  0.06975966  1
  H+  H71  1  0.36325073  0.97449223  0.15259933  1
  H+  H72  1  0.87257827  0.89253637  1.00738387  1
  H+  H73  1  0.88886436  0.11730520  0.66623704  1
  H+  H74  1  0.10705575  0.87972409  0.82818575  1
  H+  H75  1  0.21118853  0.61778213  0.51714278  1
  H+  H76  1  0.49532017  0.63145654  0.16339465  1
  H+  H77  1  0.89069780  0.55559739  0.89859404  1
  H+  H78  1  0.32094664  0.18817670  0.08724144  1
  H+  H79  1  0.87665461  0.51639904  0.32997530  1
  H+  H80  1  0.12794514  0.46793315  1.01458840  1
  H+  H81  1  0.59009830  0.41777564  0.44083295  1
  H+  H82  1  0.01716854  0.63088004  0.16076976  1
  H+  H83  1  0.76559777  0.62203888  0.82131738  1
  H+  H84  1  0.52519592  0.89125210  0.33177805  1
  H+  H85  1  1.11167175  0.39364305  0.35164011  1
  H+  H86  1  0.72847862  0.11512860  0.51588837  1
  H+  H87  1  0.89235110  0.11536099  0.50833296  1
  H+  H88  1  0.10701549  0.76177169  -0.00417794  1
  H+  H89  1  0.60726137  0.52183630  -0.01988831  1
  H+  H90  1  0.36981909  -0.11127067  0.67580096  1
  H+  H91  1  0.41630533  0.88214707  0.83814733  1
  H+  H92  1  0.07265933  0.91114802  0.09285652  1
  H+  H93  1  0.38276344  0.02078106  0.66193731  1
  H+  H94  1  0.14545146  0.27711120  0.83905438  1
  H+  H95  1  0.38458759  0.84246125  -0.00973726  1
  H+  H96  1  0.02102530  0.38753708  0.16708020  1
  H+  H97  1  0.27116856  0.39667548  0.35230336  1
  H+  H98  1  0.88713666  0.02236342  0.99592140  1
  H+  H99  1  0.60612166  0.88008148  0.17391907  1
  H+  H100  1  0.60772380  0.12337013  0.67763978  1
  H+  H101  1  0.41438076  0.06610449  1.00749698  1
  H+  H102  1  0.63566310  0.76472161  0.83020561  1
  H+  H103  1  0.33686236  0.93359953  -0.00980740  1
  H+  H104  1  0.21969046  0.34970296  0.51217843  1
  H+  H105  1  0.12466775  0.76537779  0.51281216  1
  H+  H106  1  0.86278282  0.48104240  0.15243055  1
  H+  H107  1  0.11138686  0.12461866  -0.01091298  1
  H+  H108  1  0.14865857  0.26562170  1.01786336  1
  H+  H109  1  0.08568017  0.42450943  0.44454753  1
  H+  H110  1  0.38576167  0.52472156  0.82850419  1
  H+  H111  1  0.13877927  0.76968232  0.14219374  1
  H+  H112  1  0.61671968  0.73771278  0.98763763  1
  H+  H113  1  0.87663706  0.48620625  0.67234554  1
  H+  H114  1  0.54074227  0.16430587  -0.00487848  1
  H+  H115  1  0.27965603  0.88393321  0.68427014  1
  H+  H116  1  0.60280434  -0.02542024  0.16231422  1
  H+  H117  1  0.37015375  0.64750251  0.16490653  1
  H+  H118  1  0.59625564  0.69138944  0.08408410  1
  H+  H119  1  0.36599929  0.13951193  0.67117293  1
  H+  H120  1  0.61463845  0.64049193  0.66746313  1
  H+  H121  1  0.64915185  0.02062692  0.84072773  1
  H+  H122  1  0.52252326  0.64173260  0.82000468  1
  H+  H123  1  0.71916769  0.38537947  -0.03216315  1
  H+  H124  1  0.71184713  0.84078668  0.33195339  1
  H+  H125  1  0.36755237  0.39358214  0.81720601  1
  H+  H126  1  0.94625991  0.59564048  0.60054764  1
  H+  H127  1  0.67369566  0.82412757  0.89090367  1
  H+  H128  1  0.51410876  0.63075500  0.33778261  1
  H+  H129  1  0.37013326  0.35951798  0.97566732  1
  H+  H130  1  -0.01199233  0.87804430  0.32868775  1
  H+  H131  1  0.47903380  0.61403442  0.98003791  1
  H+  H132  1  0.52965035  0.38785442  0.16483058  1
  H+  H133  1  0.36490713  0.37649723  0.51075998  1
  H+  H134  1  0.11248443  1.02254161  0.32670950  1
  H+  H135  1  0.18899711  0.86072555  0.35532423  1
  H+  H136  1  0.37581738  0.02495559  0.85354127  1
  H+  H137  1  0.53270780  0.40347657  0.68707260  1
  H+  H138  1  0.11841537  0.14232304  0.67497141  1
  H+  H139  1  0.00263006  0.61362924  0.66077719  1
  H+  H140  1  0.88814953  0.02137141  0.83893543  1
  H+  H141  1  0.64641517  0.38421818  0.65959946  1
  H+  H142  1  0.09180536  -0.04305604  0.15739887  1
  H+  H143  1  0.64068685  0.29155250  0.98079206  1
  H+  H144  1  0.97219819  0.80666807  0.16458235  1
  H+  H145  1  0.47883140  0.10853401  0.33134698  1
  H+  H146  1  0.62138928  0.38987725  0.49984825  1
  H+  H147  1  0.38030006  0.23701041  0.35083701  1
  H+  H148  1  0.10748183  0.13642931  0.33965872  1
  H+  H149  1  0.35320732  0.23347615  -0.00589662  1
  H+  H150  1  0.23060559  0.11593411  -0.01613730  1
  H+  H151  1  0.67869424  0.59093163  0.60179560  1
  H+  H152  1  0.63669790  0.78511336  0.16650743  1
  H+  H153  1  0.98183492  0.87725704  0.98975786  1
  H+  H154  1  0.85157378  0.22713469  0.15786879  1
  H+  H155  1  0.38060585  0.61627945  0.66154994  1
  H+  H156  1  0.71296315  0.10717605  0.15914960  1
  H+  H157  1  0.28359053  0.14214865  0.50126636  1
  H+  H158  1  0.98456357  0.86516958  0.66614489  1
  H+  H159  1  0.01401737  0.61386196  0.82235454  1
  H+  H160  1  0.13709212  0.52489776  0.18022691  1
  H+  H161  1  0.05456425  0.61939773  -0.00453788  1
  H+  H162  1  0.89020031  0.36549887  1.00076472  1
  H+  H163  1  0.27658894  0.64042881  0.16926779  1
  H+  H164  1  0.47431487  0.11785206  0.16947648  1
  H+  H165  1  0.11349652  0.47923795  0.50663820  1
  H+  H166  1  0.37086899  0.71885160  0.00801366  1
  H+  H167  1  0.12264405  -0.02537536  0.67301231  1
  H+  H168  1  0.86927543  0.88954904  0.67500805  1
  H+  H169  1  0.92482191  0.63496512  0.50043986  1
  H+  H170  1  0.34801487  0.17598659  0.44413640  1
  H+  H171  1  0.60713780  0.88472882  0.50171406  1
  H+  H172  1  0.52397318  0.63983219  0.66640584  1
  H+  H173  1  0.23790404  0.35154732  0.03014304  1
  H+  H174  1  0.02714719  0.13617830  0.82911543  1
  H+  H175  1  0.40287357  0.28672756  0.82708983  1
  H+  H176  1  0.39659158  0.37913576  0.17998422  1
  H+  H177  1  0.77688124  0.90084816  0.16288127  1
  H+  H178  1  0.89055358  0.11251381  0.84114634  1
  H+  H179  1  0.84923653  0.13504493  0.34486544  1
  H+  H180  1  0.36430628  0.73108938  0.82720504  1
  H+  H181  1  0.89459840  0.26928345  0.85014356  1
  H+  H182  1  0.77663484  0.88950309  0.50401003  1
  H+  H183  1  0.00821170  0.63055469  0.35048827  1
  H+  H184  1  0.40546473  0.54204199  0.16881631  1
  H+  H185  1  0.61983718  0.47520076  0.34733704  1
  H+  H186  1  0.62240730  0.88320878  0.82536124  1
  H+  H187  1  0.95970717  0.21539337  0.29132026  1
  H+  H188  1  0.85344304  0.71395121  0.82801589  1
  H+  H189  1  0.87459396  0.59615544  0.83928011  1
  H+  H190  1  0.91483069  0.65671840  0.18533032  1
  H+  H191  1  0.61198686  0.88714446  0.32597703  1
  H+  H192  1  0.61525492  0.12441381  0.82628648  1
  H+  H193  1  0.85708533  0.74079274  0.33964988  1
  H+  H194  1  0.14071605  0.02227730  0.83319136  1
  H+  H195  1  0.87386656  0.60352342  0.33294151  1
  H+  H196  1  0.28078262  0.14848028  0.82255490  1
  H+  H197  1  0.11227879  0.88879075  1.00250757  1
  H+  H198  1  0.92193623  0.83687508  0.57681604  1
  H+  H199  1  0.10386644  0.22491169  0.49451373  1
  H+  H200  1  0.37511055  0.14603961  0.35061209  1
  H+  H201  1  0.60633636  0.97227814  0.50447344  1
  H+  H202  1  0.09033892  0.72104518  0.36870470  1
  H+  H203  1  0.40213848  0.33119896  0.91611462  1
  H+  H204  1  0.23077422  0.11701116  0.66330117  1
  H+  H205  1  0.36403394  0.88467125  0.34592347  1
  H+  H206  1  0.61360147  0.89603100  1.01095012  1
  H+  H207  1  0.62697457  0.01650365  0.30815762  1
  H+  H208  1  0.73629392  0.63051834  0.15403338  1
  H+  H209  1  0.37588428  0.77474642  0.33332673  1
  H+  H210  1  0.65097195  0.32127981  0.88197240  1
  H+  H211  1  0.88589428  0.36806941  0.17436304  1
  H+  H212  1  0.92575366  0.58691006  0.99724694  1
  H+  H213  1  0.35437869  0.72346218  0.49690687  1
  H+  H214  1  0.02876185  0.14147499  0.67598937  1
  H+  H215  1  0.52302879  0.63441026  0.49734410  1
  H+  H216  1  0.98196392  0.36515370  0.51391800  1
  H+  H217  1  0.97446251  0.36526870  0.66759945  1
  H+  H218  1  0.27428545  0.64125110  0.83067353  1
  H+  H219  1  0.73140173  0.36114143  0.17049751  1
  H+  H220  1  0.38266092  0.52802997  0.66065178  1
  H+  H221  1  0.57785675  0.14743423  0.76633472  1
  H+  H222  1  0.73008652  0.86462196  0.66113798  1
  H+  H223  1  0.38766301  0.28778565  0.17396837  1
  H+  H224  1  0.61143147  0.37404779  0.15914518  1
  H+  H225  1  0.15928767  0.60131451  1.00860156  1
  H+  H226  1  0.61386644  0.88379507  0.67331465  1
  H+  H227  1  0.89492108  0.77574487  0.66723995  1
  H+  H228  1  0.47212794  0.86096409  0.50907142  1
  H+  H229  1  0.20494416  0.83619993  -0.00336445  1
  H+  H230  1  0.14182470  0.28095823  0.34065682  1
  H+  H231  1  0.99699224  0.12273247  0.49739477  1
  H+  H232  1  0.98472641  0.36269876  0.99821753  1
  H+  H233  1  0.47659634  0.86017667  0.66129097  1
  H+  H234  1  1.02143993  0.12777936  0.99257732  1
  H+  H235  1  0.10391800  0.48648809  0.68448244  1
  H+  H236  1  1.02815199  0.15648371  0.33981874  1
  H+  H237  1  0.75821288  0.10022865  0.37874135  1
  H+  H238  1  0.77120060  0.38349981  0.34075226  1
  H+  H239  1  0.13682350  0.37509022  0.18664311  1
  H+  H240  1  0.89446661  0.77870451  0.51628724  1
  H+  H241  1  0.13742849  0.85870423  0.51387908  1
  H+  H242  1  0.48652710  0.36758543  0.51469816  1
  H+  H243  1  0.63978722  0.77527567  0.65906875  1
  H+  H244  1  0.07985959  0.15492402  0.08173375  1
  H+  H245  1  0.39726079  0.37477886  0.33378615  1
  H+  H246  1  0.83466049  0.46015740  0.82482885  1
  H+  H247  1  0.64915591  0.52771854  0.50862091  1
  H+  H248  1  0.73666323  0.62192684  0.66169086  1
  H+  H249  1  0.48890530  0.38101914  0.83482505  1
  H+  H250  1  0.85686780  0.48738210  0.99571794  1
  H+  H251  1  0.33657623  0.67114261  0.07206394  1
  H+  H252  1  0.64029522  1.01866668  0.66544057  1
  H+  H253  1  0.84212286  0.98375770  0.30296608  1
  H+  H254  1  0.47042188  1.02520892  0.80223662  1
  H+  H255  1  0.12172511  0.76082800  0.83735187  1
  H+  H256  1  0.12015621  -0.01779870  0.99941331  1
  H+  H257  1  -0.02867595  0.85298509  0.83670030  1
  H+  H258  1  0.73073560  0.36474827  0.50873498  1
  H+  H259  1  0.10176283  0.85909851  0.36608478  1
  H+  H260  1  0.12321276  0.10669156  0.16566713  1
  H+  H261  1  0.12050279  0.88334520  0.67550865  1
  H+  H262  1  0.87488102  0.23007351  0.50805145  1
  H+  H263  1  0.67577164  0.57075573  0.27645779  1
  H+  H264  1  0.73449601  0.38384359  0.65568421  1
  H+  H265  1  0.38954775  0.49152599  1.00543374  1
  H+  H266  1  0.50722461  0.88030316  0.17522125  1
  H+  H267  1  0.34275645  0.47837492  0.38875540  1
  H+  H268  1  0.38652406  0.95600489  0.76615859  1
  H+  H269  1  0.27396775  0.39245139  0.66983970  1
  H+  H270  1  0.12588936  0.61371017  0.33752542  1
  H+  H271  1  0.27501470  0.38833640  0.82162700  1
  H+  H272  1  0.21633750  0.61655845  0.33467001  1
  H+  H273  1  0.84039090  0.66315461  0.73362109  1
  H+  H274  1  0.79141762  0.64045227  0.50061797  1
  H+  H275  1  0.69883260  0.60301255  0.97280883  1
  H+  H276  1  0.27147390  0.22411945  0.12388141  1
  H+  H277  1  0.65563949  0.68545521  0.13339895  1
  H+  H278  1  0.11375426  0.40187504  0.67809228  1
  H+  H279  1  0.88216030  0.27613064  0.33896794  1
  H+  H280  1  0.08505801  0.41667286  0.10970158  1
  H+  H281  1  0.91677633  0.84025411  0.93359394  1
  H+  H282  1  0.60947601  0.64509858  -0.01336025  1
  H+  H283  1  0.02585571  0.88724346  0.50631064  1
  H+  H284  1  0.60134798  0.62654806  0.33892902  1
  H+  H285  1  0.86471562  0.13657068  0.00581960  1
  H+  H286  1  0.51879677  0.12453929  0.67701465  1
  H+  H287  1  0.84781301  0.85728838  0.35152728  1
  H+  H288  1  0.59340131  0.18844499  0.05639974  1
  H+  H289  1  0.91190722  0.07774187  0.93348917  1
  H+  H290  1  0.91373316  0.59227041  0.23533369  1
  H+  H291  1  0.67141671  0.34171639  0.56805937  1
  H+  H292  1  0.33335387  0.42192864  0.72900510  1
  H+  H293  1  0.08194597  0.64321569  0.76640673  1
  H+  H294  1  0.34206631  0.43166014  0.10872603  1
  H+  H295  1  0.12197026  0.37768829  0.02986022  1
  H+  H296  1  0.86752899  0.89039609  0.50726394  1
  H+  H297  1  0.84129471  0.41420096  0.09593477  1
  H+  H298  1  0.33065849  0.39483068  0.44968819  1
  H+  H299  1  0.08312017  0.91310040  0.76820103  1
  H+  H300  1  0.16177928  0.58694349  0.23780409  1
  H+  H301  1  0.67385516  0.08197077  0.89996902  1
  H+  H302  1  0.60710481  0.45527259  0.77749682  1
  H+  H303  1  0.42582170  0.83359019  0.89716874  1
  H+  H304  1  0.33023794  0.90264349  0.05964632  1
  H+  H305  1  0.58607186  0.16496211  0.40070732  1
  H+  H306  1  0.07510963  0.16517882  0.43134527  1
  H+  H307  1  0.21117321  0.83512987  0.25336457  1
  H+  H308  1  0.61038369  0.22758689  0.15561895  1
  H+  H309  1  0.32669482  0.67071301  0.73617058  1
  H+  H310  1  0.64153225  0.77464071  0.50792229  1
  H+  H311  1  0.05263316  0.64780709  0.06446133  1
  H+  H312  1  0.38389672  0.77372800  0.66272047  1
  H+  H313  1  0.13518232  0.35990150  0.50857983  1
  H+  H314  1  0.17274380  0.58097415  0.90542062  1
  H+  H315  1  0.91759354  0.33358728  0.60701038  1
  H+  H316  1  0.17182915  0.34630472  0.28395808  1
  H+  H317  1  0.40249147  0.83464121  0.27314343  1
  H+  H318  1  0.58243153  0.67168038  0.76090623  1
  H+  H319  1  0.58502052  0.42722887  0.06459850  1
  H+  H320  1  0.17020943  0.08591574  0.60473207  1
  H+  H321  1  0.24992078  0.87310792  0.26702608  1
  H+  H322  1  0.92246811  0.77736892  0.22661585  1
  H+  H323  1  0.35018523  0.63252118  0.49718843  1
  H+  H324  1  0.32639701  0.66614467  0.40332858  1
  H+  H325  1  0.70998029  0.92114506  0.94818995  1
  H+  H326  1  0.40789012  0.09273144  0.93729699  1
  H+  H327  1  0.67258776  0.32960579  0.23115503  1
  H+  H328  1  0.91067465  0.33278471  0.23377100  1
  H+  H329  1  0.67023396  0.83335471  0.56790228  1
  H+  H330  1  0.43017071  0.34150651  0.61135594  1
  H+  H331  1  0.08634958  0.16860109  0.76945589  1
  H+  H332  1  0.65903183  0.83047354  0.23363903  1
  H+  H333  1  0.53089377  0.38754653  0.34598781  1
  H+  H334  1  0.14366929  0.08011765  0.26665463  1
  H+  H335  1  0.40993075  0.83061092  0.56701134  1
  H+  H336  1  0.08102508  0.91108941  0.44566992  1
  H+  H337  1  0.92042833  0.08862784  0.60701074  1
  H+  H338  1  0.81376382  0.41050090  0.75969246  1
  H+  H339  1  0.75885303  0.54317509  0.20753206  1
  H+  H340  1  0.04220432  0.64468560  0.44592188  1
  H+  H341  1  0.41571837  0.07959751  0.60199702  1
  H+  H342  1  0.10653710  0.48038279  0.34822160  1
  H+  H343  1  0.79136919  0.74102013  0.38255428  1
  H+  H344  1  0.15853835  0.33482653  0.60494121  1
  H+  H345  1  0.93205587  0.13001630  0.25605710  1
  H+  H346  1  0.41040110  0.58457208  0.56787903  1
  H+  H347  1  0.14803460  0.81768393  0.89687745  1
  H+  H348  1  0.34204084  0.17186519  0.76524366  1
  H+  H349  1  0.38307474  0.11068461  0.17730784  1
  H+  H350  1  0.83840270  0.91830264  0.76705821  1
  H+  H351  1  0.10511219  0.62704163  0.15810708  1
  H+  H352  1  0.84118281  0.42000787  0.43558643  1
  H+  H353  1  0.17401645  0.08203597  0.92211199  1
  H+  H354  1  0.42601845  0.43890774  0.04218736  1
  H+  H355  1  0.33573718  0.91624038  0.41356131  1
  H+  H356  1  0.78073223  0.64940462  0.05015663  1
  H+  H357  1  0.77554523  0.13527347  0.67963156  1
  H+  H358  1  0.64013251  0.36164448  0.32824548  1
  H+  H359  1  0.89064121  0.02039164  0.50625426  1
  H+  H360  1  0.02275147  0.94587172  0.38951610  1
  H+  H361  1  0.41774590  0.56979488  0.92263428  1
  H+  H362  1  0.42443526  0.60108172  0.25718817  1
  H+  H363  1  0.14065764  0.02407161  0.51042778  1
  H+  H364  1  0.37032243  0.98252906  0.34762898  1
  H+  H365  1  0.64983830  0.07990830  0.21665922  1
  H+  H366  1  0.81151662  0.72283135  0.14272506  1
  H+  H367  1  0.07829312  0.41910574  0.77556773  1
  H+  H368  1  0.86740830  0.97823887  0.67467700  1
  H+  H369  1  0.41542592  0.07585396  0.27335030  1
  H+  H370  1  0.97506241  0.36205881  0.33641706  1
  H+  H371  1  0.89220234  0.36359724  0.51003271  1
  H+  H372  1  0.39885650  0.27602901  0.51764026  1
  H+  H373  1  0.84528178  0.68288127  0.44153690  1
  H+  H374  1  0.82805934  0.17003254  0.09683123  1
  H+  H375  1  0.81626414  0.87714052  0.41469027  1
  H+  H376  1  0.84216885  0.17486128  0.77357100  1
  H+  H377  1  0.92786781  0.33222120  0.91816316  1
  H+  H378  1  0.36087770  0.10564269  0.85300537  1
  H+  H379  1  0.84121373  0.16997440  0.44891727  1
  H+  H380  1  0.58533344  0.91253173  0.73388413  1
  H+  H381  1  0.17253235  0.82147861  0.60984016  1
  H+  H382  1  0.86656829  -0.01365077  0.16116499  1
  H+  H383  1  0.42275790  0.34353924  0.27344184  1
  O2-  O384  1  0.09256593  0.17961990  0.12466046  1
  O2-  O385  1  0.07127218  0.16309220  0.47823158  1
  O2-  O386  1  0.08799796  0.16683692  0.81479434  1
  O2-  O387  1  0.08327680  0.41779446  0.15551870  1
  O2-  O388  1  0.08755833  0.41960434  0.48969895  1
  O2-  O389  1  0.07874537  0.41566178  0.82092579  1
  O2-  O390  1  0.07256868  0.65237889  0.13865758  1
  O2-  O391  1  0.04325529  0.64926544  0.49244102  1
  O2-  O392  1  0.07590894  0.64518380  0.81191793  1
  O2-  O393  1  0.06828636  0.89994825  0.13793536  1
  O2-  O394  1  0.08661687  0.91587528  0.49044632  1
  O2-  O395  1  0.08020605  0.91431843  0.81336942  1
  O2-  O396  1  0.30696274  0.19787958  0.13094568  1
  O2-  O397  1  0.34546391  0.17229922  0.49025952  1
  O2-  O398  1  0.34274697  0.17758905  0.81061471  1
  O2-  O399  1  0.34188547  0.43260740  0.15437329  1
  O2-  O400  1  0.32816744  0.40005653  0.49404381  1
  O2-  O401  1  0.33471799  0.42162566  0.80302998  1
  O2-  O402  1  0.33686705  0.67653025  0.15442639  1
  O2-  O403  1  0.31997874  0.66270290  0.48185959  1
  O2-  O404  1  0.33288004  0.67043870  0.81220504  1
  O2-  O405  1  0.33984435  0.91569098  0.13591907  1
  O2-  O406  1  0.32931671  0.90866769  0.47794876  1
  O2-  O407  1  0.41401389  0.97254169  0.80724949  1
  O2-  O408  1  0.57392538  0.16959113  0.13647373  1
  O2-  O409  1  0.58940956  0.16874591  0.47901648  1
  O2-  O410  1  0.57605412  0.14543205  0.81306713  1
  O2-  O411  1  0.58912379  0.41330248  0.14827424  1
  O2-  O412  1  0.59097614  0.42127386  0.48614206  1
  O2-  O413  1  0.60701394  0.45600435  0.82354476  1
  O2-  O414  1  0.60468535  0.69325193  0.12935554  1
  O2-  O415  1  0.58320790  0.66385224  0.48191349  1
  O2-  O416  1  0.58337916  0.67477416  0.80597483  1
  O2-  O417  1  0.57004252  0.90878360  0.15972305  1
  O2-  O418  1  0.57296445  0.91197970  0.49038920  1
  O2-  O419  1  0.59445715  0.91712561  0.81257617  1
  O2-  O420  1  0.82249993  0.16673783  0.14251542  1
  O2-  O421  1  0.84581157  0.16803947  0.49374251  1
  O2-  O422  1  0.84378206  0.17506307  0.81917505  1
  O2-  O423  1  0.83684653  0.41958103  0.14254086  1
  O2-  O424  1  0.84656346  0.42153621  0.48078590  1
  O2-  O425  1  0.80269285  0.40177232  0.80486355  1
  O2-  O426  1  0.75432817  0.68073976  0.12656672  1
  O2-  O427  1  0.85209946  0.67428440  0.48547629  1
  O2-  O428  1  0.82755865  0.65424977  0.81087031  1
  O2-  O429  1  0.83603133  0.92604421  0.14726650  1
  O2-  O430  1  0.83869761  0.92109733  0.48945434  1
  O2-  O431  1  0.83840886  0.91796267  0.81254614  1
  O2-  O432  1  0.14762214  0.07335067  0.18410319  1
  O2-  O433  1  0.17093037  0.08554903  0.52395976  1
  O2-  O434  1  0.17358931  0.08384017  0.84682172  1
  O2-  O435  1  0.17219927  0.35071630  0.20488205  1
  O2-  O436  1  0.15682009  0.32078079  0.52213761  1
  O2-  O437  1  0.17930038  0.33839886  0.85147133  1
  O2-  O438  1  0.16674344  0.58669870  0.19266437  1
  O2-  O439  1  0.15239955  0.58454425  0.53483360  1
  O2-  O440  1  0.16940286  0.57974565  0.86027472  1
  O2-  O441  1  0.17502149  0.83273532  0.13864319  1
  O2-  O442  1  0.16564961  0.82492929  0.52549079  1
  O2-  O443  1  0.14845911  0.82075903  0.85198154  1
  O2-  O444  1  0.41584709  0.08294947  0.18883548  1
  O2-  O445  1  0.42245707  0.08196407  0.52193027  1
  O2-  O446  1  0.36149133  0.06114645  0.87988520  1
  O2-  O447  1  0.42362952  0.34495658  0.19339071  1
  O2-  O448  1  0.42691635  0.33718736  0.53203748  1
  O2-  O449  1  0.42623480  0.34707061  0.84202082  1
  O2-  O450  1  0.43664412  0.60388715  0.18134505  1
  O2-  O451  1  0.40978905  0.58119161  0.52214112  1
  O2-  O452  1  0.41752681  0.58413465  0.84614321  1
  O2-  O453  1  0.41278687  0.83732961  0.19506214  1
  O2-  O454  1  0.40893311  0.83003911  0.52144428  1
  O2-  O455  1  0.42918298  0.83673320  0.85154653  1
  O2-  O456  1  0.65058396  0.07554058  0.17109732  1
  O2-  O457  1  0.66772112  0.08513879  0.52878099  1
  O2-  O458  1  0.67890356  0.08205535  0.85463966  1
  O2-  O459  1  0.67072381  0.32810838  0.18571939  1
  O2-  O460  1  0.66992582  0.33436126  0.52168421  1
  O2-  O461  1  0.65481858  0.31107386  0.83760235  1
  O2-  O462  1  0.70772784  0.54927196  0.20681708  1
  O2-  O463  1  0.68163773  0.58942822  0.52194993  1
  O2-  O464  1  0.64755760  0.54858396  0.83629056  1
  O2-  O465  1  0.65883845  0.84152555  0.18885046  1
  O2-  O466  1  0.67331557  0.83541542  0.52220980  1
  O2-  O467  1  0.67184841  0.82750859  0.84631565  1
  O2-  O468  1  0.92604882  0.10581813  0.18220937  1
  O2-  O469  1  0.92582076  0.08434725  0.51871035  1
  O2-  O470  1  0.91974397  0.08124220  0.85611154  1
  O2-  O471  1  0.91258468  0.33352192  0.18876972  1
  O2-  O472  1  0.92040527  0.33223527  0.52731453  1
  O2-  O473  1  0.92732035  0.32969237  0.86827351  1
  O2-  O474  1  0.91156776  0.59957434  0.19072462  1
  O2-  O475  1  0.95230413  0.60010854  0.51291987  1
  O2-  O476  1  0.89801610  0.55903361  0.85344748  1
  O2-  O477  1  0.92164112  0.75729896  0.18438374  1
  O2-  O478  1  0.92201221  0.83950888  0.53084837  1
  O2-  O479  1  0.91022819  0.82102872  0.85094909  1
  O2-  O480  1  0.14220758  0.08313801  0.31157445  1
  O2-  O481  1  0.16895332  0.08458863  0.65000410  1
  O2-  O482  1  0.17062822  0.08180612  0.96794771  1
  O2-  O483  1  0.17058301  0.34351343  0.32940622  1
  O2-  O484  1  0.16214141  0.34141209  0.64980972  1
  O2-  O485  1  0.17693545  0.32055702  1.04154320  1
  O2-  O486  1  0.15561079  0.58429918  0.31998932  1
  O2-  O487  1  0.14471359  0.60264405  0.66585119  1
  O2-  O488  1  0.18414876  0.57244483  0.98602153  1
  O2-  O489  1  0.13356464  0.82859433  0.37571167  1
  O2-  O490  1  0.17251774  0.82072436  0.65491915  1
  O2-  O491  1  0.14767549  0.81993926  0.97983286  1
  O2-  O492  1  0.41666529  0.07390027  0.31847029  1
  O2-  O493  1  0.41250190  0.08160186  0.64713191  1
  O2-  O494  1  0.43508040  0.11563231  0.98076645  1
  O2-  O495  1  0.42652145  0.34456739  0.31876915  1
  O2-  O496  1  0.42624264  0.34079576  0.65665965  1
  O2-  O497  1  0.38262864  0.31622740  0.95918029  1
  O2-  O498  1  0.41326448  0.59275343  0.30227106  1
  O2-  O499  1  0.41255294  0.58880129  0.64504851  1
  O2-  O500  1  0.42118969  0.56751359  0.96791657  1
  O2-  O501  1  0.40394444  0.83600310  0.31874648  1
  O2-  O502  1  0.41619123  0.83347156  0.64583473  1
  O2-  O503  1  0.42126133  0.82050544  0.97370741  1
  O2-  O504  1  0.65088296  0.07951775  0.29313742  1
  O2-  O505  1  0.67279702  0.08056833  0.65294727  1
  O2-  O506  1  0.66979072  0.08953946  0.97806749  1
  O2-  O507  1  0.67004984  0.33146862  0.31143986  1
  O2-  O508  1  0.67598475  0.35807913  0.63805486  1
  O2-  O509  1  0.65848367  0.34680601  0.95833889  1
  O2-  O510  1  0.66253546  0.57814811  0.31936306  1
  O2-  O511  1  0.67601400  0.59373391  0.64702031  1
  O2-  O512  1  0.63746439  0.57680403  0.95638801  1
  O2-  O513  1  0.65618571  0.82153986  0.31082083  1
  O2-  O514  1  0.67027168  0.83668400  0.64468399  1
  O2-  O515  1  0.69405756  0.86940929  0.97190709  1
  O2-  O516  1  0.93762390  0.15431312  0.29860975  1
  O2-  O517  1  0.92046829  0.08732099  0.65168356  1
  O2-  O518  1  0.91407002  0.08251695  0.97900219  1
  O2-  O519  1  0.91603839  0.33090897  0.31755315  1
  O2-  O520  1  0.91407061  0.33218500  0.65230333  1
  O2-  O521  1  0.92583471  0.33485032  0.98063760  1
  O2-  O522  1  0.90678839  0.57859696  0.31611666  1
  O2-  O523  1  0.94175332  0.59231165  0.64526993  1
  O2-  O524  1  0.87028839  0.54525683  0.97860380  1
  O2-  O525  1  0.92300407  0.83377378  0.29891839  1
  O2-  O526  1  0.92319109  0.83661385  0.65210007  1
  O2-  O527  1  0.92045490  0.85118810  0.97792720  1
  O2-  O528  1  0.08230199  0.15493584  0.00723848  1
  O2-  O529  1  0.08376914  0.17327928  0.36000203  1
  O2-  O530  1  0.08959459  0.17419708  0.69006078  1
  O2-  O531  1  0.09030864  0.41002485  0.03299969  1
  O2-  O532  1  0.07696747  0.42014039  0.36482831  1
  O2-  O533  1  0.07870502  0.42521925  0.69631714  1
  O2-  O534  1  0.03940619  0.65429329  0.02075910  1
  O2-  O535  1  0.06407975  0.65691698  0.37263118  1
  O2-  O536  1  0.10148803  0.65113494  0.68823066  1
  O2-  O537  1  0.08646613  0.92333290  0.01753136  1
  O2-  O538  1  0.04887838  0.92233839  0.36244877  1
  O2-  O539  1  0.08967607  0.91403398  0.68787071  1
  O2-  O540  1  0.33052154  0.17638481  0.01734717  1
  O2-  O541  1  0.35307620  0.18004220  0.37070824  1
  O2-  O542  1  0.33570556  0.16955556  0.68726154  1
  O2-  O543  1  0.37158480  0.43702852  0.03380986  1
  O2-  O544  1  0.33421863  0.42957617  0.36399761  1
  O2-  O545  1  0.33523035  0.42300726  0.68293445  1
  O2-  O546  1  0.33572735  0.66174603  0.02771115  1
  O2-  O547  1  0.32560660  0.67032178  0.35769445  1
  O2-  O548  1  0.32306279  0.67013858  0.69045220  1
  O2-  O549  1  0.31760778  0.88322833  0.01587983  1
  O2-  O550  1  0.33841226  0.92045220  0.36474823  1
  O2-  O551  1  0.34208378  0.92025305  0.69377578  1
  O2-  O552  1  0.60106367  0.19243752  0.01134461  1
  O2-  O553  1  0.58131660  0.16487141  0.35508096  1
  O2-  O554  1  0.57629848  0.14991844  0.69628076  1
  O2-  O555  1  0.57331727  0.42901204  0.02089333  1
  O2-  O556  1  0.59148657  0.41372634  0.36068297  1
  O2-  O557  1  0.59347037  0.43628722  0.70147059  1
  O2-  O558  1  0.58661176  0.68069792  0.00638199  1
  O2-  O559  1  0.57326206  0.65843520  0.35503629  1
  O2-  O560  1  0.58461861  0.67185334  0.68082864  1
  O2-  O561  1  0.57669292  0.92069075  0.01990124  1
  O2-  O562  1  0.58842766  0.92639181  0.33212150  1
  O2-  O563  1  0.58180814  0.91239854  0.68842791  1
  O2-  O564  1  0.83537253  0.16831274  0.02066321  1
  O2-  O565  1  0.81312576  0.15168586  0.36962293  1
  O2-  O566  1  0.83690397  0.16664417  0.69430231  1
  O2-  O567  1  0.84039397  0.39566814  0.02542304  1
  O2-  O568  1  0.83224234  0.41736986  0.35582718  1
  O2-  O569  1  0.83875697  0.42592306  0.68655103  1
  O2-  O570  1  0.78687196  0.63879127  0.00691389  1
  O2-  O571  1  0.81272081  0.70160242  0.36979057  1
  O2-  O572  1  0.84474991  0.66955606  0.68818026  1
  O2-  O573  1  0.84019060  0.92211806  0.02416396  1
  O2-  O574  1  0.79647216  0.84226255  0.37666277  1
  O2-  O575  1  0.83575836  0.91732367  0.68862981  1
