# generated using pymatgen
data_H2O
_symmetry_space_group_name_H-M   'P 1'
_cell_length_a   17.99600621
_cell_length_b   17.99494017
_cell_length_c   22.00086092
_cell_angle_alpha   90.01165899
_cell_angle_beta   89.99513787
_cell_angle_gamma   120.00202645
_symmetry_Int_Tables_number   1
_chemical_formula_structural   H2O
_chemical_formula_sum   'H384 O192'
_cell_volume   6170.03988053
_cell_formula_units_Z   192
loop_
 _symmetry_equiv_pos_site_id
 _symmetry_equiv_pos_as_xyz
  1  'x, y, z'
loop_
 _atom_type_symbol
 _atom_type_oxidation_number
  H+  1.0
  O2-  -2.0
loop_
 _atom_site_type_symbol
 _atom_site_label
 _atom_site_symmetry_multiplicity
 _atom_site_fract_x
 _atom_site_fract_y
 _atom_site_fract_z
 _atom_site_occupancy
  H+  H0  1  0.97590929  0.12085197  0.33552971  1
  H+  H1  1  0.63806435  0.62485421  0.33808416  1
  H+  H2  1  0.78399675  0.88235951  0.82902068  1
  H+  H3  1  0.23885702  0.36621865  0.50881961  1
  H+  H4  1  0.38679550  0.03003436  0.32120980  1
  H+  H5  1  0.72292917  0.12167088  -0.00244234  1
  H+  H6  1  0.39767829  0.28100125  0.50897156  1
  H+  H7  1  0.23722363  0.13894218  0.80860125  1
  H+  H8  1  0.11005833  0.87813168  0.17140324  1
  H+  H9  1  0.21359046  0.62080858  0.84397019  1
  H+  H10  1  0.15266777  1.00138815  -0.00977007  1
  H+  H11  1  0.22580446  0.86072685  0.17738215  1
  H+  H12  1  0.11604181  0.63487647  0.16449547  1
  H+  H13  1  0.11108984  0.13540175  0.15447246  1
  H+  H14  1  0.97769338  0.12158325  0.50230314  1
  H+  H15  1  0.12138217  0.00447543  0.49256588  1
  H+  H16  1  0.72510143  0.86379688  0.66166257  1
  H+  H17  1  -0.00888192  0.36630861  0.50430564  1
  H+  H18  1  0.88549234  0.77558758  0.34844455  1
  H+  H19  1  0.50876731  0.62495037  0.15477816  1
  H+  H20  1  0.61936322  0.64765197  0.48832114  1
  H+  H21  1  0.25796592  0.38838305  0.67142658  1
  H+  H22  1  0.65328363  0.75445016  0.83938219  1
  H+  H23  1  0.62741899  0.50472560  0.99889275  1
  H+  H24  1  0.60998396  0.13741767  0.67257435  1
  H+  H25  1  0.36727116  0.22649457  0.66276688  1
  H+  H26  1  0.87847524  0.13601045  0.18432609  1
  H+  H27  1  0.10741180  0.02161504  0.85001058  1
  H+  H28  1  0.64352689  0.11496467  0.84041356  1
  H+  H29  1  0.89369320  0.34497412  0.50399118  1
  H+  H30  1  0.28543570  0.89162282  0.68706861  1
  H+  H31  1  0.86738162  0.59808994  0.34209291  1
  H+  H32  1  0.87755284  0.89479028  0.82464819  1
  H+  H33  1  0.12170715  0.40232447  0.00736720  1
  H+  H34  1  0.39103938  0.86673745  0.84426504  1
  H+  H35  1  1.01645024  0.15027130  1.00461986  1
  H+  H36  1  0.93047403  0.09003874  0.24303715  1
  H+  H37  1  0.88312789  0.59556195  -0.00289433  1
  H+  H38  1  0.38582451  0.35810951  0.17361599  1
  H+  H39  1  0.92675828  0.58580418  0.48779391  1
  H+  H40  1  0.11146779  0.47890452  0.82476980  1
  H+  H41  1  0.70003749  0.84416441  0.12295612  1
  H+  H42  1  0.23512415  0.11546808  0.66272760  1
  H+  H43  1  0.32891271  0.91121517  0.10228436  1
  H+  H44  1  0.86647021  0.97210999  0.19968397  1
  H+  H45  1  0.03619030  0.70547179  0.47092340  1
  H+  H46  1  0.14522888  0.52452414  0.17115453  1
  H+  H47  1  0.62752756  0.89300865  0.49287966  1
  H+  H48  1  0.62264350  0.23598971  0.15197219  1
  H+  H49  1  0.81939567  0.90187445  -0.05880911  1
  H+  H50  1  0.88391400  0.72563638  0.96988170  1
  H+  H51  1  0.86089750  0.13862638  0.82059193  1
  H+  H52  1  0.16383156  0.82656646  0.63160016  1
  H+  H53  1  0.91644670  0.10433425  0.92924521  1
  H+  H54  1  0.11873802  0.15078117  0.49356687  1
  H+  H55  1  0.47242176  0.35363555  0.17023464  1
  H+  H56  1  0.47385661  0.12009011  0.32054783  1
  H+  H57  1  0.31497280  0.20374309  -0.00126486  1
  H+  H58  1  0.66505786  0.08829871  0.26303454  1
  H+  H59  1  0.36667252  0.45670103  1.00658624  1
  H+  H60  1  0.39351327  0.77304134  0.16909617  1
  H+  H61  1  0.06863276  0.61470466  0.53013306  1
  H+  H62  1  0.38598454  0.51425291  0.17171793  1
  H+  H63  1  0.38110546  0.52356647  0.84173079  1
  H+  H64  1  0.85519506  0.38450773  0.81442872  1
  H+  H65  1  0.89518411  0.28182604  0.17910916  1
  H+  H66  1  0.13975242  0.27534590  0.17323207  1
  H+  H67  1  0.88687531  0.02957402  0.33243539  1
  H+  H68  1  0.49523442  0.60670003  0.00376061  1
  H+  H69  1  0.79317169  0.73354614  0.02920099  1
  H+  H70  1  0.40432267  1.02783786  0.84584372  1
  H+  H71  1  0.08896478  0.69906485  0.41457447  1
  H+  H72  1  0.14613593  0.27874627  0.50966740  1
  H+  H73  1  0.59905712  0.40382562  0.06825216  1
  H+  H74  1  0.63729998  0.02673386  0.65817904  1
  H+  H75  1  0.58090093  0.92331278  0.09493596  1
  H+  H76  1  0.98450501  0.11365907  0.17884926  1
  H+  H77  1  0.63089014  0.15311303  0.14135052  1
  H+  H78  1  0.27471493  0.88732061  1.00864276  1
  H+  H79  1  0.54040464  0.39746990  0.51306554  1
  H+  H80  1  0.43000670  0.83595690  0.56850972  1
  H+  H81  1  0.36810339  0.29835434  0.88626705  1
  H+  H82  1  0.36300903  -0.02150866  1.00973114  1
  H+  H83  1  0.49018158  0.12199827  0.50305219  1
  H+  H84  1  0.02762659  0.89158360  0.68084534  1
  H+  H85  1  0.64245063  0.78014213  0.50562573  1
  H+  H86  1  1.03040137  0.39914258  1.01581202  1
  H+  H87  1  0.71628469  0.60450046  0.15771793  1
  H+  H88  1  0.16358097  0.82367941  0.46704826  1
  H+  H89  1  0.39040577  0.10857553  0.65238071  1
  H+  H90  1  0.37024905  0.14502859  0.34260113  1
  H+  H91  1  0.60443694  0.46503078  0.14949246  1
  H+  H92  1  0.26417317  0.39219179  0.82362512  1
  H+  H93  1  0.00607335  0.61799517  0.33135889  1
  H+  H94  1  0.70787816  0.35633869  0.32841170  1
  H+  H95  1  0.48552773  0.61274556  0.50918503  1
  H+  H96  1  0.17866561  0.34209186  0.60048220  1
  H+  H97  1  0.63477855  1.02674837  0.32080966  1
  H+  H98  1  0.22954158  0.03710830  0.27994496  1
  H+  H99  1  0.53882060  0.89265942  0.49557288  1
  H+  H100  1  0.62576654  0.22435488  0.82579704  1
  H+  H101  1  0.96886189  0.60959747  0.18215577  1
  H+  H102  1  0.76760659  0.13997389  0.66527855  1
  H+  H103  1  0.88830205  0.77521965  0.66513896  1
  H+  H104  1  0.37367641  0.72922782  0.67191080  1
  H+  H105  1  0.23833572  0.13064042  0.51014827  1
  H+  H106  1  0.04081161  0.89633064  0.82700981  1
  H+  H107  1  0.16466793  0.07617850  0.21937793  1
  H+  H108  1  0.67034824  0.09483164  0.93531109  1
  H+  H109  1  0.29654036  0.63901215  0.49126509  1
  H+  H110  1  0.59038322  0.60354126  0.00635254  1
  H+  H111  1  0.83864221  0.42734099  0.72033537  1
  H+  H112  1  0.64821909  0.02008138  0.49953102  1
  H+  H113  1  0.73759149  0.60074598  0.82957957  1
  H+  H114  1  0.36205602  0.39112260  0.33957037  1
  H+  H115  1  0.40302070  0.12820186  0.99808391  1
  H+  H116  1  0.72089776  0.61910202  0.34974846  1
  H+  H117  1  0.13166556  0.37677742  0.34050288  1
  H+  H118  1  0.37274696  0.89396611  0.32604541  1
  H+  H119  1  0.41072630  0.75568519  0.82604095  1
  H+  H120  1  0.16348907  0.89178014  0.84692514  1
  H+  H121  1  0.38753861  0.27981641  0.32840777  1
  H+  H122  1  0.34676382  0.13211328  0.15243984  1
  H+  H123  1  0.72231308  0.35370531  0.83116369  1
  H+  H124  1  0.85768932  0.72333780  0.16513808  1
  H+  H125  1  0.52490331  0.88803773  0.15620329  1
  H+  H126  1  0.63524929  0.27039173  0.50632721  1
  H+  H127  1  0.64230179  0.36375991  0.51418985  1
  H+  H128  1  0.28858531  0.89948160  0.83548452  1
  H+  H129  1  0.37287908  0.14233814  0.49681456  1
  H+  H130  1  0.36458622  0.01647054  0.17171744  1
  H+  H131  1  0.37990660  0.86030986  0.99768126  1
  H+  H132  1  0.14171323  0.52532972  0.99749737  1
  H+  H133  1  0.89547701  0.28290246  0.65628119  1
  H+  H134  1  0.38380888  0.60905509  0.65829679  1
  H+  H135  1  0.52985408  0.89849907  0.82693082  1
  H+  H136  1  0.60664834  0.99147863  0.00316234  1
  H+  H137  1  0.21940765  0.11061505  0.15866283  1
  H+  H138  1  0.13174725  0.84499054  0.00363753  1
  H+  H139  1  0.38578951  0.77298695  -0.00201532  1
  H+  H140  1  0.33681814  0.40504438  0.10203268  1
  H+  H141  1  0.62075125  0.88734055  0.33632359  1
  H+  H142  1  0.91629038  0.78491524  0.81160152  1
  H+  H143  1  0.98147651  0.78945050  0.97521618  1
  H+  H144  1  0.52344461  0.39529705  0.33335115  1
  H+  H145  1  0.14527967  1.00751782  0.31752737  1
  H+  H146  1  0.38872721  0.52438159  0.32583471  1
  H+  H147  1  0.25329102  0.16994240  0.83507025  1
  H+  H148  1  0.92916595  0.90766166  0.01647059  1
  H+  H149  1  0.14373130  0.61512195  0.99577844  1
  H+  H150  1  0.03592293  0.13566356  0.66311336  1
  H+  H151  1  1.03115842  0.39378365  0.15964879  1
  H+  H152  1  0.40972236  0.86974001  0.50607228  1
  H+  H153  1  0.61368113  0.48282347  0.33725587  1
  H+  H154  1  0.09483146  0.14209428  0.82634057  1
  H+  H155  1  0.87418325  1.03517932  -0.02005613  1
  H+  H156  1  0.76011454  0.36258487  0.49942883  1
  H+  H157  1  0.84272682  0.63574336  0.66635840  1
  H+  H158  1  0.13587504  0.86149156  0.33370254  1
  H+  H159  1  0.60564921  0.37666068  0.15985898  1
  H+  H160  1  0.86207385  0.14220381  0.01038462  1
  H+  H161  1  0.28164297  0.14177542  0.34351734  1
  H+  H162  1  0.61983055  0.98425557  0.82655062  1
  H+  H163  1  0.12402253  0.24874570  0.34071751  1
  H+  H164  1  0.60337078  0.22898004  0.33459289  1
  H+  H165  1  0.12897238  0.38838572  0.49385644  1
  H+  H166  1  0.12439234  0.72162887  0.69470090  1
  H+  H167  1  0.51558324  0.39508816  0.68463972  1
  H+  H168  1  0.71985898  0.36299949  0.17916943  1
  H+  H169  1  0.85252027  0.89004602  0.34370668  1
  H+  H170  1  0.90568923  0.86682693  0.99838367  1
  H+  H171  1  0.38878264  0.61303156  0.32038554  1
  H+  H172  1  0.64885737  0.32995119  0.60807669  1
  H+  H173  1  0.97607785  0.02025086  0.61525486  1
  H+  H174  1  0.11388363  0.72238317  0.16530851  1
  H+  H175  1  0.61883963  0.74805957  0.34567921  1
  H+  H176  1  0.04662831  0.57992400  0.50642776  1
  H+  H177  1  0.58874001  0.92412545  0.39127052  1
  H+  H178  1  0.86517922  0.90015606  0.49486029  1
  H+  H179  1  0.11846974  0.23192439  0.66894196  1
  H+  H180  1  0.89499915  0.36745582  1.01195139  1
  H+  H181  1  0.85607088  0.47353994  0.16553821  1
  H+  H182  1  0.61177156  0.26901276  0.66519200  1
  H+  H183  1  0.58139594  0.16041174  0.73554839  1
  H+  H184  1  0.13682347  0.37383860  0.83515543  1
  H+  H185  1  0.36219082  0.19886113  0.81434202  1
  H+  H186  1  0.88939915  0.86375867  0.66899700  1
  H+  H187  1  0.39501716  0.86322134  0.66559716  1
  H+  H188  1  0.81165466  0.69077840  0.84719142  1
  H+  H189  1  0.88909311  0.02993942  0.83792972  1
  H+  H190  1  0.39934754  0.61569887  0.50506945  1
  H+  H191  1  0.10519378  -0.03538503  0.15967526  1
  H+  H192  1  0.13268191  0.92375009  0.48081853  1
  H+  H193  1  0.12013621  0.47350344  0.67088609  1
  H+  H194  1  0.51575723  0.90055893  0.00481593  1
  H+  H195  1  0.88743604  1.03236175  0.50171796  1
  H+  H196  1  0.11738658  0.98218217  0.67540145  1
  H+  H197  1  0.63372748  0.47816440  0.52512438  1
  H+  H198  1  0.61684854  0.58351854  0.83697496  1
  H+  H199  1  0.40668986  0.62323777  0.84416510  1
  H+  H200  1  0.14818409  0.12079511  0.66438139  1
  H+  H201  1  0.13610843  0.28449518  0.83542791  1
  H+  H202  1  0.73795121  0.64544759  0.62488239  1
  H+  H203  1  0.73240633  0.86979446  0.50633658  1
  H+  H204  1  0.14310526  0.87139547  0.68427739  1
  H+  H205  1  0.14058692  0.36928133  0.66009009  1
  H+  H206  1  0.31237598  0.90858177  0.47272087  1
  H+  H207  1  0.84093188  0.45282472  0.00963304  1
  H+  H208  1  0.62290500  0.36582052  0.32470904  1
  H+  H209  1  0.60842882  0.14146657  0.33249716  1
  H+  H210  1  0.27069106  0.38740704  0.34290547  1
  H+  H211  1  0.60959918  0.30885667  0.99696764  1
  H+  H212  1  0.14474449  0.51211910  0.32770212  1
  H+  H213  1  0.62644101  0.33676332  0.83813383  1
  H+  H214  1  0.83305806  0.16779219  0.22878321  1
  H+  H215  1  0.88196294  0.85235928  0.20056503  1
  H+  H216  1  0.52960756  0.65248605  0.34173571  1
  H+  H217  1  0.13193795  0.59477231  0.32309507  1
  H+  H218  1  0.76356507  0.13044694  0.35742964  1
  H+  H219  1  0.12185419  0.63382875  0.68205114  1
  H+  H220  1  0.36805169  0.63246347  0.16014812  1
  H+  H221  1  0.55315457  0.38121239  0.76872699  1
  H+  H222  1  0.41803462  0.83362538  0.90425788  1
  H+  H223  1  0.86846620  -0.02875684  0.66989595  1
  H+  H224  1  0.84771740  0.46846704  0.82199967  1
  H+  H225  1  0.08271512  0.61813114  0.83727671  1
  H+  H226  1  0.37433696  0.97829180  0.67640666  1
  H+  H227  1  0.34927407  0.92417605  0.77550631  1
  H+  H228  1  0.23800396  0.60984125  0.66556789  1
  H+  H229  1  0.22555071  0.86285809  0.33100462  1
  H+  H230  1  1.04161693  0.38280922  0.34383183  1
  H+  H231  1  0.02314082  0.62558435  1.00858358  1
  H+  H232  1  0.60610867  0.77574505  0.99006324  1
  H+  H233  1  0.14193853  0.76460587  0.99450766  1
  H+  H234  1  0.13136131  0.29344629  0.99342796  1
  H+  H235  1  0.42431873  0.83439221  0.22774569  1
  H+  H236  1  0.51852880  0.37806106  0.83765308  1
  H+  H237  1  0.76193425  0.88964491  0.34337929  1
  H+  H238  1  0.38273987  0.73097765  0.49126021  1
  H+  H239  1  0.52479753  0.62617157  0.82958178  1
  H+  H240  1  0.59786907  0.71744825  0.14545978  1
  H+  H241  1  0.40042011  0.99134665  0.48446431  1
  H+  H242  1  0.88657524  0.36708138  0.17167244  1
  H+  H243  1  0.35390489  0.22455551  0.15823765  1
  H+  H244  1  0.39456985  0.77845480  0.32057916  1
  H+  H245  1  0.37909358  0.59976559  0.99825918  1
  H+  H246  1  0.35573323  0.39730484  0.82981990  1
  H+  H247  1  0.16459714  0.60404333  0.51121329  1
  H+  H248  1  -0.01666886  0.88598806  0.51153296  1
  H+  H249  1  0.37596860  0.35883136  0.65767472  1
  H+  H250  1  0.87432080  0.53202820  0.65087751  1
  H+  H251  1  0.86401251  0.59616309  0.84756556  1
  H+  H252  1  0.27677184  0.63691472  0.33578897  1
  H+  H253  1  0.66168795  0.21004174  -0.00745770  1
  H+  H254  1  0.61782341  0.89409469  0.67372108  1
  H+  H255  1  0.48559732  0.86687424  0.32090765  1
  H+  H256  1  0.16146224  0.51512564  0.50425341  1
  H+  H257  1  0.46201436  0.25867509  0.79877906  1
  H+  H258  1  0.77487641  0.88656740  0.20129793  1
  H+  H259  1  0.11541029  0.17244854  1.00237245  1
  H+  H260  1  0.42150246  0.12399900  0.83679573  1
  H+  H261  1  0.20732965  0.87778546  0.52659549  1
  H+  H262  1  0.35887131  0.48688643  0.67072852  1
  H+  H263  1  0.18800140  0.11063600  0.99429449  1
  H+  H264  1  0.93560008  0.07136903  0.58363526  1
  H+  H265  1  0.37073877  0.47781369  0.49274500  1
  H+  H266  1  0.90000300  0.65571171  0.48663601  1
  H+  H267  1  0.27749199  0.63289517  0.00689684  1
  H+  H268  1  0.88201973  0.27753873  0.82762609  1
  H+  H269  1  0.19215307  0.01428760  1.00964083  1
  H+  H270  1  0.90024004  0.28276787  0.01105821  1
  H+  H271  1  0.74076545  0.89667845  0.97476602  1
  H+  H272  1  0.75119930  0.62157109  0.51410499  1
  H+  H273  1  0.73149280  0.11461697  0.84094681  1
  H+  H274  1  0.53847787  0.13277972  0.83034606  1
  H+  H275  1  0.85455786  0.13847489  0.66227560  1
  H+  H276  1  0.96978686  0.36589419  0.82847542  1
  H+  H277  1  0.84905122  0.38055624  0.34054057  1
  H+  H278  1  0.10348415  0.41831006  0.43161545  1
  H+  H279  1  0.62626312  0.60136264  0.15458954  1
  H+  H280  1  0.52348101  0.63850476  0.67385386  1
  H+  H281  1  0.36159063  0.88272201  0.16056337  1
  H+  H282  1  0.27321291  0.38151400  0.16002739  1
  H+  H283  1  -0.02698814  0.12413120  0.83247954  1
  H+  H284  1  0.62403004  0.14145664  0.48303712  1
  H+  H285  1  0.63828295  0.02524464  0.16559759  1
  H+  H286  1  0.97292599  0.44035748  0.30441630  1
  H+  H287  1  0.85451974  0.44222657  0.50113159  1
  H+  H288  1  0.80119227  0.65775571  0.72383018  1
  H+  H289  1  0.01930157  0.88929045  0.34318144  1
  H+  H290  1  0.83594953  0.92161516  0.73414312  1
  H+  H291  1  0.09598531  0.70457788  0.32274644  1
  H+  H292  1  0.63107811  0.86105973  0.15368245  1
  H+  H293  1  0.60730487  0.86633444  0.98726380  1
  H+  H294  1  0.41905772  0.57637699  0.23112996  1
  H+  H295  1  0.82502369  0.94173050  0.09060743  1
  H+  H296  1  0.82800093  0.16529743  0.76108168  1
  H+  H297  1  0.81654499  0.89627874  0.08975367  1
  H+  H298  1  0.35965564  0.67597266  0.73213375  1
  H+  H299  1  0.08693000  0.42070664  0.76381129  1
  H+  H300  1  0.92969720  0.36020826  0.26232066  1
  H+  H301  1  0.18304344  0.84917970  0.90377715  1
  H+  H302  1  0.90001871  0.59948403  0.59564136  1
  H+  H303  1  0.59960875  0.39054198  0.68430562  1
  H+  H304  1  0.17290569  0.33321916  0.27722338  1
  H+  H305  1  0.16759349  0.83215377  0.23835996  1
  H+  H306  1  0.58013569  0.65795956  0.76736325  1
  H+  H307  1  0.83207830  0.16253090  0.07326769  1
  H+  H308  1  0.33750113  0.66081826  0.06649583  1
  H+  H309  1  0.58432544  0.67640561  0.43099928  1
  H+  H310  1  0.60807581  0.73050127  0.67639552  1
  H+  H311  1  0.65492611  0.33040342  0.23629854  1
  H+  H312  1  0.58671909  0.16896908  0.42615893  1
  H+  H313  1  0.42923385  0.08471985  0.56231282  1
  H+  H314  1  0.95481704  0.59776844  0.84375802  1
  H+  H315  1  0.82950605  0.92308514  0.43379149  1
  H+  H316  1  0.35985982  0.92898333  0.38843817  1
  H+  H317  1  0.90118503  0.57864902  0.23729989  1
  H+  H318  1  0.77644040  0.12685455  0.46040442  1
  H+  H319  1  0.81542409  0.67599572  0.07063858  1
  H+  H320  1  0.66570451  0.08460552  0.59777625  1
  H+  H321  1  0.17673326  0.09925297  0.56874788  1
  H+  H322  1  0.32585343  0.42269680  0.73629031  1
  H+  H323  1  0.08650098  0.75853168  0.57005656  1
  H+  H324  1  0.70164912  0.60292234  0.99778711  1
  H+  H325  1  0.85733208  0.63490144  0.15758841  1
  H+  H326  1  0.17512939  0.13491705  0.92968375  1
  H+  H327  1  0.41308952  0.33283361  0.26621345  1
  H+  H328  1  0.08312334  0.93322972  0.39938856  1
  H+  H329  1  0.88160303  0.40748005  0.66449691  1
  H+  H330  1  0.02864391  0.38397515  0.66830003  1
  H+  H331  1  0.90450150  0.56535261  0.93542425  1
  H+  H332  1  0.40818006  0.57001117  0.93726413  1
  H+  H333  1  0.11265553  0.15077396  0.34347348  1
  H+  H334  1  0.04635757  0.03711610  0.89344462  1
  H+  H335  1  0.84878311  0.12780742  0.36712535  1
  H+  H336  1  0.47326343  0.73562514  0.78881569  1
  H+  H337  1  0.09298725  0.42438593  0.10105036  1
  H+  H338  1  0.39532945  0.36883419  0.50556465  1
  H+  H339  1  0.34233438  0.67085007  0.39217689  1
  H+  H340  1  0.16482163  0.34839819  0.93287691  1
  H+  H341  1  0.41671008  0.38004447  0.92578243  1
  H+  H342  1  0.81408851  0.39621398  0.40327062  1
  H+  H343  1  0.35068562  0.20150370  0.06409464  1
  H+  H344  1  0.93381433  0.33866077  0.59575737  1
  H+  H345  1  0.64466466  0.23107969  0.05883750  1
  H+  H346  1  0.05566241  0.86765336  0.08384244  1
  H+  H347  1  0.18555476  0.57751844  0.60380425  1
  H+  H348  1  0.17559686  0.57989909  0.23202502  1
  H+  H349  1  0.66790655  0.83689913  0.60147802  1
  H+  H350  1  0.28043985  0.63522971  0.16065075  1
  H+  H351  1  0.56112941  0.64398200  0.06824465  1
  H+  H352  1  0.85941834  0.50630945  0.33440815  1
  H+  H353  1  0.41247141  0.57441166  0.59887975  1
  H+  H354  1  0.39635577  0.08305199  0.22703913  1
  H+  H355  1  0.07766627  0.17225604  0.10044656  1
  H+  H356  1  0.82470012  0.41066598  0.10718113  1
  H+  H357  1  0.06889282  0.78876592  0.56827116  1
  H+  H358  1  0.47891746  0.10888773  0.66014819  1
  H+  H359  1  0.63980045  0.55121288  0.89705562  1
  H+  H360  1  0.90991038  0.81858642  0.28268507  1
  H+  H361  1  0.66634869  0.83307628  0.28053200  1
  H+  H362  1  0.41535134  0.33801869  0.59890194  1
  H+  H363  1  0.08116043  0.65937707  0.06862974  1
  H+  H364  1  0.05450977  0.90970080  0.02249518  1
  H+  H365  1  0.08127797  0.17631587  0.76177364  1
  H+  H366  1  0.76419485  0.35286520  0.02045301  1
  H+  H367  1  0.14283667  0.36547197  0.17328479  1
  H+  H368  1  0.05951108  0.64438198  0.77498720  1
  H+  H369  1  0.16482968  0.58081835  0.90631036  1
  H+  H370  1  0.92488997  0.85023337  0.57080339  1
  H+  H371  1  0.96941681  0.85014621  0.18749301  1
  H+  H372  1  0.10213766  0.93982260  0.77118031  1
  H+  H373  1  0.36416649  0.17453244  0.72124472  1
  H+  H374  1  0.08910913  0.18227801  0.43419171  1
  H+  H375  1  0.66539394  0.82230435  0.89051276  1
  H+  H376  1  0.40782116  0.33115466  1.01539561  1
  H+  H377  1  0.42336200  0.08865705  0.94048377  1
  H+  H378  1  0.34162007  0.17320856  0.43891875  1
  H+  H379  1  0.58922976  0.92660389  0.73359035  1
  H+  H380  1  0.72960320  0.11027807  0.17215578  1
  H+  H381  1  0.48508630  0.86580914  0.66487519  1
  H+  H382  1  0.93336801  0.80241478  0.88273701  1
  H+  H383  1  0.33763820  0.41870248  0.43264524  1
  O2-  O384  1  0.08092448  0.16829845  0.14569913  1
  O2-  O385  1  0.08824296  0.18133513  0.48013810  1
  O2-  O386  1  0.07665447  0.18040247  0.80697268  1
  O2-  O387  1  0.09243337  0.42171407  0.14713413  1
  O2-  O388  1  0.10333657  0.42251167  0.47770320  1
  O2-  O389  1  0.08479053  0.41900452  0.80916079  1
  O2-  O390  1  0.08201199  0.66184422  0.15053725  1
  O2-  O391  1  0.09178200  0.73599111  0.44860502  1
  O2-  O392  1  0.04907829  0.64231592  0.81974211  1
  O2-  O393  1  0.07295001  0.90079916  0.15474168  1
  O2-  O394  1  0.09142770  0.94465809  0.47567673  1
  O2-  O395  1  0.10128447  0.94006852  0.81688182  1
  O2-  O396  1  0.32131863  0.16789305  0.13662619  1
  O2-  O397  1  0.34231902  0.17359202  0.48443658  1
  O2-  O398  1  0.40886187  0.19762940  0.79277962  1
  O2-  O399  1  0.33534981  0.41152391  0.14680462  1
  O2-  O400  1  0.33910238  0.41691963  0.47867013  1
  O2-  O401  1  0.32577851  0.42301110  0.80721571  1
  O2-  O402  1  0.34061555  0.66510575  0.14422695  1
  O2-  O403  1  0.35528520  0.67196862  0.47338380  1
  O2-  O404  1  0.41363508  0.70746171  0.80252117  1
  O2-  O405  1  0.32620205  0.90855545  0.14780621  1
  O2-  O406  1  0.37513716  0.93189729  0.46699186  1
  O2-  O407  1  0.35037158  0.92476546  0.82084493  1
  O2-  O408  1  0.60978218  0.18890978  0.12266236  1
  O2-  O409  1  0.59018414  0.16912378  0.47181529  1
  O2-  O410  1  0.59570270  0.16197751  0.80977123  1
  O2-  O411  1  0.57388015  0.40197111  0.13833423  1
  O2-  O412  1  0.60205103  0.42326665  0.50332341  1
  O2-  O413  1  0.53691342  0.34788045  0.80983491  1
  O2-  O414  1  0.56652441  0.65584220  0.13254475  1
  O2-  O415  1  0.58461549  0.67351634  0.47802880  1
  O2-  O416  1  0.58384725  0.65298408  0.81304202  1
  O2-  O417  1  0.58549397  0.91862502  0.14015395  1
  O2-  O418  1  0.59795718  0.92491824  0.47820629  1
  O2-  O419  1  0.58709154  0.92589506  0.80767703  1
  O2-  O420  1  0.84473904  0.16832842  0.18539524  1
  O2-  O421  1  0.76683989  0.12196059  0.50588629  1
  O2-  O422  1  0.82887812  0.16720901  0.80624443  1
  O2-  O423  1  0.82735944  0.41212774  0.15307721  1
  O2-  O424  1  0.82082059  0.38745011  0.48059224  1
  O2-  O425  1  0.82161241  0.41254612  0.80021570  1
  O2-  O426  1  0.83000882  0.66752383  0.14196204  1
  O2-  O427  1  0.83048503  0.67220784  0.44831704  1
  O2-  O428  1  0.80050724  0.64420200  0.81931470  1
  O2-  O429  1  0.83608416  0.90987806  0.20947100  1
  O2-  O430  1  0.83128727  0.92679453  0.47955908  1
  O2-  O431  1  0.84455157  0.92317829  0.81378696  1
  O2-  O432  1  0.15837072  0.07638121  0.17448031  1
  O2-  O433  1  0.17694963  0.10406333  0.52352851  1
  O2-  O434  1  0.10198414  0.06786586  0.87333146  1
  O2-  O435  1  0.17385881  0.33574001  0.18768234  1
  O2-  O436  1  0.17969785  0.33865832  0.52719344  1
  O2-  O437  1  0.16943779  0.34492394  0.85021127  1
  O2-  O438  1  0.17630843  0.58534177  0.18670879  1
  O2-  O439  1  0.19623688  0.57537910  0.52312526  1
  O2-  O440  1  0.15805238  0.57878489  0.86033646  1
  O2-  O441  1  0.16500256  0.83065538  0.19284606  1
  O2-  O442  1  0.20716563  0.88423628  0.48275074  1
  O2-  O443  1  0.19317798  0.86078545  0.85963275  1
  O2-  O444  1  0.38317570  0.07660595  0.18300393  1
  O2-  O445  1  0.42889016  0.08872855  0.51686269  1
  O2-  O446  1  0.43833778  0.08823860  0.86127462  1
  O2-  O447  1  0.41321703  0.32482709  0.18821361  1
  O2-  O448  1  0.42519663  0.34077331  0.52520367  1
  O2-  O449  1  0.40434022  0.36028168  0.88226969  1
  O2-  O450  1  0.41750027  0.57600655  0.18516528  1
  O2-  O451  1  0.42429102  0.58202361  0.52370455  1
  O2-  O452  1  0.41805300  0.57928615  0.86295340  1
  O2-  O453  1  0.42298760  0.83450712  0.18196978  1
  O2-  O454  1  0.43383612  0.83475148  0.52321459  1
  O2-  O455  1  0.42168518  0.83577706  0.85885438  1
  O2-  O456  1  0.66780632  0.08560445  0.18091118  1
  O2-  O457  1  0.67378398  0.08300662  0.51393233  1
  O2-  O458  1  0.67256374  0.08448932  0.85898508  1
  O2-  O459  1  0.65798151  0.33228474  0.19042802  1
  O2-  O460  1  0.66984655  0.32791719  0.52530867  1
  O2-  O461  1  0.66547224  0.31601231  0.85110761  1
  O2-  O462  1  0.65376298  0.56707503  0.16323601  1
  O2-  O463  1  0.72293641  0.58432342  0.54959358  1
  O2-  O464  1  0.64102778  0.54773978  0.85243109  1
  O2-  O465  1  0.66165280  0.82664353  0.15798548  1
  O2-  O466  1  0.67158895  0.83958641  0.52236176  1
  O2-  O467  1  0.69446301  0.81204701  0.85644990  1
  O2-  O468  1  0.92530528  0.08417051  0.19725145  1
  O2-  O469  1  0.92065518  0.08947375  0.52229549  1
  O2-  O470  1  0.91462054  0.09099995  0.85117777  1
  O2-  O471  1  0.92430140  0.34445150  0.18723503  1
  O2-  O472  1  0.93430861  0.33079203  0.52358811  1
  O2-  O473  1  0.90845800  0.33879302  0.83917082  1
  O2-  O474  1  0.90673503  0.58099364  0.19221210  1
  O2-  O475  1  0.94008400  0.63968702  0.50704802  1
  O2-  O476  1  0.89462772  0.56683062  0.86250583  1
  O2-  O477  1  0.90992535  0.81582956  0.20367292  1
  O2-  O478  1  0.92383324  0.85991918  0.52667515  1
  O2-  O479  1  0.93309722  0.82981690  0.84229061  1
  O2-  O480  1  0.19220207  0.05836757  0.29419725  1
  O2-  O481  1  0.17384992  0.08662882  0.64844901  1
  O2-  O482  1  0.19924320  0.16085453  0.97011937  1
  O2-  O483  1  0.17198950  0.33262980  0.32197929  1
  O2-  O484  1  0.17684229  0.34219055  0.64690534  1
  O2-  O485  1  0.16602503  0.35273260  0.97777634  1
  O2-  O486  1  0.17011673  0.57232986  0.31071451  1
  O2-  O487  1  0.17869045  0.57737962  0.64870541  1
  O2-  O488  1  0.17469408  0.58607055  0.97982625  1
  O2-  O489  1  0.16498230  0.83139894  0.31665125  1
  O2-  O490  1  0.17552112  0.84062074  0.67457836  1
  O2-  O491  1  0.16958877  0.82673916  0.98376003  1
  O2-  O492  1  0.41181587  0.09119564  0.30804561  1
  O2-  O493  1  0.41994467  0.07614541  0.64084563  1
  O2-  O494  1  0.41248889  0.08151241  0.98502740  1
  O2-  O495  1  0.41305986  0.33876317  0.31145876  1
  O2-  O496  1  0.40876879  0.33157018  0.64464719  1
  O2-  O497  1  0.42601953  0.39244647  1.00282297  1
  O2-  O498  1  0.42008956  0.58316532  0.30705015  1
  O2-  O499  1  0.40658375  0.57061901  0.64480722  1
  O2-  O500  1  0.40750823  0.56661923  0.98316524  1
  O2-  O501  1  0.42512583  0.83820530  0.30425791  1
  O2-  O502  1  0.42414132  0.83231103  0.64937709  1
  O2-  O503  1  0.41297820  0.83270192  0.98203801  1
  O2-  O504  1  0.66398358  0.08865987  0.30828144  1
  O2-  O505  1  0.66649715  0.08753469  0.64281521  1
  O2-  O506  1  0.66426939  0.09730555  0.98062322  1
  O2-  O507  1  0.64911706  0.32862077  0.31097823  1
  O2-  O508  1  0.62922390  0.32730901  0.65026917  1
  O2-  O509  1  0.57686770  0.34028462  0.99009022  1
  O2-  O510  1  0.66734721  0.59259795  0.32633124  1
  O2-  O511  1  0.70055720  0.63660401  0.58825010  1
  O2-  O512  1  0.64152696  0.56384470  0.98434112  1
  O2-  O513  1  0.66591616  0.83834562  0.32450852  1
  O2-  O514  1  0.66473720  0.83660713  0.64695869  1
  O2-  O515  1  0.63093084  0.83072975  0.96895948  1
  O2-  O516  1  0.91669942  0.09075318  0.31804366  1
  O2-  O517  1  0.95092682  0.05530770  0.62686853  1
  O2-  O518  1  0.91341379  0.09848265  0.97454504  1
  O2-  O519  1  0.93767809  0.37809119  0.30643830  1
  O2-  O520  1  0.93394941  0.34225352  0.64201917  1
  O2-  O521  1  0.93286675  0.34422349  1.00047130  1
  O2-  O522  1  0.89159496  0.56744915  0.31967621  1
  O2-  O523  1  0.88912543  0.59212511  0.63937823  1
  O2-  O524  1  0.90935689  0.56336989  0.98163617  1
  O2-  O525  1  0.91419180  0.83143112  0.32715489  1
  O2-  O526  1  0.92474636  0.83813345  0.65543512  1
  O2-  O527  1  0.93677770  0.75494150  0.94502299  1
  O2-  O528  1  0.07453243  0.18583649  0.02323085  1
  O2-  O529  1  0.08488843  0.18190730  0.35815141  1
  O2-  O530  1  0.09145269  0.17250468  0.68535393  1
  O2-  O531  1  0.09404314  0.43354496  0.02716100  1
  O2-  O532  1  0.10175814  0.41349557  0.35731206  1
  O2-  O533  1  0.09002518  0.41219963  0.68494105  1
  O2-  O534  1  0.08332535  0.65948711  0.02323155  1
  O2-  O535  1  0.06904675  0.64553387  0.33893162  1
  O2-  O536  1  0.08987832  0.65928336  0.70058856  1
  O2-  O537  1  0.04939670  0.85674372  0.03832075  1
  O2-  O538  1  0.08188876  0.92154485  0.35462158  1
  O2-  O539  1  0.08904208  0.92432955  0.69527626  1
  O2-  O540  1  0.36868835  0.22362554  0.02141750  1
  O2-  O541  1  0.34013767  0.17462041  0.36054567  1
  O2-  O542  1  0.34220704  0.16626503  0.67854119  1
  O2-  O543  1  0.35106030  0.39867655  0.02239318  1
  O2-  O544  1  0.33355654  0.42202507  0.35682072  1
  O2-  O545  1  0.32374887  0.42300473  0.68918486  1
  O2-  O546  1  0.33891188  0.66068777  0.02081656  1
  O2-  O547  1  0.33886001  0.67070579  0.34697513  1
  O2-  O548  1  0.34510969  0.66850113  0.68800564  1
  O2-  O549  1  0.33500075  0.91713826  0.02409635  1
  O2-  O550  1  0.34380291  0.92382223  0.34449504  1
  O2-  O551  1  0.34804174  0.92006331  0.69596859  1
  O2-  O552  1  0.66474399  0.25778507  0.01651462  1
  O2-  O553  1  0.57507101  0.16751889  0.34947976  1
  O2-  O554  1  0.57481936  0.16072664  0.68990186  1
  O2-  O555  1  0.62692213  0.41823912  0.02598255  1
  O2-  O556  1  0.58425104  0.41984245  0.34551391  1
  O2-  O557  1  0.57113400  0.41907043  0.70581696  1
  O2-  O558  1  0.55971373  0.63743198  0.01989279  1
  O2-  O559  1  0.58680620  0.68347525  0.36112474  1
  O2-  O560  1  0.57865226  0.67214862  0.69476979  1
  O2-  O561  1  0.57726231  0.93021945  0.01816059  1
  O2-  O562  1  0.58767431  0.92084813  0.34638611  1
  O2-  O563  1  0.58772941  0.92536766  0.68732623  1
  O2-  O564  1  0.83080043  0.16955809  0.02945770  1
  O2-  O565  1  0.81114348  0.14631363  0.38639516  1
  O2-  O566  1  0.82890873  0.16960540  0.68059860  1
  O2-  O567  1  0.82243322  0.39944393  0.03314120  1
  O2-  O568  1  0.81272372  0.40248724  0.35806537  1
  O2-  O569  1  0.84895801  0.43592855  0.67575354  1
  O2-  O570  1  0.80102123  0.68378043  0.02697951  1
  O2-  O571  1  0.83114459  0.66721269  0.38836914  1
  O2-  O572  1  0.81485086  0.67092972  0.68056903  1
  O2-  O573  1  0.80469078  0.92839042  -0.02601757  1
  O2-  O574  1  0.82570183  0.92344702  0.35757192  1
  O2-  O575  1  0.83167454  0.91412505  0.68907605  1
