# generated using pymatgen
data_H2O
_symmetry_space_group_name_H-M   'P 1'
_cell_length_a   17.97385862
_cell_length_b   17.98615255
_cell_length_c   21.99034044
_cell_angle_alpha   89.95691983
_cell_angle_beta   89.98835097
_cell_angle_gamma   120.00420806
_symmetry_Int_Tables_number   1
_chemical_formula_structural   H2O
_chemical_formula_sum   'H384 O192'
_cell_volume   6156.35339174
_cell_formula_units_Z   192
loop_
 _symmetry_equiv_pos_site_id
 _symmetry_equiv_pos_as_xyz
  1  'x, y, z'
loop_
 _atom_type_symbol
 _atom_type_oxidation_number
  H+  1.0
  O2-  -2.0
loop_
 _atom_site_type_symbol
 _atom_site_label
 _atom_site_symmetry_multiplicity
 _atom_site_fract_x
 _atom_site_fract_y
 _atom_site_fract_z
 _atom_site_occupancy
  H+  H0  1  0.11254992  0.87518855  0.15383277  1
  H+  H1  1  0.88868245  0.10059879  0.98512364  1
  H+  H2  1  0.57396993  0.91366862  0.06240627  1
  H+  H3  1  0.49986685  0.10450231  0.65171364  1
  H+  H4  1  0.52633439  0.65225397  0.49504276  1
  H+  H5  1  0.10682312  0.97416874  0.81957352  1
  H+  H6  1  0.88941326  0.27737977  0.49763996  1
  H+  H7  1  0.62474692  0.89678138  0.36278316  1
  H+  H8  1  0.62778484  0.52555874  0.33411397  1
  H+  H9  1  0.74639216  0.85626782  0.66371669  1
  H+  H10  1  0.15950561  0.62697716  0.17659790  1
  H+  H11  1  0.27296659  0.38174382  0.50081202  1
  H+  H12  1  0.60389657  0.38369751  0.49771349  1
  H+  H13  1  -0.01928669  0.86154144  0.83711729  1
  H+  H14  1  1.00665283  0.21590040  0.20872196  1
  H+  H15  1  0.37472320  0.77332383  0.82939403  1
  H+  H16  1  0.14094761  0.76395918  0.65653664  1
  H+  H17  1  0.06672369  0.87053679  0.44494614  1
  H+  H18  1  0.77322074  0.12472633  0.82762356  1
  H+  H19  1  0.22196742  0.10840595  0.98848340  1
  H+  H20  1  0.63928165  0.01914338  0.15288459  1
  H+  H21  1  0.35664803  0.96753287  0.16851740  1
  H+  H22  1  0.38013827  0.38356566  0.17770213  1
  H+  H23  1  0.65136342  0.88165398  0.83469018  1
  H+  H24  1  0.84791357  0.72908602  0.16768132  1
  H+  H25  1  0.21753124  0.86838667  0.17163355  1
  H+  H26  1  0.39540717  0.93197505  0.03071093  1
  H+  H27  1  0.25900554  0.13660835  0.82449817  1
  H+  H28  1  0.57883606  0.65795724  0.05639096  1
  H+  H29  1  0.10619583  0.26696944  0.82907842  1
  H+  H30  1  0.60412148  0.14274590  0.82355809  1
  H+  H31  1  0.23569374  0.84859214  0.84585362  1
  H+  H32  1  0.48068401  0.12193766  0.98708988  1
  H+  H33  1  0.11446225  0.62463880  0.66611311  1
  H+  H34  1  0.58373492  0.68596295  0.40020072  1
  H+  H35  1  0.76030583  0.63904268  0.16469588  1
  H+  H36  1  0.87181644  1.03944743  0.67278820  1
  H+  H37  1  0.57453144  0.41148864  0.06702375  1
  H+  H38  1  0.60509754  0.00979274  0.83916426  1
  H+  H39  1  0.46649817  0.71487698  0.46071584  1
  H+  H40  1  0.11124413  0.63457039  0.01336075  1
  H+  H41  1  0.53331147  0.60530239  0.82231058  1
  H+  H42  1  0.17678698  0.81325511  0.90533814  1
  H+  H43  1  0.38266214  0.37522618  0.33720442  1
  H+  H44  1  0.13750839  0.27880687  0.50713042  1
  H+  H45  1  0.11839140  0.48622964  0.49294713  1
  H+  H46  1  0.82439550  0.66320677  0.44108906  1
  H+  H47  1  0.63139096  0.27873269  0.51119012  1
  H+  H48  1  0.64158704  0.12538014  0.51297991  1
  H+  H49  1  0.61563350  -0.02028138  0.37001421  1
  H+  H50  1  0.88215291  0.27346013  0.66603343  1
  H+  H51  1  0.52083168  0.14037496  0.49826783  1
  H+  H52  1  0.82145447  0.40730986  0.39773823  1
  H+  H53  1  0.20327589  0.25600541  0.10625797  1
  H+  H54  1  0.29839168  0.26511798  0.65848665  1
  H+  H55  1  0.67041290  0.73021999  0.13220269  1
  H+  H56  1  0.62254207  0.51348328  0.18019137  1
  H+  H57  1  -0.00399280  0.88041601  0.48328620  1
  H+  H58  1  0.71871384  0.12473978  0.34877545  1
  H+  H59  1  0.36318700  0.70711051  -0.00368039  1
  H+  H60  1  0.50470828  0.37832454  0.16280079  1
  H+  H61  1  0.61123264  0.77527544  0.18652777  1
  H+  H62  1  0.36000485  0.22647020  0.00114376  1
  H+  H63  1  0.63747335  0.39081288  0.82919933  1
  H+  H64  1  0.34649240  0.36577761  0.66823862  1
  H+  H65  1  0.10884157  0.73782969  0.48772192  1
  H+  H66  1  0.36519959  0.98450345  0.82385544  1
  H+  H67  1  0.88430106  0.48847924  0.82962918  1
  H+  H68  1  0.85642932  0.73106486  0.49855504  1
  H+  H69  1  0.36840101  0.96631223  0.67009019  1
  H+  H70  1  0.34022639  0.28592133  0.19277793  1
  H+  H71  1  0.87130409  0.71276987  0.67229836  1
  H+  H72  1  0.51702834  0.39044062  0.34467349  1
  H+  H73  1  0.61293718  -0.02459331  1.00470889  1
  H+  H74  1  0.49150049  0.62540250  0.66324378  1
  H+  H75  1  0.38021312  0.26614647  0.49554981  1
  H+  H76  1  0.73895199  0.11738669  -0.01160687  1
  H+  H77  1  0.85330410  0.14157419  0.34486588  1
  H+  H78  1  0.88608274  0.77499605  0.99100396  1
  H+  H79  1  0.38092668  0.11849230  0.83324756  1
  H+  H80  1  0.15503146  0.63101851  0.32945597  1
  H+  H81  1  0.24287429  0.62667468  0.83096144  1
  H+  H82  1  0.88561444  0.00801480  0.82793990  1
  H+  H83  1  0.87048349  0.38616083  0.67011620  1
  H+  H84  1  0.65809221  0.58261416  0.59118384  1
  H+  H85  1  0.39911303  0.61892968  0.67012675  1
  H+  H86  1  0.03250410  0.39887670  0.16706328  1
  H+  H87  1  0.59321941  0.14329761  0.35156073  1
  H+  H88  1  0.09118476  0.43229630  0.40336062  1
  H+  H89  1  0.86618585  -0.02096988  0.50856745  1
  H+  H90  1  1.01929908  0.12952515  0.99902739  1
  H+  H91  1  0.62780818  0.85211740  0.99026475  1
  H+  H92  1  0.12023455  0.71579565  0.82660794  1
  H+  H93  1  0.48640073  0.09750658  0.17431426  1
  H+  H94  1  0.36652290  0.47589041  1.00032561  1
  H+  H95  1  0.77776244  0.89505601  0.31795205  1
  H+  H96  1  0.97366697  0.35913279  0.66501238  1
  H+  H97  1  0.63104571  0.52135873  0.50979388  1
  H+  H98  1  0.11357748  0.37486082  0.67597766  1
  H+  H99  1  0.87906711  0.72422282  0.82910350  1
  H+  H100  1  0.39365517  0.60579344  0.51219576  1
  H+  H101  1  0.02579785  0.64305801  0.01920044  1
  H+  H102  1  0.38799619  0.85664517  0.66610359  1
  H+  H103  1  0.76163922  0.63178999  0.35193546  1
  H+  H104  1  0.58813589  0.17887159  0.72823475  1
  H+  H105  1  1.02681322  0.62689167  0.66426102  1
  H+  H106  1  0.11592935  0.51040292  0.83897767  1
  H+  H107  1  0.47633695  0.36205751  0.49805837  1
  H+  H108  1  0.88788189  0.23101821  -0.01122524  1
  H+  H109  1  0.34932566  0.22539693  0.82127809  1
  H+  H110  1  0.38374606  0.50349820  0.15857932  1
  H+  H111  1  0.78257705  0.88679802  0.81456718  1
  H+  H112  1  0.88917876  0.85597283  0.83388478  1
  H+  H113  1  0.36919446  0.99716793  0.00656656  1
  H+  H114  1  -0.11967237  0.86601666  0.51002305  1
  H+  H115  1  0.51233446  0.88910707  0.15925958  1
  H+  H116  1  0.89212935  0.36634176  0.17714636  1
  H+  H117  1  0.62126207  0.98948956  0.51335002  1
  H+  H118  1  0.90518350  0.62732420  0.13304055  1
  H+  H119  1  0.38158599  0.36030794  -0.00574358  1
  H+  H120  1  0.62912703  0.62522153  0.82064296  1
  H+  H121  1  0.37201005  0.43603227  0.74826873  1
  H+  H122  1  0.84456266  0.42194401  0.72824299  1
  H+  H123  1  0.47847156  0.85644004  0.98543240  1
  H+  H124  1  0.86140159  0.40206903  0.00886003  1
  H+  H125  1  0.63825438  0.52868634  0.65937959  1
  H+  H126  1  0.37159326  0.11619005  0.16069238  1
  H+  H127  1  0.59021079  0.37159371  0.16204232  1
  H+  H128  1  0.94583367  0.59429941  0.36542454  1
  H+  H129  1  0.12309900  0.48971018  0.16737325  1
  H+  H130  1  0.63057372  0.62106269  0.65893872  1
  H+  H131  1  0.63531828  0.52087330  0.99403560  1
  H+  H132  1  0.97610266  0.63537459  0.50499805  1
  H+  H133  1  0.62420221  0.63660242  0.15971319  1
  H+  H134  1  -0.03120072  0.86621837  0.17068153  1
  H+  H135  1  0.84658259  0.62582947  0.35271834  1
  H+  H136  1  0.51808379  0.38258296  1.00682782  1
  H+  H137  1  0.37397624  0.89138525  0.49588483  1
  H+  H138  1  0.73106802  0.12318135  0.51408410  1
  H+  H139  1  0.36074028  0.13679302  0.49067026  1
  H+  H140  1  0.51116298  0.61737505  0.99998936  1
  H+  H141  1  0.34625908  0.16094818  0.66565642  1
  H+  H142  1  1.01327132  0.12470341  0.81972607  1
  H+  H143  1  0.65915399  0.52394001  0.84177702  1
  H+  H144  1  0.92384019  0.59938077  0.12520848  1
  H+  H145  1  0.52365542  0.15515711  0.82092099  1
  H+  H146  1  0.33194171  0.63321813  0.84185803  1
  H+  H147  1  0.50365001  0.38008113  0.84281461  1
  H+  H148  1  0.76553360  0.38297315  0.33433930  1
  H+  H149  1  0.09999454  -0.04063312  0.66393030  1
  H+  H150  1  0.94822761  0.39515689  0.82118860  1
  H+  H151  1  0.89740568  0.28181089  0.16838953  1
  H+  H152  1  0.23577102  0.86493948  0.32631866  1
  H+  H153  1  0.16877353  0.84308182  0.27144897  1
  H+  H154  1  0.82346652  0.29024832  0.95753412  1
  H+  H155  1  0.50042539  0.63464894  0.16990033  1
  H+  H156  1  0.86343347  0.93906758  0.65131473  1
  H+  H157  1  0.62604572  0.14820247  0.67338681  1
  H+  H158  1  0.02288140  0.15695187  0.35131008  1
  H+  H159  1  0.21919572  0.24189834  0.13305590  1
  H+  H160  1  0.28357206  0.88803163  0.49341984  1
  H+  H161  1  -0.00586502  0.12689619  0.66984222  1
  H+  H162  1  0.16618339  0.30875144  0.17805839  1
  H+  H163  1  0.28890743  0.42127552  0.16497183  1
  H+  H164  1  0.58307142  0.17875636  0.44213167  1
  H+  H165  1  0.08651883  0.09002879  0.14848222  1
  H+  H166  1  0.22506419  0.86261398  0.00148862  1
  H+  H167  1  0.53297973  0.65203806  0.33793498  1
  H+  H168  1  0.05390546  0.12160588  0.09186671  1
  H+  H169  1  0.15485524  0.87841271  0.51651747  1
  H+  H170  1  0.28835935  0.66128010  0.33129802  1
  H+  H171  1  0.24810134  0.60966587  0.66026555  1
  H+  H172  1  0.62780252  0.28050963  0.32903209  1
  H+  H173  1  0.38117259  0.20691834  0.15560301  1
  H+  H174  1  0.51092605  0.15899040  0.35185486  1
  H+  H175  1  0.62439502  0.76139525  0.98596609  1
  H+  H176  1  0.72114853  0.61077911  0.51170967  1
  H+  H177  1  0.11308321  0.25427945  0.65567366  1
  H+  H178  1  0.39547406  0.53945117  0.32635797  1
  H+  H179  1  0.13491977  0.37254790  1.01328456  1
  H+  H180  1  0.41359878  0.49824519  0.69218050  1
  H+  H181  1  0.82459056  0.46557832  0.16523707  1
  H+  H182  1  0.62900543  0.73216848  0.67442330  1
  H+  H183  1  0.11282073  0.24371717  0.35318021  1
  H+  H184  1  0.12464200  0.01931540  0.48999281  1
  H+  H185  1  0.37752388  0.64573845  0.15448918  1
  H+  H186  1  0.37529185  0.85148284  0.17817555  1
  H+  H187  1  1.03028921  0.40266463  0.34436532  1
  H+  H188  1  0.64455008  0.87444524  0.52442092  1
  H+  H189  1  0.89378682  0.54198050  0.00883862  1
  H+  H190  1  0.60360177  0.75146436  0.49515678  1
  H+  H191  1  0.90734741  0.88752131  0.32231396  1
  H+  H192  1  0.38518921  0.76916951  0.16746666  1
  H+  H193  1  0.38522317  0.58943897  -0.01157647  1
  H+  H194  1  0.12055401  0.46680613  0.67428636  1
  H+  H195  1  0.37568101  0.11521634  0.29408930  1
  H+  H196  1  0.87117675  0.50698876  0.33878469  1
  H+  H197  1  0.85362577  0.66004529  0.73495548  1
  H+  H198  1  0.36884829  0.89642218  0.82306568  1
  H+  H199  1  0.57624347  0.15833017  0.09299710  1
  H+  H200  1  0.88928964  0.03990253  0.32069999  1
  H+  H201  1  0.10682435  0.14128544  0.49776966  1
  H+  H202  1  0.12018686  0.47328906  1.00940289  1
  H+  H203  1  0.89049343  0.60178306  0.83547321  1
  H+  H204  1  0.17383840  0.06633920  0.21705610  1
  H+  H205  1  0.14808575  0.38729583  0.17944323  1
  H+  H206  1  0.52205600  0.88455353  0.81515337  1
  H+  H207  1  0.97011120  0.11682368  0.52148826  1
  H+  H208  1  0.73131820  0.11972697  0.66707163  1
  H+  H209  1  0.11827928  0.97287829  0.14822283  1
  H+  H210  1  0.63077958  0.39769789  0.67111626  1
  H+  H211  1  0.82198881  0.83873053  0.15504620  1
  H+  H212  1  0.61665447  0.13052699  0.14695106  1
  H+  H213  1  0.34795335  0.46593855  0.83861402  1
  H+  H214  1  0.15194359  0.54033458  0.33243400  1
  H+  H215  1  0.40964191  0.78806796  0.50695735  1
  H+  H216  1  0.60645407  0.39045586  0.34069054  1
  H+  H217  1  0.62073920  0.98229255  0.67104111  1
  H+  H218  1  0.87545646  0.83923677  0.65697893  1
  H+  H219  1  0.70603196  0.34628142  0.16832803  1
  H+  H220  1  0.42992036  0.60795650  0.84970839  1
  H+  H221  1  0.13280397  0.02920102  0.31045872  1
  H+  H222  1  0.98107699  0.60383764  0.83269784  1
  H+  H223  1  0.88113530  1.00817021  -0.00800212  1
  H+  H224  1  0.93345034  0.85312054  0.23781315  1
  H+  H225  1  0.48906275  0.87898357  0.52010738  1
  H+  H226  1  0.89587144  0.63105143  0.00743587  1
  H+  H227  1  0.32098885  0.36814796  0.83524772  1
  H+  H228  1  0.89538451  0.52182821  0.65191934  1
  H+  H229  1  0.87919064  0.63536267  0.51028590  1
  H+  H230  1  0.65395857  0.86095861  0.66691275  1
  H+  H231  1  0.61917185  0.14149299  1.00317712  1
  H+  H232  1  0.82669194  1.00324736  0.18957077  1
  H+  H233  1  0.19776891  0.09717796  0.65283975  1
  H+  H234  1  0.07354725  0.37561727  0.82627724  1
  H+  H235  1  0.79396426  0.14327855  0.13854634  1
  H+  H236  1  0.63502407  0.36309037  -0.00422902  1
  H+  H237  1  0.05307142  0.63880286  0.17580124  1
  H+  H238  1  0.38555030  0.02338364  0.49878017  1
  H+  H239  1  0.76279107  0.87221881  -0.00042421  1
  H+  H240  1  0.12802996  0.11434730  0.83142995  1
  H+  H241  1  0.10779596  0.87871241  0.00481038  1
  H+  H242  1  0.45444568  0.42775936  0.85715394  1
  H+  H243  1  0.35337814  0.85782945  0.34250784  1
  H+  H244  1  0.11059011  0.13543904  0.00073281  1
  H+  H245  1  0.21151261  0.32150522  0.64812578  1
  H+  H246  1  0.61903918  0.25704754  0.16816401  1
  H+  H247  1  0.05110947  0.65168627  0.32017422  1
  H+  H248  1  0.37815601  0.36194186  0.50067106  1
  H+  H249  1  0.63112641  0.60757668  -0.01073671  1
  H+  H250  1  0.15831577  0.08437062  0.89160153  1
  H+  H251  1  0.13356819  0.27096011  1.00593494  1
  H+  H252  1  0.13227168  0.77593451  0.17223872  1
  H+  H253  1  0.70114118  0.85088604  0.17462007  1
  H+  H254  1  0.12371811  0.61949289  0.49762364  1
  H+  H255  1  0.53360328  0.89003515  0.67123847  1
  H+  H256  1  0.08149278  0.11830736  0.66467820  1
  H+  H257  1  0.86004342  0.13267460  0.50489184  1
  H+  H258  1  0.73954402  0.37359691  0.65997805  1
  H+  H259  1  -0.02259068  0.36701897  0.49112494  1
  H+  H260  1  0.22859981  0.09489407  0.15551525  1
  H+  H261  1  0.74797821  0.36749891  0.84309072  1
  H+  H262  1  0.67636280  0.34007044  -0.06148163  1
  H+  H263  1  0.88452322  0.36432894  0.32972623  1
  H+  H264  1  0.76953265  0.38572346  0.48592592  1
  H+  H265  1  0.12334762  0.39818926  0.49444252  1
  H+  H266  1  0.65389943  0.28237865  0.84117884  1
  H+  H267  1  0.84282850  0.92886324  0.26341349  1
  H+  H268  1  0.27931399  0.40639189  0.34771867  1
  H+  H269  1  0.77114708  0.64140591  1.00627070  1
  H+  H270  1  0.13891425  0.77083302  0.00437529  1
  H+  H271  1  0.94453905  0.51002787  0.20377149  1
  H+  H272  1  0.10874004  0.87492981  0.66834679  1
  H+  H273  1  0.59974611  -0.11298570  0.16020903  1
  H+  H274  1  0.39063761  0.12259900  -0.01352345  1
  H+  H275  1  0.38086416  0.83547085  0.97757057  1
  H+  H276  1  0.65344856  0.57525611  0.23982418  1
  H+  H277  1  0.36966694  0.72785411  0.68139064  1
  H+  H278  1  0.28427828  0.63744961  0.15800039  1
  H+  H279  1  0.86104168  0.13979578  0.67113511  1
  H+  H280  1  0.43891162  0.05482192  0.23670830  1
  H+  H281  1  0.81715077  0.00145272  0.15616357  1
  H+  H282  1  0.85861602  0.12060477  0.82469778  1
  H+  H283  1  0.14435256  0.38496170  0.33615866  1
  H+  H284  1  -0.03144192  0.84471988  0.65550706  1
  H+  H285  1  0.85686909  0.23157252  0.34870302  1
  H+  H286  1  0.23248529  0.10410931  0.31332764  1
  H+  H287  1  0.89052076  0.16358838  0.15261359  1
  H+  H288  1  0.21674261  0.10468316  0.49609799  1
  H+  H289  1  0.34036683  0.43191641  0.40580340  1
  H+  H290  1  0.42293782  0.55944879  0.91650305  1
  H+  H291  1  0.06361696  0.41351560  0.76466303  1
  H+  H292  1  0.82963401  0.16100724  0.44381619  1
  H+  H293  1  0.92973391  0.11720981  0.27361205  1
  H+  H294  1  0.54187994  0.39767672  0.67940391  1
  H+  H295  1  0.91997742  0.33374667  0.27424057  1
  H+  H296  1  0.91913673  0.83363502  0.92997915  1
  H+  H297  1  0.58964130  0.92600812  0.75997686  1
  H+  H298  1  0.82436116  0.67800456  0.06806679  1
  H+  H299  1  0.30758013  0.16321572  0.73017044  1
  H+  H300  1  0.18754057  0.35874746  0.83443592  1
  H+  H301  1  0.67622533  0.84449601  0.89167266  1
  H+  H302  1  0.33537081  0.16093330  0.05743937  1
  H+  H303  1  0.33974503  0.90909377  0.39493507  1
  H+  H304  1  0.77773891  0.89071734  0.50580326  1
  H+  H305  1  0.43999962  0.60321772  0.22969204  1
  H+  H306  1  0.99546347  0.13202825  0.17458546  1
  H+  H307  1  0.17801835  0.35592320  0.27881976  1
  H+  H308  1  0.33226765  0.91627481  0.73337778  1
  H+  H309  1  0.32238441  0.91943339  0.10592127  1
  H+  H310  1  0.07760015  0.68032968  0.42686433  1
  H+  H311  1  0.47926084  0.02464788  0.61207609  1
  H+  H312  1  0.57629986  0.41509958  0.43679366  1
  H+  H313  1  0.11970091  0.60114254  0.83945760  1
  H+  H314  1  0.23129810  0.36295056  1.00670277  1
  H+  H315  1  0.41797342  0.57856641  0.57553404  1
  H+  H316  1  0.42096741  0.82981004  0.88653188  1
  H+  H317  1  0.86040803  0.18133942  0.05195356  1
  H+  H318  1  0.59307487  0.92364290  0.45700956  1
  H+  H319  1  0.39992913  0.63046497  0.31775049  1
  H+  H320  1  0.68085367  0.58389889  0.90052098  1
  H+  H321  1  0.64595959  0.07483697  0.29959658  1
  H+  H322  1  0.61778497  0.23054528  0.00428496  1
  H+  H323  1  0.03104146  0.93543414  0.38359120  1
  H+  H324  1  0.38443936  0.69885660  0.42340645  1
  H+  H325  1  0.89368464  0.36002080  0.91719646  1
  H+  H326  1  0.91397240  0.82770236  0.56482916  1
  H+  H327  1  0.90722322  0.08589057  0.58139628  1
  H+  H328  1  0.66674909  0.08209998  0.93586944  1
  H+  H329  1  0.33645323  0.16727615  0.42907710  1
  H+  H330  1  0.36715278  0.23971118  0.33831723  1
  H+  H331  1  0.60808393  0.42287422  0.76970433  1
  H+  H332  1  0.33698750  0.41932552  0.06411734  1
  H+  H333  1  0.67140341  0.09314953  0.60700762  1
  H+  H334  1  0.64789058  0.28571656  0.65962545  1
  H+  H335  1  0.59405889  0.66065949  0.73140891  1
  H+  H336  1  0.63368462  0.61815878  0.33270782  1
  H+  H337  1  0.91993291  0.59751746  0.57192744  1
  H+  H338  1  0.41869959  0.82937434  0.60594745  1
  H+  H339  1  0.55353555  0.03593802  0.88345525  1
  H+  H340  1  0.08598727  0.66168826  0.76307266  1
  H+  H341  1  0.89741782  0.61297840  0.66148803  1
  H+  H342  1  0.06941676  0.15620866  0.75881480  1
  H+  H343  1  0.09499297  0.67118371  0.10797477  1
  H+  H344  1  0.65227125  0.33029936  0.26551878  1
  H+  H345  1  0.65844974  0.84404478  0.27661383  1
  H+  H346  1  0.36500737  0.46971629  0.50488515  1
  H+  H347  1  0.33257226  0.65641368  0.05875005  1
  H+  H348  1  0.84023470  0.90625747  0.75348112  1
  H+  H349  1  0.39151657  0.77911471  0.27363461  1
  H+  H350  1  0.01656179  0.87940603  0.00277931  1
  H+  H351  1  0.16403226  0.33366386  0.56735250  1
  H+  H352  1  0.07672851  0.90997140  0.76368106  1
  H+  H353  1  0.67178011  0.83042883  0.57719101  1
  H+  H354  1  0.09641830  0.42275411  0.07408962  1
  H+  H355  1  0.77306413  0.39941325  0.01608499  1
  H+  H356  1  0.42192168  0.33996397  0.93539547  1
  H+  H357  1  0.82973263  0.16619284  0.73293335  1
  H+  H358  1  0.32943881  0.66531579  0.74019706  1
  H+  H359  1  0.91094670  0.06141527  0.89105353  1
  H+  H360  1  0.79018960  0.63566196  0.82974556  1
  H+  H361  1  0.85444462  0.87568131  0.00167758  1
  H+  H362  1  0.13014115  0.74525220  0.33464019  1
  H+  H363  1  0.17354880  0.83066398  0.56940462  1
  H+  H364  1  0.18541713  0.59463310  0.23646439  1
  H+  H365  1  0.83339839  0.42163310  0.10536184  1
  H+  H366  1  0.15250242  0.57090259  0.93590750  1
  H+  H367  1  0.69213578  0.08819923  0.20308333  1
  H+  H368  1  0.94967802  0.56717686  0.25994324  1
  H+  H369  1  0.13269494  0.01995154  0.98959219  1
  H+  H370  1  0.21984478  0.60308799  -0.00895937  1
  H+  H371  1  0.79252312  0.86193916  0.09236143  1
  H+  H372  1  0.16440809  0.60251663  0.55552787  1
  H+  H373  1  0.41758064  0.07902821  0.55902972  1
  H+  H374  1  0.22849614  0.85547266  0.66028267  1
  H+  H375  1  0.40870171  0.34663601  0.27573897  1
  H+  H376  1  0.21116874  0.54268060  0.60727394  1
  H+  H377  1  0.64483510  0.78437738  0.33394113  1
  H+  H378  1  0.14537393  0.06541432  0.59084621  1
  H+  H379  1  0.07857065  0.90624116  0.08542577  1
  H+  H380  1  0.41654616  0.09366267  0.89212934  1
  H+  H381  1  0.66925977  0.34478054  0.56675413  1
  H+  H382  1  0.07636290  0.17659527  0.44246904  1
  H+  H383  1  0.85838295  0.38417157  0.47967715  1
  O2-  O384  1  0.03747494  0.09473919  0.13301376  1
  O2-  O385  1  0.07826932  0.17489374  0.48855884  1
  O2-  O386  1  0.07400596  0.15862718  0.80463596  1
  O2-  O387  1  0.09333839  0.42847364  0.15242278  1
  O2-  O388  1  0.09251922  0.42646629  0.47680075  1
  O2-  O389  1  0.05204873  0.41395651  0.80922312  1
  O2-  O390  1  0.10635918  0.67949705  0.15320508  1
  O2-  O391  1  0.07055395  0.67851737  0.47205414  1
  O2-  O392  1  0.08118999  0.65743202  0.80796825  1
  O2-  O393  1  0.08199062  0.90882197  0.13425791  1
  O2-  O394  1  0.05132811  0.91307232  0.45728202  1
  O2-  O395  1  0.07715442  0.91262878  0.80879204  1
  O2-  O396  1  0.34593730  0.14798682  0.14121621  1
  O2-  O397  1  0.33232747  0.16872377  0.47430577  1
  O2-  O398  1  0.32055183  0.16571743  0.80744389  1
  O2-  O399  1  0.34701980  0.44136779  0.14724626  1
  O2-  O400  1  0.33482643  0.41073045  0.48578154  1
  O2-  O401  1  0.30716158  0.40977009  0.81806856  1
  O2-  O402  1  0.34216131  0.66974791  0.13802683  1
  O2-  O403  1  0.40615747  0.70287927  0.46522432  1
  O2-  O404  1  0.30662829  0.66093412  0.81837207  1
  O2-  O405  1  0.31872366  0.90969888  0.15058917  1
  O2-  O406  1  0.34336973  0.92023473  0.47787431  1
  O2-  O407  1  0.33565663  0.92406764  0.80892961  1
  O2-  O408  1  0.57745969  0.15369623  0.13868287  1
  O2-  O409  1  0.58310874  0.17403013  0.48726648  1
  O2-  O410  1  0.58501434  0.18219524  0.80755357  1
  O2-  O411  1  0.56445052  0.40642187  0.14775860  1
  O2-  O412  1  0.57071797  0.41211213  0.48242872  1
  O2-  O413  1  0.60493167  0.41950827  0.81483385  1
  O2-  O414  1  0.61205080  0.68000226  0.13933062  1
  O2-  O415  1  0.55852793  0.70325184  0.46904149  1
  O2-  O416  1  0.58873139  0.64150421  0.80197616  1
  O2-  O417  1  0.57192709  0.91797276  0.14137634  1
  O2-  O418  1  0.59084940  0.92675440  0.50306588  1
  O2-  O419  1  0.58375497  0.92473909  0.80592546  1
  O2-  O420  1  0.85539123  0.18331591  0.12947621  1
  O2-  O421  1  0.82948324  0.16315657  0.48883392  1
  O2-  O422  1  0.83143329  0.15496506  0.81180954  1
  O2-  O423  1  0.82801847  0.41571378  0.15167844  1
  O2-  O424  1  0.82564768  0.41303787  0.46499708  1
  O2-  O425  1  0.84952182  0.41887876  0.81303655  1
  O2-  O426  1  0.81650143  0.67512288  0.14468020  1
  O2-  O427  1  0.82801984  0.66755482  0.48798499  1
  O2-  O428  1  0.85065200  0.66332576  0.81426787  1
  O2-  O429  1  0.77173325  0.83453945  0.13340196  1
  O2-  O430  1  0.83865335  0.91917629  0.49227116  1
  O2-  O431  1  0.84302942  0.91068210  0.79953550  1
  O2-  O432  1  0.16873118  0.06285804  0.17053378  1
  O2-  O433  1  0.15679189  0.07509641  0.51131999  1
  O2-  O434  1  0.16239648  0.08711685  0.84655276  1
  O2-  O435  1  0.18592263  0.36492168  0.19640720  1
  O2-  O436  1  0.17177896  0.34009711  0.52182342  1
  O2-  O437  1  0.12611936  0.32555752  0.84523222  1
  O2-  O438  1  0.18474234  0.59136410  0.19093347  1
  O2-  O439  1  0.15737320  0.59281505  0.51158860  1
  O2-  O440  1  0.14937590  0.57045391  0.85637952  1
  O2-  O441  1  0.15494266  0.83858206  0.18356962  1
  O2-  O442  1  0.17422858  0.83716670  0.52317870  1
  O2-  O443  1  0.18929467  0.79670812  0.86552950  1
  O2-  O444  1  0.42844754  0.06778264  0.19554096  1
  O2-  O445  1  0.41148174  0.08416726  0.51451379  1
  O2-  O446  1  0.41690906  0.09351672  0.84672811  1
  O2-  O447  1  0.39482425  0.33966813  0.19554116  1
  O2-  O448  1  0.41148086  0.32865369  0.51036133  1
  O2-  O449  1  0.44687504  0.37004192  0.85880024  1
  O2-  O450  1  0.44024461  0.60531441  0.18398489  1
  O2-  O451  1  0.41528883  0.56986855  0.53022108  1
  O2-  O452  1  0.42807233  0.55677832  0.86566148  1
  O2-  O453  1  0.41109231  0.82591835  0.18932982  1
  O2-  O454  1  0.42509513  0.84271233  0.52878634  1
  O2-  O455  1  0.41524007  0.83367082  0.84174374  1
  O2-  O456  1  0.67992745  0.08316901  0.15965775  1
  O2-  O457  1  0.67016599  0.09489810  0.53031154  1
  O2-  O458  1  0.61051693  0.05987062  0.86531561  1
  O2-  O459  1  0.64600523  0.31756669  0.18307919  1
  O2-  O460  1  0.66080849  0.34124838  0.52170165  1
  O2-  O461  1  0.68748614  0.34082760  0.85937769  1
  O2-  O462  1  0.65290822  0.57410620  0.19406003  1
  O2-  O463  1  0.66071349  0.58031876  0.52700840  1
  O2-  O464  1  0.68743456  0.58500299  0.85525918  1
  O2-  O465  1  0.64587343  0.83703940  0.19560826  1
  O2-  O466  1  0.66956922  0.83639863  0.53144469  1
  O2-  O467  1  0.68680023  0.85686677  0.84780132  1
  O2-  O468  1  0.96375657  0.15684368  0.19917767  1
  O2-  O469  1  0.90894057  0.08376902  0.53416922  1
  O2-  O470  1  0.91118457  0.06753559  0.84618719  1
  O2-  O471  1  0.92526941  0.33855886  0.18962917  1
  O2-  O472  1  0.91476284  0.34047869  0.49668359  1
  O2-  O473  1  0.89051382  0.37349271  0.84120397  1
  O2-  O474  1  0.98345047  0.56227899  0.22582722  1
  O2-  O475  1  0.91752393  0.60763330  0.52505959  1
  O2-  O476  1  0.91996488  0.56848981  0.84681033  1
  O2-  O477  1  0.91535176  0.84309275  0.19429254  1
  O2-  O478  1  0.91099771  0.83130454  0.51891274  1
  O2-  O479  1  0.91984690  0.82873876  0.85381480  1
  O2-  O480  1  0.18321289  0.07004372  0.28645408  1
  O2-  O481  1  0.13914830  0.06131363  0.63594693  1
  O2-  O482  1  0.16117314  0.07997331  0.97441507  1
  O2-  O483  1  0.17677255  0.35503120  0.32382149  1
  O2-  O484  1  0.15292195  0.31579851  0.64312881  1
  O2-  O485  1  0.16638547  0.33460670  0.99733058  1
  O2-  O486  1  0.18515221  0.59998179  0.31518522  1
  O2-  O487  1  0.19343118  0.57153981  0.63660746  1
  O2-  O488  1  0.15704966  0.57218071  0.98133508  1
  O2-  O489  1  0.17294655  0.83737088  0.31562450  1
  O2-  O490  1  0.16950731  0.82476152  0.64197821  1
  O2-  O491  1  0.16523489  0.83099639  0.98732668  1
  O2-  O492  1  0.40933776  0.15893870  0.32465772  1
  O2-  O493  1  0.45128975  0.05462523  0.62907639  1
  O2-  O494  1  0.41999442  0.09056027  0.97205718  1
  O2-  O495  1  0.41023131  0.34219852  0.32074486  1
  O2-  O496  1  0.30202411  0.31792329  0.64266372  1
  O2-  O497  1  0.41291070  0.32980504  0.98013646  1
  O2-  O498  1  0.42872901  0.59721149  0.30675705  1
  O2-  O499  1  0.42919027  0.59071528  0.65162448  1
  O2-  O500  1  0.41591757  0.55878529  0.97751149  1
  O2-  O501  1  0.38860388  0.78020519  0.31876320  1
  O2-  O502  1  0.42063823  0.82847034  0.65168231  1
  O2-  O503  1  0.42150362  0.81753920  0.96504418  1
  O2-  O504  1  0.65396522  0.09300017  0.34183878  1
  O2-  O505  1  0.66828473  0.08958893  0.65258088  1
  O2-  O506  1  0.67587775  0.08746632  0.98068494  1
  O2-  O507  1  0.65807158  0.33898256  0.31023294  1
  O2-  O508  1  0.67769682  0.34694562  0.64589931  1
  O2-  O509  1  0.66988500  0.33589063  0.98385488  1
  O2-  O510  1  0.65998605  0.58451675  0.31642393  1
  O2-  O511  1  0.65908177  0.58635113  0.63982634  1
  O2-  O512  1  0.66649339  0.58055479  0.97789448  1
  O2-  O513  1  0.67338029  0.84617719  0.32032881  1
  O2-  O514  1  0.67756149  0.82567755  0.65105525  1
  O2-  O515  1  0.65844022  0.82346829  0.97417750  1
  O2-  O516  1  0.91607489  0.10344424  0.31746260  1
  O2-  O517  1  0.90555333  0.09309468  0.65075416  1
  O2-  O518  1  0.91616678  0.06653428  0.97346397  1
  O2-  O519  1  0.91908969  0.33610494  0.31919418  1
  O2-  O520  1  0.91321519  0.33478285  0.65226885  1
  O2-  O521  1  0.88273226  0.33713830  0.96010098  1
  O2-  O522  1  0.90682802  0.57256240  0.33077190  1
  O2-  O523  1  0.92669905  0.58351011  0.63804847  1
  O2-  O524  1  0.93018851  0.60306168  0.99788918  1
  O2-  O525  1  0.95310749  0.87147270  0.31722234  1
  O2-  O526  1  0.90906955  0.81138968  0.63888722  1
  O2-  O527  1  0.91964689  0.83607353  0.97601627  1
  O2-  O528  1  0.07836618  0.16293726  0.01735185  1
  O2-  O529  1  0.08128150  0.18432914  0.36901229  1
  O2-  O530  1  0.05952552  0.15379618  0.68295391  1
  O2-  O531  1  0.09708485  0.41500773  0.02915263  1
  O2-  O532  1  0.09156015  0.43581487  0.35720767  1
  O2-  O533  1  0.08572125  0.40815934  0.69049963  1
  O2-  O534  1  0.08906117  0.67007942  0.03216009  1
  O2-  O535  1  0.09859160  0.68082173  0.34880233  1
  O2-  O536  1  0.08782325  0.65745038  0.68025802  1
  O2-  O537  1  0.07735785  0.90918126  0.02052793  1
  O2-  O538  1  0.02824170  0.95072497  0.34017537  1
  O2-  O539  1  0.07415885  0.90064472  0.68232405  1
  O2-  O540  1  0.33139833  0.16370749  0.01278733  1
  O2-  O541  1  0.34316959  0.17659043  0.34974245  1
  O2-  O542  1  0.29938250  0.16424903  0.68509028  1
  O2-  O543  1  0.32990443  0.41067264  0.01956751  1
  O2-  O544  1  0.34155334  0.43566001  0.36047786  1
  O2-  O545  1  0.41107052  0.44811965  0.71323138  1
  O2-  O546  1  0.32685272  0.64921068  0.01364824  1
  O2-  O547  1  0.35290669  0.69111382  0.33941852  1
  O2-  O548  1  0.33886166  0.66631964  0.69548239  1
  O2-  O549  1  0.34520518  0.93902272  0.02731329  1
  O2-  O550  1  0.33640761  0.90127432  0.35017311  1
  O2-  O551  1  0.33136163  0.90844477  0.68792058  1
  O2-  O552  1  0.58490619  0.16824344  0.01683634  1
  O2-  O553  1  0.57143223  0.18240916  0.36390228  1
  O2-  O554  1  0.59165224  0.17764102  0.68293098  1
  O2-  O555  1  0.57879635  0.41190033  0.02184611  1
  O2-  O556  1  0.57731284  0.41946965  0.36013768  1
  O2-  O557  1  0.60305578  0.43063180  0.68885736  1
  O2-  O558  1  0.57500813  0.65584657  0.01157856  1
  O2-  O559  1  0.59208427  0.68091065  0.35534899  1
  O2-  O560  1  0.59449527  0.66769641  0.68528210  1
  O2-  O561  1  0.57614570  0.91429152  0.01695471  1
  O2-  O562  1  0.59233949  0.92026503  0.38406937  1
  O2-  O563  1  0.59385466  0.92159560  0.68624819  1
  O2-  O564  1  0.85410984  0.17341996  0.00673305  1
  O2-  O565  1  0.82211179  0.17022561  0.36185420  1
  O2-  O566  1  0.82682981  0.16894946  0.68774423  1
  O2-  O567  1  0.83308339  0.42862993  0.03237060  1
  O2-  O568  1  0.82538524  0.40991841  0.35009211  1
  O2-  O569  1  0.84130033  0.42107862  0.68323123  1
  O2-  O570  1  0.83052377  0.67727135  0.02266850  1
  O2-  O571  1  0.81947395  0.65661941  0.37095837  1
  O2-  O572  1  0.85246280  0.65463106  0.68981622  1
  O2-  O573  1  0.82086427  0.90119450  0.01946957  1
  O2-  O574  1  0.84144115  0.92855248  0.30777597  1
  O2-  O575  1  0.83113931  0.89035363  0.67838286  1
