# generated using pymatgen
data_H2O
_symmetry_space_group_name_H-M   'P 1'
_cell_length_a   17.98494805
_cell_length_b   17.98573076
_cell_length_c   21.98937614
_cell_angle_alpha   90.00857782
_cell_angle_beta   89.98208778
_cell_angle_gamma   120.02562433
_symmetry_Int_Tables_number   1
_chemical_formula_structural   H2O
_chemical_formula_sum   'H384 O192'
_cell_volume   6158.40999046
_cell_formula_units_Z   192
loop_
 _symmetry_equiv_pos_site_id
 _symmetry_equiv_pos_as_xyz
  1  'x, y, z'
loop_
 _atom_type_symbol
 _atom_type_oxidation_number
  H+  1.0
  O2-  -2.0
loop_
 _atom_site_type_symbol
 _atom_site_label
 _atom_site_symmetry_multiplicity
 _atom_site_fract_x
 _atom_site_fract_y
 _atom_site_fract_z
 _atom_site_occupancy
  H+  H0  1  0.86121743  0.13427664  0.00183949  1
  H+  H1  1  0.16063156  1.02905584  0.49536185  1
  H+  H2  1  0.15399354  0.84305923  0.52345448  1
  H+  H3  1  0.60365332  0.63039561  0.29587560  1
  H+  H4  1  0.65514235  0.77816805  0.17013500  1
  H+  H5  1  0.61125930  0.72244133  0.81716549  1
  H+  H6  1  0.26157155  0.12420991  0.15960048  1
  H+  H7  1  1.01246823  0.12299532  0.65559509  1
  H+  H8  1  0.22927469  0.86308164  0.16958467  1
  H+  H9  1  0.55363647  0.63850189  0.00203745  1
  H+  H10  1  0.12941306  1.02120072  0.17121888  1
  H+  H11  1  0.34977856  0.37635731  0.68033250  1
  H+  H12  1  0.60087702  0.46332639  0.39703975  1
  H+  H13  1  0.98062163  0.84574779  0.97363055  1
  H+  H14  1  0.38253312  0.40935430  0.34034745  1
  H+  H15  1  0.59658185  0.23867572  0.48525387  1
  H+  H16  1  0.85715961  0.63712809  0.33657730  1
  H+  H17  1  0.61014729  0.88774435  0.45773875  1
  H+  H18  1  0.28346553  0.68420480  0.19663361  1
  H+  H19  1  0.84447390  0.64896146  0.63949208  1
  H+  H20  1  0.48171204  0.12537225  0.32041488  1
  H+  H21  1  0.98021416  0.61495519  0.99470588  1
  H+  H22  1  0.60795617  0.89194587  0.66925464  1
  H+  H23  1  0.86216011  0.71853768  0.00095956  1
  H+  H24  1  0.52139793  0.13790096  0.15623158  1
  H+  H25  1  0.38709262  0.85754553  0.50699067  1
  H+  H26  1  0.88972785  0.35165022  0.67043966  1
  H+  H27  1  0.12598521  0.51525782  0.18094499  1
  H+  H28  1  0.11523005  0.47353655  0.67420907  1
  H+  H29  1  0.15977303  0.25095640  0.50737844  1
  H+  H30  1  0.61790842  0.96274371  0.00234855  1
  H+  H31  1  -0.02530768  0.86547171  0.82619239  1
  H+  H32  1  0.13371506  0.35890086  0.65842666  1
  H+  H33  1  0.13677008  0.86020791  0.32353678  1
  H+  H34  1  0.11427692  0.73502315  0.01041369  1
  H+  H35  1  0.04843477  0.13879889  0.50701578  1
  H+  H36  1  0.15975780  0.38592957  -0.01578212  1
  H+  H37  1  0.40554682  0.28513730  1.00393252  1
  H+  H38  1  0.92396310  0.09397839  0.47629227  1
  H+  H39  1  0.01547261  0.63598868  0.48690947  1
  H+  H40  1  0.83263946  0.65465182  0.08942925  1
  H+  H41  1  0.13930565  0.11208879  0.66216286  1
  H+  H42  1  0.13717914  0.87470225  0.99618137  1
  H+  H43  1  0.00189153  0.86237450  0.34129870  1
  H+  H44  1  0.84128813  0.74613261  0.52048779  1
  H+  H45  1  0.62303852  0.15869027  0.75817076  1
  H+  H46  1  0.35983220  0.96903668  0.68637271  1
  H+  H47  1  0.15025550  0.12692653  -0.01225435  1
  H+  H48  1  0.27130631  0.87963360  0.83512622  1
  H+  H49  1  0.25920212  0.37417512  0.67565133  1
  H+  H50  1  0.22622288  0.87473399  0.99532471  1
  H+  H51  1  0.36443727  0.98372694  0.15546580  1
  H+  H52  1  0.63974228  0.51107883  0.99115081  1
  H+  H53  1  0.88841911  0.77295618  0.82526990  1
  H+  H54  1  0.61784810  0.03357105  0.50081158  1
  H+  H55  1  0.11879082  0.99793572  0.01122701  1
  H+  H56  1  0.75353580  0.14994346  0.69032105  1
  H+  H57  1  0.76075361  0.61240877  0.49334526  1
  H+  H58  1  0.59949024  0.71718817  0.29784522  1
  H+  H59  1  0.71394483  0.60418700  0.66617217  1
  H+  H60  1  0.86739864  0.22947055  0.82579767  1
  H+  H61  1  0.64468683  0.85478806  0.98577410  1
  H+  H62  1  0.71720852  0.36559439  0.16079154  1
  H+  H63  1  0.59007175  0.97179179  0.67280531  1
  H+  H64  1  0.10354726  0.71757646  0.68956566  1
  H+  H65  1  0.35277325  0.48150411  0.34814061  1
  H+  H66  1  0.61540544  0.08237067  0.60484732  1
  H+  H67  1  0.61704772  0.97469934  0.35636628  1
  H+  H68  1  0.63150718  0.85858433  0.83274828  1
  H+  H69  1  0.23298252  0.87464853  0.32603571  1
  H+  H70  1  0.87635238  0.45113100  0.67960921  1
  H+  H71  1  0.11957055  0.85921584  0.69491095  1
  H+  H72  1  0.36118103  0.72581800  0.50093731  1
  H+  H73  1  0.42216576  0.08506910  0.22720629  1
  H+  H74  1  0.61934245  0.76447921  0.51051660  1
  H+  H75  1  0.65534957  0.61208234  0.16338545  1
  H+  H76  1  0.35943610  0.64699765  0.34339884  1
  H+  H77  1  0.78570405  0.90072775  0.16750589  1
  H+  H78  1  0.83840462  0.38086552  0.16315050  1
  H+  H79  1  0.34721556  0.62555952  -0.01882431  1
  H+  H80  1  0.35509439  0.71755415  0.67654155  1
  H+  H81  1  0.35471879  0.14443335  0.82633835  1
  H+  H82  1  0.62199980  0.57421660  0.52159520  1
  H+  H83  1  0.61780064  0.46909636  0.82909459  1
  H+  H84  1  0.14458417  0.32671185  0.49421990  1
  H+  H85  1  0.48252246  0.35902571  0.84574727  1
  H+  H86  1  0.24780100  0.36413306  0.19026321  1
  H+  H87  1  0.49717402  0.37743071  -0.00134593  1
  H+  H88  1  0.49456119  0.07533463  0.65618899  1
  H+  H89  1  0.59700499  0.43004926  0.05666281  1
  H+  H90  1  0.28378795  0.50094136  0.92334883  1
  H+  H91  1  0.47520406  0.86409552  0.18257316  1
  H+  H92  1  0.14254060  0.62908211  0.99118578  1
  H+  H93  1  0.95615197  0.36228322  0.50907833  1
  H+  H94  1  0.68202451  0.58512624  0.22660084  1
  H+  H95  1  0.55888643  0.64164583  0.14628798  1
  H+  H96  1  0.65705494  0.77286152  -0.01695800  1
  H+  H97  1  0.46789297  0.11524446  0.50759274  1
  H+  H98  1  0.85208781  0.21603137  0.67774272  1
  H+  H99  1  0.89394063  0.37215322  0.83518798  1
  H+  H100  1  0.88342291  0.01547011  0.65005063  1
  H+  H101  1  0.84916435  1.00211206  0.49563497  1
  H+  H102  1  0.85792424  0.88252830  0.33797439  1
  H+  H103  1  0.97397728  0.59939838  0.66236697  1
  H+  H104  1  0.63809276  0.17174673  0.00876697  1
  H+  H105  1  0.16470072  0.04845079  0.32211240  1
  H+  H106  1  0.14057738  0.27067085  0.33777873  1
  H+  H107  1  0.63422783  0.85513348  0.33269849  1
  H+  H108  1  0.36474632  0.68339710  0.14517490  1
  H+  H109  1  0.48019949  0.86246591  0.98696113  1
  H+  H110  1  0.53193465  0.42309255  0.34039181  1
  H+  H111  1  0.86706281  0.63264147  0.82183672  1
  H+  H112  1  0.17745431  0.33082701  0.24282310  1
  H+  H113  1  0.98779337  0.89284193  0.48636039  1
  H+  H114  1  0.11626836  0.90168281  0.81913274  1
  H+  H115  1  0.90053836  0.03498809  0.98249780  1
  H+  H116  1  0.01615911  0.63609871  0.83369129  1
  H+  H117  1  0.88082432  0.52294344  0.17362985  1
  H+  H118  1  0.88950755  0.61144823  -0.00592193  1
  H+  H119  1  0.87495879  -0.01236025  0.16813194  1
  H+  H120  1  0.60158974  0.62263644  0.66533042  1
  H+  H121  1  0.37152090  0.51160098  0.66653595  1
  H+  H122  1  0.70420506  0.11988174  0.51064006  1
  H+  H123  1  0.87860307  0.51874255  0.50273257  1
  H+  H124  1  0.59924716  0.06161786  0.97525055  1
  H+  H125  1  0.73593360  0.10935156  0.84083393  1
  H+  H126  1  0.26235749  0.88442470  0.69949903  1
  H+  H127  1  0.63905728  0.63120073  0.99663879  1
  H+  H128  1  0.96278961  0.35259887  0.99367343  1
  H+  H129  1  0.04047984  0.38684512  0.33670216  1
  H+  H130  1  0.14275908  0.02672542  0.67232890  1
  H+  H131  1  0.87601886  0.77145006  0.32765885  1
  H+  H132  1  0.37444556  0.60635354  0.51069174  1
  H+  H133  1  0.37733349  0.85206117  0.66882080  1
  H+  H134  1  0.78301278  0.40389565  0.33554994  1
  H+  H135  1  0.83090916  0.13080456  0.49811271  1
  H+  H136  1  0.88800663  0.02930926  0.83282424  1
  H+  H137  1  0.39554667  1.03193851  -0.00369568  1
  H+  H138  1  0.11005998  0.72945698  0.33063899  1
  H+  H139  1  0.12028141  0.10987742  0.50309264  1
  H+  H140  1  0.58094980  0.65763147  0.57861504  1
  H+  H141  1  0.72260206  0.85622335  0.32548716  1
  H+  H142  1  0.59546986  0.85383174  0.15643207  1
  H+  H143  1  0.13462024  0.52461707  0.84595785  1
  H+  H144  1  0.11327065  0.72426326  0.16347384  1
  H+  H145  1  0.77214283  0.62735284  0.00147369  1
  H+  H146  1  0.86649892  0.62439755  0.15540545  1
  H+  H147  1  0.38457032  0.10891433  0.16877090  1
  H+  H148  1  0.14464032  0.39038642  0.16651277  1
  H+  H149  1  0.84030930  0.25328947  0.18044952  1
  H+  H150  1  0.65708152  0.55794294  0.60823633  1
  H+  H151  1  0.79294096  0.89726204  -0.01322673  1
  H+  H152  1  0.35976807  0.73666837  0.34634932  1
  H+  H153  1  0.37863093  0.16022683  0.29314282  1
  H+  H154  1  0.88366444  0.10993514  0.33586255  1
  H+  H155  1  0.01245600  0.13255381  0.81083821  1
  H+  H156  1  0.34712217  0.19319123  0.18788630  1
  H+  H157  1  0.84032192  0.43279023  0.39449866  1
  H+  H158  1  0.28070476  0.37979736  0.49098533  1
  H+  H159  1  0.37364011  0.60209022  0.66634317  1
  H+  H160  1  0.36878094  0.90331269  0.34263645  1
  H+  H161  1  0.12810979  0.41358813  0.84763227  1
  H+  H162  1  0.84280838  0.22623646  0.49997571  1
  H+  H163  1  0.62753668  0.10816220  0.17222541  1
  H+  H164  1  0.36895086  0.89924993  0.16157942  1
  H+  H165  1  0.13135048  0.54160579  0.50354155  1
  H+  H166  1  0.43004642  0.64983081  0.14454587  1
  H+  H167  1  0.42524822  0.33115848  -0.09474700  1
  H+  H168  1  0.10818906  0.64325430  0.48822953  1
  H+  H169  1  0.63997981  0.35466837  0.83600417  1
  H+  H170  1  0.36863063  0.48691209  0.81998510  1
  H+  H171  1  0.46372624  0.61116697  0.31571553  1
  H+  H172  1  0.97163765  0.62381422  0.31828273  1
  H+  H173  1  0.27200275  0.69816627  0.16708743  1
  H+  H174  1  0.22549506  0.62437633  0.50781558  1
  H+  H175  1  0.79642442  0.28142788  0.23099029  1
  H+  H176  1  0.72070335  0.10642235  0.33218720  1
  H+  H177  1  0.86024564  0.88957304  0.82124994  1
  H+  H178  1  0.42106708  0.84270566  0.89729779  1
  H+  H179  1  0.16340579  0.09106642  0.25869380  1
  H+  H180  1  0.63203397  0.21940117  0.81513778  1
  H+  H181  1  0.59773702  0.14920506  0.49075606  1
  H+  H182  1  0.46697027  0.85422004  0.66552095  1
  H+  H183  1  -0.02013079  0.86746651  0.18313082  1
  H+  H184  1  0.09559857  0.91707471  0.63640307  1
  H+  H185  1  0.23497409  0.12200176  0.00157184  1
  H+  H186  1  0.76855783  0.61880067  0.15364702  1
  H+  H187  1  0.88465825  0.53101396  0.32276042  1
  H+  H188  1  0.10675807  0.41744878  0.50123208  1
  H+  H189  1  0.36594251  0.23852459  0.82869312  1
  H+  H190  1  0.85535633  0.62677553  0.49252106  1
  H+  H191  1  0.46269807  0.35275147  0.57750012  1
  H+  H192  1  0.03197757  0.15117766  0.15176965  1
  H+  H193  1  0.48061684  0.59752064  0.82316248  1
  H+  H194  1  0.72185076  0.37026990  0.99405360  1
  H+  H195  1  0.62516224  0.26576932  0.16227533  1
  H+  H196  1  0.87915797  -0.10487657  0.98454096  1
  H+  H197  1  0.29212318  0.16550984  0.29413498  1
  H+  H198  1  0.12475547  0.23261127  0.15473355  1
  H+  H199  1  0.85680212  0.97130463  0.33871055  1
  H+  H200  1  0.84052715  0.38361404  0.49713957  1
  H+  H201  1  0.17520332  0.07292675  0.56145901  1
  H+  H202  1  0.48470788  0.12218814  -0.00452120  1
  H+  H203  1  0.07243742  0.66669088  0.38735427  1
  H+  H204  1  0.35123203  0.13912852  0.52904392  1
  H+  H205  1  0.75688184  0.39361260  0.48678371  1
  H+  H206  1  0.34999866  0.73121356  0.82599199  1
  H+  H207  1  0.64788365  0.11228356  0.83522310  1
  H+  H208  1  0.13077000  0.11251671  0.16338364  1
  H+  H209  1  0.63173482  0.77992268  0.65166245  1
  H+  H210  1  0.00598676  0.86652485  0.49913742  1
  H+  H211  1  0.73062748  0.62346852  0.31908169  1
  H+  H212  1  0.13162782  0.77147358  0.47462630  1
  H+  H213  1  0.61096638  0.14319483  0.34013901  1
  H+  H214  1  0.08447997  0.92267392  0.75722625  1
  H+  H215  1  0.03892161  0.82804098  0.39193839  1
  H+  H216  1  0.13754608  1.04281828  0.81885347  1
  H+  H217  1  0.52643445  0.38792194  0.21038552  1
  H+  H218  1  1.03230657  0.40049703  0.83408308  1
  H+  H219  1  0.37924411  0.79805231  0.20131711  1
  H+  H220  1  0.29432101  0.36927559  -0.03718603  1
  H+  H221  1  0.85696776  0.38553816  0.00777599  1
  H+  H222  1  0.11580745  0.13974392  0.34084247  1
  H+  H223  1  0.89246309  0.12457722  0.17544881  1
  H+  H224  1  0.14670160  0.81764821  0.75252230  1
  H+  H225  1  0.47922453  0.87365364  0.83475692  1
  H+  H226  1  0.37590950  0.26133760  0.66737320  1
  H+  H227  1  0.23188864  0.36011253  0.33653698  1
  H+  H228  1  0.19144187  0.94186022  0.45026194  1
  H+  H229  1  0.36337519  0.89037508  0.00232171  1
  H+  H230  1  0.43298976  0.11422074  0.67051339  1
  H+  H231  1  0.50355789  0.79730298  0.12643400  1
  H+  H232  1  0.51380753  0.61982188  0.52597657  1
  H+  H233  1  0.34239049  0.18055559  0.73534161  1
  H+  H234  1  0.86283168  0.21730175  0.34458460  1
  H+  H235  1  0.10709350  0.63940432  0.83562314  1
  H+  H236  1  0.48057490  0.86959284  0.35058610  1
  H+  H237  1  0.64314823  0.61201451  0.83357873  1
  H+  H238  1  0.78482464  0.38880929  0.82513425  1
  H+  H239  1  0.40269688  0.29627685  0.27217666  1
  H+  H240  1  0.16700986  0.32875994  0.59934455  1
  H+  H241  1  0.28302493  0.14286364  0.67593710  1
  H+  H242  1  0.25386691  0.42137213  0.03872349  1
  H+  H243  1  0.88686578  0.51706408  0.83646009  1
  H+  H244  1  0.62225212  1.01748747  0.17299781  1
  H+  H245  1  0.12839204  0.38909099  0.34611571  1
  H+  H246  1  0.87512948  0.56819088  0.67043141  1
  H+  H247  1  0.02046846  0.63887573  0.16125509  1
  H+  H248  1  0.97589663  0.34541297  0.65912471  1
  H+  H249  1  0.76891784  0.12784139  1.00324804  1
  H+  H250  1  0.39041901  0.77542379  0.98272096  1
  H+  H251  1  0.12971243  0.60669432  0.66321702  1
  H+  H252  1  0.09280517  0.41842178  0.73497982  1
  H+  H253  1  0.23340463  0.61861322  0.32731552  1
  H+  H254  1  0.60296034  0.46055121  0.68249637  1
  H+  H255  1  0.03296431  0.15748690  -0.01242791  1
  H+  H256  1  0.26476094  0.39719822  0.83512713  1
  H+  H257  1  0.16128269  0.58477903  0.60132539  1
  H+  H258  1  0.22891680  0.62415651  0.84070465  1
  H+  H259  1  0.64414422  0.53294118  0.31741569  1
  H+  H260  1  0.89413210  0.87324388  0.18274651  1
  H+  H261  1  0.61456821  0.97692787  0.82567945  1
  H+  H262  1  0.85531768  0.88376723  0.67492829  1
  H+  H263  1  0.16793370  0.84214026  0.90099999  1
  H+  H264  1  0.28083214  0.88698184  0.48206273  1
  H+  H265  1  0.39021404  0.03768975  0.32285079  1
  H+  H266  1  0.10112035  0.21652645  0.66110525  1
  H+  H267  1  0.63268362  0.48990621  0.51415233  1
  H+  H268  1  0.34899610  0.22001281  0.55395415  1
  H+  H269  1  0.61746304  0.35967286  0.17689624  1
  H+  H270  1  0.97316136  0.85813764  0.66554680  1
  H+  H271  1  0.36169117  0.48246689  0.49442748  1
  H+  H272  1  0.38655802  0.39162213  0.21123251  1
  H+  H273  1  0.51186182  0.62502656  0.66508211  1
  H+  H274  1  0.14622874  0.51701224  0.33215208  1
  H+  H275  1  0.13547517  0.77436883  0.84622343  1
  H+  H276  1  0.60818325  0.46747828  0.17862851  1
  H+  H277  1  0.06302629  0.38385993  0.13327404  1
  H+  H278  1  0.35356108  0.50311021  0.96454717  1
  H+  H279  1  0.12761317  0.29125351  0.95027621  1
  H+  H280  1  0.42973480  0.52792086  0.18668555  1
  H+  H281  1  0.37139663  0.88170037  0.83465663  1
  H+  H282  1  0.68366480  0.24720166  0.64934819  1
  H+  H283  1  0.63330602  0.37548730  0.99279954  1
  H+  H284  1  0.64987098  0.38379925  0.32826230  1
  H+  H285  1  0.87523555  0.26437434  0.99330576  1
  H+  H286  1  0.06650419  0.15734993  0.74298085  1
  H+  H287  1  0.74771663  0.87426182  0.48667409  1
  H+  H288  1  0.43337346  0.85435171  0.28618131  1
  H+  H289  1  0.42182094  0.07251870  0.57070150  1
  H+  H290  1  0.56544717  0.62304643  0.40185450  1
  H+  H291  1  0.89676125  0.82377064  0.61300963  1
  H+  H292  1  0.90475341  0.32712814  0.57161972  1
  H+  H293  1  0.75901257  0.33962319  0.66298773  1
  H+  H294  1  0.72117168  0.86724224  0.65410990  1
  H+  H295  1  0.92302774  0.09697239  0.92567582  1
  H+  H296  1  0.18708416  0.81639320  0.60062214  1
  H+  H297  1  0.59440771  0.61440086  0.42158183  1
  H+  H298  1  0.83720458  0.65826527  0.76044645  1
  H+  H299  1  0.91638741  0.33632809  0.89479064  1
  H+  H300  1  0.66551351  0.82808138  0.88960929  1
  H+  H301  1  0.82544607  0.41783800  0.09887004  1
  H+  H302  1  0.38311390  1.03238488  0.84415216  1
  H+  H303  1  0.92128781  0.31464170  0.26376222  1
  H+  H304  1  0.57934976  0.89667791  0.05940573  1
  H+  H305  1  0.08664180  0.67172750  0.06824692  1
  H+  H306  1  0.65836727  0.07084268  0.27455429  1
  H+  H307  1  0.67617650  0.57822340  0.93023708  1
  H+  H308  1  0.91427555  0.83509849  0.26837237  1
  H+  H309  1  0.81519141  0.90312266  0.43103645  1
  H+  H310  1  0.62220480  0.67643007  0.08932561  1
  H+  H311  1  0.30962675  0.40423078  0.76606772  1
  H+  H312  1  0.66739632  0.32514663  0.89488757  1
  H+  H313  1  0.51278066  0.37581611  0.68447868  1
  H+  H314  1  0.02425134  0.93209865  0.03428980  1
  H+  H315  1  0.83836484  0.83313605  0.52079553  1
  H+  H316  1  0.61964597  0.24972637  0.00654901  1
  H+  H317  1  0.38473804  0.57547234  0.27318462  1
  H+  H318  1  0.11269217  0.13710305  0.80584248  1
  H+  H319  1  0.06997104  0.64829627  0.73958654  1
  H+  H320  1  0.97628455  0.27149852  0.27826201  1
  H+  H321  1  0.65105123  0.84008033  0.55672120  1
  H+  H322  1  0.42517349  0.30051255  0.41665550  1
  H+  H323  1  0.32935752  0.66759104  0.44045145  1
  H+  H324  1  0.81980810  0.16524307  0.40623298  1
  H+  H325  1  0.91692695  0.82067290  0.91757863  1
  H+  H326  1  0.22548799  0.13513914  0.81949938  1
  H+  H327  1  0.33626171  0.91981033  0.06317153  1
  H+  H328  1  0.66524696  0.83343856  0.23063770  1
  H+  H329  1  0.36730848  0.97703942  0.49544378  1
  H+  H330  1  0.50104438  0.61200680  0.22535154  1
  H+  H331  1  0.13498084  0.95967186  0.40800909  1
  H+  H332  1  0.10893565  0.59650727  0.18377025  1
  H+  H333  1  0.82894041  0.16699754  0.76675629  1
  H+  H334  1  0.09025945  0.15986327  0.40597222  1
  H+  H335  1  0.58051390  0.40555368  0.77190063  1
  H+  H336  1  0.17377889  0.83566256  0.23110161  1
  H+  H337  1  0.57733635  0.17613053  0.39516012  1
  H+  H338  1  0.23249556  0.62833377  -0.01018759  1
  H+  H339  1  0.09847997  0.19947844  0.04153863  1
  H+  H340  1  0.97447620  0.11270228  0.33507526  1
  H+  H341  1  0.33859244  0.42362702  0.42431773  1
  H+  H342  1  0.91381361  0.57607189  0.56257818  1
  H+  H343  1  0.64521875  0.29415900  0.32495855  1
  H+  H344  1  0.84774470  0.41233190  0.76244561  1
  H+  H345  1  0.19348166  0.86134780  0.60046481  1
  H+  H346  1  0.26500782  0.62948767  0.67480567  1
  H+  H347  1  0.12040219  0.88823065  0.16429980  1
  H+  H348  1  0.34007094  0.93464979  0.39926328  1
  H+  H349  1  0.77107251  0.88908755  0.82287012  1
  H+  H350  1  0.57782681  0.35757123  0.44194980  1
  H+  H351  1  0.58580573  0.17198618  0.09781754  1
  H+  H352  1  0.40454294  0.57249274  0.87475828  1
  H+  H353  1  0.41184241  0.09385802  0.90079902  1
  H+  H354  1  0.36301926  0.66935659  0.04657570  1
  H+  H355  1  0.15405639  0.57349744  0.26726847  1
  H+  H356  1  0.89086165  0.12085410  0.83143389  1
  H+  H357  1  0.86549124  0.47876188  0.00754793  1
  H+  H358  1  0.57801762  0.91706409  0.76604543  1
  H+  H359  1  0.37176444  0.14509706  1.01210572  1
  H+  H360  1  0.66505952  0.07188012  0.92308784  1
  H+  H361  1  0.76224263  0.12450031  0.15720273  1
  H+  H362  1  0.17042501  0.59432555  0.91129388  1
  H+  H363  1  0.90996935  0.58619261  0.23292580  1
  H+  H364  1  0.39274063  0.56682341  0.57169476  1
  H+  H365  1  0.33286844  0.91329034  0.77032242  1
  H+  H366  1  0.73237905  0.61313257  0.83327758  1
  H+  H367  1  0.82452496  0.91978147  0.72920360  1
  H+  H368  1  0.92612285  0.09907837  0.23494343  1
  H+  H369  1  0.37263601  0.39967417  0.14082560  1
  H+  H370  1  0.08205894  0.42668583  0.43337559  1
  H+  H371  1  0.31655541  0.66579176  0.76890866  1
  H+  H372  1  0.82272468  0.65956997  0.39807640  1
  H+  H373  1  0.58553255  0.66491766  0.75715831  1
  H+  H374  1  0.40719022  0.82449114  0.56873837  1
  H+  H375  1  0.34165212  0.17360713  0.07181096  1
  H+  H376  1  0.82535864  0.16297507  0.09971233  1
  H+  H377  1  0.37641237  0.38476915  -0.00230925  1
  H+  H378  1  0.40553403  0.27227058  0.44409191  1
  H+  H379  1  0.90670232  0.07026310  0.58852123  1
  H+  H380  1  0.91295537  0.57716852  0.89737403  1
  H+  H381  1  0.17613840  0.42693415  0.07425055  1
  H+  H382  1  0.85744079  0.73185024  0.67279262  1
  H+  H383  1  0.09044402  0.91988328  0.10580594  1
  O2-  O384  1  0.09066850  0.17691554  0.13359252  1
  O2-  O385  1  0.10216459  0.15607120  0.48578174  1
  O2-  O386  1  0.07163975  0.16220873  0.79009449  1
  O2-  O387  1  0.12391233  0.42329770  0.14062761  1
  O2-  O388  1  0.07276097  0.43404940  0.47798277  1
  O2-  O389  1  0.09516404  0.43579355  0.82284830  1
  O2-  O390  1  0.08127823  0.66391808  0.14753590  1
  O2-  O391  1  0.07433537  0.66675508  0.46833263  1
  O2-  O392  1  0.07855613  0.67044318  0.81989310  1
  O2-  O393  1  0.08999535  0.91944211  0.15092847  1
  O2-  O394  1  0.18589241  0.99011687  0.43446997  1
  O2-  O395  1  0.08358394  0.92764225  0.80237761  1
  O2-  O396  1  0.32528981  0.15587776  0.15179730  1
  O2-  O397  1  0.31657622  0.16759304  0.52972559  1
  O2-  O398  1  0.33110356  0.17956686  0.80839163  1
  O2-  O399  1  0.36259376  0.41687687  0.18071759  1
  O2-  O400  1  0.33910156  0.42278401  0.47413556  1
  O2-  O401  1  0.31864514  0.41528390  0.81199161  1
  O2-  O402  1  0.41441055  0.68892931  0.12269024  1
  O2-  O403  1  0.32885897  0.66329739  0.48543083  1
  O2-  O404  1  0.31170330  0.67064612  0.81416008  1
  O2-  O405  1  0.33549984  0.92220605  0.14117494  1
  O2-  O406  1  0.34371334  0.91983252  0.47436607  1
  O2-  O407  1  0.33325181  0.91059510  0.81930137  1
  O2-  O408  1  0.58401906  0.16889241  0.14368742  1
  O2-  O409  1  0.56573851  0.17546099  0.47231513  1
  O2-  O410  1  0.60947549  0.15896976  0.80206858  1
  O2-  O411  1  0.56989668  0.40369204  0.17764052  1
  O2-  O412  1  0.60066988  0.38309484  0.48189936  1
  O2-  O413  1  0.58633295  0.40751537  0.81791102  1
  O2-  O414  1  0.62050674  0.67575571  0.13510756  1
  O2-  O415  1  0.57657487  0.64829191  0.53431154  1
  O2-  O416  1  0.58432331  0.66166424  0.80214541  1
  O2-  O417  1  0.54685842  0.85809307  0.13588157  1
  O2-  O418  1  0.60289372  0.93469029  0.43997926  1
  O2-  O419  1  0.57744489  0.91572618  0.81169052  1
  O2-  O420  1  0.82307202  0.16387179  0.14519878  1
  O2-  O421  1  0.80739349  0.16668816  0.48235396  1
  O2-  O422  1  0.83745400  0.16794642  0.81357698  1
  O2-  O423  1  0.81677384  0.41694115  0.14456503  1
  O2-  O424  1  0.82060628  0.42060303  0.47810535  1
  O2-  O425  1  0.84599638  0.42247792  0.81239617  1
  O2-  O426  1  0.83077740  0.65006110  0.13642309  1
  O2-  O427  1  0.81947671  0.65133434  0.47724760  1
  O2-  O428  1  0.83891670  0.66465784  0.80482741  1
  O2-  O429  1  0.84696367  0.92629719  0.15716771  1
  O2-  O430  1  0.81050550  0.90491422  0.47634405  1
  O2-  O431  1  0.83193360  0.92259166  0.80853898  1
  O2-  O432  1  0.15929625  0.08349831  0.18371877  1
  O2-  O433  1  0.13372340  0.04752329  0.52779299  1
  O2-  O434  1  0.16164051  0.10473709  0.82749265  1
  O2-  O435  1  0.18484422  0.33615441  0.19757202  1
  O2-  O436  1  0.18397983  0.31520653  0.51697989  1
  O2-  O437  1  0.19247518  0.39750985  0.89240413  1
  O2-  O438  1  0.11810940  0.55458317  0.20807834  1
  O2-  O439  1  0.16435984  0.59936183  0.52224135  1
  O2-  O440  1  0.16639873  0.58922986  0.86119594  1
  O2-  O441  1  0.16925973  0.83148678  0.18541275  1
  O2-  O442  1  0.16792978  0.83564271  0.48195065  1
  O2-  O443  1  0.17157934  0.83741680  0.85573231  1
  O2-  O444  1  0.42114620  0.08383204  0.18114025  1
  O2-  O445  1  0.41088444  0.07573427  0.52697485  1
  O2-  O446  1  0.40247577  0.09148157  0.85629513  1
  O2-  O447  1  0.43319915  0.35901409  0.25823740  1
  O2-  O448  1  0.40233274  0.33215472  0.58768669  1
  O2-  O449  1  0.42182982  0.32952930  0.86027952  1
  O2-  O450  1  0.46180881  0.59208414  0.18904157  1
  O2-  O451  1  0.39824525  0.56949137  0.52599199  1
  O2-  O452  1  0.41706050  0.56606255  0.83155612  1
  O2-  O453  1  0.42450369  0.85801293  0.20634414  1
  O2-  O454  1  0.40889726  0.82078870  0.52388419  1
  O2-  O455  1  0.41764317  0.84405353  0.85120397  1
  O2-  O456  1  0.65627548  0.07633621  0.18787544  1
  O2-  O457  1  0.64198391  0.08849609  0.52240695  1
  O2-  O458  1  0.67415450  0.07765734  0.85454316  1
  O2-  O459  1  0.65509199  0.32900604  0.17542904  1
  O2-  O460  1  0.65029113  0.34115212  0.49882555  1
  O2-  O461  1  0.67211001  0.32543858  0.85007324  1
  O2-  O462  1  0.67955981  0.57661938  0.18051292  1
  O2-  O463  1  0.65938178  0.54949049  0.52988370  1
  O2-  O464  1  0.67339506  0.58337566  0.85085310  1
  O2-  O465  1  0.66745119  0.83550216  0.18521055  1
  O2-  O466  1  0.64521693  0.82777500  0.51211985  1
  O2-  O467  1  0.66248884  0.82748607  0.84397404  1
  O2-  O468  1  0.93118656  0.10388661  0.18985445  1
  O2-  O469  1  0.87900971  0.06588929  0.50710539  1
  O2-  O470  1  0.92361179  0.09103216  0.84494974  1
  O2-  O471  1  0.84862077  0.30339328  0.20652097  1
  O2-  O472  1  0.89778098  0.32840283  0.52569056  1
  O2-  O473  1  0.92583877  0.34182794  0.85040192  1
  O2-  O474  1  0.91208309  0.58455417  0.18594717  1
  O2-  O475  1  0.91301758  0.58038728  0.51756831  1
  O2-  O476  1  0.91534271  0.57964216  0.85217257  1
  O2-  O477  1  0.92079117  0.83980114  0.19929594  1
  O2-  O478  1  0.84333434  0.79155495  0.54723731  1
  O2-  O479  1  0.91478797  0.83248433  0.84215687  1
  O2-  O480  1  0.17635207  0.10260803  0.30370037  1
  O2-  O481  1  0.17645045  0.08606787  0.65652746  1
  O2-  O482  1  0.17406014  0.08806365  0.98785111  1
  O2-  O483  1  0.17100730  0.33107398  0.32138346  1
  O2-  O484  1  0.16146694  0.32514981  0.64401967  1
  O2-  O485  1  0.13008944  0.34831715  0.94307951  1
  O2-  O486  1  0.17130903  0.57726844  0.31421018  1
  O2-  O487  1  0.16141855  0.57873614  0.64653407  1
  O2-  O488  1  0.17300527  0.60038973  0.97306082  1
  O2-  O489  1  0.17495069  0.83984177  0.30691371  1
  O2-  O490  1  0.15619257  0.82725986  0.70913565  1
  O2-  O491  1  0.16542116  0.84383111  0.98020166  1
  O2-  O492  1  0.42244721  0.09471143  0.30197379  1
  O2-  O493  1  0.43437819  0.06445505  0.65390571  1
  O2-  O494  1  0.42371457  0.09290943  0.98264572  1
  O2-  O495  1  0.45166057  0.40834572  0.31528765  1
  O2-  O496  1  0.40379630  0.32959366  0.65482884  1
  O2-  O497  1  0.43275022  0.34446984  0.98728294  1
  O2-  O498  1  0.39916173  0.58387381  0.31654405  1
  O2-  O499  1  0.40175527  0.57071496  0.64876468  1
  O2-  O500  1  0.34179001  0.54284070  0.93990365  1
  O2-  O501  1  0.42311471  0.84405529  0.33059375  1
  O2-  O502  1  0.40544064  0.82142529  0.65189620  1
  O2-  O503  1  0.42014599  0.83767486  0.97118903  1
  O2-  O504  1  0.65908048  0.07268963  0.31948680  1
  O2-  O505  1  0.59098108  0.06800437  0.64686082  1
  O2-  O506  1  0.65559167  0.06688589  0.97021771  1
  O2-  O507  1  0.67888589  0.35444055  0.31106274  1
  O2-  O508  1  0.70748878  0.30736769  0.63633164  1
  O2-  O509  1  0.66138396  0.33844391  0.97996201  1
  O2-  O510  1  0.67321324  0.59144597  0.29775949  1
  O2-  O511  1  0.65332524  0.56840599  0.65253881  1
  O2-  O512  1  0.67709303  0.57833593  0.97567100  1
  O2-  O513  1  0.66193768  0.82835974  0.30962438  1
  O2-  O514  1  0.66059265  0.84055039  0.63831772  1
  O2-  O515  1  0.67884833  0.83167294  0.96630365  1
  O2-  O516  1  0.91581993  0.08386441  0.31705943  1
  O2-  O517  1  0.92128018  0.07319558  0.63180354  1
  O2-  O518  1  0.92465474  0.09756396  0.97112461  1
  O2-  O519  1  0.95332621  0.30493442  0.29713521  1
  O2-  O520  1  0.91573557  0.31912035  0.64521600  1
  O2-  O521  1  0.90376506  0.32595167  0.97935315  1
  O2-  O522  1  0.90955341  0.59110722  0.30404311  1
  O2-  O523  1  0.91665416  0.56595374  0.64243983  1
  O2-  O524  1  0.91998605  0.58112005  0.97941712  1
  O2-  O525  1  0.91006039  0.83326784  0.31550830  1
  O2-  O526  1  0.90870956  0.82995133  0.65803583  1
  O2-  O527  1  0.91936616  0.81767108  0.96337654  1
  O2-  O528  1  0.09567187  0.19728236  -0.00342728  1
  O2-  O529  1  0.08509952  0.16638683  0.36128315  1
  O2-  O530  1  0.07295731  0.15565346  0.67493051  1
  O2-  O531  1  0.20567373  0.43285115  0.03456373  1
  O2-  O532  1  0.09729900  0.42112902  0.35723098  1
  O2-  O533  1  0.09121017  0.41381655  0.69017272  1
  O2-  O534  1  0.08683832  0.67361165  0.02263135  1
  O2-  O535  1  0.07007050  0.66919358  0.34241206  1
  O2-  O536  1  0.07361225  0.65356894  0.69440302  1
  O2-  O537  1  0.07875293  0.93457918  0.02574549  1
  O2-  O538  1  0.05803840  0.87354702  0.36160424  1
  O2-  O539  1  0.07760375  0.90282806  0.67892745  1
  O2-  O540  1  0.34278641  0.17678897  0.02681211  1
  O2-  O541  1  0.35230686  0.19493230  0.27933405  1
  O2-  O542  1  0.34454642  0.17836366  0.68912875  1
  O2-  O543  1  0.33081719  0.40395599  -0.00363787  1
  O2-  O544  1  0.33396839  0.42166252  0.36189413  1
  O2-  O545  1  0.31774230  0.40584455  0.69489719  1
  O2-  O546  1  0.34120743  0.66962400  0.00534442  1
  O2-  O547  1  0.32550173  0.67401390  0.35720405  1
  O2-  O548  1  0.32420616  0.65720608  0.69265686  1
  O2-  O549  1  0.33431101  0.92136432  0.01761127  1
  O2-  O550  1  0.33766217  0.93422353  0.35338854  1
  O2-  O551  1  0.32672971  0.91104754  0.70618625  1
  O2-  O552  1  0.59551425  0.18678755  0.02257632  1
  O2-  O553  1  0.58227771  0.17649749  0.34951652  1
  O2-  O554  1  0.65407507  0.14156291  0.68385197  1
  O2-  O555  1  0.59424266  0.42760161  0.01248505  1
  O2-  O556  1  0.59484844  0.44122982  0.35599000  1
  O2-  O557  1  0.57234777  0.40178395  0.69941015  1
  O2-  O558  1  0.61414889  0.66915787  0.01304068  1
  O2-  O559  1  0.56482183  0.65459759  0.28836586  1
  O2-  O560  1  0.57564421  0.66073475  0.67005349  1
  O2-  O561  1  0.58425571  0.90109847  0.01429224  1
  O2-  O562  1  0.58874741  0.91473726  0.37424012  1
  O2-  O563  1  0.57159458  0.91312956  0.68852714  1
  O2-  O564  1  0.82798327  0.16102458  0.01931598  1
  O2-  O565  1  0.82475308  0.15917033  0.36096280  1
  O2-  O566  1  0.81288677  0.16069495  0.69848234  1
  O2-  O567  1  0.83108392  0.41895492  0.02436615  1
  O2-  O568  1  0.84421358  0.43587245  0.34953689  1
  O2-  O569  1  0.85276152  0.39688538  0.70225216  1
  O2-  O570  1  0.83286746  0.65992233  0.01960196  1
  O2-  O571  1  0.82553269  0.66611699  0.35272748  1
  O2-  O572  1  0.82606117  0.66633790  0.67733965  1
  O2-  O573  1  0.85485186  0.93122427  -0.00325313  1
  O2-  O574  1  0.82428948  0.91043748  0.35243746  1
  O2-  O575  1  0.82272225  0.91421883  0.68391718  1
