# generated using pymatgen
data_H2O
_symmetry_space_group_name_H-M   'P 1'
_cell_length_a   17.97873789
_cell_length_b   17.96687598
_cell_length_c   21.98268687
_cell_angle_alpha   89.95419983
_cell_angle_beta   90.03374390
_cell_angle_gamma   120.04474845
_symmetry_Int_Tables_number   1
_chemical_formula_structural   H2O
_chemical_formula_sum   'H384 O192'
_cell_volume   6146.77081735
_cell_formula_units_Z   192
loop_
 _symmetry_equiv_pos_site_id
 _symmetry_equiv_pos_as_xyz
  1  'x, y, z'
loop_
 _atom_type_symbol
 _atom_type_oxidation_number
  H+  1.0
  O2-  -2.0
loop_
 _atom_site_type_symbol
 _atom_site_label
 _atom_site_symmetry_multiplicity
 _atom_site_fract_x
 _atom_site_fract_y
 _atom_site_fract_z
 _atom_site_occupancy
  H+  H0  1  0.11131185  0.63193139  0.83189113  1
  H+  H1  1  0.13132095  0.00658736  0.00170946  1
  H+  H2  1  0.62651204  0.34317718  0.15894799  1
  H+  H3  1  0.94301501  0.10144847  0.89745632  1
  H+  H4  1  0.60310600  0.37141461  0.00114868  1
  H+  H5  1  0.47916027  0.62899324  0.83811331  1
  H+  H6  1  0.17158483  0.64886423  0.13662845  1
  H+  H7  1  0.50651272  0.36368935  0.34412350  1
  H+  H8  1  0.47018780  0.84118483  0.66473580  1
  H+  H9  1  0.13834584  0.37141641  0.84505549  1
  H+  H10  1  0.66609569  0.85272227  0.09595634  1
  H+  H11  1  1.03353483  0.64605317  0.67610002  1
  H+  H12  1  0.87840713  0.47214015  0.83295391  1
  H+  H13  1  0.89514880  0.12975695  0.32329394  1
  H+  H14  1  0.12116657  0.35222163  0.17242434  1
  H+  H15  1  0.51893441  0.88326007  -0.02872464  1
  H+  H16  1  0.02617647  0.12726397  0.67089744  1
  H+  H17  1  0.62690080  0.89969231  0.33997082  1
  H+  H18  1  0.57634787  0.15917877  0.77807178  1
  H+  H19  1  0.75593218  0.11963393  0.49116499  1
  H+  H20  1  0.59500339  0.62694223  0.67743363  1
  H+  H21  1  0.90016140  0.40447638  0.30898003  1
  H+  H22  1  0.30044051  0.13915072  0.05693413  1
  H+  H23  1  0.22315985  0.36002653  0.32509540  1
  H+  H24  1  0.64637928  0.67109241  0.15638023  1
  H+  H25  1  0.73262893  0.64579540  0.69380470  1
  H+  H26  1  0.64605985  0.10875517  -0.02109830  1
  H+  H27  1  0.11142747  0.22429938  0.34560387  1
  H+  H28  1  0.62751654  0.74810794  0.14698935  1
  H+  H29  1  0.12156846  0.91291008  0.15935830  1
  H+  H30  1  0.88143348  0.51115354  0.98472059  1
  H+  H31  1  0.61333257  0.34997863  0.83885834  1
  H+  H32  1  0.60237999  0.37531301  0.68283445  1
  H+  H33  1  0.58230343  0.15972390  0.43702319  1
  H+  H34  1  0.09980978  0.63995043  0.33451082  1
  H+  H35  1  0.26006677  -0.08799806  0.98909248  1
  H+  H36  1  0.14239675  0.27098661  0.51028643  1
  H+  H37  1  0.63204856  0.35464771  0.31530588  1
  H+  H38  1  0.37018911  0.75806462  0.15629836  1
  H+  H39  1  0.73519877  0.61785779  0.33246130  1
  H+  H40  1  0.03375562  0.14400593  0.15957016  1
  H+  H41  1  0.72254809  0.11168490  0.66345010  1
  H+  H42  1  0.31154678  0.20602093  0.67634936  1
  H+  H43  1  0.88910391  0.61259978  0.50774267  1
  H+  H44  1  0.58471333  0.66493824  0.06045787  1
  H+  H45  1  0.26055631  0.88018382  0.15006140  1
  H+  H46  1  0.41222158  0.81891926  0.60583776  1
  H+  H47  1  0.06555332  0.90820516  0.59156883  1
  H+  H48  1  0.95656979  0.72093779  0.73304592  1
  H+  H49  1  0.38747117  1.02357189  0.34498178  1
  H+  H50  1  0.02885867  0.39290215  0.34927750  1
  H+  H51  1  0.35835072  0.87056232  0.83185217  1
  H+  H52  1  0.27057750  0.87177571  0.82778142  1
  H+  H53  1  0.39003488  0.11698802  0.51056889  1
  H+  H54  1  0.71783562  0.85901680  0.84346631  1
  H+  H55  1  0.97976776  0.35313637  0.67048491  1
  H+  H56  1  0.07833458  0.40235025  0.09733075  1
  H+  H57  1  0.10525150  0.87316360  0.50485881  1
  H+  H58  1  0.86708686  0.59250393  0.98495946  1
  H+  H59  1  0.97335396  0.59560291  0.83640109  1
  H+  H60  1  0.87091845  0.47980222  0.50749216  1
  H+  H61  1  0.90547387  0.18657971  -0.01074397  1
  H+  H62  1  0.83226557  0.60599900  0.14857334  1
  H+  H63  1  0.11433339  0.38697183  1.00850772  1
  H+  H64  1  0.37787431  0.26772193  0.33038492  1
  H+  H65  1  -0.01645851  0.84442747  0.85893693  1
  H+  H66  1  0.55167236  0.90900385  0.23288707  1
  H+  H67  1  0.73936076  0.13193582  0.31817518  1
  H+  H68  1  0.86570711  0.97825000  0.49928883  1
  H+  H69  1  0.63542000  0.37533101  0.52495842  1
  H+  H70  1  0.48197514  0.61084007  0.51521991  1
  H+  H71  1  0.11030845  0.13603290  0.36195821  1
  H+  H72  1  0.11923203  0.79512050  0.16372093  1
  H+  H73  1  0.89743752  0.12736169  0.16562525  1
  H+  H74  1  0.69958984  0.58562035  0.98973588  1
  H+  H75  1  0.58291230  0.54994570  0.19241764  1
  H+  H76  1  0.54668424  0.32347888  0.38686265  1
  H+  H77  1  0.37455422  0.40695741  0.16113819  1
  H+  H78  1  0.47701849  0.51854705  0.28415236  1
  H+  H79  1  0.45070177  0.31586602  0.99079035  1
  H+  H80  1  0.14077124  0.77192732  0.51131438  1
  H+  H81  1  0.35401449  0.98384740  0.68494386  1
  H+  H82  1  0.36249700  0.13813978  0.35180287  1
  H+  H83  1  0.11506904  0.63685989  0.48936015  1
  H+  H84  1  0.86731892  0.46700124  0.68387887  1
  H+  H85  1  0.50825095  0.62996669  0.68049783  1
  H+  H86  1  -0.01259250  0.88914881  0.18159412  1
  H+  H87  1  0.02215497  0.88758044  0.34747525  1
  H+  H88  1  0.13952994  0.26481872  0.65980771  1
  H+  H89  1  0.86903601  0.89768159  0.00646115  1
  H+  H90  1  0.98137041  0.11519845  0.51463891  1
  H+  H91  1  0.13171636  0.27985573  0.84910269  1
  H+  H92  1  1.00022801  0.13223601  0.99148516  1
  H+  H93  1  0.14803662  0.03207616  0.50398389  1
  H+  H94  1  0.15446627  0.67827694  0.12884933  1
  H+  H95  1  0.89172675  0.87605530  0.33229887  1
  H+  H96  1  0.33748573  0.67961245  0.33951413  1
  H+  H97  1  0.39008332  0.24360177  0.84168551  1
  H+  H98  1  0.22789883  0.86975705  0.32888159  1
  H+  H99  1  0.83878468  0.17416191  0.08536227  1
  H+  H100  1  0.52957109  0.13853014  0.34831645  1
  H+  H101  1  0.39181643  0.62797217  0.37282902  1
  H+  H102  1  0.20150673  0.62048906  0.31221426  1
  H+  H103  1  0.86083907  0.74180418  0.34428900  1
  H+  H104  1  0.87181665  0.13629700  0.82696676  1
  H+  H105  1  0.83239561  0.69538751  0.00353740  1
  H+  H106  1  0.52128491  0.13399195  0.68284621  1
  H+  H107  1  0.63463340  -0.00682981  0.33803161  1
  H+  H108  1  0.94407848  0.81218534  1.02486707  1
  H+  H109  1  0.64090826  0.61891177  0.51501174  1
  H+  H110  1  0.48764464  0.10594377  0.86772310  1
  H+  H111  1  0.87579216  0.25943910  0.15946767  1
  H+  H112  1  0.97834619  0.11999407  0.32811520  1
  H+  H113  1  0.35253612  0.62334882  0.69396708  1
  H+  H114  1  0.01689784  0.64082448  -0.00694087  1
  H+  H115  1  0.63476584  0.10869963  0.15983992  1
  H+  H116  1  0.23848308  0.13661268  0.14552431  1
  H+  H117  1  0.13152712  0.85794140  0.83191158  1
  H+  H118  1  0.66123910  0.08579615  0.57340390  1
  H+  H119  1  0.84754270  0.61482901  0.82787655  1
  H+  H120  1  0.85750097  0.36378718  -0.00431890  1
  H+  H121  1  0.63425880  0.11414030  0.66666774  1
  H+  H122  1  0.62133903  0.77064461  0.66153073  1
  H+  H123  1  0.87825881  0.37346829  0.83455088  1
  H+  H124  1  0.46973110  0.33852178  0.66437712  1
  H+  H125  1  0.28233560  0.40449902  1.01478192  1
  H+  H126  1  0.85897680  0.72218428  0.49910317  1
  H+  H127  1  0.37264796  0.11664033  0.84867641  1
  H+  H128  1  0.84363570  0.89212056  0.67324322  1
  H+  H129  1  0.94621519  0.67357638  0.26327657  1
  H+  H130  1  0.85308540  0.37115784  0.14488771  1
  H+  H131  1  0.61547703  0.89256373  0.49669909  1
  H+  H132  1  -0.00347166  0.11996981  0.83629876  1
  H+  H133  1  0.02797018  0.38537906  0.82971433  1
  H+  H134  1  0.12690307  0.52509950  0.32905705  1
  H+  H135  1  0.71997145  0.35723029  0.67536886  1
  H+  H136  1  0.27482705  0.37106748  0.67246884  1
  H+  H137  1  0.14532260  0.36195421  0.50903387  1
  H+  H138  1  0.22921608  0.61266642  0.51330128  1
  H+  H139  1  0.75490348  0.89190289  0.67422552  1
  H+  H140  1  0.35420945  0.37709709  0.33941515  1
  H+  H141  1  0.13811442  0.86336701  0.65695033  1
  H+  H142  1  0.89706431  0.88324365  0.18081165  1
  H+  H143  1  0.15711713  0.57905570  0.93980270  1
  H+  H144  1  0.72577475  0.61058869  0.51474452  1
  H+  H145  1  0.17310452  0.07844279  0.90087502  1
  H+  H146  1  0.83416589  0.92449190  0.43750267  1
  H+  H147  1  0.10153651  0.98009099  0.63946499  1
  H+  H148  1  0.11794181  0.37716087  0.67569172  1
  H+  H149  1  0.61853028  0.13524199  0.83412877  1
  H+  H150  1  0.36281935  0.36878299  0.67090776  1
  H+  H151  1  0.64210742  0.77576987  0.32864579  1
  H+  H152  1  0.59009033  0.67236065  0.44154733  1
  H+  H153  1  0.36221588  0.85549151  0.15225127  1
  H+  H154  1  0.76341000  0.37038578  0.14380253  1
  H+  H155  1  0.38081255  0.65016444  0.15483109  1
  H+  H156  1  0.27284325  0.13939244  0.49923783  1
  H+  H157  1  0.51015964  0.12458318  0.49759799  1
  H+  H158  1  0.40361700  0.14122131  0.66014630  1
  H+  H159  1  0.59273342  0.92782029  0.43632111  1
  H+  H160  1  0.66098020  0.83751478  0.56934425  1
  H+  H161  1  0.38123238  0.10983728  0.11885439  1
  H+  H162  1  0.34662891  0.58965957  0.37612967  1
  H+  H163  1  0.77810699  0.89805922  0.34092119  1
  H+  H164  1  0.25846914  0.35019600  0.82596955  1
  H+  H165  1  0.89416160  0.60512379  0.66109284  1
  H+  H166  1  0.11726675  0.13019336  0.66151519  1
  H+  H167  1  0.61927700  0.22719673  0.34413289  1
  H+  H168  1  0.60763092  0.12344968  0.50173952  1
  H+  H169  1  0.60545130  0.48442085  0.50544255  1
  H+  H170  1  0.60476560  0.62853461  1.00060748  1
  H+  H171  1  0.70858502  0.59689022  0.84526053  1
  H+  H172  1  0.72614755  0.35570184  0.98129787  1
  H+  H173  1  0.47944384  0.62712044  0.98830139  1
  H+  H174  1  0.12470812  0.73317871  0.67636985  1
  H+  H175  1  0.12200087  0.47810398  0.49607938  1
  H+  H176  1  0.98030491  0.61476302  0.50500307  1
  H+  H177  1  0.08304642  0.67112394  0.43281326  1
  H+  H178  1  0.77062489  0.13049407  0.14080693  1
  H+  H179  1  0.12819271  0.25863673  0.17256965  1
  H+  H180  1  0.11616832  0.73767360  0.33833529  1
  H+  H181  1  0.41077726  0.82157172  0.29910951  1
  H+  H182  1  0.36982972  0.63217828  0.51337936  1
  H+  H183  1  0.92241823  0.84802940  0.27202973  1
  H+  H184  1  0.63614996  0.26609856  0.98317080  1
  H+  H185  1  0.59774066  -0.02342634  0.18032474  1
  H+  H186  1  0.73347215  0.87516530  0.01288400  1
  H+  H187  1  0.62753150  0.85506453  0.84242612  1
  H+  H188  1  0.47324424  0.36748816  0.50842872  1
  H+  H189  1  0.27425235  0.38333276  0.49356571  1
  H+  H190  1  0.59982699  0.44825058  0.15532408  1
  H+  H191  1  0.13514700  0.36124561  0.32869615  1
  H+  H192  1  0.45783151  0.86002191  0.17070492  1
  H+  H193  1  0.47778654  0.86845892  0.50547787  1
  H+  H194  1  0.49782432  0.89612431  0.32781106  1
  H+  H195  1  0.98216744  0.41771223  0.27486021  1
  H+  H196  1  0.95691049  0.73391273  0.70052631  1
  H+  H197  1  0.89484504  0.27659982  0.51298803  1
  H+  H198  1  0.62963049  1.02235565  0.51384879  1
  H+  H199  1  0.39352485  0.52095246  0.51025137  1
  H+  H200  1  0.10538626  0.46020168  0.67190086  1
  H+  H201  1  0.61907681  0.25453555  0.84009345  1
  H+  H202  1  0.38005338  0.26650478  0.50709547  1
  H+  H203  1  0.59610534  0.45888563  0.83138649  1
  H+  H204  1  0.38902755  0.03527629  -0.03284596  1
  H+  H205  1  0.28410799  0.62784165  0.15812538  1
  H+  H206  1  0.86864633  0.51709065  0.30285877  1
  H+  H207  1  0.36420129  0.89045995  0.49760826  1
  H+  H208  1  0.74179641  0.60095177  0.15264050  1
  H+  H209  1  0.28516296  0.11620046  0.83651656  1
  H+  H210  1  0.62204802  0.60249766  0.83977634  1
  H+  H211  1  0.60360614  0.97352830  0.67951889  1
  H+  H212  1  0.39096474  0.77777952  0.50959107  1
  H+  H213  1  0.12764626  0.61281747  0.99635329  1
  H+  H214  1  0.11690028  0.13696983  0.49770979  1
  H+  H215  1  0.23282428  0.87250225  0.66805996  1
  H+  H216  1  0.86019411  0.78108911  0.67081079  1
  H+  H217  1  0.51480597  0.88009093  0.83621415  1
  H+  H218  1  0.62031293  0.85961356  0.66410347  1
  H+  H219  1  0.65022861  0.52633283  0.34078617  1
  H+  H220  1  0.38855967  0.62618659  -0.01360377  1
  H+  H221  1  0.53264112  0.13549780  -0.01698595  1
  H+  H222  1  0.62845468  0.64516095  0.34694556  1
  H+  H223  1  0.14839573  0.28475146  0.99999004  1
  H+  H224  1  0.35121628  0.70888037  0.68686141  1
  H+  H225  1  0.12755463  0.87290991  -0.01592603  1
  H+  H226  1  0.37124956  0.27143483  0.17317359  1
  H+  H227  1  0.87665993  0.25226333  0.33809130  1
  H+  H228  1  0.15249745  0.10829754  0.83659126  1
  H+  H229  1  0.86130262  0.97670543  0.83132353  1
  H+  H230  1  0.11045361  0.59797494  0.65661177  1
  H+  H231  1  0.90605612  0.04971129  0.99019567  1
  H+  H232  1  0.35111901  -0.03471776  0.13708286  1
  H+  H233  1  0.36730852  0.73347182  0.84290877  1
  H+  H234  1  0.37648702  0.36276118  0.49924487  1
  H+  H235  1  0.63789328  0.55962558  -0.06802094  1
  H+  H236  1  0.89093521  0.11297418  0.51194463  1
  H+  H237  1  0.37515518  0.90588346  0.34290229  1
  H+  H238  1  0.38612249  0.02441689  0.50966650  1
  H+  H239  1  0.15548344  0.49908575  0.17188936  1
  H+  H240  1  0.89527322  0.75335687  0.86270280  1
  H+  H241  1  0.60356742  0.97138142  0.83025375  1
  H+  H242  1  0.27271627  0.13665541  0.36555989  1
  H+  H243  1  0.85175839  0.93989816  0.06350090  1
  H+  H244  1  0.36270696  0.46816859  0.33552271  1
  H+  H245  1  0.13859104  0.15236192  0.00487244  1
  H+  H246  1  0.87787234  0.85878438  0.50585820  1
  H+  H247  1  0.86673349  0.37765500  0.68166719  1
  H+  H248  1  0.37973936  0.76672647  -0.05327671  1
  H+  H249  1  0.37754118  0.22454467  0.07809731  1
  H+  H250  1  0.60990579  0.22212739  0.68570058  1
  H+  H251  1  -0.00433678  0.66710850  0.13732501  1
  H+  H252  1  0.72325871  0.37422515  0.52790553  1
  H+  H253  1  0.61684498  0.73246521  0.50041265  1
  H+  H254  1  0.88067089  0.02499803  0.66720572  1
  H+  H255  1  0.10182689  0.47041262  1.00974103  1
  H+  H256  1  0.37870599  0.50948469  0.67017985  1
  H+  H257  1  0.72400612  0.10841145  0.83441180  1
  H+  H258  1  0.22794687  0.61575854  0.84930141  1
  H+  H259  1  0.99148107  0.64909371  0.31648272  1
  H+  H260  1  0.72522646  0.86873216  0.51100210  1
  H+  H261  1  0.03496568  0.92941139  0.00392207  1
  H+  H262  1  0.33177557  0.66723283  0.77891779  1
  H+  H263  1  0.72663355  0.37158916  0.30770587  1
  H+  H264  1  0.37865646  0.63515372  0.83997400  1
  H+  H265  1  0.50693741  0.36495064  0.83133776  1
  H+  H266  1  0.11253242  0.97477669  0.83169552  1
  H+  H267  1  0.12764851  0.76655803  0.83833314  1
  H+  H268  1  0.01281710  0.87139204  0.50213288  1
  H+  H269  1  0.40325699  0.53869301  0.16756549  1
  H+  H270  1  0.26584807  0.63710304  0.00134796  1
  H+  H271  1  0.87581963  0.50459918  0.15071392  1
  H+  H272  1  0.85955484  0.22136232  0.67766472  1
  H+  H273  1  0.46824995  0.34734837  0.17047854  1
  H+  H274  1  0.13989172  0.52597472  0.84398474  1
  H+  H275  1  0.36901128  0.49304438  1.00904657  1
  H+  H276  1  0.89113504  0.26213377  0.83943713  1
  H+  H277  1  0.66115218  0.33312357  0.61559735  1
  H+  H278  1  0.78271380  0.91002619  0.14949977  1
  H+  H279  1  0.86868532  0.65808059  0.34065946  1
  H+  H280  1  0.60808425  0.21293907  0.14318507  1
  H+  H281  1  0.51815392  0.12541338  0.13542257  1
  H+  H282  1  0.30773617  0.18150923  -0.02409990  1
  H+  H283  1  0.95392125  0.86274844  0.65324808  1
  H+  H284  1  0.86098426  0.13313122  0.67567405  1
  H+  H285  1  0.15410003  0.83794890  0.92443035  1
  H+  H286  1  0.53911835  0.63796514  0.33892855  1
  H+  H287  1  0.63193298  0.01427309  0.97723258  1
  H+  H288  1  0.17282976  0.34527195  0.94185599  1
  H+  H289  1  0.09222208  0.42021372  0.40618872  1
  H+  H290  1  0.66028775  0.31690709  0.21762823  1
  H+  H291  1  0.86500471  0.98977037  0.33987356  1
  H+  H292  1  0.92250408  0.32904374  0.61006447  1
  H+  H293  1  0.07475442  0.90148515  0.40946895  1
  H+  H294  1  0.44266115  0.57541794  0.25420672  1
  H+  H295  1  0.91663503  0.56556741  0.20842874  1
  H+  H296  1  0.67523294  0.09558929  0.22171909  1
  H+  H297  1  0.17364065  0.56157776  0.22721896  1
  H+  H298  1  0.64650510  0.12151578  0.32367800  1
  H+  H299  1  0.32697527  0.91348547  0.73822421  1
  H+  H300  1  0.66731890  0.07793549  0.89567963  1
  H+  H301  1  0.15493302  0.05007896  0.16453831  1
  H+  H302  1  0.04233114  0.51866741  0.61998150  1
  H+  H303  1  0.10403339  0.73303050  -0.00822156  1
  H+  H304  1  0.61124150  0.72891126  0.83184051  1
  H+  H305  1  0.18114691  0.09652348  0.57620640  1
  H+  H306  1  0.61905777  0.50823978  0.66971891  1
  H+  H307  1  0.83849681  0.18478274  0.39344050  1
  H+  H308  1  0.78592106  0.07097293  0.44855705  1
  H+  H309  1  0.67033306  0.83311843  0.26865986  1
  H+  H310  1  0.03407006  0.38757493  0.49860931  1
  H+  H311  1  0.41948926  0.59736754  0.90016123  1
  H+  H312  1  0.65165182  0.56042149  0.24176503  1
  H+  H313  1  0.80057577  0.62994563  0.05876123  1
  H+  H314  1  0.42019235  0.08295267  0.28703827  1
  H+  H315  1  0.89946785  0.31927261  0.21927732  1
  H+  H316  1  0.32508108  0.92823856  0.04212586  1
  H+  H317  1  0.81420892  0.66354628  0.78337916  1
  H+  H318  1  0.34308853  0.65430901  0.45206186  1
  H+  H319  1  0.56819430  0.39307435  0.09270983  1
  H+  H320  1  0.09116168  0.94280041  0.10065304  1
  H+  H321  1  0.89539244  0.82526006  0.56822812  1
  H+  H322  1  0.18980728  0.22925312  0.79788973  1
  H+  H323  1  0.08812363  0.41594783  0.77044879  1
  H+  H324  1  0.12993657  0.14973829  0.15859774  1
  H+  H325  1  0.29719510  0.73528011  0.35858643  1
  H+  H326  1  0.58874947  0.45222265  0.00270006  1
  H+  H327  1  0.33634082  0.67896900  0.05286778  1
  H+  H328  1  0.92195997  0.57877157  0.60055097  1
  H+  H329  1  0.97586167  0.33822728  1.00123571  1
  H+  H330  1  0.82854243  0.39918493  0.05125733  1
  H+  H331  1  0.37064553  0.32058362  0.83505837  1
  H+  H332  1  0.33472407  0.91922497  0.40609988  1
  H+  H333  1  0.16987958  0.08997091  0.42691656  1
  H+  H334  1  0.10240489  0.17685368  0.06462863  1
  H+  H335  1  0.83137686  0.66576231  0.43898504  1
  H+  H336  1  0.34459285  0.17530707  0.44524453  1
  H+  H337  1  0.33191357  0.41346044  0.43189816  1
  H+  H338  1  0.40543970  0.57143486  0.61254147  1
  H+  H339  1  0.60073243  0.88532344  0.00113577  1
  H+  H340  1  0.92026605  0.81214910  0.95363986  1
  H+  H341  1  0.84261867  0.47069031  0.36442663  1
  H+  H342  1  0.57642852  0.66714159  0.77196699  1
  H+  H343  1  0.90915868  0.56412626  0.89515858  1
  H+  H344  1  0.87400334  -0.00378658  0.15837629  1
  H+  H345  1  0.57404043  0.91394216  0.73972517  1
  H+  H346  1  0.08420627  0.66145095  0.77060744  1
  H+  H347  1  0.89484832  0.36463532  0.51841370  1
  H+  H348  1  0.13659672  0.02358356  0.37137178  1
  H+  H349  1  0.13774196  0.86733028  0.33107272  1
  H+  H350  1  0.30695042  0.35768391  0.76245802  1
  H+  H351  1  0.65479972  0.32454088  0.90073727  1
  H+  H352  1  0.84571270  0.40413004  0.77096708  1
  H+  H353  1  0.58460463  0.15917297  0.04683138  1
  H+  H354  1  1.01455337  0.37133550  0.15501873  1
  H+  H355  1  0.49350144  0.63073289  0.16855071  1
  H+  H356  1  0.83540168  0.16158078  0.76867919  1
  H+  H357  1  0.06684283  0.91792934  0.77256628  1
  H+  H358  1  0.07760495  0.16822416  0.44405157  1
  H+  H359  1  0.92536645  0.10172460  0.22890442  1
  H+  H360  1  0.15254562  0.57627606  0.56301219  1
  H+  H361  1  0.82114702  0.92258888  0.77214169  1
  H+  H362  1  0.17333808  0.32935059  0.60287233  1
  H+  H363  1  0.42106288  0.09267928  0.60672017  1
  H+  H364  1  0.65459599  0.57137024  0.61124282  1
  H+  H365  1  0.40047954  0.29781813  0.92933513  1
  H+  H366  1  0.39279981  0.09055643  0.18537174  1
  H+  H367  1  0.40989712  0.32532360  0.26878707  1
  H+  H368  1  0.64584824  0.78228383  1.01150183  1
  H+  H369  1  0.92030846  0.31481037  0.90236753  1
  H+  H370  1  0.16452177  0.84270436  0.22753589  1
  H+  H371  1  0.05935344  0.70604822  0.08238645  1
  H+  H372  1  0.75210446  0.72469632  0.73525687  1
  H+  H373  1  0.34850707  0.44117703  0.10171174  1
  H+  H374  1  0.56396158  0.40046576  0.73912426  1
  H+  H375  1  0.82608819  0.40425130  0.45864251  1
  H+  H376  1  0.27448583  0.88982716  0.49941027  1
  H+  H377  1  0.10904113  0.16769385  0.75815549  1
  H+  H378  1  0.17213613  0.83036527  0.57230974  1
  H+  H379  1  0.15463892  0.32546679  0.23724193  1
  H+  H380  1  0.91719161  0.08395843  0.60800002  1
  H+  H381  1  0.57632433  0.42199805  0.44673709  1
  H+  H382  1  0.22802606  0.08339472  0.63470679  1
  H+  H383  1  0.63010994  0.87375747  0.15742609  1
  O2-  O384  1  0.09504130  0.17906131  0.14580439  1
  O2-  O385  1  0.08255820  0.16721741  0.48930556  1
  O2-  O386  1  0.12853624  0.18155460  0.80146985  1
  O2-  O387  1  0.07620266  0.39708084  0.14338615  1
  O2-  O388  1  0.09343427  0.41660566  0.48189052  1
  O2-  O389  1  0.08869014  0.42050122  0.81579605  1
  O2-  O390  1  0.04257620  0.72167441  0.12141518  1
  O2-  O391  1  0.08326768  0.66735334  0.47810648  1
  O2-  O392  1  0.07559414  0.65628465  0.81561334  1
  O2-  O393  1  0.09307487  0.94561476  0.14597084  1
  O2-  O394  1  0.07569058  0.90593760  0.49338090  1
  O2-  O395  1  0.07700704  0.91302601  0.81550745  1
  O2-  O396  1  0.33676241  0.16828455  0.09517492  1
  O2-  O397  1  0.34054396  0.17373396  0.49074138  1
  O2-  O398  1  0.34696797  0.14619270  0.82584090  1
  O2-  O399  1  0.35441165  0.44608273  0.14800152  1
  O2-  O400  1  0.33525428  0.41303573  0.47748027  1
  O2-  O401  1  0.28694633  0.32498953  0.80157877  1
  O2-  O402  1  0.34179840  0.67149608  0.14012062  1
  O2-  O403  1  0.33898263  0.66140965  0.49573303  1
  O2-  O404  1  0.33430302  0.66794227  0.82624155  1
  O2-  O405  1  0.31922595  0.90188911  0.13114434  1
  O2-  O406  1  0.33456666  0.92220731  0.48291780  1
  O2-  O407  1  0.32899910  0.89742461  0.81059071  1
  O2-  O408  1  0.58070612  0.15296466  0.12673347  1
  O2-  O409  1  0.57449172  0.15192756  0.48283605  1
  O2-  O410  1  0.58298532  0.16400618  0.82350584  1
  O2-  O411  1  0.56795351  0.38906414  0.13909886  1
  O2-  O412  1  0.57199248  0.42219530  0.49144992  1
  O2-  O413  1  0.56976013  0.39817904  0.81650711  1
  O2-  O414  1  0.60189963  0.68355381  0.14316893  1
  O2-  O415  1  0.58876019  0.67083965  0.48676791  1
  O2-  O416  1  0.57784791  0.66561845  0.81732145  1
  O2-  O417  1  0.56084960  0.91263351  0.18877545  1
  O2-  O418  1  0.58744410  0.92558035  0.48151784  1
  O2-  O419  1  0.57327381  0.91034947  0.81623369  1
  O2-  O420  1  0.83285190  0.16405691  0.12991023  1
  O2-  O421  1  0.80663482  0.12805492  0.46614770  1
  O2-  O422  1  0.83899858  0.16503668  0.81416835  1
  O2-  O423  1  0.82398991  0.40195313  0.12843597  1
  O2-  O424  1  0.83896824  0.41494401  0.50187321  1
  O2-  O425  1  0.84966386  0.40672178  0.81759545  1
  O2-  O426  1  0.79808819  0.63127363  0.13279789  1
  O2-  O427  1  0.83175473  0.66106535  0.48418929  1
  O2-  O428  1  0.81915508  0.64985712  0.82646590  1
  O2-  O429  1  0.84531714  0.93637430  0.14194960  1
  O2-  O430  1  0.83137356  0.91862911  0.48279497  1
  O2-  O431  1  0.82352561  0.91753768  0.81681169  1
  O2-  O432  1  0.18867863  0.11364355  0.17300600  1
  O2-  O433  1  0.17848629  0.09526773  0.50674097  1
  O2-  O434  1  0.17113121  0.06956488  0.85498664  1
  O2-  O435  1  0.15293077  0.32304567  0.19101999  1
  O2-  O436  1  0.17692122  0.33292567  0.52369871  1
  O2-  O437  1  0.16539818  0.33944991  0.86374085  1
  O2-  O438  1  0.20172257  0.54939106  0.19342594  1
  O2-  O439  1  0.16550667  0.58226378  0.51837775  1
  O2-  O440  1  0.16573449  0.58513574  0.86116483  1
  O2-  O441  1  0.16634458  0.84992947  0.18280877  1
  O2-  O442  1  0.16987866  0.83226394  0.52644466  1
  O2-  O443  1  0.15999593  0.82810025  0.85053489  1
  O2-  O444  1  0.40504513  0.07968863  0.14422248  1
  O2-  O445  1  0.42190926  0.08645596  0.52263079  1
  O2-  O446  1  0.42779566  0.07184528  0.88394142  1
  O2-  O447  1  0.41110295  0.32753911  0.19073274  1
  O2-  O448  1  0.40856380  0.33258057  0.51648004  1
  O2-  O449  1  0.41371367  0.30715878  0.85287297  1
  O2-  O450  1  0.43425937  0.60104768  0.18520547  1
  O2-  O451  1  0.42107062  0.57863059  0.52965388  1
  O2-  O452  1  0.41752940  0.60056580  0.85380664  1
  O2-  O453  1  0.39293117  0.82328815  0.17011590  1
  O2-  O454  1  0.41676546  0.83974588  0.51899837  1
  O2-  O455  1  0.41403532  0.81893394  0.86405460  1
  O2-  O456  1  0.66752154  0.08188946  0.17751374  1
  O2-  O457  1  0.65911452  0.08475030  0.52679131  1
  O2-  O458  1  0.66364502  0.08145727  0.84847748  1
  O2-  O459  1  0.66041381  0.31543391  0.17250548  1
  O2-  O460  1  0.66313732  0.34415682  0.54168741  1
  O2-  O461  1  0.64644509  0.31949007  0.85372031  1
  O2-  O462  1  0.63694999  0.55016032  0.19743580  1
  O2-  O463  1  0.66545740  0.58307495  0.53025954  1
  O2-  O464  1  0.64585177  0.56572647  0.85458648  1
  O2-  O465  1  0.66760674  0.85191612  0.14244350  1
  O2-  O466  1  0.66348539  0.83834630  0.52348621  1
  O2-  O467  1  0.65641539  0.82295959  0.85580914  1
  O2-  O468  1  0.93021466  0.10153882  0.18362457  1
  O2-  O469  1  0.91968227  0.08318627  0.52901871  1
  O2-  O470  1  0.93804308  0.09634228  0.85195630  1
  O2-  O471  1  0.90531163  0.32093879  0.17478165  1
  O2-  O472  1  0.92754936  0.33470823  0.52961486  1
  O2-  O473  1  0.92177910  0.32281245  0.85734398  1
  O2-  O474  1  0.90207400  0.56569118  0.16565239  1
  O2-  O475  1  0.92066026  0.58303692  0.52270389  1
  O2-  O476  1  0.91100150  0.55935109  0.84916055  1
  O2-  O477  1  0.92914829  0.85783452  0.19989131  1
  O2-  O478  1  0.90399926  0.82545261  0.52321423  1
  O2-  O479  1  0.93730076  0.80370441  0.88637364  1
  O2-  O480  1  0.16827002  0.08657009  0.38120372  1
  O2-  O481  1  0.17879313  0.08944578  0.62361131  1
  O2-  O482  1  0.18108051  0.09667419  0.97410173  1
  O2-  O483  1  0.16172943  0.32876302  0.31120765  1
  O2-  O484  1  0.17093277  0.32727770  0.64833817  1
  O2-  O485  1  0.17248032  0.34619061  0.98726219  1
  O2-  O486  1  0.13957310  0.57833249  0.30634938  1
  O2-  O487  1  0.10266175  0.54689483  0.63210644  1
  O2-  O488  1  0.15527362  0.57815271  0.98533241  1
  O2-  O489  1  0.16792036  0.83815929  0.31324657  1
  O2-  O490  1  0.17117689  0.83421316  0.64905167  1
  O2-  O491  1  0.15355821  0.83847962  0.97029270  1
  O2-  O492  1  0.42192090  0.08671254  0.33128959  1
  O2-  O493  1  0.42093959  0.09805201  0.65152081  1
  O2-  O494  1  0.43546136  0.09199432  0.94892004  1
  O2-  O495  1  0.41020435  0.32844279  0.31437345  1
  O2-  O496  1  0.41052112  0.30694199  0.64511294  1
  O2-  O497  1  0.39215007  0.28447082  0.97383400  1
  O2-  O498  1  0.45316191  0.55495334  0.29524432  1
  O2-  O499  1  0.40479419  0.57083601  0.65760165  1
  O2-  O500  1  0.41957007  0.59621118  0.97186089  1
  O2-  O501  1  0.44620693  0.88424520  0.30333026  1
  O2-  O502  1  0.41575728  0.79711386  0.64600248  1
  O2-  O503  1  0.41366101  0.82621307  0.93133659  1
  O2-  O504  1  0.67853851  0.09548057  0.30497518  1
  O2-  O505  1  0.66259045  0.08419071  0.64699858  1
  O2-  O506  1  0.67200213  0.07523838  0.96362404  1
  O2-  O507  1  0.66572092  0.32847563  0.30009033  1
  O2-  O508  1  0.65958988  0.32798356  0.66159025  1
  O2-  O509  1  0.66437473  0.32832047  0.96867816  1
  O2-  O510  1  0.67286353  0.58097344  0.31908763  1
  O2-  O511  1  0.64764596  0.56987479  0.65620516  1
  O2-  O512  1  0.63749754  0.55822446  0.97761045  1
  O2-  O513  1  0.67020964  0.83662677  0.31295805  1
  O2-  O514  1  0.65134752  0.83093391  0.64605863  1
  O2-  O515  1  0.67092738  0.84377139  1.02308535  1
  O2-  O516  1  0.91978483  0.09431558  0.30908097  1
  O2-  O517  1  0.91922711  0.08619041  0.65334060  1
  O2-  O518  1  0.94087342  0.10972874  0.97477430  1
  O2-  O519  1  0.93366926  0.37540809  0.29917979  1
  O2-  O520  1  0.91906883  0.32884814  0.65522863  1
  O2-  O521  1  0.91658648  0.30357027  0.98179339  1
  O2-  O522  1  0.93430562  0.62954485  0.29400556  1
  O2-  O523  1  0.92317226  0.57502864  0.64623670  1
  O2-  O524  1  0.90500747  0.57070647  0.96895859  1
  O2-  O525  1  0.91847739  0.84197100  0.31855870  1
  O2-  O526  1  0.89087991  0.83446630  0.64605572  1
  O2-  O527  1  0.90158370  0.81323640  0.99780361  1
  O2-  O528  1  0.10399947  0.17927834  0.01951211  1
  O2-  O529  1  0.07608714  0.16611880  0.36383959  1
  O2-  O530  1  0.08890764  0.15874163  0.68164768  1
  O2-  O531  1  0.07555045  0.40914479  0.02368346  1
  O2-  O532  1  0.09012793  0.42108335  0.36024390  1
  O2-  O533  1  0.08410353  0.40358100  0.69195991  1
  O2-  O534  1  0.07614683  0.67350303  0.00956209  1
  O2-  O535  1  0.07718284  0.67625558  0.35219831  1
  O2-  O536  1  0.09328122  0.67150401  0.69106816  1
  O2-  O537  1  0.09196136  0.94443218  0.01884135  1
  O2-  O538  1  0.08162017  0.91184587  0.36482693  1
  O2-  O539  1  0.06600239  0.91622806  0.63584445  1
  O2-  O540  1  0.27007948  0.12023225  -0.01009809  1
  O2-  O541  1  0.33752088  0.17313674  0.36672359  1
  O2-  O542  1  0.37278917  0.22420728  0.67796380  1
  O2-  O543  1  0.34190943  0.43695940  0.03038825  1
  O2-  O544  1  0.32621301  0.41024011  0.35371288  1
  O2-  O545  1  0.33448530  0.39876031  0.68958998  1
  O2-  O546  1  0.32930346  0.67230493  0.00829727  1
  O2-  O547  1  0.30791704  0.70891863  0.32328659  1
  O2-  O548  1  0.32317069  0.65340112  0.71006969  1
  O2-  O549  1  0.31780483  0.95440800  0.00523970  1
  O2-  O550  1  0.33547394  0.92444125  0.36035862  1
  O2-  O551  1  0.32043693  0.92189460  0.69344988  1
  O2-  O552  1  0.59124753  0.16711584  0.00192583  1
  O2-  O553  1  0.59092542  0.16860806  0.36246591  1
  O2-  O554  1  0.58097211  0.16090041  0.69973443  1
  O2-  O555  1  0.56622567  0.39256826  0.01910137  1
  O2-  O556  1  0.56220263  0.37694368  0.36527708  1
  O2-  O557  1  0.56669386  0.40213011  0.69349324  1
  O2-  O558  1  0.58370348  0.66764067  0.01552484  1
  O2-  O559  1  0.59621135  0.67475753  0.35846153  1
  O2-  O560  1  0.57083134  0.66291247  0.69199160  1
  O2-  O561  1  0.56700055  0.91492878  -0.00007063  1
  O2-  O562  1  0.60120838  0.93389887  0.35556291  1
  O2-  O563  1  0.57552703  0.91322919  0.69389217  1
  O2-  O564  1  0.87678366  0.21651458  0.00835513  1
  O2-  O565  1  0.84466112  0.19093682  0.34852588  1
  O2-  O566  1  0.82716051  0.16005096  0.69082975  1
  O2-  O567  1  0.83097724  0.39909203  0.00569372  1
  O2-  O568  1  0.84145505  0.45839525  0.32104687  1
  O2-  O569  1  0.83726981  0.40748755  0.70011898  1
  O2-  O570  1  0.80399660  0.63292240  0.01262417  1
  O2-  O571  1  0.83232071  0.67955240  0.35847478  1
  O2-  O572  1  0.78017553  0.69565005  0.71684589  1
  O2-  O573  1  0.84759083  0.93687729  0.01797832  1
  O2-  O574  1  0.83719074  0.93067196  0.35786783  1
  O2-  O575  1  0.81574279  0.92405047  0.68915381  1
