# generated using pymatgen
data_H2O
_symmetry_space_group_name_H-M   'P 1'
_cell_length_a   17.98519524
_cell_length_b   17.99043418
_cell_length_c   22.00529865
_cell_angle_alpha   89.98489676
_cell_angle_beta   90.02234956
_cell_angle_gamma   119.98924938
_symmetry_Int_Tables_number   1
_chemical_formula_structural   H2O
_chemical_formula_sum   'H384 O192'
_cell_volume   6166.82611540
_cell_formula_units_Z   192
loop_
 _symmetry_equiv_pos_site_id
 _symmetry_equiv_pos_as_xyz
  1  'x, y, z'
loop_
 _atom_type_symbol
 _atom_type_oxidation_number
  H+  1.0
  O2-  -2.0
loop_
 _atom_site_type_symbol
 _atom_site_label
 _atom_site_symmetry_multiplicity
 _atom_site_fract_x
 _atom_site_fract_y
 _atom_site_fract_z
 _atom_site_occupancy
  H+  H0  1  0.02615999  0.39596508  0.67368787  1
  H+  H1  1  0.36915463  0.73329183  0.68441639  1
  H+  H2  1  0.61945098  1.02628903  0.17728710  1
  H+  H3  1  0.38565102  0.52979861  -0.02279986  1
  H+  H4  1  0.11940581  0.39055546  0.49542324  1
  H+  H5  1  0.44005997  0.33850088  0.58750591  1
  H+  H6  1  0.50866491  0.12649230  0.35594170  1
  H+  H7  1  0.13170645  0.52637999  0.32298907  1
  H+  H8  1  0.77771295  0.88381757  0.69770557  1
  H+  H9  1  0.88690117  0.07378395  0.93764085  1
  H+  H10  1  0.97550347  0.84350480  0.51162521  1
  H+  H11  1  0.37972950  0.89949490  1.00898366  1
  H+  H12  1  0.12498903  0.48414705  -0.00322050  1
  H+  H13  1  0.76612002  0.13395601  0.83266488  1
  H+  H14  1  0.12697978  0.89478045  0.67586242  1
  H+  H15  1  0.38125606  0.83964853  0.83888388  1
  H+  H16  1  0.13908670  0.52668695  0.50884473  1
  H+  H17  1  0.48673871  0.89241745  0.15607968  1
  H+  H18  1  0.01095767  0.13251878  0.00332736  1
  H+  H19  1  0.31400872  -0.00779626  0.18274556  1
  H+  H20  1  0.35568558  0.48558644  0.69090898  1
  H+  H21  1  0.51710867  0.64039575  0.82118165  1
  H+  H22  1  0.81770565  0.06531306  0.01331867  1
  H+  H23  1  0.52559226  0.66340410  0.50154760  1
  H+  H24  1  0.29486409  0.88854722  0.11991615  1
  H+  H25  1  0.73772033  0.11741260  0.51208509  1
  H+  H26  1  0.46837721  0.10763563  0.65803906  1
  H+  H27  1  0.60214761  0.12741114  0.66770941  1
  H+  H28  1  0.24103559  0.14587607  0.52408658  1
  H+  H29  1  0.08231698  0.00151196  0.19215081  1
  H+  H30  1  0.89301940  0.37450826  0.50731711  1
  H+  H31  1  0.51284360  0.37580703  0.36044701  1
  H+  H32  1  0.37756507  0.02304430  0.66731340  1
  H+  H33  1  0.10112430  0.22302028  1.00033259  1
  H+  H34  1  0.12683841  -0.02123398  0.83139350  1
  H+  H35  1  0.72783161  0.61924173  0.51024205  1
  H+  H36  1  0.58151402  0.41266297  0.76295587  1
  H+  H37  1  0.10258651  0.88098168  0.32635284  1
  H+  H38  1  0.60144226  0.23676315  0.81516750  1
  H+  H39  1  0.64918977  0.27410502  0.51241670  1
  H+  H40  1  0.23516124  0.62208828  0.98558307  1
  H+  H41  1  0.14210534  0.77817447  0.66425693  1
  H+  H42  1  0.65742033  0.38556426  0.66133769  1
  H+  H43  1  0.09242385  0.42042318  0.43432779  1
  H+  H44  1  0.72301242  0.61889657  0.86812509  1
  H+  H45  1  0.61531449  0.22951403  0.00476864  1
  H+  H46  1  0.63958477  0.62113873  0.51036257  1
  H+  H47  1  0.50058665  0.09122530  0.17259076  1
  H+  H48  1  0.38293077  0.70997949  0.84060925  1
  H+  H49  1  0.60369990  0.01409031  0.97977664  1
  H+  H50  1  0.36921613  0.76943480  0.18000436  1
  H+  H51  1  0.67204949  0.96607350  0.03405205  1
  H+  H52  1  0.89172527  0.77410916  0.17411581  1
  H+  H53  1  0.59540670  0.42554145  0.43637944  1
  H+  H54  1  0.65142822  0.61054078  0.96797942  1
  H+  H55  1  0.48283651  0.35469796  0.49558719  1
  H+  H56  1  0.87169283  0.63824829  0.34438169  1
  H+  H57  1  0.91203380  0.83366978  0.27066589  1
  H+  H58  1  0.53285405  0.65259648  0.67888523  1
  H+  H59  1  0.11724697  0.88529562  0.18199938  1
  H+  H60  1  -0.01991042  0.12188438  0.51298946  1
  H+  H61  1  1.01860354  0.88592414  0.33966502  1
  H+  H62  1  0.50685565  0.15849310  0.81909792  1
  H+  H63  1  0.39401661  0.87319320  0.33312376  1
  H+  H64  1  1.03329290  0.40351710  0.99256853  1
  H+  H65  1  0.24209884  0.63649146  0.15806965  1
  H+  H66  1  0.03745823  0.89246361  0.67912349  1
  H+  H67  1  0.76451378  0.11796378  0.16771708  1
  H+  H68  1  0.86041099  0.48087376  0.34303961  1
  H+  H69  1  0.89931349  0.30475006  0.97895277  1
  H+  H70  1  0.06330571  0.86999038  0.43247444  1
  H+  H71  1  0.38728918  0.34118457  0.49858175  1
  H+  H72  1  0.63208235  0.35539300  0.34453317  1
  H+  H73  1  0.64914086  0.78536292  0.67116071  1
  H+  H74  1  0.61585227  0.63899053  0.35246030  1
  H+  H75  1  0.64190311  0.84395452  -0.00188916  1
  H+  H76  1  0.61366884  0.72075314  0.13528759  1
  H+  H77  1  0.78071571  0.14611950  0.66839012  1
  H+  H78  1  0.65926514  0.87681387  0.51601865  1
  H+  H79  1  0.40462505  0.30416539  0.65223100  1
  H+  H80  1  0.51286840  0.39093301  -0.02054572  1
  H+  H81  1  0.02547652  0.63698436  0.82761030  1
  H+  H82  1  0.40507900  0.64800455  0.49516307  1
  H+  H83  1  0.59865912  0.21333351  0.36261366  1
  H+  H84  1  0.12375649  0.04004896  0.46092319  1
  H+  H85  1  0.13679720  0.77256722  0.84780528  1
  H+  H86  1  0.66251484  0.91039968  0.84633936  1
  H+  H87  1  0.11186094  0.22651474  0.68101314  1
  H+  H88  1  0.16464684  0.33741516  0.60767060  1
  H+  H89  1  0.38721118  0.26546126  0.35481212  1
  H+  H90  1  0.50276604  0.52997290  0.56038658  1
  H+  H91  1  0.52058732  0.88439518  0.82761153  1
  H+  H92  1  0.35781611  0.65149708  0.35275733  1
  H+  H93  1  0.10226326  0.16432288  0.77360394  1
  H+  H94  1  0.02211796  0.13660285  0.67934324  1
  H+  H95  1  0.37290631  0.64003579  -0.00026419  1
  H+  H96  1  0.88604646  0.52805459  0.17347566  1
  H+  H97  1  0.40313817  0.23694959  0.13691658  1
  H+  H98  1  0.09558532  0.72223690  0.18095049  1
  H+  H99  1  0.35980037  0.85117331  0.18828639  1
  H+  H100  1  0.87211970  0.64312509  0.16158990  1
  H+  H101  1  1.03300287  0.63965667  0.99296364  1
  H+  H102  1  0.65850255  0.24244983  0.15587365  1
  H+  H103  1  0.59955519  0.98236965  0.82424233  1
  H+  H104  1  0.01992569  0.63897348  0.49538450  1
  H+  H105  1  0.38518246  0.11864741  -0.02049417  1
  H+  H106  1  0.23211547  0.60442732  0.84021364  1
  H+  H107  1  0.92424437  0.22460076  1.01624559  1
  H+  H108  1  0.69860541  0.08134374  0.99308820  1
  H+  H109  1  0.26969906  0.39727370  0.15212700  1
  H+  H110  1  0.77930352  0.39016757  0.81512527  1
  H+  H111  1  0.88867894  0.52731833  0.83220003  1
  H+  H112  1  0.62199046  0.65116452  0.67399198  1
  H+  H113  1  0.13591727  0.35353395  0.32375513  1
  H+  H114  1  0.07617430  0.67204519  0.39626402  1
  H+  H115  1  0.61850423  0.11879253  0.83309531  1
  H+  H116  1  0.92729149  0.08894990  0.60634486  1
  H+  H117  1  0.92763335  0.34927086  0.60017088  1
  H+  H118  1  0.28614969  0.89928446  0.34129172  1
  H+  H119  1  0.13876526  0.12133043  0.67539985  1
  H+  H120  1  0.89757249  0.12062400  0.66291152  1
  H+  H121  1  0.65163897  1.02519669  0.51140044  1
  H+  H122  1  0.15024833  0.86836116  -0.00010632  1
  H+  H123  1  0.61794148  0.48043366  0.49764041  1
  H+  H124  1  0.10782761  0.38139075  0.18741050  1
  H+  H125  1  0.66185275  0.57870136  0.19878753  1
  H+  H126  1  0.52105445  0.38885989  0.82288537  1
  H+  H127  1  0.64490283  0.36237687  0.50853828  1
  H+  H128  1  0.78386966  0.88342180  0.50579824  1
  H+  H129  1  0.76676925  0.38759554  0.99991852  1
  H+  H130  1  0.89521474  0.86490126  0.82412456  1
  H+  H131  1  0.09557973  0.14069258  0.15469625  1
  H+  H132  1  0.97278397  0.61566970  0.32829723  1
  H+  H133  1  0.86026080  0.72852561  0.83342685  1
  H+  H134  1  0.37192527  0.13782266  0.14966281  1
  H+  H135  1  0.98563111  0.86973553  0.98714414  1
  H+  H136  1  0.78452986  0.39429820  0.14591024  1
  H+  H137  1  0.66893878  0.15948974  0.15216011  1
  H+  H138  1  0.61700690  0.87962143  0.34706610  1
  H+  H139  1  0.13814739  0.27786183  0.16938283  1
  H+  H140  1  0.37149285  0.08902638  0.51269304  1
  H+  H141  1  0.38070884  0.61314876  0.51828137  1
  H+  H142  1  0.10343609  0.63010108  0.49408425  1
  H+  H143  1  0.48270591  0.86587053  0.67084195  1
  H+  H144  1  0.85419349  0.12100374  0.16721058  1
  H+  H145  1  0.88722281  0.61549291  0.51618937  1
  H+  H146  1  0.23697350  0.16608500  0.13844139  1
  H+  H147  1  0.21528531  0.62584392  0.50744891  1
  H+  H148  1  0.77693096  0.39103176  0.49997486  1
  H+  H149  1  0.08295812  0.41528154  0.27358211  1
  H+  H150  1  0.86894150  0.23493873  0.66522100  1
  H+  H151  1  0.89666814  0.77606077  0.67054704  1
  H+  H152  1  0.09758618  0.63506708  0.16951850  1
  H+  H153  1  0.54203501  0.89106213  0.50617893  1
  H+  H154  1  1.01384597  0.37503461  0.18747471  1
  H+  H155  1  0.56451452  0.27097747  0.20766467  1
  H+  H156  1  0.63347483  0.37909859  0.83711603  1
  H+  H157  1  0.61066769  0.47396448  -0.03159102  1
  H+  H158  1  0.22232645  0.36285161  0.51261944  1
  H+  H159  1  0.89236150  0.12173549  0.51276220  1
  H+  H160  1  0.65561102  0.78680293  0.51828962  1
  H+  H161  1  0.88865958  0.52714898  0.51529104  1
  H+  H162  1  0.66241965  0.08757001  0.23857877  1
  H+  H163  1  0.13900709  0.26601696  0.33228271  1
  H+  H164  1  0.85910872  0.21601225  0.83645083  1
  H+  H165  1  0.39201833  0.03435249  0.97914567  1
  H+  H166  1  0.38212669  0.37325308  0.98639584  1
  H+  H167  1  0.86354390  -0.03151976  0.15926595  1
  H+  H168  1  0.63058078  0.11605358  0.32997686  1
  H+  H169  1  0.11408467  0.47433274  0.82786512  1
  H+  H170  1  0.02799937  0.13737243  0.34986092  1
  H+  H171  1  0.36457832  0.61674003  0.18465745  1
  H+  H172  1  0.39806928  0.79297492  0.51406585  1
  H+  H173  1  0.61968126  0.89325476  0.68069635  1
  H+  H174  1  0.13352306  0.36334100  0.98923842  1
  H+  H175  1  0.11510569  0.76898453  0.29456677  1
  H+  H176  1  0.10422116  0.63959437  0.33823095  1
  H+  H177  1  0.97666580  0.11434335  0.17327439  1
  H+  H178  1  0.50785399  0.96499417  0.10874876  1
  H+  H179  1  0.72951154  0.85576202  0.16973441  1
  H+  H180  1  0.86065492  0.87955999  0.16066075  1
  H+  H181  1  0.61880717  0.72735716  -0.01182830  1
  H+  H182  1  0.73453512  0.62683659  0.66744828  1
  H+  H183  1  0.59565455  0.46185198  0.33345689  1
  H+  H184  1  0.40929385  0.88304369  0.51685709  1
  H+  H185  1  0.17145429  0.59032673  0.60695839  1
  H+  H186  1  0.70495593  0.67831275  0.27017704  1
  H+  H187  1  0.40386817  0.77849258  0.99523053  1
  H+  H188  1  0.13325254  0.11201443  -0.00445898  1
  H+  H189  1  0.23166017  0.62072648  0.66682134  1
  H+  H190  1  0.22413543  0.10561599  0.32057589  1
  H+  H191  1  0.89018170  1.03012987  0.34034377  1
  H+  H192  1  0.42751008  0.35582468  0.18897939  1
  H+  H193  1  0.97846277  0.36523427  0.83359118  1
  H+  H194  1  0.87724837  0.87439782  0.50593979  1
  H+  H195  1  0.09693604  0.84467331  0.49221224  1
  H+  H196  1  0.39121619  0.62374996  0.66825389  1
  H+  H197  1  0.12414337  0.51914773  0.18647230  1
  H+  H198  1  0.37269212  -0.00927177  0.33928474  1
  H+  H199  1  0.28405510  0.75956697  0.46658778  1
  H+  H200  1  0.77325996  0.38947725  0.35070607  1
  H+  H201  1  0.13629499  0.22504304  0.83109963  1
  H+  H202  1  0.26737623  0.39555028  0.68519979  1
  H+  H203  1  0.86486071  0.72884009  0.50953456  1
  H+  H204  1  0.87901132  0.73432104  0.99882231  1
  H+  H205  1  0.78386321  0.63194526  0.36768889  1
  H+  H206  1  0.97447983  0.61750808  0.17974805  1
  H+  H207  1  0.67861051  0.82888209  0.27073159  1
  H+  H208  1  0.78075884  0.89054627  0.35186161  1
  H+  H209  1  0.89772218  0.38000744  0.65929338  1
  H+  H210  1  0.52773131  0.87826593  0.35014466  1
  H+  H211  1  0.17116658  0.97804610  0.15531052  1
  H+  H212  1  0.68581533  0.35073936  0.60387766  1
  H+  H213  1  0.35906716  0.96890073  0.50389078  1
  H+  H214  1  0.64523734  0.77335410  0.33160660  1
  H+  H215  1  0.52726850  0.63306852  0.34121194  1
  H+  H216  1  0.13012816  0.27883889  0.51152587  1
  H+  H217  1  0.38320502  0.35160380  0.36882780  1
  H+  H218  1  0.61414786  0.13456293  1.00580257  1
  H+  H219  1  0.64379685  0.52686474  0.13595687  1
  H+  H220  1  0.23896393  0.15552688  0.17123450  1
  H+  H221  1  0.12888499  0.16479065  0.51027063  1
  H+  H222  1  0.37147144  0.21566201  0.49034131  1
  H+  H223  1  0.14204279  0.86405829  0.84597067  1
  H+  H224  1  0.78593356  0.40476307  0.66952372  1
  H+  H225  1  0.51783993  0.63096853  -0.01492850  1
  H+  H226  1  0.86944012  0.89233053  0.34872101  1
  H+  H227  1  0.86162075  0.14318865  0.34390720  1
  H+  H228  1  0.60949127  0.39109085  0.11142579  1
  H+  H229  1  0.36142082  0.23219426  0.99631649  1
  H+  H230  1  0.88808975  0.20588700  -0.00659454  1
  H+  H231  1  0.36832858  0.44461573  0.51232856  1
  H+  H232  1  0.51454145  0.12827135  0.19421814  1
  H+  H233  1  0.72386288  1.12433865  0.32615468  1
  H+  H234  1  0.88560577  0.77596460  0.33145173  1
  H+  H235  1  0.36215991  0.46697000  0.34379826  1
  H+  H236  1  0.36194112  0.74158828  0.33930185  1
  H+  H237  1  0.86741881  0.23690304  0.49640994  1
  H+  H238  1  0.58502135  0.91153350  0.07015590  1
  H+  H239  1  -0.01473391  0.62902873  0.66736525  1
  H+  H240  1  0.37257169  0.13157364  0.31617840  1
  H+  H241  1  0.27508858  0.86916078  0.83312739  1
  H+  H242  1  0.89638596  0.62402901  0.98627123  1
  H+  H243  1  0.11568766  0.63736507  0.82863055  1
  H+  H244  1  0.11518068  0.13293576  0.34889470  1
  H+  H245  1  0.34191840  0.18950193  0.27627883  1
  H+  H246  1  0.26636483  0.39255198  0.99432294  1
  H+  H247  1  0.13434341  0.36687905  0.66620235  1
  H+  H248  1  0.11765545  0.97925365  0.01114993  1
  H+  H249  1  0.88774358  0.53118676  0.98523861  1
  H+  H250  1  0.83850697  0.42604795  0.44098870  1
  H+  H251  1  0.62858971  0.14313412  0.50906740  1
  H+  H252  1  0.11984866  0.99914362  0.47275633  1
  H+  H253  1  0.61869566  0.34986915  0.98373539  1
  H+  H254  1  0.88206690  1.00788890  -0.00711026  1
  H+  H255  1  0.13581589  0.36047121  0.83951369  1
  H+  H256  1  0.61809307  0.63507131  0.12971163  1
  H+  H257  1  0.85941736  0.23089717  0.34066784  1
  H+  H258  1  0.21921309  0.61844860  0.32952947  1
  H+  H259  1  0.48155789  0.38324177  0.12824006  1
  H+  H260  1  0.97630983  0.86585016  0.17812289  1
  H+  H261  1  0.42111975  0.57462485  0.26023527  1
  H+  H262  1  0.88016013  0.36704879  0.32706067  1
  H+  H263  1  0.23414228  0.85701630  0.18159240  1
  H+  H264  1  0.11739374  0.48355343  0.67717649  1
  H+  H265  1  0.32741655  0.42998663  0.77562546  1
  H+  H266  1  0.72937519  0.83959306  -0.00690624  1
  H+  H267  1  0.26979052  0.38089900  0.34710097  1
  H+  H268  1  0.46814407  0.52628863  0.28178502  1
  H+  H269  1  0.41196359  0.59891864  0.92106334  1
  H+  H270  1  0.38509996  0.38075296  0.83733226  1
  H+  H271  1  0.23175096  0.85600528  0.50736682  1
  H+  H272  1  0.14254955  0.76519664  0.50901258  1
  H+  H273  1  0.88118285  0.35412967  0.16283240  1
  H+  H274  1  0.62330816  0.48962851  0.67734695  1
  H+  H275  1  -0.01839652  0.37273244  0.50477524  1
  H+  H276  1  0.34301689  0.66690681  0.74065857  1
  H+  H277  1  0.11889997  0.64432092  0.67765136  1
  H+  H278  1  0.63966385  0.02657057  0.66523589  1
  H+  H279  1  0.36639984  0.88728083  0.67917394  1
  H+  H280  1  0.27638390  0.71170280  0.11165589  1
  H+  H281  1  0.78570810  0.64530897  0.14685411  1
  H+  H282  1  0.86710427  0.64494117  0.68445595  1
  H+  H283  1  0.64784824  0.36033512  0.20293726  1
  H+  H284  1  0.16324980  0.11743826  0.84017025  1
  H+  H285  1  0.35672518  0.49688006  0.83121952  1
  H+  H286  1  0.73596426  0.61491635  0.28467934  1
  H+  H287  1  0.86051192  0.39693389  -0.00748721  1
  H+  H288  1  0.42468877  0.83752932  0.61135932  1
  H+  H289  1  0.17303474  0.83392280  0.60304390  1
  H+  H290  1  0.59447281  0.90995413  0.44382164  1
  H+  H291  1  0.33344773  0.05227350  0.23866330  1
  H+  H292  1  0.17176272  0.58414167  0.89746581  1
  H+  H293  1  0.33224362  0.89847544  0.77285130  1
  H+  H294  1  0.29004386  0.89589204  0.00890408  1
  H+  H295  1  0.65611572  0.32243017  0.92981734  1
  H+  H296  1  0.22539051  0.11677547  -0.00215128  1
  H+  H297  1  0.35815302  0.33371946  0.25925645  1
  H+  H298  1  0.49604291  0.86171163  0.99090297  1
  H+  H299  1  0.58480505  0.16203312  0.45349036  1
  H+  H300  1  0.92722190  0.84335395  0.92590771  1
  H+  H301  1  0.18812108  0.12793471  0.58667624  1
  H+  H302  1  0.16227282  0.32966202  0.93109947  1
  H+  H303  1  0.58036786  0.65890478  0.04923897  1
  H+  H304  1  0.10969469  0.06200225  0.25024614  1
  H+  H305  1  0.16050661  0.59076801  0.23719888  1
  H+  H306  1  0.39846688  0.06271070  0.57494976  1
  H+  H307  1  0.14773575  0.03655882  0.67076212  1
  H+  H308  1  0.41654942  0.83659099  0.27386804  1
  H+  H309  1  0.83024223  0.67103636  0.74291076  1
  H+  H310  1  0.98560600  0.86892980  0.83439109  1
  H+  H311  1  0.28998126  0.16594339  0.67371639  1
  H+  H312  1  0.97903448  0.04533709  0.21036578  1
  H+  H313  1  0.69512479  0.87054542  0.89647000  1
  H+  H314  1  0.07612328  0.17387899  0.09166215  1
  H+  H315  1  0.63982396  0.85153787  0.17750633  1
  H+  H316  1  0.32614268  0.43356740  0.05226073  1
  H+  H317  1  0.85718722  0.63839065  0.83278450  1
  H+  H318  1  0.90207624  0.86607250  0.67208548  1
  H+  H319  1  0.12215496  0.72726263  0.00114278  1
  H+  H320  1  0.36088564  0.40615466  0.13770495  1
  H+  H321  1  0.08755408  0.91697281  0.06871250  1
  H+  H322  1  0.33620846  0.66314191  0.05959110  1
  H+  H323  1  0.87402717  0.26115248  0.16849806  1
  H+  H324  1  0.87750582  0.49368176  0.67480404  1
  H+  H325  1  0.65659627  0.31043771  0.29286921  1
  H+  H326  1  0.09688263  0.92085404  0.77130538  1
  H+  H327  1  0.17474629  0.32742382  0.23306732  1
  H+  H328  1  0.53784225  0.40021526  0.66585940  1
  H+  H329  1  0.85929156  0.68134786  0.06021571  1
  H+  H330  1  0.08483934  0.41728729  0.76760257  1
  H+  H331  1  0.35761038  0.17541493  0.05331610  1
  H+  H332  1  0.81628887  0.02452054  0.86678980  1
  H+  H333  1  0.92120879  0.35632031  0.91704106  1
  H+  H334  1  0.09001643  0.67447766  0.73744513  1
  H+  H335  1  0.27610268  0.88497897  0.67718455  1
  H+  H336  1  0.40081293  0.10243959  0.88901270  1
  H+  H337  1  0.34218754  0.91897057  0.43887914  1
  H+  H338  1  0.88970731  0.36693572  0.82864093  1
  H+  H339  1  0.38668995  0.29083859  0.83753549  1
  H+  H340  1  0.14364173  0.62028032  0.98553891  1
  H+  H341  1  0.84194097  0.42447753  0.75676229  1
  H+  H342  1  0.23034472  0.37388248  0.84454296  1
  H+  H343  1  0.13578173  0.01669762  0.33524617  1
  H+  H344  1  0.69140417  0.85188292  0.61637331  1
  H+  H345  1  0.33178664  0.41161547  0.44389557  1
  H+  H346  1  0.40507793  0.36598337  0.26435975  1
  H+  H347  1  0.42150725  0.57209619  0.62169865  1
  H+  H348  1  0.17867400  0.83968203  0.93992699  1
  H+  H349  1  0.82931543  0.89704199  0.06144623  1
  H+  H350  1  0.89859968  0.32911726  0.26566354  1
  H+  H351  1  0.71893770  0.42451719  0.87582852  1
  H+  H352  1  0.58357875  0.42933235  0.05622588  1
  H+  H353  1  0.56951064  0.16056092  0.72252030  1
  H+  H354  1  0.91001792  0.58478327  0.26945209  1
  H+  H355  1  0.32516377  0.14712454  0.43773102  1
  H+  H356  1  0.29622629  0.13100118  0.84744765  1
  H+  H357  1  1.01673693  0.38557590  0.32517605  1
  H+  H358  1  0.36894053  0.53257423  0.16952437  1
  H+  H359  1  0.92195572  0.08363945  0.27904286  1
  H+  H360  1  0.44772846  0.09307136  0.27790522  1
  H+  H361  1  0.43759033  0.45201415  0.59948061  1
  H+  H362  1  0.92398098  0.59781251  0.60860870  1
  H+  H363  1  0.37397983  0.16091848  0.66730769  1
  H+  H364  1  0.84425988  0.90991082  0.44151314  1
  H+  H365  1  0.83543845  0.17642516  0.43739998  1
  H+  H366  1  0.92605418  0.83635997  0.57778352  1
  H+  H367  1  0.84691504  0.67694979  0.44759000  1
  H+  H368  1  0.64726092  0.08828518  0.89195293  1
  H+  H369  1  0.86414193  0.87224178  0.00088470  1
  H+  H370  1  0.58375254  0.92085598  0.73764426  1
  H+  H371  1  0.63110475  0.19005676  0.07240864  1
  H+  H372  1  0.57951647  0.67545339  0.44199122  1
  H+  H373  1  0.31039817  0.70143885  0.42942857  1
  H+  H374  1  0.91736103  0.58529565  0.89325659  1
  H+  H375  1  0.17824513  0.08086190  0.90232929  1
  H+  H376  1  0.58859896  0.66342485  0.77312223  1
  H+  H377  1  0.67016989  0.08346828  0.60490866  1
  H+  H378  1  0.67636519  0.59550753  0.60689954  1
  H+  H379  1  0.42249277  0.82470552  0.89917106  1
  H+  H380  1  0.84159950  0.42401293  0.08753675  1
  H+  H381  1  0.40887544  0.34353136  0.92547761  1
  H+  H382  1  0.09171145  0.17505238  0.44511507  1
  H+  H383  1  0.78386046  0.09235380  0.07264012  1
  O2-  O384  1  0.07678946  0.17941819  0.13776682  1
  O2-  O385  1  0.08832142  0.18149503  0.48952432  1
  O2-  O386  1  0.11677109  0.16576058  0.81748570  1
  O2-  O387  1  0.07568847  0.41160612  0.19860446  1
  O2-  O388  1  0.09103502  0.42361880  0.47850263  1
  O2-  O389  1  0.08239813  0.41368019  0.81321451  1
  O2-  O390  1  0.06601939  0.66549244  0.15963527  1
  O2-  O391  1  0.07879859  0.66469773  0.47704873  1
  O2-  O392  1  0.08713649  0.66962981  0.81463078  1
  O2-  O393  1  0.11118890  0.93151216  0.15712199  1
  O2-  O394  1  0.04545325  0.84151830  0.47248451  1
  O2-  O395  1  0.09278094  0.91783008  0.81684699  1
  O2-  O396  1  0.40725523  0.18738229  0.12238744  1
  O2-  O397  1  0.33154336  0.15291497  0.48158461  1
  O2-  O398  1  0.36053219  0.17182582  0.84556475  1
  O2-  O399  1  0.32697841  0.43558870  0.13294449  1
  O2-  O400  1  0.32701233  0.39503052  0.48752262  1
  O2-  O401  1  0.33265462  0.43446600  0.82202592  1
  O2-  O402  1  0.29689335  0.67972479  0.13552661  1
  O2-  O403  1  0.30040488  0.71556721  0.47155967  1
  O2-  O404  1  0.35103026  0.64837389  0.82551133  1
  O2-  O405  1  0.29577548  0.88729583  0.16461820  1
  O2-  O406  1  0.33600026  0.90763102  0.48326066  1
  O2-  O407  1  0.33338114  0.88779804  0.81721662  1
  O2-  O408  1  0.67572948  0.21081516  0.12809140  1
  O2-  O409  1  0.60206373  0.17773983  0.49625004  1
  O2-  O410  1  0.56694908  0.17521421  0.80802733  1
  O2-  O411  1  0.58663470  0.42917663  0.10368920  1
  O2-  O412  1  0.59112991  0.42100624  0.48130090  1
  O2-  O413  1  0.57937324  0.40531185  0.80816245  1
  O2-  O414  1  0.58660897  0.66418435  0.11498621  1
  O2-  O415  1  0.58295370  0.67842285  0.48732531  1
  O2-  O416  1  0.57397411  0.64614739  0.81583793  1
  O2-  O417  1  0.53505810  0.93752964  0.13052776  1
  O2-  O418  1  0.60138428  0.91590289  0.48950160  1
  O2-  O419  1  0.57980455  0.92201132  0.81148083  1
  O2-  O420  1  0.82275603  0.14569200  0.14763824  1
  O2-  O421  1  0.83745690  0.17591311  0.48259731  1
  O2-  O422  1  0.82702600  0.15605953  0.82182987  1
  O2-  O423  1  0.84444644  0.42248834  0.13360673  1
  O2-  O424  1  0.83936358  0.42626716  0.48620745  1
  O2-  O425  1  0.84044879  0.42140575  0.80334885  1
  O2-  O426  1  0.84922409  0.67966550  0.14403850  1
  O2-  O427  1  0.83408052  0.66932988  0.49157581  1
  O2-  O428  1  0.82309711  0.66669078  0.82241148  1
  O2-  O429  1  0.82964717  0.90840318  0.14399158  1
  O2-  O430  1  0.84389689  0.90407263  0.48762404  1
  O2-  O431  1  0.83220406  0.89230810  0.77523393  1
  O2-  O432  1  0.07521320  0.04726222  0.21184789  1
  O2-  O433  1  0.19822845  0.15509964  0.54548509  1
  O2-  O434  1  0.18926717  0.08259542  0.85797656  1
  O2-  O435  1  0.17178320  0.33616890  0.18851259  1
  O2-  O436  1  0.16186427  0.34120882  0.52566315  1
  O2-  O437  1  0.16901195  0.33466654  0.85689413  1
  O2-  O438  1  0.15497788  0.58293815  0.19188622  1
  O2-  O439  1  0.15976129  0.58470525  0.52693898  1
  O2-  O440  1  0.17134282  0.58202528  0.85136511  1
  O2-  O441  1  0.13965330  0.82074565  0.21213937  1
  O2-  O442  1  0.17227026  0.82529445  0.52497365  1
  O2-  O443  1  0.16971986  0.83242537  0.86362666  1
  O2-  O444  1  0.31265749  0.04422387  0.19637313  1
  O2-  O445  1  0.39482157  0.05376362  0.52936669  1
  O2-  O446  1  0.39786768  0.11552204  0.84400528  1
  O2-  O447  1  0.42177905  0.35191817  0.14469057  1
  O2-  O448  1  0.42372093  0.31679481  0.51163836  1
  O2-  O449  1  0.41644802  0.35061329  0.85179686  1
  O2-  O450  1  0.39498816  0.58628329  0.19464543  1
  O2-  O451  1  0.44264835  0.49920122  0.57243702  1
  O2-  O452  1  0.40139282  0.60853816  0.84716093  1
  O2-  O453  1  0.40034242  0.82878838  0.19691102  1
  O2-  O454  1  0.43682280  0.84989714  0.53210358  1
  O2-  O455  1  0.41775147  0.81441485  0.85469349  1
  O2-  O456  1  0.66554460  0.08275928  0.19152677  1
  O2-  O457  1  0.67744135  0.08438920  0.52787701  1
  O2-  O458  1  0.64867535  0.08825261  0.84714665  1
  O2-  O459  1  0.62713057  0.29945530  0.20948305  1
  O2-  O460  1  0.68018010  0.33830564  0.52375621  1
  O2-  O461  1  0.67960998  0.36749512  0.85966533  1
  O2-  O462  1  0.67227608  0.58550591  0.15471478  1
  O2-  O463  1  0.66658450  0.58797395  0.52441720  1
  O2-  O464  1  0.66318421  0.58889120  0.88479344  1
  O2-  O465  1  0.66928538  0.82010924  0.18684871  1
  O2-  O466  1  0.69156955  0.84726559  0.53123602  1
  O2-  O467  1  0.71456907  0.91696028  0.86682633  1
  O2-  O468  1  0.93677414  0.06436360  0.19931169  1
  O2-  O469  1  0.91956000  0.08867284  0.52681853  1
  O2-  O470  1  0.86987397  0.07917589  0.87627828  1
  O2-  O471  1  0.90254860  0.32038168  0.18520305  1
  O2-  O472  1  0.92243107  0.34267240  0.52138297  1
  O2-  O473  1  0.91782292  0.33764878  0.84910593  1
  O2-  O474  1  0.91019049  0.58491760  0.19311633  1
  O2-  O475  1  0.92093265  0.58838103  0.52981655  1
  O2-  O476  1  0.91760012  0.58770574  0.84737839  1
  O2-  O477  1  0.91658087  0.83412927  0.19204292  1
  O2-  O478  1  0.91895230  0.83137275  0.53205657  1
  O2-  O479  1  0.92414416  0.83965247  0.84812194  1
  O2-  O480  1  0.16014588  0.07638659  0.31881775  1
  O2-  O481  1  0.17572892  0.09797719  0.65934018  1
  O2-  O482  1  0.16429476  0.08110342  0.98429589  1
  O2-  O483  1  0.17072106  0.32595245  0.31469510  1
  O2-  O484  1  0.16613602  0.33731652  0.65280255  1
  O2-  O485  1  0.16217562  0.32940375  0.97709672  1
  O2-  O486  1  0.15936086  0.58921888  0.31370927  1
  O2-  O487  1  0.17094237  0.59124387  0.65224764  1
  O2-  O488  1  0.17525954  0.58944176  0.97076642  1
  O2-  O489  1  0.14853979  0.82902438  0.28005184  1
  O2-  O490  1  0.17363730  0.83836866  0.64835463  1
  O2-  O491  1  0.18300195  0.84073312  0.98553340  1
  O2-  O492  1  0.41147161  0.08225985  0.31344697  1
  O2-  O493  1  0.40492467  0.08006941  0.64711802  1
  O2-  O494  1  0.41501775  0.09107639  0.95957520  1
  O2-  O495  1  0.41815718  0.32333940  0.37422956  1
  O2-  O496  1  0.44303416  0.35950002  0.62988522  1
  O2-  O497  1  0.41191606  0.34242124  0.97142863  1
  O2-  O498  1  0.44338220  0.55930738  0.29864499  1
  O2-  O499  1  0.42519966  0.59390087  0.66317832  1
  O2-  O500  1  0.42148840  0.59230946  0.96620518  1
  O2-  O501  1  0.41864787  0.83658052  0.31925620  1
  O2-  O502  1  0.42097092  0.83373569  0.65652727  1
  O2-  O503  1  0.43552597  0.83940234  0.98046929  1
  O2-  O504  1  0.66706896  0.09990096  0.30573970  1
  O2-  O505  1  0.66792375  0.08674937  0.65016093  1
  O2-  O506  1  0.64430365  0.07555139  0.97436309  1
  O2-  O507  1  0.66379501  0.32389064  0.33654011  1
  O2-  O508  1  0.69441278  0.36199730  0.64818968  1
  O2-  O509  1  0.65042680  0.31827186  0.97547349  1
  O2-  O510  1  0.68347240  0.61826361  0.28110940  1
  O2-  O511  1  0.67394041  0.59705808  0.65179911  1
  O2-  O512  1  0.67598603  0.57776726  0.94913117  1
  O2-  O513  1  0.68134218  0.83247799  0.31578670  1
  O2-  O514  1  0.68538559  0.84888105  0.66110245  1
  O2-  O515  1  0.66696055  0.81152406  0.97835313  1
  O2-  O516  1  0.92070531  0.08956887  0.32380241  1
  O2-  O517  1  0.92976068  0.09056899  0.65161037  1
  O2-  O518  1  0.89928663  0.06865592  0.98575126  1
  O2-  O519  1  0.90699472  0.33396045  0.31055405  1
  O2-  O520  1  0.92974949  0.35070787  0.64546105  1
  O2-  O521  1  0.92153124  0.36315659  0.96383293  1
  O2-  O522  1  0.91031123  0.58579326  0.31535648  1
  O2-  O523  1  0.92372245  0.59987928  0.65400789  1
  O2-  O524  1  0.92224821  0.58974338  0.96839086  1
  O2-  O525  1  0.91159935  0.83580604  0.31612991  1
  O2-  O526  1  0.92934216  0.83576085  0.65301916  1
  O2-  O527  1  0.92565070  0.83966129  0.97145383  1
  O2-  O528  1  0.07203795  0.16344330  0.01779463  1
  O2-  O529  1  0.08936201  0.16803401  0.36286201  1
  O2-  O530  1  0.08363600  0.16682007  0.69648262  1
  O2-  O531  1  0.09089700  0.42291037  0.00963286  1
  O2-  O532  1  0.08062879  0.41508045  0.31962516  1
  O2-  O533  1  0.08624656  0.42280891  0.69121457  1
  O2-  O534  1  0.09275070  0.66437811  0.00803918  1
  O2-  O535  1  0.07307505  0.66999050  0.35086102  1
  O2-  O536  1  0.08918042  0.67566289  0.69178967  1
  O2-  O537  1  0.08753889  0.91720326  0.02391856  1
  O2-  O538  1  0.07938064  0.90934086  0.35281341  1
  O2-  O539  1  0.09778922  0.92458266  0.69385314  1
  O2-  O540  1  0.33465948  0.17201625  0.01128006  1
  O2-  O541  1  0.33741189  0.16757831  0.31747618  1
  O2-  O542  1  0.35317064  0.20096147  0.67807555  1
  O2-  O543  1  0.32855062  0.42865604  0.00732980  1
  O2-  O544  1  0.32885975  0.41189205  0.36546742  1
  O2-  O545  1  0.32491216  0.42542399  0.70503559  1
  O2-  O546  1  0.34479505  0.67261022  0.01545991  1
  O2-  O547  1  0.32436368  0.68031552  0.35613338  1
  O2-  O548  1  0.33678520  0.67075181  0.69621919  1
  O2-  O549  1  0.34940043  0.92775565  0.02631796  1
  O2-  O550  1  0.34531930  0.92849327  0.35607053  1
  O2-  O551  1  0.33491408  0.91558918  0.69524900  1
  O2-  O552  1  0.59882503  0.17429960  0.02925987  1
  O2-  O553  1  0.56883102  0.15101741  0.37133428  1
  O2-  O554  1  0.56528857  0.15248662  0.67826513  1
  O2-  O555  1  0.57668045  0.41678908  -0.01071316  1
  O2-  O556  1  0.57949388  0.41059610  0.35742957  1
  O2-  O557  1  0.59454487  0.42757224  0.68776686  1
  O2-  O558  1  0.58029821  0.65820612  0.00103546  1
  O2-  O559  1  0.58330152  0.66742401  0.36335341  1
  O2-  O560  1  0.59559070  0.68537513  0.68830148  1
  O2-  O561  1  0.61265175  0.91410004  0.03054370  1
  O2-  O562  1  0.58391022  0.90001478  0.37024069  1
  O2-  O563  1  0.58417280  0.91951008  0.69168557  1
  O2-  O564  1  0.76362313  0.06085876  0.03370141  1
  O2-  O565  1  0.82895707  0.17132637  0.35736637  1
  O2-  O566  1  0.84318605  0.17394078  0.67629254  1
  O2-  O567  1  0.82716254  0.42124115  0.01362335  1
  O2-  O568  1  0.83584999  0.42179983  0.36027417  1
  O2-  O569  1  0.84803895  0.43171372  0.68624979  1
  O2-  O570  1  0.85376993  0.67531816  0.01566127  1
  O2-  O571  1  0.84498037  0.67216743  0.36311391  1
  O2-  O572  1  0.83562503  0.67510013  0.69742425  1
  O2-  O573  1  0.82491757  0.89324701  0.01656895  1
  O2-  O574  1  0.84029854  0.92094087  0.36889285  1
  O2-  O575  1  0.83723684  0.89953073  0.71419100  1
