# generated using pymatgen
data_H2O
_symmetry_space_group_name_H-M   'P 1'
_cell_length_a   17.99979669
_cell_length_b   17.99808043
_cell_length_c   21.99895137
_cell_angle_alpha   89.97283850
_cell_angle_beta   90.00251410
_cell_angle_gamma   120.02758843
_symmetry_Int_Tables_number   1
_chemical_formula_structural   H2O
_chemical_formula_sum   'H384 O192'
_cell_volume   6170.28947114
_cell_formula_units_Z   192
loop_
 _symmetry_equiv_pos_site_id
 _symmetry_equiv_pos_as_xyz
  1  'x, y, z'
loop_
 _atom_type_symbol
 _atom_type_oxidation_number
  H+  1.0
  O2-  -2.0
loop_
 _atom_site_type_symbol
 _atom_site_label
 _atom_site_symmetry_multiplicity
 _atom_site_fract_x
 _atom_site_fract_y
 _atom_site_fract_z
 _atom_site_occupancy
  H+  H0  1  0.09099799  0.63905061  0.48396440  1
  H+  H1  1  0.38459345  0.60983975  0.33004818  1
  H+  H2  1  0.33831828  0.69405100  0.53144587  1
  H+  H3  1  0.40781957  0.62921280  0.50515280  1
  H+  H4  1  0.53047266  0.63023948  0.48189776  1
  H+  H5  1  0.38277641  0.60531840  0.84086439  1
  H+  H6  1  0.12636589  0.47213693  0.15322530  1
  H+  H7  1  0.10853708  0.59492734  0.63447811  1
  H+  H8  1  0.85288442  0.22997659  0.33433367  1
  H+  H9  1  0.93665896  0.72070195  0.05163871  1
  H+  H10  1  0.35945706  0.14327028  1.01304007  1
  H+  H11  1  0.24719162  0.11068438  0.65757274  1
  H+  H12  1  0.09267679  0.43463302  0.80503516  1
  H+  H13  1  0.43661913  0.85225841  0.90735802  1
  H+  H14  1  0.50171080  0.87723463  0.85036367  1
  H+  H15  1  0.24043592  0.87922638  0.99608004  1
  H+  H16  1  0.95400952  0.60153030  1.03269804  1
  H+  H17  1  0.76676205  0.63891588  0.82425960  1
  H+  H18  1  0.86083502  0.15961412  0.15870117  1
  H+  H19  1  0.48597194  0.87182312  0.99669621  1
  H+  H20  1  0.64460922  0.60690358  0.49129702  1
  H+  H21  1  0.84245740  0.60268003  0.99308251  1
  H+  H22  1  0.03219990  0.14317874  0.01820064  1
  H+  H23  1  0.62420491  0.90058478  0.67833722  1
  H+  H24  1  0.87434035  0.61238362  0.33241314  1
  H+  H25  1  0.97606508  0.33766995  0.49870101  1
  H+  H26  1  0.64579329  0.28192491  0.51054472  1
  H+  H27  1  0.37254077  0.73865651  0.85962986  1
  H+  H28  1  0.37337302  0.13034611  0.66976828  1
  H+  H29  1  0.27118193  0.12119478  0.16664528  1
  H+  H30  1  0.66468998  0.66332210  1.00048679  1
  H+  H31  1  0.57832781  0.65655955  0.38720648  1
  H+  H32  1  0.35678338  0.22064251  0.33632454  1
  H+  H33  1  0.39380503  0.87428697  0.17480762  1
  H+  H34  1  0.02209811  0.14055645  0.34221218  1
  H+  H35  1  0.77352511  0.62943933  0.44720107  1
  H+  H36  1  0.11713674  0.89129798  0.67306268  1
  H+  H37  1  0.83612434  0.22414700  0.66248669  1
  H+  H38  1  0.14136446  0.52771616  1.00067601  1
  H+  H39  1  0.38354338  0.02341219  0.51163631  1
  H+  H40  1  0.61208603  0.30856012  0.14515898  1
  H+  H41  1  -0.03661546  0.35356427  0.64912427  1
  H+  H42  1  0.03052756  0.39016209  -0.00066611  1
  H+  H43  1  0.72053033  0.57473953  0.97171508  1
  H+  H44  1  0.60739493  0.47505331  1.00435237  1
  H+  H45  1  0.28272466  0.13479556  0.82447021  1
  H+  H46  1  0.73726627  0.61306146  0.65499934  1
  H+  H47  1  0.36951349  0.73653838  0.16364787  1
  H+  H48  1  0.91396856  0.12213987  0.84121220  1
  H+  H49  1  0.33428097  0.45424094  1.00643443  1
  H+  H50  1  0.89522713  0.73150331  0.52584157  1
  H+  H51  1  0.00790194  0.66423553  0.34242911  1
  H+  H52  1  0.20048483  0.60750479  0.62248949  1
  H+  H53  1  0.67734676  0.34343475  0.59975985  1
  H+  H54  1  0.47175791  0.36693055  0.98924205  1
  H+  H55  1  0.53083935  0.15852939  0.66964352  1
  H+  H56  1  0.89720293  0.09977119  0.49700644  1
  H+  H57  1  0.54620715  0.12017595  0.83253629  1
  H+  H58  1  1.00263192  0.35026379  0.80760899  1
  H+  H59  1  0.84918961  0.67770332  0.08455316  1
  H+  H60  1  0.38493298  0.35780760  0.33177313  1
  H+  H61  1  0.32426679  0.42141320  0.39761632  1
  H+  H62  1  0.14003153  0.74440564  1.02469236  1
  H+  H63  1  0.73733791  0.58513183  0.18238855  1
  H+  H64  1  0.34048856  0.66755378  0.90987962  1
  H+  H65  1  0.09790662  0.88895502  0.82673306  1
  H+  H66  1  0.19123455  0.59556509  0.48461145  1
  H+  H67  1  0.89149810  0.12321607  0.99351730  1
  H+  H68  1  0.17290782  0.33864572  0.58379712  1
  H+  H69  1  0.38367931  0.51774822  0.82835921  1
  H+  H70  1  0.62668319  0.79487279  0.16914460  1
  H+  H71  1  0.65971165  0.84942765  0.51698964  1
  H+  H72  1  0.61642656  0.08885024  0.49534522  1
  H+  H73  1  0.63334954  0.02901303  0.29602192  1
  H+  H74  1  0.12090682  0.89741777  0.00171514  1
  H+  H75  1  0.62489077  0.76684313  0.32295180  1
  H+  H76  1  0.13397249  0.11045637  0.32584748  1
  H+  H77  1  0.09043344  0.45584473  0.47968275  1
  H+  H78  1  0.13417571  0.77193972  0.66005409  1
  H+  H79  1  0.26321975  0.88872378  0.49211650  1
  H+  H80  1  0.85433741  0.72844001  0.82574681  1
  H+  H81  1  0.60852423  0.38698059  0.01032737  1
  H+  H82  1  0.08121212  -0.02631152  0.34578429  1
  H+  H83  1  0.86761745  0.63014494  0.17228670  1
  H+  H84  1  0.66348317  0.31356388  1.06244871  1
  H+  H85  1  0.79284769  0.50123567  0.98956602  1
  H+  H86  1  0.84811098  0.24027750  0.15061449  1
  H+  H87  1  0.78868138  0.85735704  0.48590460  1
  H+  H88  1  0.77327662  0.89151510  0.15906474  1
  H+  H89  1  0.77950254  0.39319415  0.35144395  1
  H+  H90  1  0.98933368  0.60859844  0.18465496  1
  H+  H91  1  0.61706922  0.90945968  0.15593960  1
  H+  H92  1  0.78663805  0.90418721  -0.00655811  1
  H+  H93  1  0.47858415  0.12456016  0.17548303  1
  H+  H94  1  0.99648079  0.11282956  0.84086634  1
  H+  H95  1  -0.06845642  0.57688142  0.85477067  1
  H+  H96  1  0.38645470  0.34857566  0.65713261  1
  H+  H97  1  0.38414555  0.11414012  0.17884796  1
  H+  H98  1  0.74698564  0.38048267  0.66166072  1
  H+  H99  1  0.66458894  0.32570179  0.28770572  1
  H+  H100  1  0.64694974  0.37760691  0.66076734  1
  H+  H101  1  0.62055989  0.48006392  0.66293171  1
  H+  H102  1  0.63184869  0.35861373  0.34231331  1
  H+  H103  1  0.63675893  0.36627448  0.50897597  1
  H+  H104  1  0.86958020  0.25257003  0.83019861  1
  H+  H105  1  0.62064170  -0.03093686  0.38852109  1
  H+  H106  1  0.85998343  0.88493991  0.84039504  1
  H+  H107  1  0.73600489  0.15476392  0.81747752  1
  H+  H108  1  0.63138602  0.89610533  0.84991154  1
  H+  H109  1  0.51008107  0.71440649  -0.04403761  1
  H+  H110  1  0.89031313  0.26949009  0.98233405  1
  H+  H111  1  0.13938098  0.37009386  0.97638633  1
  H+  H112  1  0.28079101  0.64509074  0.16321998  1
  H+  H113  1  0.39522387  0.37431120  0.50246985  1
  H+  H114  1  0.12527871  0.72608951  0.17691863  1
  H+  H115  1  0.53567432  0.90290366  0.67994598  1
  H+  H116  1  0.22707089  0.35230665  0.17374323  1
  H+  H117  1  0.22456991  0.85939663  0.66911921  1
  H+  H118  1  0.77148902  0.14024346  0.99729901  1
  H+  H119  1  0.71362881  0.60153099  0.33603663  1
  H+  H120  1  0.89263909  0.46965460  0.03293565  1
  H+  H121  1  0.82853459  0.17321203  0.05812541  1
  H+  H122  1  0.76018068  0.13851291  0.49369028  1
  H+  H123  1  0.35530296  0.47403354  0.15490086  1
  H+  H124  1  1.04210905  0.15750552  0.49583627  1
  H+  H125  1  0.38965917  0.86597686  0.33259990  1
  H+  H126  1  0.08479337  0.64096021  0.84224392  1
  H+  H127  1  0.87943633  0.36417481  0.64908372  1
  H+  H128  1  0.39788704  0.90152494  0.83396155  1
  H+  H129  1  0.35747945  0.48433221  0.33382469  1
  H+  H130  1  0.60512058  0.46623610  0.34438719  1
  H+  H131  1  0.12337899  0.96204245  0.15851830  1
  H+  H132  1  0.10663976  0.36877711  0.33161876  1
  H+  H133  1  0.84852507  0.72333022  0.34874619  1
  H+  H134  1  0.32505329  0.40369885  0.72491704  1
  H+  H135  1  0.58310135  0.40872041  0.43621135  1
  H+  H136  1  0.89480679  0.79202590  0.00000121  1
  H+  H137  1  0.13736242  0.36691530  0.64784949  1
  H+  H138  1  0.14053753  0.25895445  0.17521289  1
  H+  H139  1  0.51821818  0.65204839  0.15073306  1
  H+  H140  1  0.08924892  0.15854124  0.10422553  1
  H+  H141  1  0.62120444  0.47549231  0.49140895  1
  H+  H142  1  0.95140448  0.85040795  0.33918890  1
  H+  H143  1  0.13334003  0.34241050  0.82485559  1
  H+  H144  1  -0.03105808  0.86817055  0.83937379  1
  H+  H145  1  0.47772920  0.11429930  0.33109558  1
  H+  H146  1  -0.03324471  0.35877061  0.31594300  1
  H+  H147  1  0.53186969  0.38770437  0.66379918  1
  H+  H148  1  0.83983504  0.44395446  0.82060435  1
  H+  H149  1  0.36203209  0.38281795  0.81548108  1
  H+  H150  1  0.87937244  0.11358503  0.33362865  1
  H+  H151  1  0.28364364  0.89241887  0.15992885  1
  H+  H152  1  0.62253565  0.89318046  -0.00503621  1
  H+  H153  1  0.89430413  0.88010810  0.99255708  1
  H+  H154  1  0.84905871  0.39778246  0.08185460  1
  H+  H155  1  0.13929983  0.65480329  0.02598794  1
  H+  H156  1  0.40180152  0.38780541  0.18060413  1
  H+  H157  1  0.38707381  0.87179553  0.67422504  1
  H+  H158  1  0.60656144  0.21732585  0.00322884  1
  H+  H159  1  0.67061153  0.78752900  0.97087117  1
  H+  H160  1  0.37506237  0.89714676  0.01032215  1
  H+  H161  1  0.36506976  0.48569953  0.48413066  1
  H+  H162  1  0.89387512  0.35828185  0.98378213  1
  H+  H163  1  0.48767775  0.91017250  0.45370850  1
  H+  H164  1  0.63965660  0.02629444  0.97939976  1
  H+  H165  1  0.86827011  0.72376331  0.67798400  1
  H+  H166  1  0.52719181  0.90497829  0.15225831  1
  H+  H167  1  0.15201309  0.86010495  0.16401598  1
  H+  H168  1  0.89197647  0.86153512  0.66748015  1
  H+  H169  1  0.85893787  0.11443049  0.65746129  1
  H+  H170  1  0.39421622  0.78399182  0.99934382  1
  H+  H171  1  0.38823843  0.01533935  0.98980056  1
  H+  H172  1  0.71869371  0.10826333  0.63620905  1
  H+  H173  1  0.13459595  0.09516618  0.17437501  1
  H+  H174  1  0.09685452  0.21243535  0.66761228  1
  H+  H175  1  0.18294201  0.83579488  0.82710182  1
  H+  H176  1  0.36530245  0.45878378  0.66330272  1
  H+  H177  1  -0.03134600  0.63003640  0.00506836  1
  H+  H178  1  0.00767529  0.62677103  0.66365183  1
  H+  H179  1  0.10151705  0.46402290  0.65384907  1
  H+  H180  1  0.33450360  0.65834377  0.63238891  1
  H+  H181  1  0.84794227  0.35975153  0.81296191  1
  H+  H182  1  0.38749954  0.27378632  0.83462947  1
  H+  H183  1  0.86518325  -0.02319935  0.84030060  1
  H+  H184  1  0.27169630  0.38027481  0.81560458  1
  H+  H185  1  0.73370422  0.35539224  0.01303613  1
  H+  H186  1  0.62860552  0.61108767  0.83510729  1
  H+  H187  1  0.14316735  0.59303996  0.33583166  1
  H+  H188  1  0.13482509  0.36059328  0.50208624  1
  H+  H189  1  0.48313715  0.37333588  0.18017826  1
  H+  H190  1  0.14556650  0.02788775  0.83614379  1
  H+  H191  1  0.63544039  1.00651682  0.63962530  1
  H+  H192  1  0.91521895  0.83681333  0.90202555  1
  H+  H193  1  0.88490952  0.80978273  0.50503379  1
  H+  H194  1  0.62131632  0.43645450  0.16349662  1
  H+  H195  1  0.52183373  0.68182291  0.96628523  1
  H+  H196  1  0.76605766  0.14106301  0.32845268  1
  H+  H197  1  0.37099452  0.98233103  0.33484630  1
  H+  H198  1  0.60361823  0.62614855  0.32733615  1
  H+  H199  1  1.00425642  0.13303185  0.67405903  1
  H+  H200  1  0.18365143  0.08817574  0.59235857  1
  H+  H201  1  0.87140090  -0.02163744  0.69726571  1
  H+  H202  1  0.34425704  0.67898561  0.06849977  1
  H+  H203  1  0.73416091  0.86444946  0.86997553  1
  H+  H204  1  0.13405373  0.82701993  0.32512363  1
  H+  H205  1  0.62276932  0.73130857  0.67106859  1
  H+  H206  1  0.61331855  0.13532378  0.33548642  1
  H+  H207  1  0.88039023  1.02534533  0.32597502  1
  H+  H208  1  0.86339891  0.25315392  0.49565586  1
  H+  H209  1  0.03212885  0.89905582  0.00175126  1
  H+  H210  1  0.56409772  0.87037892  0.53180590  1
  H+  H211  1  0.60920600  0.72530302  0.83381221  1
  H+  H212  1  0.22578180  0.64307461  0.86095564  1
  H+  H213  1  0.50021491  0.59883007  0.65107844  1
  H+  H214  1  0.78474012  0.40252435  0.50032692  1
  H+  H215  1  0.12059723  0.38145988  0.15287427  1
  H+  H216  1  0.31342751  0.90292156  0.84808293  1
  H+  H217  1  0.37169704  0.98481410  0.16245239  1
  H+  H218  1  0.38220486  0.23942912  0.01543188  1
  H+  H219  1  0.61378604  0.67166299  0.15379789  1
  H+  H220  1  0.03038673  0.13337405  0.16468048  1
  H+  H221  1  0.88594560  0.93241849  0.48406974  1
  H+  H222  1  0.25916352  0.38173205  0.33189439  1
  H+  H223  1  0.23405720  0.36651259  0.65218273  1
  H+  H224  1  0.36628330  0.72782257  0.34626923  1
  H+  H225  1  0.78186266  0.10091864  0.81006999  1
  H+  H226  1  0.65970513  0.98254638  0.53970051  1
  H+  H227  1  0.65115265  0.61620656  0.65130521  1
  H+  H228  1  0.14471721  0.03706301  0.99154921  1
  H+  H229  1  0.32578679  0.17270006  0.43227904  1
  H+  H230  1  0.86249822  0.48055722  0.67203906  1
  H+  H231  1  0.23597119  0.60457042  0.33764902  1
  H+  H232  1  0.14400828  0.26987538  0.32511516  1
  H+  H233  1  0.24005182  0.13386949  0.50880628  1
  H+  H234  1  0.63942465  0.55981186  0.17721761  1
  H+  H235  1  0.88158692  0.53798363  0.51612717  1
  H+  H236  1  1.02968654  0.89488816  0.67014849  1
  H+  H237  1  0.48277532  0.37069016  0.50463915  1
  H+  H238  1  0.38723189  0.62031916  0.16948468  1
  H+  H239  1  0.51618567  0.37602954  0.34428701  1
  H+  H240  1  0.65550777  0.11731896  0.89505495  1
  H+  H241  1  0.68615781  0.58824873  0.54937605  1
  H+  H242  1  0.36125494  0.59592852  0.99117919  1
  H+  H243  1  0.88289292  0.61142095  0.66890576  1
  H+  H244  1  0.39602245  0.12068394  0.84017632  1
  H+  H245  1  0.37309941  0.21997067  0.66689357  1
  H+  H246  1  0.96519142  0.62911127  0.51710062  1
  H+  H247  1  0.63281234  0.04082590  0.15743145  1
  H+  H248  1  0.27580593  0.39561193  0.48815338  1
  H+  H249  1  0.15167240  0.11818270  0.83348906  1
  H+  H250  1  0.14713994  0.90860757  0.49182513  1
  H+  H251  1  0.35830684  0.62348210  0.70687678  1
  H+  H252  1  0.40029764  0.66641615  0.70611943  1
  H+  H253  1  0.36016159  0.97159139  0.68017193  1
  H+  H254  1  0.21596801  0.35108794  -0.01781908  1
  H+  H255  1  0.76298565  0.88466459  0.33459988  1
  H+  H256  1  0.42425992  0.06975047  0.59838284  1
  H+  H257  1  0.73943481  0.87670354  0.67560797  1
  H+  H258  1  0.13035775  0.77696013  0.51085272  1
  H+  H259  1  0.62328504  0.71498616  0.47885830  1
  H+  H260  1  0.34280329  0.74750666  0.62708726  1
  H+  H261  1  0.12237989  0.22207797  0.82442152  1
  H+  H262  1  0.11185031  0.45858875  0.33773395  1
  H+  H263  1  0.70927932  0.34447002  0.82716859  1
  H+  H264  1  0.63192315  0.10972382  0.98875651  1
  H+  H265  1  0.06320016  0.92262466  0.40719187  1
  H+  H266  1  0.86680853  0.48330724  0.34614514  1
  H+  H267  1  0.35610541  0.89917485  0.48080137  1
  H+  H268  1  0.86605137  0.83975088  0.17512318  1
  H+  H269  1  0.40297024  1.03371746  0.83969678  1
  H+  H270  1  0.12720816  0.14799214  0.49750943  1
  H+  H271  1  0.60731988  0.38684341  0.82084174  1
  H+  H272  1  0.15677092  0.04050874  0.50912758  1
  H+  H273  1  0.65593268  0.84681810  0.23155736  1
  H+  H274  1  0.88448868  0.36942628  0.32643869  1
  H+  H275  1  0.10694536  0.69931288  0.33401393  1
  H+  H276  1  0.47970196  0.11104537  -0.01265748  1
  H+  H277  1  0.14611654  0.27624181  0.50397807  1
  H+  H278  1  0.48409265  0.08114317  0.51449019  1
  H+  H279  1  0.86184820  0.84316263  0.32696395  1
  H+  H280  1  0.35890760  0.13343028  0.34004842  1
  H+  H281  1  0.19573073  0.97992331  0.44254363  1
  H+  H282  1  0.27890377  0.64782470  0.01322002  1
  H+  H283  1  0.97849111  0.20570962  0.20896789  1
  H+  H284  1  0.09803081  0.76623679  0.85597179  1
  H+  H285  1  0.87312807  0.99195830  0.00559045  1
  H+  H286  1  0.72419116  0.12928888  0.15826545  1
  H+  H287  1  0.13980038  0.55515084  0.85632684  1
  H+  H288  1  0.33761430  0.91827414  0.74273594  1
  H+  H289  1  0.69112947  0.87191686  0.61378016  1
  H+  H290  1  0.66556076  0.09944715  0.24527231  1
  H+  H291  1  0.79719423  0.17691845  0.42585115  1
  H+  H292  1  0.62913424  0.70220680  0.05044374  1
  H+  H293  1  0.41214569  0.59276800  0.65795433  1
  H+  H294  1  0.84668316  0.03390413  0.62073784  1
  H+  H295  1  0.42439647  0.34567492  0.27075877  1
  H+  H296  1  0.35001585  0.37433519  0.00660222  1
  H+  H297  1  0.83269895  0.91386526  0.10140699  1
  H+  H298  1  0.09950286  0.91435421  0.09524367  1
  H+  H299  1  0.41696707  0.58548646  0.22562265  1
  H+  H300  1  0.47078735  0.60342391  0.32443934  1
  H+  H301  1  0.14539576  0.61195090  0.18061840  1
  H+  H302  1  0.41965765  0.08106840  0.92052294  1
  H+  H303  1  0.34635504  0.93215361  0.06869022  1
  H+  H304  1  0.59671362  0.92559749  0.05638165  1
  H+  H305  1  0.16775587  0.83704401  0.57096280  1
  H+  H306  1  0.90310299  0.51647335  0.18656404  1
  H+  H307  1  0.43190772  0.58192857  0.55733409  1
  H+  H308  1  0.32437384  0.40607539  0.10021743  1
  H+  H309  1  0.61382074  0.21933059  0.35775498  1
  H+  H310  1  0.66577345  0.56105765  0.27312797  1
  H+  H311  1  0.57645057  0.39820998  0.09969904  1
  H+  H312  1  0.83001544  0.66447805  0.73739674  1
  H+  H313  1  0.07150102  0.39801073  0.71189332  1
  H+  H314  1  0.77852723  0.34627721  0.17109216  1
  H+  H315  1  0.17464860  0.09639328  0.93352381  1
  H+  H316  1  0.21873180  0.10377778  0.32852754  1
  H+  H317  1  0.60164438  0.90300340  0.44098765  1
  H+  H318  1  0.33026147  0.92368346  0.39369996  1
  H+  H319  1  0.57714904  0.10729307  0.43555364  1
  H+  H320  1  0.23520040  0.88626882  0.32090711  1
  H+  H321  1  0.34297183  0.16770471  0.11416565  1
  H+  H322  1  0.93176952  0.12701221  0.56349156  1
  H+  H323  1  0.38699079  0.56057079  0.93214550  1
  H+  H324  1  0.89006939  0.34602470  0.22682453  1
  H+  H325  1  0.68825482  0.78694353  0.55554054  1
  H+  H326  1  0.83219829  0.91407566  0.75302819  1
  H+  H327  1  0.58213869  0.41937026  0.76117457  1
  H+  H328  1  0.47512828  0.86090349  0.34071661  1
  H+  H329  1  0.42637694  0.84476703  0.23327405  1
  H+  H330  1  0.91541582  0.82207895  0.60867070  1
  H+  H331  1  0.93134606  0.09543377  0.93894318  1
  H+  H332  1  0.65387860  0.32202839  0.88666759  1
  H+  H333  1  0.17796408  0.57552454  0.23405464  1
  H+  H334  1  0.85246781  0.71360949  0.17586199  1
  H+  H335  1  0.91159429  0.31532866  0.56238693  1
  H+  H336  1  0.82867538  0.40819386  0.72768202  1
  H+  H337  1  0.62841599  0.52146475  0.83271063  1
  H+  H338  1  0.42041971  0.32963267  0.59593441  1
  H+  H339  1  0.89579280  0.81432897  0.23690997  1
  H+  H340  1  0.90829291  0.58443411  0.60464948  1
  H+  H341  1  0.17394093  0.32541017  0.26124478  1
  H+  H342  1  0.40475282  0.76529280  0.48886257  1
  H+  H343  1  0.14792607  1.02026059  0.65657602  1
  H+  H344  1  0.07841502  0.92298028  0.76493342  1
  H+  H345  1  0.84682038  0.43411015  0.44408412  1
  H+  H346  1  0.17583932  0.84196866  0.93910642  1
  H+  H347  1  0.62427857  0.85234461  0.34053163  1
  H+  H348  1  0.41250741  0.33497889  0.92981328  1
  H+  H349  1  0.06694906  0.68903260  0.43515187  1
  H+  H350  1  0.36282252  0.23682335  0.48965752  1
  H+  H351  1  0.34332505  0.67307490  0.40720482  1
  H+  H352  1  0.52040699  0.63828607  0.82288195  1
  H+  H353  1  0.91276160  0.31808119  0.88681700  1
  H+  H354  1  0.65472498  0.57397338  0.92570264  1
  H+  H355  1  0.61972589  0.16003656  0.15057627  1
  H+  H356  1  0.79177038  0.16084894  0.72038260  1
  H+  H357  1  0.43719687  0.88145866  0.61442672  1
  H+  H358  1  0.25703681  0.65811746  0.75601833  1
  H+  H359  1  0.34475066  0.16367744  0.76622119  1
  H+  H360  1  0.16117160  0.06510310  0.23426005  1
  H+  H361  1  0.08430573  0.64373205  0.71026626  1
  H+  H362  1  0.92195375  0.11724434  0.24059986  1
  H+  H363  1  0.13261315  0.56343658  0.54339717  1
  H+  H364  1  0.18318854  0.84729690  0.22899897  1
  H+  H365  1  0.09082528  0.41592761  0.05918214  1
  H+  H366  1  0.16986400  0.33199696  0.89036405  1
  H+  H367  1  0.42271432  0.08923437  0.26881852  1
  H+  H368  1  0.16616929  0.59847081  0.94833098  1
  H+  H369  1  0.09838918  0.67066564  0.11776255  1
  H+  H370  1  0.47894868  0.93569097  0.51800526  1
  H+  H371  1  0.02938660  0.66143579  0.79483806  1
  H+  H372  1  0.08763757  0.17126242  0.39878600  1
  H+  H373  1  0.28512908  0.70601638  0.75852766  1
  H+  H374  1  0.59276835  0.67150776  0.72925495  1
  H+  H375  1  0.12039579  0.14272027  0.01355340  1
  H+  H376  1  0.06910408  0.39073811  0.42422358  1
  H+  H377  1  0.56991185  0.15800878  0.05965304  1
  H+  H378  1  0.91430058  0.58632825  0.27516878  1
  H+  H379  1  0.08276515  0.16018199  0.76586945  1
  H+  H380  1  0.61418535  0.93483143  0.79007759  1
  H+  H381  1  0.47335798  0.36494917  0.83252474  1
  H+  H382  1  0.84506244  0.53813738  0.89192210  1
  H+  H383  1  0.82929728  0.90541544  0.38933251  1
  O2-  O384  1  0.09033893  0.15728510  0.15169343  1
  O2-  O385  1  0.10188597  0.18175802  0.47958946  1
  O2-  O386  1  0.08978212  0.15995654  0.81095416  1
  O2-  O387  1  0.09634496  0.41464142  0.13426803  1
  O2-  O388  1  0.06914865  0.39394467  0.47024183  1
  O2-  O389  1  0.06142553  0.37743890  0.78735666  1
  O2-  O390  1  0.09251188  0.66404472  0.16362471  1
  O2-  O391  1  0.06976493  0.67994416  0.47982587  1
  O2-  O392  1  0.04287932  0.66177786  0.83781051  1
  O2-  O393  1  0.10267389  0.90491899  0.13932488  1
  O2-  O394  1  0.14511027  0.95584264  0.46869578  1
  O2-  O395  1  0.07303663  0.92297385  0.81008004  1
  O2-  O396  1  0.33410421  0.15533491  0.15851486  1
  O2-  O397  1  0.32456317  0.17622607  0.47755415  1
  O2-  O398  1  0.34510169  0.16587969  0.81131625  1
  O2-  O399  1  0.32778257  0.41184049  0.14603240  1
  O2-  O400  1  0.33345816  0.42517348  0.46841503  1
  O2-  O401  1  0.33139475  0.41199952  0.79781490  1
  O2-  O402  1  0.34126404  0.67678947  0.14726414  1
  O2-  O403  1  0.36782384  0.70240607  0.49157045  1
  O2-  O404  1  0.33173678  0.67583716  0.86704664  1
  O2-  O405  1  0.34514131  0.92578671  0.14428901  1
  O2-  O406  1  0.32048115  0.92539261  0.47201599  1
  O2-  O407  1  0.36205766  0.92858530  0.82026314  1
  O2-  O408  1  0.58509486  0.18672992  0.13465674  1
  O2-  O409  1  0.56301840  0.07198166  0.47332960  1
  O2-  O410  1  0.58355460  0.09653512  0.82172366  1
  O2-  O411  1  0.58037934  0.38206848  0.14273068  1
  O2-  O412  1  0.58651660  0.41217798  0.48194110  1
  O2-  O413  1  0.57810871  0.41878743  0.80615359  1
  O2-  O414  1  0.57822022  0.69211514  0.13534025  1
  O2-  O415  1  0.58846716  0.65503349  0.46303133  1
  O2-  O416  1  0.58199106  0.67210118  0.80948470  1
  O2-  O417  1  0.58686580  0.93723254  0.13560575  1
  O2-  O418  1  0.62198582  0.90294300  0.51515561  1
  O2-  O419  1  0.60436837  0.92845388  0.83393481  1
  O2-  O420  1  0.82499937  0.17962273  0.13713891  1
  O2-  O421  1  0.78776689  0.19095570  0.46850778  1
  O2-  O422  1  0.78778956  0.15553825  0.79727467  1
  O2-  O423  1  0.83985170  0.38794087  0.16337894  1
  O2-  O424  1  0.84560163  0.43778395  0.48905004  1
  O2-  O425  1  0.81558073  0.38732204  0.79758331  1
  O2-  O426  1  0.82843602  0.65081726  0.15889366  1
  O2-  O427  1  0.83176767  0.66286773  0.42924594  1
  O2-  O428  1  0.82630509  0.66988772  0.80820827  1
  O2-  O429  1  0.83131793  0.90606374  0.14590411  1
  O2-  O430  1  0.84515877  0.87843695  0.46482292  1
  O2-  O431  1  0.82744994  0.91565981  0.82817546  1
  O2-  O432  1  0.16449836  0.06453818  0.18911412  1
  O2-  O433  1  0.17878987  0.09842974  0.52862407  1
  O2-  O434  1  0.18304261  0.08884832  0.84827913  1
  O2-  O435  1  0.16759687  0.31974124  0.19151058  1
  O2-  O436  1  0.17158394  0.33825628  0.51975356  1
  O2-  O437  1  0.17150342  0.32407140  0.84312146  1
  O2-  O438  1  0.17905096  0.58206906  0.18954870  1
  O2-  O439  1  0.13131575  0.56347097  0.49745845  1
  O2-  O440  1  0.16146912  0.61530355  0.86598164  1
  O2-  O441  1  0.18462030  0.83378415  0.18476022  1
  O2-  O442  1  0.16722806  0.83759562  0.52565048  1
  O2-  O443  1  0.14209309  0.82888962  0.85878281  1
  O2-  O444  1  0.42128849  0.08730824  0.19300110  1
  O2-  O445  1  0.43037516  0.07368217  0.53311431  1
  O2-  O446  1  0.42765489  0.09214519  0.85820084  1
  O2-  O447  1  0.44664212  0.38649423  0.20628301  1
  O2-  O448  1  0.42183976  0.34240359  0.51959584  1
  O2-  O449  1  0.41262834  0.33493112  0.84744576  1
  O2-  O450  1  0.41850132  0.58885308  0.18081185  1
  O2-  O451  1  0.42718403  0.58698904  0.51246892  1
  O2-  O452  1  0.41663240  0.57648517  0.84649837  1
  O2-  O453  1  0.42568349  0.84431286  0.18831312  1
  O2-  O454  1  0.45123633  0.88677085  0.49009141  1
  O2-  O455  1  0.43870503  0.84904074  0.86180079  1
  O2-  O456  1  0.66269568  0.10195959  0.17273437  1
  O2-  O457  1  0.69746641  0.05265761  0.55349094  1
  O2-  O458  1  0.66117448  0.15218686  0.85750836  1
  O2-  O459  1  0.64806060  0.28010640  0.13717985  1
  O2-  O460  1  0.66996551  0.33940805  0.52759868  1
  O2-  O461  1  0.65118108  0.32794693  0.84290589  1
  O2-  O462  1  0.67625700  0.54221448  0.19748459  1
  O2-  O463  1  0.67981900  0.58105439  0.50458586  1
  O2-  O464  1  0.65823323  0.58071367  0.85048126  1
  O2-  O465  1  0.65904349  0.85370676  0.18671692  1
  O2-  O466  1  0.68866586  0.80977650  0.51519576  1
  O2-  O467  1  0.67294606  0.83170107  0.88538703  1
  O2-  O468  1  0.93573024  0.14633059  0.19990602  1
  O2-  O469  1  0.94656362  0.14160768  0.52025939  1
  O2-  O470  1  0.93520857  0.08591541  0.85739365  1
  O2-  O471  1  0.88440379  0.34126545  0.18105545  1
  O2-  O472  1  0.92018079  0.29712913  0.52066009  1
  O2-  O473  1  0.90985790  0.31344040  0.84112076  1
  O2-  O474  1  0.92718892  0.57688537  0.19830416  1
  O2-  O475  1  0.90758339  0.59610274  0.53582118  1
  O2-  O476  1  0.87153194  0.53042772  0.85501241  1
  O2-  O477  1  0.88931534  0.80413210  0.19262095  1
  O2-  O478  1  0.91006167  0.79003179  0.53651441  1
  O2-  O479  1  0.90968788  0.83544669  0.85639629  1
  O2-  O480  1  0.15810814  0.07379131  0.31380995  1
  O2-  O481  1  0.18557587  0.08186353  0.64076395  1
  O2-  O482  1  0.17225650  0.09787412  0.97821235  1
  O2-  O483  1  0.17593770  0.33044746  0.30844342  1
  O2-  O484  1  0.17217668  0.33896819  0.63305323  1
  O2-  O485  1  0.16515643  0.33855915  0.95695269  1
  O2-  O486  1  0.17644833  0.56761727  0.32100816  1
  O2-  O487  1  0.13842610  0.56419735  0.61872819  1
  O2-  O488  1  0.17486489  0.59146652  0.99169352  1
  O2-  O489  1  0.18020773  0.87349051  0.30161277  1
  O2-  O490  1  0.16618215  0.83423322  0.65048546  1
  O2-  O491  1  0.17895419  0.84551493  0.98382900  1
  O2-  O492  1  0.41835149  0.08575751  0.31466958  1
  O2-  O493  1  0.41637312  0.06881029  0.64681576  1
  O2-  O494  1  0.41858816  0.07619236  0.96986367  1
  O2-  O495  1  0.41525343  0.32927339  0.31607393  1
  O2-  O496  1  0.42227774  0.32520878  0.64147713  1
  O2-  O497  1  0.41118987  0.33510651  0.97502624  1
  O2-  O498  1  0.40752247  0.57383545  0.31295805  1
  O2-  O499  1  0.43933523  0.56514763  0.63573196  1
  O2-  O500  1  0.35185464  0.54403902  0.96927819  1
  O2-  O501  1  0.41870862  0.83218658  0.32090052  1
  O2-  O502  1  0.42137480  0.84878057  0.65226368  1
  O2-  O503  1  0.42427853  0.84485102  0.98389590  1
  O2-  O504  1  0.66449829  0.09120912  0.29131132  1
  O2-  O505  1  0.66374276  0.06483634  0.61228618  1
  O2-  O506  1  0.66623581  0.08802519  0.96755940  1
  O2-  O507  1  0.66600747  0.32936127  0.33196574  1
  O2-  O508  1  0.68072094  0.34840724  0.64611794  1
  O2-  O509  1  0.67085709  0.32751151  1.01783729  1
  O2-  O510  1  0.65555093  0.56847365  0.31683358  1
  O2-  O511  1  0.67850612  0.58393889  0.63580875  1
  O2-  O512  1  0.66459831  0.57305980  0.97084459  1
  O2-  O513  1  0.65280633  0.82974177  0.31421576  1
  O2-  O514  1  0.68078755  0.85144280  0.65582334  1
  O2-  O515  1  0.68192338  0.84533192  0.95225159  1
  O2-  O516  1  0.91292659  0.08825828  0.31662278  1
  O2-  O517  1  0.89004372  0.08451546  0.64235964  1
  O2-  O518  1  0.92495636  0.09422423  0.98370906  1
  O2-  O519  1  0.90585520  0.33502191  0.30379720  1
  O2-  O520  1  0.90290098  0.32690160  0.63473620  1
  O2-  O521  1  0.92171155  0.32899123  0.96443355  1
  O2-  O522  1  0.91237098  0.58905006  0.32056469  1
  O2-  O523  1  0.91179601  0.57989155  0.65155123  1
  O2-  O524  1  0.80668766  0.55262720  0.96618628  1
  O2-  O525  1  0.89227338  0.81007425  0.32116495  1
  O2-  O526  1  0.92449346  0.83385793  0.65363314  1
  O2-  O527  1  0.92285141  0.84732219  0.97787789  1
  O2-  O528  1  0.08965350  0.16727197  0.03665785  1
  O2-  O529  1  0.08416800  0.17128444  0.35360578  1
  O2-  O530  1  0.06332709  0.15788553  0.68895316  1
  O2-  O531  1  0.09073434  0.42344747  0.01355129  1
  O2-  O532  1  0.07509109  0.39673009  0.34826613  1
  O2-  O533  1  0.07619062  0.40237156  0.66626246  1
  O2-  O534  1  0.11677860  0.68884803  0.04597146  1
  O2-  O535  1  0.06669560  0.70784039  0.35839303  1
  O2-  O536  1  0.07399690  0.65590979  0.66895709  1
  O2-  O537  1  0.09248117  0.92919122  0.01646011  1
  O2-  O538  1  0.03620518  0.92390024  0.36870303  1
  O2-  O539  1  0.09114043  0.92722063  0.68462122  1
  O2-  O540  1  0.38112036  0.19260900  0.04003710  1
  O2-  O541  1  0.32573968  0.16139154  0.35354689  1
  O2-  O542  1  0.34129438  0.15981811  0.68312085  1
  O2-  O543  1  0.31406594  0.39644787  0.02497362  1
  O2-  O544  1  0.32350917  0.42046505  0.35062272  1
  O2-  O545  1  0.32277880  0.40044019  0.67824438  1
  O2-  O546  1  0.34183662  0.67976705  0.02296636  1
  O2-  O547  1  0.33863998  0.66734300  0.36254145  1
  O2-  O548  1  0.30930572  0.68758590  0.61024440  1
  O2-  O549  1  0.34674830  0.93101790  0.02246377  1
  O2-  O550  1  0.34011805  0.92084476  0.34936757  1
  O2-  O551  1  0.32936642  0.91186678  0.69782344  1
  O2-  O552  1  0.57122418  0.15520482  0.01402006  1
  O2-  O553  1  0.58424375  0.15598832  0.36359399  1
  O2-  O554  1  0.50263594  0.09576826  0.67169142  1
  O2-  O555  1  0.57607672  0.41558191  0.02218822  1
  O2-  O556  1  0.57683243  0.40581377  0.36024040  1
  O2-  O557  1  0.59239357  0.41952550  0.67894292  1
  O2-  O558  1  0.66732469  0.71700120  0.01515462  1
  O2-  O559  1  0.57314482  0.65676943  0.34166949  1
  O2-  O560  1  0.59603298  0.67059928  0.68385352  1
  O2-  O561  1  0.59309266  0.92312538  0.01091771  1
  O2-  O562  1  0.58400877  0.90821910  0.39778555  1
  O2-  O563  1  0.59900807  0.93860837  0.68473176  1
  O2-  O564  1  0.83171882  0.17116015  0.01287587  1
  O2-  O565  1  0.82080250  0.17052192  0.35168884  1
  O2-  O566  1  0.80083365  0.16245128  0.67507027  1
  O2-  O567  1  0.84923141  0.40911417  0.03737620  1
  O2-  O568  1  0.84163634  0.42306264  0.36146123  1
  O2-  O569  1  0.83127150  0.41638019  0.68126124  1
  O2-  O570  1  0.87560659  0.69560749  0.04274523  1
  O2-  O571  1  0.81650550  0.65788929  0.36286890  1
  O2-  O572  1  0.83452470  0.66261500  0.69083459  1
  O2-  O573  1  0.84146026  0.92895353  0.01575633  1
  O2-  O574  1  0.82518470  0.91475257  0.34517009  1
  O2-  O575  1  0.83627681  0.91708102  0.70686021  1
