# generated using pymatgen
data_H2O
_symmetry_space_group_name_H-M   'P 1'
_cell_length_a   17.98848012
_cell_length_b   17.99137576
_cell_length_c   22.00108072
_cell_angle_alpha   90.00369425
_cell_angle_beta   89.99466231
_cell_angle_gamma   119.97910423
_symmetry_Int_Tables_number   1
_chemical_formula_structural   H2O
_chemical_formula_sum   'H384 O192'
_cell_volume   6167.72348753
_cell_formula_units_Z   192
loop_
 _symmetry_equiv_pos_site_id
 _symmetry_equiv_pos_as_xyz
  1  'x, y, z'
loop_
 _atom_type_symbol
 _atom_type_oxidation_number
  H+  1.0
  O2-  -2.0
loop_
 _atom_site_type_symbol
 _atom_site_label
 _atom_site_symmetry_multiplicity
 _atom_site_fract_x
 _atom_site_fract_y
 _atom_site_fract_z
 _atom_site_occupancy
  H+  H0  1  0.27120433  0.87261191  0.68134301  1
  H+  H1  1  0.36094097  0.22996962  0.33151233  1
  H+  H2  1  0.63659622  0.02737575  1.01065813  1
  H+  H3  1  0.27412296  0.13996612  0.15077295  1
  H+  H4  1  1.01411560  0.62633050  0.83911642  1
  H+  H5  1  0.26198568  0.13630668  0.33928055  1
  H+  H6  1  0.85207978  0.18783406  0.44056251  1
  H+  H7  1  0.74279319  0.87506049  0.30841576  1
  H+  H8  1  0.97610612  0.11577395  0.51083170  1
  H+  H9  1  0.96415309  0.61234514  0.67025148  1
  H+  H10  1  0.64297575  0.28776891  0.66728817  1
  H+  H11  1  -0.04017795  0.60994852  0.48395470  1
  H+  H12  1  0.36534512  0.13648256  0.00331866  1
  H+  H13  1  0.74201490  0.12381582  0.66914334  1
  H+  H14  1  0.73072768  0.37395830  0.33000786  1
  H+  H15  1  0.61516838  0.88300939  0.32503152  1
  H+  H16  1  0.92755466  0.59618416  0.27129617  1
  H+  H17  1  0.66036953  0.05119796  0.51906985  1
  H+  H18  1  0.36773379  0.88817921  0.32726798  1
  H+  H19  1  0.37760371  0.50926009  0.48928747  1
  H+  H20  1  0.72564401  0.59037492  -0.00646729  1
  H+  H21  1  0.07478834  0.79108103  0.14714349  1
  H+  H22  1  0.59969191  0.86026468  0.68005439  1
  H+  H23  1  0.90650237  0.74760109  -0.01935631  1
  H+  H24  1  0.35520216  0.86963625  0.14884923  1
  H+  H25  1  0.13141699  0.03500604  0.12073097  1
  H+  H26  1  0.50198236  0.85712988  0.49188206  1
  H+  H27  1  0.63225165  0.10098045  0.84828127  1
  H+  H28  1  0.22906511  0.62415792  0.15341184  1
  H+  H29  1  0.37446989  0.76002573  0.66945256  1
  H+  H30  1  0.97925839  0.84400982  0.98999703  1
  H+  H31  1  0.04108361  0.56105553  0.45029905  1
  H+  H32  1  0.13008133  0.61171516  0.85557283  1
  H+  H33  1  0.92346180  0.81968856  0.89262516  1
  H+  H34  1  0.35834453  0.13444490  0.33713446  1
  H+  H35  1  0.51755952  0.63660114  0.83592006  1
  H+  H36  1  0.59779571  0.28029717  0.66412298  1
  H+  H37  1  0.86060451  0.13506046  0.67822198  1
  H+  H38  1  0.10444600  0.48216249  0.01228002  1
  H+  H39  1  0.27710444  0.12440885  0.50881785  1
  H+  H40  1  0.34929392  0.62706344  0.69205878  1
  H+  H41  1  0.88465170  0.27941556  -0.00545033  1
  H+  H42  1  0.61666904  0.41466547  0.69746513  1
  H+  H43  1  0.23145900  0.11339776  0.84396587  1
  H+  H44  1  0.97369381  0.36615936  0.17211902  1
  H+  H45  1  0.63523795  0.35863314  0.47213230  1
  H+  H46  1  0.15149949  0.84017294  0.51214180  1
  H+  H47  1  0.62215277  0.09703725  0.30754798  1
  H+  H48  1  0.60943431  0.21937235  0.47469403  1
  H+  H49  1  0.11714104  0.48835709  0.50387741  1
  H+  H50  1  0.49375348  0.63543479  0.29385376  1
  H+  H51  1  0.88249427  0.98033354  0.30640556  1
  H+  H52  1  0.11666029  0.88701183  0.00438821  1
  H+  H53  1  0.22377465  0.84957724  0.83986862  1
  H+  H54  1  0.59111999  0.38933550  0.54854332  1
  H+  H55  1  0.15718911  0.34197132  0.43034872  1
  H+  H56  1  0.66189671  0.33133540  0.38003000  1
  H+  H57  1  0.63910399  0.52584405  0.31496645  1
  H+  H58  1  0.46942446  0.35478672  0.51318296  1
  H+  H59  1  0.11672254  0.74180976  0.34592297  1
  H+  H60  1  0.88422298  0.77936278  0.52636055  1
  H+  H61  1  0.47563010  0.61917892  0.68364049  1
  H+  H62  1  0.47441543  0.36307935  0.16167105  1
  H+  H63  1  0.59896358  0.63296087  0.68678759  1
  H+  H64  1  0.62863934  0.85940647  0.84711214  1
  H+  H65  1  0.87770713  0.25228690  0.34592570  1
  H+  H66  1  0.60848169  0.51621955  0.67886164  1
  H+  H67  1  0.13394228  0.11454433  0.33357466  1
  H+  H68  1  0.50570425  0.09416244  0.68031461  1
  H+  H69  1  0.11257696  -0.10910385  0.17184065  1
  H+  H70  1  0.88455148  0.36625797  0.17212905  1
  H+  H71  1  0.37777052  0.35340950  0.31990063  1
  H+  H72  1  0.88294986  0.36312758  0.84327130  1
  H+  H73  1  0.28366325  0.11976666  0.68180500  1
  H+  H74  1  0.23257914  0.86418233  0.31790083  1
  H+  H75  1  0.72395398  0.35733739  0.46517710  1
  H+  H76  1  0.85765753  0.63717776  0.50907410  1
  H+  H77  1  0.50902218  0.36761903  0.84027926  1
  H+  H78  1  0.38859583  0.09044577  0.66939950  1
  H+  H79  1  0.59687397  0.67863691  0.35365138  1
  H+  H80  1  0.62227141  0.34724159  0.84927147  1
  H+  H81  1  0.51092778  0.87409726  0.82776152  1
  H+  H82  1  0.38753540  0.02068687  0.99640170  1
  H+  H83  1  0.81991072  0.92325433  0.76994109  1
  H+  H84  1  0.47664374  0.11195884  0.98754809  1
  H+  H85  1  0.90169644  0.85421117  0.30115169  1
  H+  H86  1  0.10888276  0.23003889  0.48092612  1
  H+  H87  1  0.33308824  0.45079501  0.34514272  1
  H+  H88  1  0.98665667  0.12352093  0.98831895  1
  H+  H89  1  0.40926678  0.82434916  0.78489831  1
  H+  H90  1  0.35810587  0.12890781  0.83724116  1
  H+  H91  1  0.12774644  0.37417193  0.48559827  1
  H+  H92  1  0.13085572  0.01191462  0.51042092  1
  H+  H93  1  0.83242138  0.66032271  0.57250866  1
  H+  H94  1  0.97266832  0.10544573  0.83538065  1
  H+  H95  1  0.62279510  0.63693832  0.00710154  1
  H+  H96  1  0.54987961  0.14501591  0.11584805  1
  H+  H97  1  0.90225333  0.52589012  0.17745092  1
  H+  H98  1  0.15702479  0.33730519  0.26557212  1
  H+  H99  1  0.60668951  0.21578277  0.33659213  1
  H+  H100  1  0.62294803  0.60514425  0.53088137  1
  H+  H101  1  0.26532215  0.37780680  0.82694594  1
  H+  H102  1  1.02681454  0.38702205  0.66480641  1
  H+  H103  1  0.35428088  0.72915859  -0.00692924  1
  H+  H104  1  0.84000891  0.41973815  0.42367911  1
  H+  H105  1  0.15366545  0.13842672  -0.01231354  1
  H+  H106  1  0.98342694  0.85219069  0.83462549  1
  H+  H107  1  0.35999818  0.72238948  0.49183837  1
  H+  H108  1  0.46765227  0.10126541  0.84604780  1
  H+  H109  1  0.62289777  0.63903608  0.30029539  1
  H+  H110  1  0.35473550  0.47674976  0.67789009  1
  H+  H111  1  0.37714803  0.35481051  0.84503556  1
  H+  H112  1  0.86147359  0.39091559  0.48862866  1
  H+  H113  1  0.01577838  0.64647115  0.01898513  1
  H+  H114  1  0.35474760  0.63081553  0.83548732  1
  H+  H115  1  0.37911251  0.35089406  0.50600224  1
  H+  H116  1  0.87696635  0.72207521  0.82814107  1
  H+  H117  1  0.65149369  0.30974872  0.90426788  1
  H+  H118  1  0.88618439  0.60809137  0.84983689  1
  H+  H119  1  0.89176745  0.13134358  0.16399718  1
  H+  H120  1  0.61118074  0.47268623  0.51345114  1
  H+  H121  1  0.91480127  0.79441448  0.22332622  1
  H+  H122  1  0.66638148  0.07065702  0.90452584  1
  H+  H123  1  0.41003561  0.54621615  0.28911301  1
  H+  H124  1  0.27964718  0.39197092  1.00837383  1
  H+  H125  1  0.11680021  0.15650678  0.14784004  1
  H+  H126  1  0.13711583  0.85409995  0.83722490  1
  H+  H127  1  0.11972833  0.96724948  0.82817482  1
  H+  H128  1  0.64108813  0.56939894  0.61601498  1
  H+  H129  1  0.10350218  0.71576041  0.83317660  1
  H+  H130  1  0.88606760  0.86951839  0.52113618  1
  H+  H131  1  0.36239612  0.21279715  0.50520810  1
  H+  H132  1  0.77182566  0.13975679  0.15277746  1
  H+  H133  1  0.22880068  0.36205731  0.66490530  1
  H+  H134  1  0.17684852  0.09690920  0.92051850  1
  H+  H135  1  0.14013173  0.77786869  0.67736692  1
  H+  H136  1  -0.01380241  0.63034278  0.33221243  1
  H+  H137  1  0.38444186  -0.00174230  0.66534941  1
  H+  H138  1  0.06456680  0.90000234  0.66722529  1
  H+  H139  1  0.61098461  0.39014685  0.33720059  1
  H+  H140  1  0.24920441  0.36261982  0.33381886  1
  H+  H141  1  0.60093444  0.71865730  0.53604631  1
  H+  H142  1  0.48937853  0.87659273  0.14353810  1
  H+  H143  1  0.38803359  0.85738068  0.50995535  1
  H+  H144  1  0.87195762  -0.00947396  0.15382953  1
  H+  H145  1  0.59663624  0.45836729  0.84188048  1
  H+  H146  1  0.10697092  0.06802902  0.55192612  1
  H+  H147  1  0.74755656  0.62231299  0.68107838  1
  H+  H148  1  0.63284304  0.02615299  0.14738506  1
  H+  H149  1  0.83310932  0.71461417  0.67930561  1
  H+  H150  1  0.77290867  0.47997211  0.67901633  1
  H+  H151  1  0.85293456  0.98483190  0.83478977  1
  H+  H152  1  0.86546837  0.40037950  0.01213996  1
  H+  H153  1  0.23093877  0.60754641  0.67575969  1
  H+  H154  1  0.89290741  0.76420890  0.32030652  1
  H+  H155  1  0.15715742  0.87488038  0.67741559  1
  H+  H156  1  0.07810156  0.41919925  0.10260688  1
  H+  H157  1  0.63335022  0.10353389  0.67144964  1
  H+  H158  1  0.60422489  0.21061330  0.83312788  1
  H+  H159  1  0.89166457  0.12385644  0.51298707  1
  H+  H160  1  0.16647959  0.82605410  0.93091210  1
  H+  H161  1  0.61396505  0.76256003  0.67388578  1
  H+  H162  1  0.76862055  0.38464153  0.83922112  1
  H+  H163  1  0.86910634  0.61752599  0.15770888  1
  H+  H164  1  0.46380108  0.36530311  0.66795485  1
  H+  H165  1  0.10878605  0.39669067  0.34145544  1
  H+  H166  1  0.59490702  0.38566602  0.00775300  1
  H+  H167  1  0.13860905  0.77402215  0.99420082  1
  H+  H168  1  0.71502891  0.60790902  0.52505458  1
  H+  H169  1  0.33630787  0.16654812  0.06266706  1
  H+  H170  1  0.74586682  0.43193582  0.74066363  1
  H+  H171  1  0.16648700  0.81268734  0.26364885  1
  H+  H172  1  0.39126620  0.28327094  0.99684810  1
  H+  H173  1  0.78939842  0.15867738  0.49918210  1
  H+  H174  1  0.37166621  0.64975335  0.13913928  1
  H+  H175  1  0.77729195  -0.01127119  1.03966481  1
  H+  H176  1  0.12181470  0.34150790  0.82975291  1
  H+  H177  1  0.07982391  0.14825876  0.76762828  1
  H+  H178  1  0.38087614  0.51808073  0.84214005  1
  H+  H179  1  0.90576418  0.37253847  0.67016241  1
  H+  H180  1  0.89447721  0.17476819  0.34906157  1
  H+  H181  1  0.14716752  0.01606892  0.67591781  1
  H+  H182  1  0.83871247  0.06594410  0.29975548  1
  H+  H183  1  0.37819507  0.85102122  0.66871594  1
  H+  H184  1  0.36106322  0.72485078  0.83038961  1
  H+  H185  1  0.87884808  0.27214404  0.84126468  1
  H+  H186  1  0.11715822  0.38647484  0.66675328  1
  H+  H187  1  0.03114105  0.88520298  0.33776881  1
  H+  H188  1  0.87142490  0.14753165  1.00241008  1
  H+  H189  1  0.12204380  -0.10596302  0.33893951  1
  H+  H190  1  0.11734284  0.26948160  0.32144275  1
  H+  H191  1  0.46662133  0.11358580  0.32678498  1
  H+  H192  1  0.48400784  0.37592299  0.99968649  1
  H+  H193  1  0.36605775  0.09831480  0.17404271  1
  H+  H194  1  0.93960015  0.84517290  0.68284001  1
  H+  H195  1  0.89650945  0.28851938  0.50967032  1
  H+  H196  1  0.76750741  0.13025893  0.82991578  1
  H+  H197  1  0.59327648  0.88856256  0.03849453  1
  H+  H198  1  0.62230874  1.00961456  0.30690887  1
  H+  H199  1  0.85958301  0.23224866  0.15753127  1
  H+  H200  1  0.85932174  0.98597358  0.51177198  1
  H+  H201  1  0.89196351  0.48508493  0.68966476  1
  H+  H202  1  0.60888533  0.72465844  0.83927778  1
  H+  H203  1  0.11714367  0.12661237  0.67729135  1
  H+  H204  1  0.13505097  0.54065085  0.33015814  1
  H+  H205  1  0.64313361  0.51478121  0.15696802  1
  H+  H206  1  0.13464956  0.50924802  0.66214290  1
  H+  H207  1  0.23339857  0.62087631  0.51316836  1
  H+  H208  1  0.14057630  0.61415784  0.51643957  1
  H+  H209  1  0.13857304  0.37764599  0.17352406  1
  H+  H210  1  0.83904348  0.42513646  0.10302295  1
  H+  H211  1  0.27306942  0.88535462  -0.00177231  1
  H+  H212  1  0.61735792  0.59301662  0.84945246  1
  H+  H213  1  0.75662070  0.88951449  0.83719246  1
  H+  H214  1  0.10971307  0.48461319  0.15773748  1
  H+  H215  1  0.86110350  0.98444537  0.68756687  1
  H+  H216  1  0.41034524  0.82085306  0.57107847  1
  H+  H217  1  0.72982024  0.11124747  -0.00149458  1
  H+  H218  1  0.33289484  0.42065567  0.10048290  1
  H+  H219  1  0.51403438  0.62971695  0.52455029  1
  H+  H220  1  0.02605351  0.88356531  0.50293390  1
  H+  H221  1  0.56969445  0.41250963  0.08835536  1
  H+  H222  1  0.37540924  0.85443097  0.98080411  1
  H+  H223  1  0.73039257  0.61206335  0.31852245  1
  H+  H224  1  0.36360635  0.87845804  0.82942417  1
  H+  H225  1  0.38539621  0.77854774  0.30659447  1
  H+  H226  1  0.57683104  0.94404997  0.46691590  1
  H+  H227  1  0.39182377  0.10655819  0.51522561  1
  H+  H228  1  0.60530493  -0.03438314  0.83216665  1
  H+  H229  1  0.10721650  0.21009400  0.82550644  1
  H+  H230  1  0.36549190  0.22721493  0.15653637  1
  H+  H231  1  0.38113049  0.74842458  0.14046149  1
  H+  H232  1  0.77816395  0.90858842  0.15157518  1
  H+  H233  1  0.36696275  0.64777706  0.32869536  1
  H+  H234  1  0.89314468  0.27755641  0.66146703  1
  H+  H235  1  0.86912639  0.40114907  0.33011283  1
  H+  H236  1  0.38925407  0.52472183  0.99797951  1
  H+  H237  1  0.47670398  0.86227938  0.30601814  1
  H+  H238  1  0.60102132  0.38148505  0.14990071  1
  H+  H239  1  0.11511203  0.21538532  0.67762329  1
  H+  H240  1  0.13150213  0.61818386  1.00937884  1
  H+  H241  1  0.35802496  0.96627344  0.83328274  1
  H+  H242  1  0.35507560  0.63134144  0.48404697  1
  H+  H243  1  0.35814641  0.21925244  0.83644097  1
  H+  H244  1  0.36367391  0.39393905  0.15973814  1
  H+  H245  1  0.36844757  0.38822083  0.00843105  1
  H+  H246  1  0.33778666  0.67546670  0.38949207  1
  H+  H247  1  0.43725601  0.07129093  0.17947307  1
  H+  H248  1  0.57721222  0.66700881  0.74944484  1
  H+  H249  1  0.86927989  0.52651291  0.48123346  1
  H+  H250  1  0.09988877  0.63270563  0.68340851  1
  H+  H251  1  0.50513706  0.86824395  0.68455247  1
  H+  H252  1  0.63196931  0.77399113  -0.00151755  1
  H+  H253  1  0.87733251  0.72243252  0.15860430  1
  H+  H254  1  0.38568127  0.53516902  0.15521944  1
  H+  H255  1  0.97875003  0.38033047  0.32308038  1
  H+  H256  1  0.24244861  0.12980655  0.98934183  1
  H+  H257  1  0.26838426  0.38010869  0.48433263  1
  H+  H258  1  0.64288927  0.12946248  0.50968760  1
  H+  H259  1  0.22887672  0.37772215  0.17463404  1
  H+  H260  1  0.62419819  0.85518108  0.51261913  1
  H+  H261  1  0.97769140  0.11271861  0.66778340  1
  H+  H262  1  0.63984383  0.27526290  0.16754419  1
  H+  H263  1  0.32303334  0.93649697  0.15972280  1
  H+  H264  1  0.23953719  0.84801056  0.49938770  1
  H+  H265  1  0.22424097  0.62728258  0.32573678  1
  H+  H266  1  0.13329970  0.38533973  0.99199204  1
  H+  H267  1  0.53329531  0.63616418  1.00530058  1
  H+  H268  1  0.63136676  0.14291906  0.14296294  1
  H+  H269  1  0.13647582  0.10775890  0.84224892  1
  H+  H270  1  0.62822696  0.51149243  0.00167468  1
  H+  H271  1  -0.01458737  0.13801230  0.16493978  1
  H+  H272  1  0.11651069  0.65265265  0.34346928  1
  H+  H273  1  0.35888959  0.38860603  0.67351190  1
  H+  H274  1  0.65457540  0.78851938  0.29957836  1
  H+  H275  1  0.20438055  0.78821491  0.16576218  1
  H+  H276  1  0.53273441  0.66906274  0.14931667  1
  H+  H277  1  0.01594968  0.37057826  0.82345480  1
  H+  H278  1  0.22082826  0.61617050  0.85840596  1
  H+  H279  1  1.00592032  0.13276648  0.33310267  1
  H+  H280  1  0.38086785  0.97755772  0.49224841  1
  H+  H281  1  0.84665595  0.88888608  0.68855123  1
  H+  H282  1  0.12471291  0.24522536  -0.00362087  1
  H+  H283  1  0.77925484  0.39575242  0.16288361  1
  H+  H284  1  0.86802743  0.63621878  0.34110464  1
  H+  H285  1  0.87137827  0.49203827  0.33598049  1
  H+  H286  1  0.71668376  0.86530729  0.52637080  1
  H+  H287  1  0.64507388  0.89492193  0.14741124  1
  H+  H288  1  0.57211664  0.14138025  0.77835287  1
  H+  H289  1  0.83501601  0.65239793  0.77478094  1
  H+  H290  1  0.42420534  0.07239423  0.57140149  1
  H+  H291  1  0.41212210  0.57746212  0.90192577  1
  H+  H292  1  0.06975699  0.65770867  0.74400316  1
  H+  H293  1  0.85996034  0.63411101  0.05410799  1
  H+  H294  1  0.70056587  0.37550735  0.57650222  1
  H+  H295  1  0.91476037  0.33764910  0.93510262  1
  H+  H296  1  0.11799884  0.14538860  0.48359508  1
  H+  H297  1  0.59161979  0.63822731  0.42829321  1
  H+  H298  1  0.86355965  0.48869611  0.01664341  1
  H+  H299  1  0.39782200  0.07718640  0.27136715  1
  H+  H300  1  0.57506459  0.15015474  0.39179749  1
  H+  H301  1  0.86674372  0.42576404  0.74988514  1
  H+  H302  1  0.88996184  0.04073889  0.99337047  1
  H+  H303  1  0.09798932  0.91783834  0.76354597  1
  H+  H304  1  0.13829309  0.02722257  0.33779650  1
  H+  H305  1  0.62267110  0.14055151  -0.01606214  1
  H+  H306  1  0.60107836  0.69247921  0.09883316  1
  H+  H307  1  0.09812055  0.19177457  0.05807254  1
  H+  H308  1  0.65604438  0.07473520  0.21353193  1
  H+  H309  1  0.43178763  0.62220407  0.62368480  1
  H+  H310  1  0.40670997  0.07327712  0.90418503  1
  H+  H311  1  0.33554962  0.90562948  0.73960550  1
  H+  H312  1  1.01653269  0.39023257  1.00698235  1
  H+  H313  1  0.08114189  0.68699643  0.07582719  1
  H+  H314  1  0.83105562  0.66271775  0.39792868  1
  H+  H315  1  0.02249427  0.40203623  0.50102362  1
  H+  H316  1  0.40796361  0.33558700  0.60654264  1
  H+  H317  1  0.15115708  0.31666660  0.89111267  1
  H+  H318  1  0.06314924  0.16245991  0.39373936  1
  H+  H319  1  -0.02336875  0.81860768  0.16360338  1
  H+  H320  1  0.64586480  0.80837411  0.15951862  1
  H+  H321  1  0.08082214  0.42890435  0.40113109  1
  H+  H322  1  0.52461267  0.12992221  0.49540577  1
  H+  H323  1  0.08374892  0.90975079  0.44296970  1
  H+  H324  1  0.91947712  0.08793372  0.89734180  1
  H+  H325  1  0.26192180  0.63774642  0.00682370  1
  H+  H326  1  0.57077239  0.90211115  0.74564895  1
  H+  H327  1  0.56601494  0.89031534  0.38212916  1
  H+  H328  1  0.82770655  0.16438799  0.73767387  1
  H+  H329  1  0.66002423  0.83522776  0.90894280  1
  H+  H330  1  0.32593594  0.39387814  0.42782423  1
  H+  H331  1  0.15586316  0.63632015  0.18113662  1
  H+  H332  1  0.91071687  0.58205299  0.91469216  1
  H+  H333  1  0.17000531  0.32360296  0.60601326  1
  H+  H334  1  0.07528739  0.40057535  0.76400767  1
  H+  H335  1  0.32801086  0.41227177  0.77014033  1
  H+  H336  1  0.20906979  0.41914929  0.94513296  1
  H+  H337  1  0.90371848  0.83509634  0.61487629  1
  H+  H338  1  0.67982189  0.10394812  0.60451534  1
  H+  H339  1  0.64167790  0.82522462  0.61349537  1
  H+  H340  1  0.64840779  0.56340970  0.90788327  1
  H+  H341  1  0.13585550  0.04801472  0.19118806  1
  H+  H342  1  0.41772261  0.60527171  0.20797226  1
  H+  H343  1  0.87003079  0.92251209  0.36299193  1
  H+  H344  1  0.18481205  0.08262336  0.61658762  1
  H+  H345  1  0.91790533  0.34235916  0.26354773  1
  H+  H346  1  0.47046325  0.35982123  0.32121382  1
  H+  H347  1  0.38812099  0.61313203  0.99401134  1
  H+  H348  1  0.31303479  0.65343117  0.75152336  1
  H+  H349  1  0.36207151  0.97346217  0.33769553  1
  H+  H350  1  0.17633138  0.58685495  0.60603348  1
  H+  H351  1  0.40817191  0.33168272  0.90751209  1
  H+  H352  1  0.41583623  0.33162688  0.22231069  1
  H+  H353  1  0.57672979  0.42471807  0.39006123  1
  H+  H354  1  0.85753159  0.47677143  0.84456546  1
  H+  H355  1  0.33769866  0.68071242  0.07114516  1
  H+  H356  1  0.39720191  0.81889561  0.92074082  1
  H+  H357  1  0.91707594  0.08678572  0.60933831  1
  H+  H358  1  0.07651264  0.88596655  0.06708051  1
  H+  H359  1  0.65609870  0.32851188  0.22839395  1
  H+  H360  1  0.71055518  0.87033610  1.00054402  1
  H+  H361  1  0.63732299  0.23337523  0.05320374  1
  H+  H362  1  0.91124208  0.09298413  0.24855595  1
  H+  H363  1  0.83765043  0.17183008  0.06335345  1
  H+  H364  1  0.81475650  0.91913132  0.45850452  1
  H+  H365  1  0.68171514  0.57603295  0.21487889  1
  H+  H366  1  0.68719263  0.32898506  0.57189978  1
  H+  H367  1  0.98521726  0.62506710  0.17800159  1
  H+  H368  1  0.87440117  0.60880859  0.66976741  1
  H+  H369  1  0.34256338  0.14788613  0.73941928  1
  H+  H370  1  0.15967062  0.58979015  0.94715696  1
  H+  H371  1  0.35196049  0.91762390  0.43185319  1
  H+  H372  1  0.77567619  0.61376757  0.14813923  1
  H+  H373  1  0.55982208  0.41098377  0.75134038  1
  H+  H374  1  0.85941105  0.13611993  0.82720455  1
  H+  H375  1  0.43110541  0.84027252  0.20808194  1
  H+  H376  1  0.59096255  0.18513436  0.68752115  1
  H+  H377  1  0.12160149  0.24842133  0.15534810  1
  H+  H378  1  0.08313156  0.65764913  0.43741378  1
  H+  H379  1  0.82499082  0.94551733  0.07150182  1
  H+  H380  1  0.91953869  0.34651228  0.56924035  1
  H+  H381  1  0.63563321  0.67808311  0.42987951  1
  H+  H382  1  0.37308343  0.54701744  0.55090385  1
  H+  H383  1  0.32756411  0.90513827  0.05865672  1
  O2-  O384  1  0.08983412  0.19032666  0.13524224  1
  O2-  O385  1  0.07893701  0.16709744  0.47220514  1
  O2-  O386  1  0.07792474  0.14780546  0.81331892  1
  O2-  O387  1  0.08056265  0.42162597  0.14806062  1
  O2-  O388  1  0.08289502  0.43100035  0.48397407  1
  O2-  O389  1  0.07428345  0.38822867  0.80761241  1
  O2-  O390  1  0.07873368  0.71718663  0.15203657  1
  O2-  O391  1  0.06342071  0.61538398  0.47193984  1
  O2-  O392  1  0.07238496  0.65426514  0.81957554  1
  O2-  O393  1  0.06948298  0.84964371  0.14421353  1
  O2-  O394  1  0.08605906  0.91349987  0.48791725  1
  O2-  O395  1  0.09316197  0.90965150  0.81017129  1
  O2-  O396  1  0.33617469  0.16521388  0.14264738  1
  O2-  O397  1  0.33589841  0.15151364  0.49330764  1
  O2-  O398  1  0.32704280  0.15841113  0.82154903  1
  O2-  O399  1  0.33343262  0.42501006  0.14617591  1
  O2-  O400  1  0.32959580  0.40364606  0.47260987  1
  O2-  O401  1  0.32722887  0.41143642  0.81553880  1
  O2-  O402  1  0.34482229  0.68535944  0.12454718  1
  O2-  O403  1  0.32641917  0.66424045  0.47245144  1
  O2-  O404  1  0.32307546  0.66003868  0.82115250  1
  O2-  O405  1  0.30794975  0.88232163  0.13894826  1
  O2-  O406  1  0.35666153  0.91761529  0.47683858  1
  O2-  O407  1  0.32903622  0.90667730  0.81672902  1
  O2-  O408  1  0.60995370  0.18250593  0.12611795  1
  O2-  O409  1  0.58311653  0.15538719  0.47531329  1
  O2-  O410  1  0.57428891  0.14791195  0.82325816  1
  O2-  O411  1  0.56993174  0.41116549  0.13699408  1
  O2-  O412  1  0.58420075  0.40772198  0.50813610  1
  O2-  O413  1  0.56981197  0.39684392  0.82562708  1
  O2-  O414  1  0.59488897  0.70273175  0.14235679  1
  O2-  O415  1  0.57048051  0.65616389  0.54464677  1
  O2-  O416  1  0.57860658  0.66561119  0.82176614  1
  O2-  O417  1  0.57762886  0.92936643  0.11840562  1
  O2-  O418  1  0.55959865  0.88360585  0.46988026  1
  O2-  O419  1  0.57686841  0.90569496  0.81612467  1
  O2-  O420  1  0.83388294  0.17275261  0.14030468  1
  O2-  O421  1  0.85023866  0.18401346  0.48667993  1
  O2-  O422  1  0.82673031  0.16381136  0.81195709  1
  O2-  O423  1  0.84010550  0.42351453  0.14992011  1
  O2-  O424  1  0.82888762  0.41576792  0.46872997  1
  O2-  O425  1  0.82854013  0.41800158  0.82417525  1
  O2-  O426  1  0.84078711  0.64638413  0.13569136  1
  O2-  O427  1  0.82794841  0.66798417  0.52884589  1
  O2-  O428  1  0.84748632  0.65841251  0.81838294  1
  O2-  O429  1  0.83938605  0.93237451  0.13652917  1
  O2-  O430  1  0.82551002  0.92237005  0.50208700  1
  O2-  O431  1  0.81737485  0.92337322  0.81875177  1
  O2-  O432  1  0.15548644  0.07876304  0.15268479  1
  O2-  O433  1  0.15256456  0.07347065  0.52502334  1
  O2-  O434  1  0.17056213  0.08356584  0.86220798  1
  O2-  O435  1  0.16802530  0.34628727  0.18956611  1
  O2-  O436  1  0.15725903  0.33984857  0.47476114  1
  O2-  O437  1  0.15519496  0.31328860  0.84667254  1
  O2-  O438  1  0.16851428  0.59255948  0.16552330  1
  O2-  O439  1  0.17660033  0.59168024  0.53518267  1
  O2-  O440  1  0.16300944  0.58867539  0.87715214  1
  O2-  O441  1  0.15603299  0.74440276  0.19092974  1
  O2-  O442  1  0.17835528  0.80546591  0.50428307  1
  O2-  O443  1  0.16301375  0.82022617  0.85456010  1
  O2-  O444  1  0.38040574  0.05656046  0.19417522  1
  O2-  O445  1  0.42726822  0.07887744  0.52619335  1
  O2-  O446  1  0.40602917  0.07254792  0.85861047  1
  O2-  O447  1  0.41221450  0.33115325  0.17743406  1
  O2-  O448  1  0.40817032  0.32230732  0.52528683  1
  O2-  O449  1  0.40402625  0.32245841  0.86206608  1
  O2-  O450  1  0.41350962  0.59849224  0.16302227  1
  O2-  O451  1  0.39696050  0.56567967  0.51027981  1
  O2-  O452  1  0.41050800  0.57898749  0.85644846  1
  O2-  O453  1  0.42744282  0.83865131  0.16277091  1
  O2-  O454  1  0.41151278  0.82010496  0.52575674  1
  O2-  O455  1  0.41531693  0.82552750  0.82905475  1
  O2-  O456  1  0.66477372  0.08470029  0.16810825  1
  O2-  O457  1  0.68253403  0.11082047  0.53078906  1
  O2-  O458  1  0.66545374  0.07176663  0.85918926  1
  O2-  O459  1  0.66329292  0.33432822  0.18438098  1
  O2-  O460  1  0.66062802  0.32533287  0.45445711  1
  O2-  O461  1  0.65503769  0.31666763  0.86014632  1
  O2-  O462  1  0.68647384  0.57414784  0.17033426  1
  O2-  O463  1  0.65264853  0.57011155  0.53361894  1
  O2-  O464  1  0.63597325  0.55292602  0.86359907  1
  O2-  O465  1  0.67816311  0.87146107  0.16819131  1
  O2-  O466  1  0.65487169  0.83243169  0.53729687  1
  O2-  O467  1  0.66367497  0.83405359  0.86308076  1
  O2-  O468  1  0.92564237  0.10498009  0.18093929  1
  O2-  O469  1  0.91746406  0.08901931  0.52862437  1
  O2-  O470  1  0.91291699  0.08221832  0.85179461  1
  O2-  O471  1  0.91310424  0.33354359  0.18718561  1
  O2-  O472  1  0.92151638  0.34949190  0.52358469  1
  O2-  O473  1  0.91334667  0.33204132  0.85640315  1
  O2-  O474  1  0.92620231  0.58544476  0.19436881  1
  O2-  O475  1  0.89794770  0.59020770  0.47909065  1
  O2-  O476  1  0.91234149  0.57456893  0.86943713  1
  O2-  O477  1  0.91359528  0.79083788  0.17744201  1
  O2-  O478  1  0.91788168  0.84177994  0.53715733  1
  O2-  O479  1  0.92236419  0.82163826  0.84718913  1
  O2-  O480  1  0.16993957  0.08868482  0.32404160  1
  O2-  O481  1  0.17552435  0.08348578  0.66029960  1
  O2-  O482  1  0.18172151  0.10589930  0.97177817  1
  O2-  O483  1  0.15410071  0.33190763  0.31148431  1
  O2-  O484  1  0.16647871  0.32780520  0.64997336  1
  O2-  O485  1  0.17394795  0.36890654  0.97045336  1
  O2-  O486  1  0.16202890  0.60139632  0.31791858  1
  O2-  O487  1  0.16974314  0.57662321  0.65245361  1
  O2-  O488  1  0.16165057  0.58791728  0.99397541  1
  O2-  O489  1  0.17147278  0.83848111  0.30427959  1
  O2-  O490  1  0.18024901  0.83674457  0.66322938  1
  O2-  O491  1  0.17236723  0.83268531  0.97634135  1
  O2-  O492  1  0.40364449  0.08488775  0.31648457  1
  O2-  O493  1  0.41956826  0.06016710  0.65175866  1
  O2-  O494  1  0.41332017  0.08145103  0.98118092  1
  O2-  O495  1  0.41018834  0.32509916  0.30583921  1
  O2-  O496  1  0.40543565  0.34333165  0.65089847  1
  O2-  O497  1  0.41776114  0.34346925  0.98289199  1
  O2-  O498  1  0.42950823  0.60716561  0.28621873  1
  O2-  O499  1  0.41612332  0.59471553  0.66346212  1
  O2-  O500  1  0.41900765  0.58373696  0.97997887  1
  O2-  O501  1  0.41697896  0.83760966  0.28926788  1
  O2-  O502  1  0.40893475  0.81915718  0.65337065  1
  O2-  O503  1  0.39616980  0.81580038  0.96525347  1
  O2-  O504  1  0.64986833  0.06758463  0.28842190  1
  O2-  O505  1  0.67845001  0.09252658  0.64982062  1
  O2-  O506  1  0.66844893  0.07946241  0.98464697  1
  O2-  O507  1  0.66646253  0.33839413  0.33428725  1
  O2-  O508  1  0.72282691  0.43827230  0.70211006  1
  O2-  O509  1  0.63805660  0.25248606  1.01062187  1
  O2-  O510  1  0.67364731  0.58423757  0.29751684  1
  O2-  O511  1  0.64177594  0.57595305  0.66089222  1
  O2-  O512  1  0.66554267  0.57344979  0.98582919  1
  O2-  O513  1  0.68063466  0.84790763  0.31465462  1
  O2-  O514  1  0.63745378  0.82330696  0.65891766  1
  O2-  O515  1  0.65081448  0.83439035  0.98556605  1
  O2-  O516  1  0.89820214  0.07938959  0.29458994  1
  O2-  O517  1  0.91617266  0.08714746  0.65461705  1
  O2-  O518  1  0.92724199  0.09777739  0.97258118  1
  O2-  O519  1  0.91786196  0.34757409  0.30917709  1
  O2-  O520  1  0.92601354  0.33685037  0.64568287  1
  O2-  O521  1  0.91639404  0.34024099  0.98059017  1
  O2-  O522  1  0.92495020  0.59765770  0.31678396  1
  O2-  O523  1  0.90336661  0.57675829  0.65652838  1
  O2-  O524  1  0.91225738  0.59266699  0.99318253  1
  O2-  O525  1  0.92892167  0.81796406  0.29667853  1
  O2-  O526  1  0.88713082  0.82521566  0.65913718  1
  O2-  O527  1  0.92230791  0.80710032  0.97079979  1
  O2-  O528  1  0.10005972  0.18669264  0.01256155  1
  O2-  O529  1  0.06546317  0.16502194  0.34830435  1
  O2-  O530  1  0.08244150  0.15455047  0.69058856  1
  O2-  O531  1  0.07719106  0.41962087  0.02342519  1
  O2-  O532  1  0.08044131  0.42856238  0.35597159  1
  O2-  O533  1  0.08905432  0.42036469  0.67875238  1
  O2-  O534  1  0.07823937  0.67421514  0.03144407  1
  O2-  O535  1  0.08486518  0.68155801  0.36091947  1
  O2-  O536  1  0.07060046  0.66264966  0.69816482  1
  O2-  O537  1  0.08377197  0.91008137  0.02577479  1
  O2-  O538  1  0.08872176  0.91932684  0.35667811  1
  O2-  O539  1  0.11224295  0.93257294  0.69466213  1
  O2-  O540  1  0.33474197  0.16743965  0.01736375  1
  O2-  O541  1  0.32856449  0.16898078  0.34891389  1
  O2-  O542  1  0.34333836  0.13878307  0.69520809  1
  O2-  O543  1  0.33840453  0.42020199  0.02487418  1
  O2-  O544  1  0.31079730  0.38938327  0.34998885  1
  O2-  O545  1  0.32396791  0.41585493  0.69029386  1
  O2-  O546  1  0.32682853  0.66969539  0.01550522  1
  O2-  O547  1  0.33746325  0.67771607  0.34432753  1
  O2-  O548  1  0.31188680  0.65122243  0.70422608  1
  O2-  O549  1  0.33420433  0.91507790  0.01401104  1
  O2-  O550  1  0.33539509  0.91207902  0.34914672  1
  O2-  O551  1  0.33586097  0.90132474  0.69404811  1
  O2-  O552  1  0.58771849  0.17006233  -0.02087368  1
  O2-  O553  1  0.57057735  0.15427842  0.34693928  1
  O2-  O554  1  0.56845465  0.12456459  0.69859622  1
  O2-  O555  1  0.56748882  0.41694332  0.02292919  1
  O2-  O556  1  0.57623786  0.41921391  0.34587331  1
  O2-  O557  1  0.56418946  0.41833997  0.70568003  1
  O2-  O558  1  0.59372864  0.67000135  0.01878143  1
  O2-  O559  1  0.59329143  0.67309300  0.30929391  1
  O2-  O560  1  0.57131385  0.66564146  0.70327981  1
  O2-  O561  1  0.57466556  0.92968711  0.05078792  1
  O2-  O562  1  0.57410284  0.90300725  0.33832316  1
  O2-  O563  1  0.56699126  0.89756239  0.69876967  1
  O2-  O564  1  0.83494403  0.17085452  0.01774529  1
  O2-  O565  1  0.85945447  0.19640120  0.36711960  1
  O2-  O566  1  0.82745155  0.16392703  0.69137770  1
  O2-  O567  1  0.83678982  0.42823183  0.03251957  1
  O2-  O568  1  0.83798115  0.42976068  0.34751333  1
  O2-  O569  1  0.88727657  0.43185877  0.70736508  1
  O2-  O570  1  0.85955708  0.63280814  0.00897497  1
  O2-  O571  1  0.83217652  0.66350911  0.35356353  1
  O2-  O572  1  0.81118795  0.65295493  0.68723378  1
  O2-  O573  1  0.80869505  0.95950355  0.02862083  1
  O2-  O574  1  0.86188815  0.91944178  0.31914627  1
  O2-  O575  1  0.82660581  0.92657834  0.70621708  1
