# generated using pymatgen
data_H2O
_symmetry_space_group_name_H-M   'P 1'
_cell_length_a   17.99291814
_cell_length_b   17.99232735
_cell_length_c   22.00511873
_cell_angle_alpha   90.00692090
_cell_angle_beta   89.99190941
_cell_angle_gamma   119.98134672
_symmetry_Int_Tables_number   1
_chemical_formula_structural   H2O
_chemical_formula_sum   'H384 O192'
_cell_volume   6170.56443208
_cell_formula_units_Z   192
loop_
 _symmetry_equiv_pos_site_id
 _symmetry_equiv_pos_as_xyz
  1  'x, y, z'
loop_
 _atom_type_symbol
 _atom_type_oxidation_number
  H+  1.0
  O2-  -2.0
loop_
 _atom_site_type_symbol
 _atom_site_label
 _atom_site_symmetry_multiplicity
 _atom_site_fract_x
 _atom_site_fract_y
 _atom_site_fract_z
 _atom_site_occupancy
  H+  H0  1  0.12942611  0.89430388  -0.00948355  1
  H+  H1  1  0.52204570  0.37780739  0.51153421  1
  H+  H2  1  0.11878682  0.90827577  0.15194046  1
  H+  H3  1  0.59903085  0.17053149  0.61600091  1
  H+  H4  1  0.48516331  0.36575031  -0.01805542  1
  H+  H5  1  0.96135533  0.08612747  0.98511272  1
  H+  H6  1  0.14846376  0.60901946  0.62463774  1
  H+  H7  1  0.67021513  0.31097263  0.67907817  1
  H+  H8  1  -0.00970870  0.43860374  0.39242311  1
  H+  H9  1  0.14057329  0.77935542  0.50491986  1
  H+  H10  1  0.27234521  0.63201113  1.00364440  1
  H+  H11  1  0.36487081  0.38984994  0.66293344  1
  H+  H12  1  0.86456496  0.40082854  0.33324187  1
  H+  H13  1  0.32636089  0.43059025  0.34370236  1
  H+  H14  1  0.89337234  0.13287376  0.66270440  1
  H+  H15  1  0.38565804  0.77178390  0.17580955  1
  H+  H16  1  0.37816439  0.49905558  0.82210007  1
  H+  H17  1  0.37797864  0.20889888  0.49529998  1
  H+  H18  1  -0.02070573  0.34576402  -0.00895853  1
  H+  H19  1  0.15354636  0.53527868  0.53172658  1
  H+  H20  1  0.02901115  0.60612593  0.66777415  1
  H+  H21  1  0.80140362  0.42235251  0.67424494  1
  H+  H22  1  0.37161231  0.92371712  0.49167427  1
  H+  H23  1  0.83222375  0.75411136  0.97326060  1
  H+  H24  1  0.37213317  0.73139326  0.34922044  1
  H+  H25  1  0.60131363  0.43815144  0.60013452  1
  H+  H26  1  0.12588433  0.25675419  0.67514630  1
  H+  H27  1  0.42157791  0.15981083  -0.01933945  1
  H+  H28  1  0.97759534  0.12334957  0.66740584  1
  H+  H29  1  0.12610003  0.63960431  0.82333121  1
  H+  H30  1  0.35835324  0.97466820  0.82771334  1
  H+  H31  1  0.36087592  0.06917789  1.00132449  1
  H+  H32  1  0.13607844  0.27307378  0.50826461  1
  H+  H33  1  -0.04397308  0.61514132  0.18485281  1
  H+  H34  1  0.82925499  0.16675860  0.73379943  1
  H+  H35  1  0.11166425  0.70056294  0.66224742  1
  H+  H36  1  0.22252760  0.84306841  0.66128740  1
  H+  H37  1  0.60317136  0.97667084  0.01021339  1
  H+  H38  1  0.01061677  0.88970229  0.28905706  1
  H+  H39  1  -0.02537453  0.10587033  0.17679498  1
  H+  H40  1  0.36148856  0.37651117  0.01273078  1
  H+  H41  1  0.61188947  0.71226609  0.34443762  1
  H+  H42  1  0.52745875  0.13866241  0.15839886  1
  H+  H43  1  0.64521507  0.35144464  0.52793609  1
  H+  H44  1  0.85714199  0.47087872  0.50065902  1
  H+  H45  1  0.87142238  0.37733414  1.00090674  1
  H+  H46  1  0.01307412  0.87548740  0.53095227  1
  H+  H47  1  0.39002724  0.63219896  0.65919699  1
  H+  H48  1  0.15784712  0.78645231  0.14930887  1
  H+  H49  1  0.61674347  -0.02961206  0.68222267  1
  H+  H50  1  0.14366502  0.27628031  0.95056101  1
  H+  H51  1  0.27521088  0.90582782  0.49123675  1
  H+  H52  1  0.47788377  0.88584705  0.49961673  1
  H+  H53  1  0.50975350  0.89325148  0.01339127  1
  H+  H54  1  0.76787397  0.63614687  0.49141833  1
  H+  H55  1  0.11543577  0.37503057  0.99569683  1
  H+  H56  1  0.39335839  0.03203655  0.15716158  1
  H+  H57  1  0.66795596  0.90822540  0.62745242  1
  H+  H58  1  0.64728571  0.35249753  0.32087662  1
  H+  H59  1  0.11766578  0.77891962  0.16592452  1
  H+  H60  1  0.36254244  0.10285560  0.65765034  1
  H+  H61  1  0.39035627  0.25209570  0.82435717  1
  H+  H62  1  0.31141885  0.16539157  0.06779901  1
  H+  H63  1  0.62178841  0.13777193  0.34409436  1
  H+  H64  1  0.25383040  0.92808595  0.17232856  1
  H+  H65  1  0.50446239  0.09778963  0.62155774  1
  H+  H66  1  0.10780743  -0.05676548  0.65565865  1
  H+  H67  1  0.73323873  0.84333321  0.49359285  1
  H+  H68  1  0.12613684  0.59147008  0.14368509  1
  H+  H69  1  0.06878611  -0.04350978  0.13505439  1
  H+  H70  1  0.73125614  0.85643623  0.17811652  1
  H+  H71  1  0.64504137  0.61485374  1.00697796  1
  H+  H72  1  0.52672230  0.37620160  0.31735722  1
  H+  H73  1  0.61282093  0.75295263  0.65645620  1
  H+  H74  1  0.90290779  0.06580266  0.50553365  1
  H+  H75  1  0.12884378  0.34642097  0.16827654  1
  H+  H76  1  0.03520356  0.39469354  0.35954734  1
  H+  H77  1  0.71390655  0.11521013  0.50261794  1
  H+  H78  1  0.36201074  0.04432485  0.49227670  1
  H+  H79  1  0.13126780  0.54248584  0.36455297  1
  H+  H80  1  0.62187793  0.09368177  0.52742326  1
  H+  H81  1  0.38241985  0.93813430  -0.00587144  1
  H+  H82  1  0.09883969  0.89027910  0.29558886  1
  H+  H83  1  0.60750738  0.85666565  0.99401666  1
  H+  H84  1  0.87660281  0.49462562  0.34930390  1
  H+  H85  1  0.61387125  0.87777647  0.48375691  1
  H+  H86  1  -0.03634366  0.09697730  0.33033233  1
  H+  H87  1  0.27001484  0.36994610  0.01003726  1
  H+  H88  1  0.73192794  0.88206516  0.65311330  1
  H+  H89  1  0.38070520  0.86605166  0.84367952  1
  H+  H90  1  0.98702417  0.37371053  0.67180475  1
  H+  H91  1  0.33585196  0.92507487  0.39530518  1
  H+  H92  1  0.01846942  0.62290401  -0.00568456  1
  H+  H93  1  0.51838609  0.65598473  0.66101650  1
  H+  H94  1  0.88175812  1.02107793  0.83730526  1
  H+  H95  1  0.33283885  0.67783475  0.72256777  1
  H+  H96  1  0.11116200  0.66486575  0.35019605  1
  H+  H97  1  0.86808604  0.10528757  0.84104514  1
  H+  H98  1  0.95816920  0.83263486  0.14874553  1
  H+  H99  1  0.84072041  0.92832201  0.49142134  1
  H+  H100  1  0.37784007  0.08036960  0.59087732  1
  H+  H101  1  0.61610628  0.23586577  0.85502358  1
  H+  H102  1  0.39829347  0.62921279  0.98964150  1
  H+  H103  1  0.88030174  0.76686921  0.31140777  1
  H+  H104  1  0.89108592  0.80845090  0.24562888  1
  H+  H105  1  0.21096082  0.10057017  0.66409650  1
  H+  H106  1  0.48516160  0.62111546  0.50294528  1
  H+  H107  1  0.09412078  0.13425995  0.74807673  1
  H+  H108  1  0.63319765  0.54862068  0.65714039  1
  H+  H109  1  0.47532317  0.85680121  0.32957471  1
  H+  H110  1  0.07238302  0.13885186  0.10385326  1
  H+  H111  1  0.61716220  0.96854778  0.48672452  1
  H+  H112  1  0.16125886  0.87504056  0.36390921  1
  H+  H113  1  0.14190533  0.10864995  0.17818130  1
  H+  H114  1  0.64653624  0.53502115  0.17375522  1
  H+  H115  1  0.38742481  0.27625948  0.32503264  1
  H+  H116  1  0.12795350  0.36839546  0.51713661  1
  H+  H117  1  0.88388143  0.10701198  0.17569665  1
  H+  H118  1  0.37188084  0.14747367  0.15135714  1
  H+  H119  1  0.59063444  0.16832759  0.10189048  1
  H+  H120  1  0.53111504  0.40561437  0.16426429  1
  H+  H121  1  0.12659033  1.02154950  0.31398252  1
  H+  H122  1  0.87880009  0.60322395  0.49962446  1
  H+  H123  1  0.13326828  0.77035932  0.83047893  1
  H+  H124  1  0.84571732  0.21746319  0.32338097  1
  H+  H125  1  0.13678180  0.86369103  0.52503433  1
  H+  H126  1  0.87345692  0.56373908  0.67854000  1
  H+  H127  1  0.95783849  0.33706648  0.83902198  1
  H+  H128  1  0.33287776  0.41850283  0.60771480  1
  H+  H129  1  0.52072099  0.89465910  0.16782246  1
  H+  H130  1  0.77248748  0.63744538  0.33402666  1
  H+  H131  1  0.87747040  0.09819359  0.98847642  1
  H+  H132  1  0.60794075  0.96653975  0.33360944  1
  H+  H133  1  0.22176033  0.85947868  0.83361809  1
  H+  H134  1  0.28640151  0.15157950  0.16277120  1
  H+  H135  1  0.72425517  0.10596640  0.99918905  1
  H+  H136  1  0.72980506  0.36087558  0.83933931  1
  H+  H137  1  0.85414660  0.49245822  0.20203958  1
  H+  H138  1  0.63676567  0.76324363  0.17650061  1
  H+  H139  1  0.76682325  0.12244293  0.16208092  1
  H+  H140  1  0.28176227  0.64765692  0.81975595  1
  H+  H141  1  0.05622399  0.44586157  0.81390321  1
  H+  H142  1  0.64734956  0.62365120  0.17315377  1
  H+  H143  1  0.36824498  0.73847619  0.81982367  1
  H+  H144  1  0.87189832  0.46539027  1.01181290  1
  H+  H145  1  0.16904520  0.33964622  0.33419206  1
  H+  H146  1  0.08676347  0.67864744  0.14079361  1
  H+  H147  1  0.03351474  0.38571684  0.52305709  1
  H+  H148  1  0.61559642  0.47416925  0.99531007  1
  H+  H149  1  0.90574718  0.07693253  0.90870769  1
  H+  H150  1  0.85853566  0.71001943  0.10726931  1
  H+  H151  1  0.53034478  0.39166364  0.83798742  1
  H+  H152  1  0.39104584  0.78842969  0.65395089  1
  H+  H153  1  0.64544626  0.52290422  0.31203653  1
  H+  H154  1  0.18512946  0.36506311  0.92395401  1
  H+  H155  1  0.04293174  0.14656428  0.50215337  1
  H+  H156  1  0.39468338  0.54347935  0.65884342  1
  H+  H157  1  0.23096309  0.39134275  0.82961375  1
  H+  H158  1  0.17360850  0.10536425  0.27728436  1
  H+  H159  1  0.98216723  0.83053050  0.66371372  1
  H+  H160  1  0.87063802  0.47611552  0.83518821  1
  H+  H161  1  0.21384816  0.34407481  0.66253338  1
  H+  H162  1  0.86588913  0.91221926  0.65671541  1
  H+  H163  1  0.08697827  0.19491964  0.34683908  1
  H+  H164  1  0.33826460  0.15980080  0.39718220  1
  H+  H165  1  0.51137699  0.14754894  0.49007841  1
  H+  H166  1  0.85996761  -0.03018683  0.16798108  1
  H+  H167  1  0.10752108  0.21041351  0.15681254  1
  H+  H168  1  0.89470841  0.81560983  0.69090409  1
  H+  H169  1  0.47108900  0.87043953  0.85365349  1
  H+  H170  1  0.63488176  0.41483053  0.65757374  1
  H+  H171  1  0.38547397  0.47920180  0.49683251  1
  H+  H172  1  0.26857797  0.13620063  0.34523579  1
  H+  H173  1  0.09275511  0.11088111  0.34801955  1
  H+  H174  1  0.25066790  0.11764532  0.50983608  1
  H+  H175  1  0.63358660  1.02322533  0.17577661  1
  H+  H176  1  0.77075035  0.61769049  0.67797116  1
  H+  H177  1  0.63035415  0.62409718  0.50975182  1
  H+  H178  1  0.87973745  0.11358623  0.32286894  1
  H+  H179  1  0.16657795  0.82074382  -0.07574049  1
  H+  H180  1  0.61938448  0.72872027  0.01045389  1
  H+  H181  1  0.38571047  0.85788455  0.33253659  1
  H+  H182  1  0.89822541  0.61211150  0.84126246  1
  H+  H183  1  0.66032093  0.63369698  0.85069564  1
  H+  H184  1  0.21508559  0.28903663  0.31483010  1
  H+  H185  1  0.48886229  0.66418743  0.84884596  1
  H+  H186  1  0.62037796  0.22965403  0.00698367  1
  H+  H187  1  0.36546364  0.88630371  0.15962862  1
  H+  H188  1  0.79368781  0.64885285  0.83476508  1
  H+  H189  1  0.86726478  0.68935328  0.67563298  1
  H+  H190  1  0.39703589  0.63857228  0.82260488  1
  H+  H191  1  0.12166072  0.25449817  0.86364515  1
  H+  H192  1  0.85949403  0.15663836  0.48594036  1
  H+  H193  1  0.47501820  0.87843122  0.66525398  1
  H+  H194  1  0.88858569  0.62048944  0.33874719  1
  H+  H195  1  0.72486131  0.84976682  0.32930754  1
  H+  H196  1  0.15981944  0.53840086  0.82605085  1
  H+  H197  1  0.10633517  0.38173379  0.67610762  1
  H+  H198  1  0.22919904  0.83929645  0.98071879  1
  H+  H199  1  0.71835744  0.36744571  0.18449242  1
  H+  H200  1  0.11076926  0.46243138  0.14908281  1
  H+  H201  1  0.89297669  0.33333890  0.25113008  1
  H+  H202  1  0.87936455  0.35503830  0.84119665  1
  H+  H203  1  0.68100528  0.04629662  0.59506739  1
  H+  H204  1  0.14437013  0.39934766  0.82836575  1
  H+  H205  1  0.85960706  0.71831338  0.49371623  1
  H+  H206  1  0.91396788  0.08162681  0.25877294  1
  H+  H207  1  0.53334278  0.64138409  0.00797420  1
  H+  H208  1  0.37507578  0.62944771  0.49865338  1
  H+  H209  1  0.63171084  0.53702452  0.52417863  1
  H+  H210  1  0.61780638  0.62758554  0.34328770  1
  H+  H211  1  0.52849862  0.14248357  0.00840057  1
  H+  H212  1  0.01874843  0.37740746  0.14605307  1
  H+  H213  1  0.86493463  0.23593450  0.67916935  1
  H+  H214  1  0.87343201  0.83795547  0.14722710  1
  H+  H215  1  0.27396480  0.88344078  0.33862958  1
  H+  H216  1  0.10801038  0.15751883  -0.00162651  1
  H+  H217  1  0.09640330  0.95744812  0.50771688  1
  H+  H218  1  0.28322772  0.64186422  0.35403706  1
  H+  H219  1  0.38079070  0.02072727  0.31292925  1
  H+  H220  1  0.61539689  0.74259395  0.84940404  1
  H+  H221  1  0.98163728  0.86993160  0.82843572  1
  H+  H222  1  0.39147493  0.11741653  0.84316681  1
  H+  H223  1  0.39116889  0.62596725  0.32078143  1
  H+  H224  1  0.85279239  0.20990817  0.14499916  1
  H+  H225  1  0.60974758  0.72608440  0.49013963  1
  H+  H226  1  0.98462209  0.63210833  0.34350635  1
  H+  H227  1  0.49231836  0.35972525  0.65055615  1
  H+  H228  1  0.19846611  0.12326274  0.80643624  1
  H+  H229  1  0.73839009  0.35985496  0.99961577  1
  H+  H230  1  0.74635653  0.91404225  0.84962488  1
  H+  H231  1  0.60839457  0.22061336  0.50039510  1
  H+  H232  1  0.27649910  0.63307369  0.14809484  1
  H+  H233  1  0.11495097  0.65134110  0.49092091  1
  H+  H234  1  0.52413239  0.64086220  0.15962126  1
  H+  H235  1  0.62050314  0.47176391  0.84985456  1
  H+  H236  1  0.28295732  0.63798023  0.50453474  1
  H+  H237  1  0.37850096  0.51923705  0.17244566  1
  H+  H238  1  0.67062812  0.82205742  0.24574257  1
  H+  H239  1  0.40639015  0.08113708  0.90565311  1
  H+  H240  1  0.61528695  0.13399522  0.86009216  1
  H+  H241  1  0.37896717  0.10793386  0.31291024  1
  H+  H242  1  0.33933447  0.21649006  0.67797112  1
  H+  H243  1  0.14081046  0.51359765  -0.01393564  1
  H+  H244  1  0.84674597  0.21291707  0.82889682  1
  H+  H245  1  0.75757891  0.12656984  0.82923143  1
  H+  H246  1  0.36045959  0.88976171  0.67319534  1
  H+  H247  1  0.62237293  0.74994682  0.81560321  1
  H+  H248  1  0.62398009  0.92168848  0.84436194  1
  H+  H249  1  0.42483562  0.86901420  0.56064241  1
  H+  H250  1  0.34508738  -0.03055577  0.66984278  1
  H+  H251  1  0.27275122  0.38791532  0.16216016  1
  H+  H252  1  0.86855957  0.89197347  0.81798497  1
  H+  H253  1  0.86571486  0.99895992  0.66542097  1
  H+  H254  1  0.84770610  0.86711217  0.33547836  1
  H+  H255  1  0.45194557  0.26361637  0.63561960  1
  H+  H256  1  0.58875302  0.87706387  0.70236913  1
  H+  H257  1  0.38492047  0.36857602  0.17437278  1
  H+  H258  1  0.88763290  0.60472650  0.99507897  1
  H+  H259  1  0.64050231  0.24491459  0.34705743  1
  H+  H260  1  0.63551892  0.85331667  0.32273225  1
  H+  H261  1  0.11444490  0.07896879  0.65231739  1
  H+  H262  1  0.89682388  0.77784814  0.82604489  1
  H+  H263  1  0.86688125  0.83612408  0.51303257  1
  H+  H264  1  0.42196252  0.55375850  0.31937872  1
  H+  H265  1  0.16024540  0.13076924  0.50695284  1
  H+  H266  1  0.11488576  0.85842025  0.66508771  1
  H+  H267  1  0.73696591  0.35695169  0.51618121  1
  H+  H268  1  0.74305565  0.07998481  0.65279563  1
  H+  H269  1  0.84603196  0.42669029  0.77289744  1
  H+  H270  1  0.71767874  0.10357822  0.32443104  1
  H+  H271  1  0.40109221  0.40963252  0.33464461  1
  H+  H272  1  0.64049645  0.11632370  0.17409532  1
  H+  H273  1  0.79800299  0.29904525  0.26724267  1
  H+  H274  1  0.39468008  0.35514072  0.50265293  1
  H+  H275  1  0.62351997  0.02948766  0.85072165  1
  H+  H276  1  0.04288765  0.18167471  0.75642031  1
  H+  H277  1  0.90155598  0.38287910  0.66851745  1
  H+  H278  1  0.51669832  0.58652735  0.80387148  1
  H+  H279  1  0.07223058  0.06290590  0.01728728  1
  H+  H280  1  0.74123217  0.69821010  0.89596795  1
  H+  H281  1  0.51615122  0.13720122  0.85627746  1
  H+  H282  1  0.87498060  0.43845113  0.15895990  1
  H+  H283  1  0.28414935  0.65027725  0.65638792  1
  H+  H284  1  0.58071981  0.65691407  0.43332983  1
  H+  H285  1  0.64087868  0.36422768  0.84534579  1
  H+  H286  1  0.86253699  0.20887589  0.00864945  1
  H+  H287  1  0.95119952  0.26780012  0.55575208  1
  H+  H288  1  0.11690975  0.16462922  0.86777287  1
  H+  H289  1  0.81460967  0.87722334  0.40144890  1
  H+  H290  1  0.33051967  0.91704777  0.76679149  1
  H+  H291  1  0.08610337  0.40249344  0.05643697  1
  H+  H292  1  0.19909609  0.90616913  0.23218156  1
  H+  H293  1  0.21268781  0.01617830  1.01990001  1
  H+  H294  1  0.82826082  0.67183274  0.39542585  1
  H+  H295  1  0.37447081  0.43134545  0.43532056  1
  H+  H296  1  0.17071566  0.81746934  0.59811876  1
  H+  H297  1  0.58407991  0.90880050  0.39334918  1
  H+  H298  1  0.67047686  0.61310116  0.60276585  1
  H+  H299  1  0.77528311  0.63045453  1.01632957  1
  H+  H300  1  0.68820945  0.88784292  0.90965121  1
  H+  H301  1  0.93084360  0.33246051  0.58866495  1
  H+  H302  1  0.12445135  0.77617116  0.34191065  1
  H+  H303  1  0.35217435  0.72773970  0.00641781  1
  H+  H304  1  0.91996319  0.60137165  0.25251108  1
  H+  H305  1  0.83755783  0.92764302  0.76220065  1
  H+  H306  1  0.57723552  0.92293174  0.10811856  1
  H+  H307  1  0.09647698  0.94528541  0.40633929  1
  H+  H308  1  0.66190345  0.82505125  0.55112360  1
  H+  H309  1  0.34690981  0.44071731  0.76428187  1
  H+  H310  1  0.39073368  0.28205129  0.17015718  1
  H+  H311  1  0.11913288  0.02929377  0.80281455  1
  H+  H312  1  0.83325199  0.32179972  0.14820796  1
  H+  H313  1  0.18625917  0.59167677  0.89115638  1
  H+  H314  1  0.08397846  0.42432259  0.46084920  1
  H+  H315  1  0.41206993  0.59077251  0.24388059  1
  H+  H316  1  0.33982549  0.90100703  0.09389439  1
  H+  H317  1  0.08261316  0.68423636  0.43098798  1
  H+  H318  1  0.41352106  0.31487838  0.56260513  1
  H+  H319  1  0.91426712  0.57368549  0.93469313  1
  H+  H320  1  0.33987823  0.66482432  0.43720741  1
  H+  H321  1  0.86254147  0.81003668  0.91375809  1
  H+  H322  1  0.67489418  0.59272737  0.25896661  1
  H+  H323  1  0.73981031  0.36738892  0.34304040  1
  H+  H324  1  0.58804487  0.41330547  0.37264569  1
  H+  H325  1  0.83183698  0.17361154  0.38949913  1
  H+  H326  1  0.82736069  0.40950426  0.44373543  1
  H+  H327  1  0.42446203  0.59554503  0.93158719  1
  H+  H328  1  0.08883420  0.65479943  0.76232534  1
  H+  H329  1  0.17884629  0.08799843  0.57162487  1
  H+  H330  1  0.68180622  0.33528592  0.93870946  1
  H+  H331  1  0.34281383  0.66931122  0.09418150  1
  H+  H332  1  0.16582177  0.58038419  0.20451234  1
  H+  H333  1  0.91159865  0.31266751  0.93605003  1
  H+  H334  1  0.32447253  0.16480086  0.73809091  1
  H+  H335  1  0.63824884  0.11461646  0.99953639  1
  H+  H336  1  0.39246223  0.27802674  0.98716213  1
  H+  H337  1  0.42596615  0.59613273  0.56467785  1
  H+  H338  1  0.08886487  0.16071850  0.43883211  1
  H+  H339  1  0.82841631  0.14243557  0.06509543  1
  H+  H340  1  0.17241575  0.04057777  0.19788007  1
  H+  H341  1  0.59928071  0.14438304  0.73415574  1
  H+  H342  1  0.63382271  0.27822686  0.17113098  1
  H+  H343  1  0.41555249  0.34047506  0.89865167  1
  H+  H344  1  0.09443202  0.91885271  0.04788810  1
  H+  H345  1  0.85408568  0.23954367  0.48743534  1
  H+  H346  1  -0.12140350  0.34792456  0.08674241  1
  H+  H347  1  0.68161344  0.59651795  0.94701519  1
  H+  H348  1  0.15768294  0.31357245  0.22655659  1
  H+  H349  1  0.61812799  0.65925420  0.66121301  1
  H+  H350  1  0.57606923  0.56956132  0.76053662  1
  H+  H351  1  0.09597062  0.43499697  0.73093267  1
  H+  H352  1  0.66570627  0.08636380  0.91170255  1
  H+  H353  1  0.41426885  0.33249586  0.26211454  1
  H+  H354  1  0.69086662  0.34257079  0.60952501  1
  H+  H355  1  0.58373735  0.17601463  0.73022840  1
  H+  H356  1  0.44115856  0.22117311  0.78422837  1
  H+  H357  1  0.98494556  0.60779882  0.83991336  1
  H+  H358  1  0.14999013  0.31673530  0.57740854  1
  H+  H359  1  0.38105188  0.61315278  0.16734859  1
  H+  H360  1  0.58594937  0.67343166  0.10073130  1
  H+  H361  1  0.83777443  0.65111255  0.77041736  1
  H+  H362  1  0.89579053  0.80482475  0.57443599  1
  H+  H363  1  0.59027834  0.16995549  0.40764366  1
  H+  H364  1  0.39269179  0.37593437  0.83735074  1
  H+  H365  1  0.61252915  0.42996685  0.47641515  1
  H+  H366  1  0.39505593  0.83867008  0.93927633  1
  H+  H367  1  0.15722538  0.59052882  0.30280085  1
  H+  H368  1  0.41297694  0.08443815  0.21937680  1
  H+  H369  1  0.13651438  0.60039063  0.98554947  1
  H+  H370  1  0.11706208  0.89403404  0.82096454  1
  H+  H371  1  0.61735082  0.38557088  -0.00608955  1
  H+  H372  1  0.33149759  0.41424876  0.10258776  1
  H+  H373  1  0.12123695  0.92553538  0.41983120  1
  H+  H374  1  0.65824957  0.08112825  0.26581900  1
  H+  H375  1  0.61485437  0.39882111  0.16288212  1
  H+  H376  1  0.11000674  0.71178000  -0.00496714  1
  H+  H377  1  0.57536744  0.93107104  0.78493216  1
  H+  H378  1  0.06651504  0.63059215  0.07842174  1
  H+  H379  1  0.93135434  0.11358437  0.56867526  1
  H+  H380  1  0.08711769  0.90866541  0.75661398  1
  H+  H381  1  0.57113631  0.78292441  0.94615768  1
  H+  H382  1  0.40882960  0.82578517  0.23791670  1
  H+  H383  1  -0.03089452  0.60903486  0.50250449  1
  O2-  O384  1  0.07586009  0.14710064  0.14868128  1
  O2-  O385  1  0.10162507  0.17251272  0.48379128  1
  O2-  O386  1  0.09852988  0.20097559  0.88834599  1
  O2-  O387  1  0.07997420  0.40003995  0.13782644  1
  O2-  O388  1  0.09431193  0.41998992  0.50482972  1
  O2-  O389  1  0.11093268  0.45368378  0.79992987  1
  O2-  O390  1  0.06199163  0.62033411  0.12426380  1
  O2-  O391  1  0.08317113  0.67997055  0.47912008  1
  O2-  O392  1  0.08878419  0.66218104  0.80695634  1
  O2-  O393  1  0.06972678  0.90376273  0.12695691  1
  O2-  O394  1  0.07656391  0.91207220  0.53800218  1
  O2-  O395  1  0.08819983  0.92268584  0.80069092  1
  O2-  O396  1  0.34198434  0.18048099  0.14061460  1
  O2-  O397  1  0.34198432  0.14679241  0.48289365  1
  O2-  O398  1  0.38439391  0.19869110  0.80255176  1
  O2-  O399  1  0.33340570  0.42338948  0.14903600  1
  O2-  O400  1  0.36345065  0.42108053  0.47950885  1
  O2-  O401  1  0.34828740  0.43847607  0.80847420  1
  O2-  O402  1  0.33936598  0.66514803  0.14006778  1
  O2-  O403  1  0.34086198  0.66075496  0.48388041  1
  O2-  O404  1  0.34215414  0.68063788  0.80054569  1
  O2-  O405  1  0.34180704  0.91795000  0.13664549  1
  O2-  O406  1  0.33387404  0.94617412  0.47486539  1
  O2-  O407  1  0.32960579  0.91470290  0.81252943  1
  O2-  O408  1  0.58980911  0.16718831  0.14709960  1
  O2-  O409  1  0.57111657  0.16596273  0.47839689  1
  O2-  O410  1  0.58144719  0.16951325  0.85873093  1
  O2-  O411  1  0.59084769  0.43590558  0.15003500  1
  O2-  O412  1  0.58690639  0.41544439  0.51685220  1
  O2-  O413  1  0.59237867  0.41733426  0.82800457  1
  O2-  O414  1  0.58450473  0.67476007  0.14671959  1
  O2-  O415  1  0.57648671  0.66081003  0.47982098  1
  O2-  O416  1  0.56610766  0.57734576  0.80283923  1
  O2-  O417  1  0.58052403  0.92827138  0.15289234  1
  O2-  O418  1  0.58467219  0.90991326  0.46933136  1
  O2-  O419  1  0.57590530  0.93226624  0.83025401  1
  O2-  O420  1  0.82725139  0.14692330  0.14492139  1
  O2-  O421  1  0.82670579  0.18206238  0.46850401  1
  O2-  O422  1  0.81737592  0.15278669  0.81289747  1
  O2-  O423  1  0.83739838  0.43012455  0.19334740  1
  O2-  O424  1  0.82476226  0.40793564  0.48855128  1
  O2-  O425  1  0.83897894  0.41612220  0.81748770  1
  O2-  O426  1  0.84615992  0.65469923  0.08792562  1
  O2-  O427  1  0.82593514  0.66058070  0.47382100  1
  O2-  O428  1  0.84997311  0.66679680  0.81415921  1
  O2-  O429  1  0.82656343  0.91048082  0.15086901  1
  O2-  O430  1  0.81061258  0.86810066  0.48029364  1
  O2-  O431  1  0.84083226  0.92692882  0.80694310  1
  O2-  O432  1  0.18680959  0.10087460  0.19933092  1
  O2-  O433  1  0.18897213  0.09899499  0.52481370  1
  O2-  O434  1  0.13681273  0.09185249  0.79905268  1
  O2-  O435  1  0.16029589  0.31656847  0.18182634  1
  O2-  O436  1  0.15534601  0.32830420  0.53165708  1
  O2-  O437  1  0.17238281  0.36537721  0.84601476  1
  O2-  O438  1  0.16597140  0.57054781  0.16102679  1
  O2-  O439  1  0.18771329  0.59795144  0.54052645  1
  O2-  O440  1  0.19005341  0.60076644  0.84647026  1
  O2-  O441  1  0.20969851  0.93649446  0.19332919  1
  O2-  O442  1  0.17501018  0.83804504  0.52427578  1
  O2-  O443  1  0.16072030  0.82984761  0.84759825  1
  O2-  O444  1  0.41969733  0.09118966  0.17359592  1
  O2-  O445  1  0.38908045  0.10598897  0.51063221  1
  O2-  O446  1  0.41375208  0.08108615  0.86020954  1
  O2-  O447  1  0.41473468  0.33888365  0.19111225  1
  O2-  O448  1  0.41866344  0.31774224  0.51766221  1
  O2-  O449  1  0.41927977  0.34257827  0.85249235  1
  O2-  O450  1  0.40905588  0.58179245  0.18765926  1
  O2-  O451  1  0.42250532  0.59026542  0.51967919  1
  O2-  O452  1  0.43431867  0.61370859  0.83774013  1
  O2-  O453  1  0.41026913  0.83053657  0.19265994  1
  O2-  O454  1  0.42232585  0.87518990  0.51620408  1
  O2-  O455  1  0.40861075  0.83623406  0.86410441  1
  O2-  O456  1  0.66972229  0.08539586  0.19092951  1
  O2-  O457  1  0.66171472  0.07125028  0.52341073  1
  O2-  O458  1  0.66013992  0.09127027  0.86580512  1
  O2-  O459  1  0.65530265  0.33660516  0.18763522  1
  O2-  O460  1  0.67700778  0.32167844  0.53786146  1
  O2-  O461  1  0.67099945  0.33146906  0.85754121  1
  O2-  O462  1  0.67789703  0.59582079  0.19004427  1
  O2-  O463  1  0.66409521  0.59928561  0.53121096  1
  O2-  O464  1  0.70944717  0.64037943  0.87515344  1
  O2-  O465  1  0.67153236  0.82284418  0.19648472  1
  O2-  O466  1  0.66138045  0.82049984  0.50676303  1
  O2-  O467  1  0.70734456  0.92622002  0.87361188  1
  O2-  O468  1  0.91535807  0.07939286  0.19492050  1
  O2-  O469  1  0.93807584  0.12278358  0.52316138  1
  O2-  O470  1  0.90438553  0.08035084  0.85592704  1
  O2-  O471  1  0.88235039  0.32447556  0.12668049  1
  O2-  O472  1  0.94280459  0.31607820  0.54611988  1
  O2-  O473  1  0.90045315  0.31535206  0.85589447  1
  O2-  O474  1  0.90363792  0.59531852  0.20848625  1
  O2-  O475  1  0.90861843  0.57349720  0.51554783  1
  O2-  O476  1  0.92517065  0.57849613  0.85659264  1
  O2-  O477  1  0.89624006  0.80014649  0.15876152  1
  O2-  O478  1  0.90527868  0.81363640  0.53033659  1
  O2-  O479  1  0.91916189  0.83889608  0.83816373  1
  O2-  O480  1  0.15989001  0.08662603  0.32060126  1
  O2-  O481  1  0.15873380  0.06723685  0.63750980  1
  O2-  O482  1  0.27508915  0.05611580  1.03392521  1
  O2-  O483  1  0.16227726  0.29135377  0.30970234  1
  O2-  O484  1  0.15319056  0.30974496  0.64995387  1
  O2-  O485  1  0.17420076  0.33669252  0.96488969  1
  O2-  O486  1  0.17356566  0.59735887  0.34545105  1
  O2-  O487  1  0.19321531  0.59600663  0.60808541  1
  O2-  O488  1  0.17282842  0.57505540  0.97355145  1
  O2-  O489  1  0.16237049  0.84420942  0.32767935  1
  O2-  O490  1  0.16343776  0.80909551  0.64370966  1
  O2-  O491  1  0.16862767  0.81770644  0.96984705  1
  O2-  O492  1  0.40577559  0.07787583  0.29347691  1
  O2-  O493  1  0.38634561  0.07259825  0.63444510  1
  O2-  O494  1  0.41795143  0.10371001  0.97941453  1
  O2-  O495  1  0.42062974  0.33576050  0.30850972  1
  O2-  O496  1  0.43507216  0.30715646  0.64156728  1
  O2-  O497  1  0.42007948  0.33678589  0.97192263  1
  O2-  O498  1  0.42266708  0.60237036  0.29680736  1
  O2-  O499  1  0.42529745  0.60396350  0.64541497  1
  O2-  O500  1  0.43835216  0.61051434  0.97441248  1
  O2-  O501  1  0.41267635  0.82355167  0.31837008  1
  O2-  O502  1  0.41885082  0.85049016  0.64384022  1
  O2-  O503  1  0.39646085  0.83850605  0.98594792  1
  O2-  O504  1  0.65690342  0.07911389  0.31201858  1
  O2-  O505  1  0.69583689  0.02772260  0.63395376  1
  O2-  O506  1  0.66388145  0.07981224  0.98367573  1
  O2-  O507  1  0.68325385  0.32475431  0.32509519  1
  O2-  O508  1  0.69545102  0.36248319  0.65374412  1
  O2-  O509  1  0.67815937  0.33095356  0.98371617  1
  O2-  O510  1  0.67217351  0.58534862  0.30600587  1
  O2-  O511  1  0.66454288  0.61168579  0.64910140  1
  O2-  O512  1  0.67531102  0.58467122  0.99161221  1
  O2-  O513  1  0.66469937  0.82134606  0.30888739  1
  O2-  O514  1  0.67154891  0.85653635  0.63790329  1
  O2-  O515  1  0.62316567  0.81922273  0.96931418  1
  O2-  O516  1  0.90821380  0.08020824  0.30764502  1
  O2-  O517  1  0.92340309  0.10234270  0.64455146  1
  O2-  O518  1  0.90545503  0.06970192  0.96595008  1
  O2-  O519  1  0.85197440  0.30760230  0.28441636  1
  O2-  O520  1  0.92311224  0.34334774  0.65766715  1
  O2-  O521  1  0.91616453  0.31318277  0.98103289  1
  O2-  O522  1  0.92270642  0.59175666  0.32848591  1
  O2-  O523  1  0.90735396  0.53541821  0.66730885  1
  O2-  O524  1  0.91474324  0.57157734  0.98011058  1
  O2-  O525  1  0.90285565  0.82289840  0.28934141  1
  O2-  O526  1  0.91734969  0.79726160  0.65751057  1
  O2-  O527  1  0.81265672  0.77777575  0.94066583  1
  O2-  O528  1  0.06360768  0.11198723  0.02332761  1
  O2-  O529  1  0.05722185  0.13664931  0.36497046  1
  O2-  O530  1  0.06747528  0.16282265  0.72439257  1
  O2-  O531  1  0.08356401  0.40385881  0.01141405  1
  O2-  O532  1  0.04424632  0.43758317  0.39033073  1
  O2-  O533  1  0.08179295  0.41810637  0.68579743  1
  O2-  O534  1  0.08025274  0.65012802  0.00787272  1
  O2-  O535  1  0.07912431  0.69208658  0.36434791  1
  O2-  O536  1  0.09147214  0.64001150  0.67499771  1
  O2-  O537  1  0.11947329  0.93996200  0.00691095  1
  O2-  O538  1  0.07439624  0.92696231  0.28453043  1
  O2-  O539  1  0.08316131  0.88939700  0.67896699  1
  O2-  O540  1  0.29296310  0.14510697  0.02467537  1
  O2-  O541  1  0.33134828  0.16921575  0.35394069  1
  O2-  O542  1  0.30664826  0.15770435  0.69430423  1
  O2-  O543  1  0.32304082  0.39216764  0.03448951  1
  O2-  O544  1  0.38687337  0.45316475  0.35280261  1
  O2-  O545  1  0.33372433  0.41969850  0.65224513  1
  O2-  O546  1  0.33272040  0.66792707  0.01934082  1
  O2-  O547  1  0.34525898  0.66927920  0.36484387  1
  O2-  O548  1  0.34094711  0.67919234  0.67721760  1
  O2-  O549  1  0.34514649  0.87798389  0.00637204  1
  O2-  O550  1  0.33582753  0.91432387  0.35074669  1
  O2-  O551  1  0.32363658  0.91276656  0.68977855  1
  O2-  O552  1  0.58886130  0.16822288  0.02168598  1
  O2-  O553  1  0.60174447  0.17706821  0.36185750  1
  O2-  O554  1  0.56116071  0.11015643  0.60697236  1
  O2-  O555  1  0.58064914  0.41135821  -0.01218685  1
  O2-  O556  1  0.58923384  0.40498899  0.32911438  1
  O2-  O557  1  0.59705594  0.43823519  0.64489354  1
  O2-  O558  1  0.59218025  0.66932004  0.02670445  1
  O2-  O559  1  0.58627302  0.65427157  0.36249231  1
  O2-  O560  1  0.58394226  0.69144151  0.67120442  1
  O2-  O561  1  0.57021496  0.91624699  0.02553953  1
  O2-  O562  1  0.58101907  0.90596648  0.34750211  1
  O2-  O563  1  0.57174493  0.92064721  0.70683765  1
  O2-  O564  1  0.82894394  0.14654309  0.01978245  1
  O2-  O565  1  0.83063978  0.16299199  0.34478507  1
  O2-  O566  1  0.83859102  0.17321900  0.68887338  1
  O2-  O567  1  0.84437130  0.40426013  0.02516474  1
  O2-  O568  1  0.84778472  0.43130021  0.36227890  1
  O2-  O569  1  0.85962330  0.44864472  0.69394982  1
  O2-  O570  1  0.83970471  0.66706109  0.02265922  1
  O2-  O571  1  0.83277475  0.67152339  0.35017287  1
  O2-  O572  1  0.82801232  0.63060589  0.69196815  1
  O2-  O573  1  0.82108210  0.92460825  0.08773568  1
  O2-  O574  1  0.81469616  0.88957895  0.35700485  1
  O2-  O575  1  0.83548074  0.93665578  0.67796189  1
