# generated using pymatgen
data_H2O
_symmetry_space_group_name_H-M   'P 1'
_cell_length_a   17.98469489
_cell_length_b   17.98910547
_cell_length_c   21.99818827
_cell_angle_alpha   90.01123739
_cell_angle_beta   90.01879706
_cell_angle_gamma   120.00595858
_symmetry_Int_Tables_number   1
_chemical_formula_structural   H2O
_chemical_formula_sum   'H384 O192'
_cell_volume   6163.16860170
_cell_formula_units_Z   192
loop_
 _symmetry_equiv_pos_site_id
 _symmetry_equiv_pos_as_xyz
  1  'x, y, z'
loop_
 _atom_type_symbol
 _atom_type_oxidation_number
  H+  1.0
  O2-  -2.0
loop_
 _atom_site_type_symbol
 _atom_site_label
 _atom_site_symmetry_multiplicity
 _atom_site_fract_x
 _atom_site_fract_y
 _atom_site_fract_z
 _atom_site_occupancy
  H+  H0  1  0.61854438  0.72181267  0.00600127  1
  H+  H1  1  0.13931807  0.10054472  0.51016246  1
  H+  H2  1  0.28422057  0.89466582  0.33144802  1
  H+  H3  1  0.08704569  0.46739392  0.01076161  1
  H+  H4  1  0.78752009  0.89667245  0.67416249  1
  H+  H5  1  0.86421927  -0.01788452  0.33855338  1
  H+  H6  1  0.88123885  0.53368122  0.99313315  1
  H+  H7  1  0.38308438  0.23387036  0.66945105  1
  H+  H8  1  0.86114331  0.25329322  0.98789755  1
  H+  H9  1  0.76783727  0.38374321  0.34313696  1
  H+  H10  1  0.14406088  0.28882475  0.15694241  1
  H+  H11  1  0.61291111  0.73120922  0.33733560  1
  H+  H12  1  0.35367723  0.65624283  0.15821710  1
  H+  H13  1  0.00916799  0.14205633  -0.00562224  1
  H+  H14  1  0.52033215  0.63574409  0.48641157  1
  H+  H15  1  0.08305201  0.38131399  0.01169447  1
  H+  H16  1  0.47415253  0.37718711  -0.01923348  1
  H+  H17  1  0.86666480  -0.01469546  0.15239325  1
  H+  H18  1  0.85856924  0.89202475  0.83406286  1
  H+  H19  1  0.38602402  0.78737106  0.17294666  1
  H+  H20  1  0.61613137  -0.01905915  0.50042701  1
  H+  H21  1  0.34362705  0.53980377  0.18848104  1
  H+  H22  1  0.63910325  0.11317918  0.16993074  1
  H+  H23  1  0.13520149  0.12453992  0.97921834  1
  H+  H24  1  0.97388877  0.94559930  0.55363917  1
  H+  H25  1  0.14088112  0.84943639  0.31718063  1
  H+  H26  1  0.11224655  0.49465597  0.32053209  1
  H+  H27  1  0.96987407  0.61604807  0.83806442  1
  H+  H28  1  0.28122350  0.13621319  0.49545908  1
  H+  H29  1  0.84434306  0.12545938  0.00617782  1
  H+  H30  1  0.62574486  0.51793174  0.16194210  1
  H+  H31  1  0.72629046  0.86631266  0.32395344  1
  H+  H32  1  0.13783936  0.24823925  0.85449380  1
  H+  H33  1  0.89068457  0.87078115  0.32475299  1
  H+  H34  1  0.98151574  0.87208678  0.99614447  1
  H+  H35  1  0.02897221  0.88646425  0.49044181  1
  H+  H36  1  0.88420083  0.36053990  0.83766974  1
  H+  H37  1  0.17652372  0.34507045  0.56044580  1
  H+  H38  1  0.87309006  0.01912293  0.50389250  1
  H+  H39  1  0.85819237  0.13976636  0.15235007  1
  H+  H40  1  0.14603434  0.15056786  0.64599917  1
  H+  H41  1  0.37724484  0.75012583  0.33646239  1
  H+  H42  1  0.86535879  0.55022529  0.24140245  1
  H+  H43  1  0.35230574  0.47607444  0.33640437  1
  H+  H44  1  0.37353532  0.91700258  0.83544430  1
  H+  H45  1  0.23919797  0.38558738  0.65847009  1
  H+  H46  1  0.35246184  0.63507114  0.67096706  1
  H+  H47  1  0.38722978  0.53311535  -0.00352399  1
  H+  H48  1  0.11775074  0.88293034  0.49416533  1
  H+  H49  1  0.75019175  0.12042543  0.00257125  1
  H+  H50  1  0.36934670  0.61548399  0.82351633  1
  H+  H51  1  0.54822257  0.62421435  0.84067155  1
  H+  H52  1  0.11040491  0.98716849  -0.00449185  1
  H+  H53  1  0.53608985  0.15238286  0.15917516  1
  H+  H54  1  0.38587900  0.90719483  0.16578786  1
  H+  H55  1  0.11608786  0.96567720  0.82032253  1
  H+  H56  1  0.85406952  0.62647282  0.67085696  1
  H+  H57  1  0.07109603  0.69966453  0.15462502  1
  H+  H58  1  0.60705242  0.98872019  0.00165881  1
  H+  H59  1  0.77735347  0.39309579  0.49506735  1
  H+  H60  1  0.26566450  0.35980182  0.84197975  1
  H+  H61  1  0.38739614  0.14661487  0.67088686  1
  H+  H62  1  0.02460069  0.13068195  0.51436581  1
  H+  H63  1  0.84005540  0.24677180  0.66748090  1
  H+  H64  1  0.63820822  0.86829256  0.32970377  1
  H+  H65  1  -0.05664836  0.58256733  0.15068717  1
  H+  H66  1  0.22463359  0.39536070  0.98591435  1
  H+  H67  1  0.02252409  0.87771853  0.33469698  1
  H+  H68  1  0.39616633  1.03278947  0.32811093  1
  H+  H69  1  0.66527525  0.58374720  0.56721056  1
  H+  H70  1  0.36521092  0.89090851  0.00442497  1
  H+  H71  1  0.86170413  0.89521444  0.49403329  1
  H+  H72  1  0.88458550  0.52338922  0.83776063  1
  H+  H73  1  0.60635835  0.14137075  0.84768338  1
  H+  H74  1  0.14136520  0.27135246  0.51136587  1
  H+  H75  1  0.39374460  0.11446795  0.51050945  1
  H+  H76  1  0.16785805  0.83225418  0.14917227  1
  H+  H77  1  0.36195829  0.38730157  0.48485654  1
  H+  H78  1  0.14531699  0.37935914  0.16473897  1
  H+  H79  1  0.62366402  0.98477782  0.34041387  1
  H+  H80  1  0.17935305  0.44297360  0.95747886  1
  H+  H81  1  0.88506079  0.27710727  0.51004845  1
  H+  H82  1  0.41809160  0.03688244  0.66670374  1
  H+  H83  1  0.35744497  0.61866471  0.85583878  1
  H+  H84  1  0.88195503  0.27265706  0.16969681  1
  H+  H85  1  0.89027325  0.78121250  0.99551980  1
  H+  H86  1  0.13325508  0.03838300  0.17725448  1
  H+  H87  1  0.52488742  0.14557709  0.00574559  1
  H+  H88  1  0.77777942  0.63544504  0.49377652  1
  H+  H89  1  0.12006387  0.60892556  0.16392707  1
  H+  H90  1  0.22809864  0.87317231  0.99307725  1
  H+  H91  1  0.85109014  0.89035889  0.15396563  1
  H+  H92  1  0.50060961  0.85883988  0.65909416  1
  H+  H93  1  0.42611044  0.10071026  0.23928499  1
  H+  H94  1  0.37795470  0.52212127  0.48854908  1
  H+  H95  1  0.63628202  0.61345520  0.50740022  1
  H+  H96  1  0.38972739  0.27642531  0.33371041  1
  H+  H97  1  0.36748172  0.76474728  0.65194704  1
  H+  H98  1  0.88644824  0.36608616  0.50931378  1
  H+  H99  1  -0.02530470  0.87535314  0.84392579  1
  H+  H100  1  0.05251036  0.12831808  0.28468553  1
  H+  H101  1  0.38100628  0.35502721  0.82455592  1
  H+  H102  1  0.64413889  0.49613004  0.85039101  1
  H+  H103  1  0.62899105  0.60377533  0.99984414  1
  H+  H104  1  0.49142086  0.37089342  0.65894491  1
  H+  H105  1  0.97088854  0.12223370  0.35739570  1
  H+  H106  1  0.88932094  0.78038248  0.32510336  1
  H+  H107  1  0.62505571  0.84064166  0.83049604  1
  H+  H108  1  0.24926568  0.11894161  0.65629482  1
  H+  H109  1  0.84993520  0.50598767  0.30804864  1
  H+  H110  1  0.84739267  0.22270681  0.82781276  1
  H+  H111  1  0.83935634  0.66581263  0.43628832  1
  H+  H112  1  0.63816420  0.27032507  0.33484338  1
  H+  H113  1  0.20968528  0.60218275  0.65527618  1
  H+  H114  1  0.68956334  0.11182887  0.57209468  1
  H+  H115  1  0.20010520  0.84583305  0.66287738  1
  H+  H116  1  -0.01665502  0.13116207  0.16367661  1
  H+  H117  1  0.51552088  0.37381369  0.82279466  1
  H+  H118  1  0.52780115  0.39298700  0.34061339  1
  H+  H119  1  0.10118792  0.46688041  0.66819195  1
  H+  H120  1  0.72707797  0.85609297  0.83594438  1
  H+  H121  1  0.69050532  0.08907097  0.67636040  1
  H+  H122  1  0.54356545  0.15573838  0.67454125  1
  H+  H123  1  0.52562834  0.89407242  0.49460841  1
  H+  H124  1  0.63525847  0.27732711  0.51048658  1
  H+  H125  1  0.30208857  0.91355721  0.17127407  1
  H+  H126  1  0.63274697  0.35722240  0.33584698  1
  H+  H127  1  0.35179558  0.12612443  1.00246229  1
  H+  H128  1  0.88110506  0.51319476  0.66980418  1
  H+  H129  1  0.23857378  0.65093079  0.81021471  1
  H+  H130  1  0.28091786  0.38826746  0.15322691  1
  H+  H131  1  0.75150673  0.54435799  0.28678176  1
  H+  H132  1  0.10492274  0.73324366  0.81764940  1
  H+  H133  1  0.76917726  0.63843925  0.00516547  1
  H+  H134  1  0.63697322  0.11130232  0.99540383  1
  H+  H135  1  0.84587438  0.71705316  0.15434900  1
  H+  H136  1  0.40071118  0.04241528  0.17806260  1
  H+  H137  1  0.73180763  0.85350465  0.99282316  1
  H+  H138  1  0.05486414  0.92209955  0.23685058  1
  H+  H139  1  0.08819131  0.11629914  0.82678727  1
  H+  H140  1  0.88319302  1.02287304  -0.00845711  1
  H+  H141  1  0.62581687  0.47098587  0.33467048  1
  H+  H142  1  0.47994915  0.61960601  0.99909984  1
  H+  H143  1  0.68367392  0.56277075  0.25297152  1
  H+  H144  1  0.44323290  0.56886134  0.90836948  1
  H+  H145  1  0.33486030  0.17398647  0.05629647  1
  H+  H146  1  0.09359871  0.85547814  0.67264870  1
  H+  H147  1  0.63586643  0.85492819  0.65357164  1
  H+  H148  1  0.38889630  0.78069730  0.50053750  1
  H+  H149  1  0.11700349  0.87642303  0.82580204  1
  H+  H150  1  0.85898299  0.22813136  0.33341617  1
  H+  H151  1  0.14206216  0.24084742  0.64589339  1
  H+  H152  1  0.14288044  0.37172506  0.65885864  1
  H+  H153  1  0.86047151  0.64253993  0.00122059  1
  H+  H154  1  0.36666008  0.23191514  0.17292491  1
  H+  H155  1  0.16107303  0.83904722  0.59323033  1
  H+  H156  1  0.38009242  0.46286048  0.14643806  1
  H+  H157  1  0.97278517  0.35728029  0.17747842  1
  H+  H158  1  0.16963989  0.32467686  0.90462891  1
  H+  H159  1  0.89050161  0.07566063  0.56339764  1
  H+  H160  1  0.49106869  0.87891355  0.32923749  1
  H+  H161  1  0.77232153  0.62685787  0.82246636  1
  H+  H162  1  0.64478520  0.28524156  0.17622042  1
  H+  H163  1  0.36894176  0.13531250  0.17228179  1
  H+  H164  1  0.52840964  0.97766026  0.87124454  1
  H+  H165  1  0.51534474  0.63542364  0.16429225  1
  H+  H166  1  0.38821477  0.78452981  -0.01561924  1
  H+  H167  1  0.94198628  0.34677742  0.99319484  1
  H+  H168  1  0.87122260  0.35578343  0.32281555  1
  H+  H169  1  0.40119400  0.12429135  0.33395381  1
  H+  H170  1  0.13530864  0.12139821  0.30280799  1
  H+  H171  1  0.41746834  0.34924100  0.92046774  1
  H+  H172  1  0.01809942  0.38852409  0.82702016  1
  H+  H173  1  0.62175042  0.86792990  0.17407708  1
  H+  H174  1  0.61856308  0.76633598  0.17658013  1
  H+  H175  1  0.43552734  0.08628847  0.60198161  1
  H+  H176  1  0.60105733  0.36980933  0.83670783  1
  H+  H177  1  0.47725355  0.87577136  0.99643516  1
  H+  H178  1  0.27724674  0.65445117  0.49286670  1
  H+  H179  1  0.86406525  0.10762437  0.83842013  1
  H+  H180  1  0.95142614  0.10334885  0.84466239  1
  H+  H181  1  0.47636046  0.36657309  0.50260860  1
  H+  H182  1  0.88447198  0.61103891  0.50843947  1
  H+  H183  1  0.62161689  0.98087509  0.16345239  1
  H+  H184  1  0.86758492  0.64536137  0.33179223  1
  H+  H185  1  0.10588639  0.38150621  0.48274781  1
  H+  H186  1  0.78666145  0.39664856  0.68025536  1
  H+  H187  1  0.12030564  0.76237449  0.49786490  1
  H+  H188  1  0.78377214  0.64530702  0.33741626  1
  H+  H189  1  0.62314060  0.48402924  0.67853519  1
  H+  H190  1  0.38195833  0.34847733  0.17559684  1
  H+  H191  1  0.12062814  0.60162272  0.65815251  1
  H+  H192  1  0.28719292  0.13591398  0.35127190  1
  H+  H193  1  0.14293290  0.01462873  0.49373895  1
  H+  H194  1  0.60788738  0.64056208  0.33382289  1
  H+  H195  1  0.15392174  0.12421083  0.21219767  1
  H+  H196  1  0.86720682  0.47990339  0.49526405  1
  H+  H197  1  0.64266017  0.12484933  0.51477494  1
  H+  H198  1  0.63213314  0.27340989  0.87527026  1
  H+  H199  1  0.37962948  0.03078552  0.83931467  1
  H+  H200  1  0.77290763  0.39408277  -0.00220119  1
  H+  H201  1  0.92057893  0.85344373  0.90543641  1
  H+  H202  1  0.27001220  0.38199058  0.48570178  1
  H+  H203  1  0.31126289  0.67011036  0.72238296  1
  H+  H204  1  0.11452521  0.15513765  0.13490284  1
  H+  H205  1  0.76674708  -0.11644311  0.49044635  1
  H+  H206  1  0.84226420  0.97261743  0.83006178  1
  H+  H207  1  0.00185268  0.37860248  0.33356958  1
  H+  H208  1  0.83107424  0.91933945  0.39571266  1
  H+  H209  1  0.46783937  0.61655298  0.33224086  1
  H+  H210  1  0.36747428  0.64554812  1.00266945  1
  H+  H211  1  0.86197610  0.59592595  0.15203240  1
  H+  H212  1  0.06456835  0.40893730  0.39233324  1
  H+  H213  1  0.63531114  0.74759436  0.83793740  1
  H+  H214  1  0.88242674  0.85320184  0.66894833  1
  H+  H215  1  0.39131932  1.02811817  -0.00733924  1
  H+  H216  1  0.01917292  0.38304765  0.49048729  1
  H+  H217  1  0.21448759  0.10405679  0.82663071  1
  H+  H218  1  0.97514004  0.61648598  0.51345496  1
  H+  H219  1  0.63352327  0.36724387  0.50807255  1
  H+  H220  1  0.69063975  0.09856124  0.84570384  1
  H+  H221  1  0.95181727  0.85682447  0.17191595  1
  H+  H222  1  0.38468816  0.36319935  0.32720173  1
  H+  H223  1  0.81774622  0.47173883  0.10732724  1
  H+  H224  1  0.52841830  0.14148702  0.49810236  1
  H+  H225  1  0.99784033  0.85564409  0.67943467  1
  H+  H226  1  0.11393745  0.48023224  0.15864089  1
  H+  H227  1  0.37866702  0.26508085  0.82893943  1
  H+  H228  1  0.88298383  0.37681510  0.66926218  1
  H+  H229  1  0.52896720  0.89323432  0.16276445  1
  H+  H230  1  0.58814461  0.94623578  0.65977903  1
  H+  H231  1  0.26382446  0.88519900  0.83113542  1
  H+  H232  1  0.42352695  0.58404169  0.57727419  1
  H+  H233  1  0.64237846  0.17780414  0.68271963  1
  H+  H234  1  0.23639779  0.36035555  0.31290679  1
  H+  H235  1  0.46975740  0.12142910  0.84405286  1
  H+  H236  1  0.86817004  0.89281887  0.00319392  1
  H+  H237  1  0.09484227  0.23373384  -0.01232488  1
  H+  H238  1  0.85970847  0.14111469  0.48879136  1
  H+  H239  1  0.77950078  0.39266692  0.82587941  1
  H+  H240  1  0.72765788  0.11281211  0.16887462  1
  H+  H241  1  0.14662808  0.00220570  0.33261613  1
  H+  H242  1  0.42101533  0.34076049  0.56309457  1
  H+  H243  1  0.27182450  0.13695593  0.16437214  1
  H+  H244  1  0.61592399  0.23030284  -0.00073143  1
  H+  H245  1  0.41102059  0.50639364  0.85075231  1
  H+  H246  1  0.38019976  0.61402450  0.49307864  1
  H+  H247  1  0.61319803  0.47808750  0.49604416  1
  H+  H248  1  0.73143314  0.11497188  0.32318236  1
  H+  H249  1  0.40379439  0.37243051  0.65733051  1
  H+  H250  1  0.36359644  0.89007867  0.48772435  1
  H+  H251  1  0.61374958  0.38566555  0.16104378  1
  H+  H252  1  0.13392732  0.68542491  0.39814345  1
  H+  H253  1  0.63640354  0.37722957  0.65956646  1
  H+  H254  1  0.87420603  0.75836902  0.66226906  1
  H+  H255  1  0.40170217  0.88053281  0.32778655  1
  H+  H256  1  0.13910660  0.63189832  0.50608953  1
  H+  H257  1  0.09290785  0.16421633  0.56802614  1
  H+  H258  1  0.36796415  0.22943065  0.49939891  1
  H+  H259  1  0.45417603  0.96669046  0.72313294  1
  H+  H260  1  0.23426271  0.58934705  0.98035446  1
  H+  H261  1  0.00837256  0.62357009  0.67212651  1
  H+  H262  1  0.61207713  0.46650009  1.00618068  1
  H+  H263  1  0.38964691  0.49397324  0.65833370  1
  H+  H264  1  0.63150692  0.36105593  0.97103187  1
  H+  H265  1  0.45742022  0.89267566  0.90553528  1
  H+  H266  1  0.52214125  0.37832382  0.15656475  1
  H+  H267  1  0.89994444  0.08120608  0.93252931  1
  H+  H268  1  0.72745397  0.61223034  0.66195856  1
  H+  H269  1  0.52912864  0.88176899  0.82441345  1
  H+  H270  1  0.77306865  0.14401658  0.49084329  1
  H+  H271  1  0.15929093  0.25857428  0.29203302  1
  H+  H272  1  0.01540232  0.37678993  0.67329592  1
  H+  H273  1  0.39231960  1.02477833  0.50531298  1
  H+  H274  1  0.20960451  0.55708442  0.30079865  1
  H+  H275  1  0.53308845  0.13830965  0.34465919  1
  H+  H276  1  0.33637796  0.72489467  0.81422673  1
  H+  H277  1  0.90716488  0.57291173  0.60717594  1
  H+  H278  1  0.09697251  0.71262362  0.66567677  1
  H+  H279  1  0.62715956  0.73777593  0.67632787  1
  H+  H280  1  0.21363249  0.93097688  0.54544388  1
  H+  H281  1  0.26361074  0.65251120  0.15574045  1
  H+  H282  1  0.12152219  0.52298298  0.83238842  1
  H+  H283  1  0.35368799  0.13498698  0.82505904  1
  H+  H284  1  0.10845720  0.73478628  0.00502182  1
  H+  H285  1  0.63317878  0.77142227  0.50274328  1
  H+  H286  1  0.62164331  0.13755196  0.34343830  1
  H+  H287  1  0.60439968  0.63389954  0.16419724  1
  H+  H288  1  0.38162812  0.62235326  0.33304952  1
  H+  H289  1  0.59127125  0.17211967  0.44014939  1
  H+  H290  1  0.65059733  0.08204382  0.91634730  1
  H+  H291  1  0.33632119  0.68146420  0.43245264  1
  H+  H292  1  0.03526585  0.13992800  0.77961121  1
  H+  H293  1  0.63522318  0.28154173  0.66060264  1
  H+  H294  1  0.83849451  0.42275714  0.76254307  1
  H+  H295  1  0.27643645  0.89410127  0.49337579  1
  H+  H296  1  0.36226064  0.93610126  0.74982330  1
  H+  H297  1  0.41116647  0.83863671  0.55975977  1
  H+  H298  1  0.08072108  0.22752932  0.40287074  1
  H+  H299  1  0.33468347  0.92277036  0.39555507  1
  H+  H300  1  0.58226164  0.66579746  0.06724418  1
  H+  H301  1  0.14936362  0.63869318  0.34150109  1
  H+  H302  1  0.66738111  0.81922445  0.93672669  1
  H+  H303  1  0.58766964  0.66826251  0.43262717  1
  H+  H304  1  0.56557395  0.87719629  0.75795014  1
  H+  H305  1  0.83401291  0.92373220  0.06013238  1
  H+  H306  1  0.90102101  0.32447210  0.26217725  1
  H+  H307  1  0.09408289  0.19673358  0.39072855  1
  H+  H308  1  0.66315735  0.56869816  0.94428813  1
  H+  H309  1  0.08222993  0.89707278  0.39345936  1
  H+  H310  1  0.41566784  0.08884061  0.93410807  1
  H+  H311  1  0.65318046  0.83093920  0.23835316  1
  H+  H312  1  0.59300185  0.19079162  0.79022627  1
  H+  H313  1  0.82292629  0.66514848  0.09133290  1
  H+  H314  1  0.38746690  0.86274057  0.66276057  1
  H+  H315  1  0.89333903  0.82384615  0.22881952  1
  H+  H316  1  0.40455583  0.59306553  0.24206587  1
  H+  H317  1  0.90404522  0.32181567  0.89711416  1
  H+  H318  1  0.36025075  0.39984826  -0.01067595  1
  H+  H319  1  0.32096295  0.41018910  0.39260569  1
  H+  H320  1  0.34091166  0.92502902  0.06459393  1
  H+  H321  1  0.32772258  0.41185486  0.05369978  1
  H+  H322  1  0.59363054  0.92726973  0.40187323  1
  H+  H323  1  0.15233841  0.81960083  0.22248371  1
  H+  H324  1  0.04699859  0.72835567  0.45038369  1
  H+  H325  1  0.50090649  0.60750201  0.62110791  1
  H+  H326  1  0.09310660  0.89146743  0.18501070  1
  H+  H327  1  0.57993637  0.39586874  0.05701438  1
  H+  H328  1  0.28845593  0.40884741  0.77976089  1
  H+  H329  1  0.91079037  0.58678040  0.93036196  1
  H+  H330  1  0.66216388  0.33634357  0.23835897  1
  H+  H331  1  0.06579116  0.65733294  0.08954716  1
  H+  H332  1  0.16698839  0.60000031  0.56454161  1
  H+  H333  1  0.22045697  0.11760955  0.98545839  1
  H+  H334  1  0.82396055  0.65694954  0.73087156  1
  H+  H335  1  0.86232965  0.63524447  0.81869661  1
  H+  H336  1  0.72714497  0.52116149  0.88753469  1
  H+  H337  1  0.90856937  0.34034960  0.60702686  1
  H+  H338  1  0.89379112  0.12643271  0.32930206  1
  H+  H339  1  0.20614997  0.05575674  0.27821954  1
  H+  H340  1  0.28110995  0.67653696  0.34443578  1
  H+  H341  1  0.66903543  0.08470838  0.26479374  1
  H+  H342  1  0.01981557  0.64668573  0.00099404  1
  H+  H343  1  0.41193252  0.32388491  0.23939854  1
  H+  H344  1  0.18016898  0.33753881  0.24285383  1
  H+  H345  1  0.81906294  0.16160301  0.09345467  1
  H+  H346  1  0.67286356  0.82919865  0.59712386  1
  H+  H347  1  0.83280956  0.16976363  0.39429472  1
  H+  H348  1  0.11616643  0.60993726  0.83998718  1
  H+  H349  1  0.17420530  0.84845374  0.93173135  1
  H+  H350  1  0.07461374  0.41427027  0.10311373  1
  H+  H351  1  0.16629482  0.77521578  0.31812418  1
  H+  H352  1  0.07780920  0.18755676  0.08196821  1
  H+  H353  1  0.42535595  0.84509224  0.23410701  1
  H+  H354  1  0.81102736  0.16684533  0.76822066  1
  H+  H355  1  0.32594054  0.67362468  0.05602715  1
  H+  H356  1  0.83275486  0.91268579  0.73838289  1
  H+  H357  1  0.92929671  0.10280808  0.22553405  1
  H+  H358  1  0.19515288  0.78816922  0.86807519  1
  H+  H359  1  0.38057503  0.45181730  0.72290487  1
  H+  H360  1  0.66119353  0.34003288  0.59157553  1
  H+  H361  1  0.60297323  0.66456287  0.77810343  1
  H+  H362  1  0.63497694  0.86226853  0.50551975  1
  H+  H363  1  0.18862301  0.07819659  0.59875314  1
  H+  H364  1  0.15191530  0.57986596  0.22391766  1
  H+  H365  1  0.15968553  0.07557105  0.88751833  1
  H+  H366  1  0.01808893  0.13017957  0.68353831  1
  H+  H367  1  0.07098008  0.66674259  0.76189596  1
  H+  H368  1  0.59378362  0.41629452  0.73606249  1
  H+  H369  1  0.59288250  0.17879436  0.09915099  1
  H+  H370  1  0.17228983  0.56095919  0.92221630  1
  H+  H371  1  0.53493330  0.66656165  0.69904496  1
  H+  H372  1  0.58150065  0.92527711  0.06062994  1
  H+  H373  1  0.63861451  0.61328115  0.66549126  1
  H+  H374  1  0.92545238  0.85074362  0.57377529  1
  H+  H375  1  0.58650114  0.41975603  0.43567508  1
  H+  H376  1  0.71375089  0.60830089  0.15983090  1
  H+  H377  1  0.83615823  0.42260012  0.39727036  1
  H+  H378  1  0.93436622  0.04778707  0.70726610  1
  H+  H379  1  0.07650319  0.41756840  0.76778636  1
  H+  H380  1  0.33244968  0.16427068  0.76169417  1
  H+  H381  1  0.11513496  0.90148838  -0.00029001  1
  H+  H382  1  0.34861590  0.17436751  0.40906379  1
  H+  H383  1  0.07052872  0.88862464  0.74176644  1
  O2-  O384  1  0.08562237  0.18878318  0.12787473  1
  O2-  O385  1  0.08702997  0.15797804  0.52176610  1
  O2-  O386  1  0.05831736  0.14998673  0.82226180  1
  O2-  O387  1  0.08881999  0.41812140  0.14792884  1
  O2-  O388  1  0.07364305  0.40850184  0.46719872  1
  O2-  O389  1  0.07815838  0.42574786  0.81240346  1
  O2-  O390  1  0.05580579  0.64439166  0.13553836  1
  O2-  O391  1  0.08117439  0.71047382  0.47423275  1
  O2-  O392  1  0.06983927  0.67126423  0.80736335  1
  O2-  O393  1  0.07108747  0.93170298  0.19397487  1
  O2-  O394  1  0.08342926  0.90327411  0.46872083  1
  O2-  O395  1  0.08544465  0.90305461  0.80769592  1
  O2-  O396  1  0.33594764  0.16713964  0.15562895  1
  O2-  O397  1  0.34361959  0.16916334  0.48406813  1
  O2-  O398  1  0.32276338  0.16312644  0.80644435  1
  O2-  O399  1  0.33974127  0.40220213  0.13894192  1
  O2-  O400  1  0.32942927  0.41378754  0.46698393  1
  O2-  O401  1  0.31725715  0.40434429  0.81582203  1
  O2-  O402  1  0.32522096  0.68683504  0.14218724  1
  O2-  O403  1  0.33810906  0.67803863  0.47742809  1
  O2-  O404  1  0.28891389  0.69610662  0.78594998  1
  O2-  O405  1  0.35807799  0.94153763  0.15165087  1
  O2-  O406  1  0.33411190  0.92165431  0.47290748  1
  O2-  O407  1  0.33407637  0.93139799  0.81391567  1
  O2-  O408  1  0.59545864  0.17596831  0.14476863  1
  O2-  O409  1  0.59033731  0.17557177  0.48568816  1
  O2-  O410  1  0.58240274  0.18157084  0.83407063  1
  O2-  O411  1  0.58072055  0.41124992  0.14026680  1
  O2-  O412  1  0.58368697  0.41700595  0.48122785  1
  O2-  O413  1  0.57903045  0.40153891  0.81290592  1
  O2-  O414  1  0.57617995  0.66851425  0.15232323  1
  O2-  O415  1  0.58342809  0.66704400  0.47773572  1
  O2-  O416  1  0.60656154  0.66846163  0.82293725  1
  O2-  O417  1  0.59049935  0.91791610  0.15069405  1
  O2-  O418  1  0.58767820  0.92269285  0.48220933  1
  O2-  O419  1  0.56236342  0.86016471  0.80082263  1
  O2-  O420  1  0.82370532  0.16615665  0.13991805  1
  O2-  O421  1  0.83217403  0.17340755  0.47326810  1
  O2-  O422  1  0.81231241  0.16168577  0.81277980  1
  O2-  O423  1  0.77182623  0.43180412  0.07833989  1
  O2-  O424  1  0.83630873  0.41982700  0.47864269  1
  O2-  O425  1  0.83852105  0.42276302  0.81081131  1
  O2-  O426  1  0.81670449  0.65797875  0.13715256  1
  O2-  O427  1  0.83865530  0.66197814  0.48115671  1
  O2-  O428  1  0.82760594  0.65929592  0.80099492  1
  O2-  O429  1  0.83103274  0.92720897  0.13545784  1
  O2-  O430  1  0.82737697  0.91832598  0.47473015  1
  O2-  O431  1  0.81859204  0.91158989  0.81550817  1
  O2-  O432  1  0.17034244  0.10260339  0.17604687  1
  O2-  O433  1  0.17515648  0.07233426  0.51294717  1
  O2-  O434  1  0.15459991  0.06773724  0.84225672  1
  O2-  O435  1  0.17802005  0.34738057  0.17649688  1
  O2-  O436  1  0.17299764  0.33513538  0.51562009  1
  O2-  O437  1  0.18831766  0.29381760  0.87664973  1
  O2-  O438  1  0.15902439  0.58749301  0.17892356  1
  O2-  O439  1  0.18476857  0.62415188  0.52274871  1
  O2-  O440  1  0.15304817  0.58463102  0.84874692  1
  O2-  O441  1  0.12567663  0.81721201  0.18151617  1
  O2-  O442  1  0.18374263  0.86997998  0.53480258  1
  O2-  O443  1  0.18823226  0.83485574  0.85176946  1
  O2-  O444  1  0.42196837  0.10239190  0.19333716  1
  O2-  O445  1  0.42436365  0.08354233  0.52377774  1
  O2-  O446  1  0.40801907  0.09136176  0.85608371  1
  O2-  O447  1  0.40942260  0.31683888  0.19347981  1
  O2-  O448  1  0.41576536  0.33748613  0.51781698  1
  O2-  O449  1  0.41376990  0.32794993  0.83972778  1
  O2-  O450  1  0.39932361  0.59055691  0.19618092  1
  O2-  O451  1  0.41140629  0.58238018  0.50396177  1
  O2-  O452  1  0.46211742  0.55384333  0.86999489  1
  O2-  O453  1  0.42417808  0.84732055  0.18854814  1
  O2-  O454  1  0.41811843  0.84231634  0.51470080  1
  O2-  O455  1  0.47679058  0.92051249  0.86462624  1
  O2-  O456  1  0.66693310  0.08083456  0.18594182  1
  O2-  O457  1  0.67432942  0.09533248  0.52905336  1
  O2-  O458  1  0.63593797  0.08106295  0.86696762  1
  O2-  O459  1  0.66194654  0.34234799  0.19361899  1
  O2-  O460  1  0.66374016  0.33796824  0.52677929  1
  O2-  O461  1  0.66183164  0.33613330  0.88789122  1
  O2-  O462  1  0.65467929  0.57802682  0.17873439  1
  O2-  O463  1  0.66549736  0.58205925  0.52189075  1
  O2-  O464  1  0.69091095  0.54423890  0.87418815  1
  O2-  O465  1  0.64659667  0.82794188  0.19228390  1
  O2-  O466  1  0.66605625  0.83178375  0.51855188  1
  O2-  O467  1  0.66329326  0.81853831  0.85000311  1
  O2-  O468  1  0.92460323  0.09704571  0.18128845  1
  O2-  O469  1  0.90365622  0.07973287  0.52008248  1
  O2-  O470  1  0.88926377  0.07361553  0.85604567  1
  O2-  O471  1  0.91242291  0.32922717  0.19063275  1
  O2-  O472  1  0.91477034  0.33586428  0.52776563  1
  O2-  O473  1  0.90991892  0.32544381  0.85107087  1
  O2-  O474  1  0.88112640  0.55347600  0.16131118  1
  O2-  O475  1  0.91463936  0.58023867  0.52513018  1
  O2-  O476  1  0.90979482  0.58362120  0.85404217  1
  O2-  O477  1  0.89100691  0.82166598  0.18359002  1
  O2-  O478  1  0.94381172  0.88775392  0.53648263  1
  O2-  O479  1  0.91873889  0.86185963  0.86060639  1
  O2-  O480  1  0.18518395  0.06334838  0.31737377  1
  O2-  O481  1  0.18845863  0.09008945  0.64248617  1
  O2-  O482  1  0.16265391  0.09196501  0.96510576  1
  O2-  O483  1  0.17959937  0.32226617  0.28937056  1
  O2-  O484  1  0.18127092  0.35121490  0.64111739  1
  O2-  O485  1  0.16899167  0.38397269  0.96749052  1
  O2-  O486  1  0.15518361  0.55660535  0.30122661  1
  O2-  O487  1  0.14946939  0.57109296  0.64034160  1
  O2-  O488  1  0.18219769  0.54024575  0.96177298  1
  O2-  O489  1  0.17789113  0.82987171  0.29731292  1
  O2-  O490  1  0.14512972  0.82005343  0.64165196  1
  O2-  O491  1  0.16832716  0.84520570  0.97696445  1
  O2-  O492  1  0.42892621  0.09411258  0.31417898  1
  O2-  O493  1  0.44331354  0.09470288  0.64707685  1
  O2-  O494  1  0.41965506  0.08940603  0.97956766  1
  O2-  O495  1  0.41651967  0.33416504  0.31348020  1
  O2-  O496  1  0.43189518  0.34040386  0.64210567  1
  O2-  O497  1  0.41776091  0.36350631  0.96394100  1
  O2-  O498  1  0.40705705  0.58735846  0.31803476  1
  O2-  O499  1  0.43951239  0.58831370  0.62195690  1
  O2-  O500  1  0.42031855  0.59377997  0.98175389  1
  O2-  O501  1  0.43116405  0.84949632  0.31213272  1
  O2-  O502  1  0.40366075  0.82612372  0.63829167  1
  O2-  O503  1  0.41705623  0.84703175  0.97596302  1
  O2-  O504  1  0.66943087  0.08402360  0.31047248  1
  O2-  O505  1  0.71550285  0.14477607  0.65574034  1
  O2-  O506  1  0.66183972  0.07856441  0.97729619  1
  O2-  O507  1  0.66586556  0.33069525  0.31955718  1
  O2-  O508  1  0.66252559  0.34223985  0.64031718  1
  O2-  O509  1  0.66643645  0.33458458  0.95510158  1
  O2-  O510  1  0.70186127  0.55451754  0.29427411  1
  O2-  O511  1  0.66439625  0.58064562  0.64820642  1
  O2-  O512  1  0.66132188  0.57336241  0.98929340  1
  O2-  O513  1  0.66424953  0.83473565  0.31164834  1
  O2-  O514  1  0.67361043  0.83111636  0.64267473  1
  O2-  O515  1  0.67063973  0.81389965  0.98085000  1
  O2-  O516  1  0.93216628  0.09985666  0.32241123  1
  O2-  O517  1  0.97312480  0.10890127  0.71562675  1
  O2-  O518  1  0.90973776  0.08452861  0.97758485  1
  O2-  O519  1  0.89811853  0.32186487  0.30858145  1
  O2-  O520  1  0.90506043  0.33595987  0.65229125  1
  O2-  O521  1  0.88896410  0.31222447  0.96978191  1
  O2-  O522  1  0.85033878  0.55383389  0.28469074  1
  O2-  O523  1  0.90796457  0.57658634  0.65219855  1
  O2-  O524  1  0.91242380  0.59273433  0.97588473  1
  O2-  O525  1  0.92030085  0.84056641  0.30823222  1
  O2-  O526  1  0.91011450  0.82147188  0.65071021  1
  O2-  O527  1  0.91961566  0.84203282  0.98166819  1
  O2-  O528  1  0.07191604  0.17819846  0.00787621  1
  O2-  O529  1  0.11497953  0.15528533  0.27860854  1
  O2-  O530  1  0.10900262  0.17777051  0.63866751  1
  O2-  O531  1  0.05325905  0.40996088  0.02988535  1
  O2-  O532  1  0.06339252  0.41033558  0.34649767  1
  O2-  O533  1  0.07749681  0.40746919  0.68477735  1
  O2-  O534  1  0.07788615  0.67461554  0.01983722  1
  O2-  O535  1  0.16690663  0.69554626  0.36035789  1
  O2-  O536  1  0.07118167  0.65497138  0.68490244  1
  O2-  O537  1  0.08270831  0.92924535  0.01453807  1
  O2-  O538  1  0.08385446  0.90052837  0.34760214  1
  O2-  O539  1  0.06099400  0.88192053  0.69428529  1
  O2-  O540  1  0.31505525  0.15009424  0.01596000  1
  O2-  O541  1  0.34794967  0.17450179  0.36299206  1
  O2-  O542  1  0.35346110  0.17356770  0.68446401  1
  O2-  O543  1  0.32669860  0.42466773  0.01039592  1
  O2-  O544  1  0.32284659  0.41345963  0.34632644  1
  O2-  O545  1  0.36046295  0.43763130  0.68092820  1
  O2-  O546  1  0.33024365  0.67134578  0.01136916  1
  O2-  O547  1  0.34008589  0.68893119  0.35133476  1
  O2-  O548  1  0.31855172  0.66320192  0.67702475  1
  O2-  O549  1  0.33517227  0.92241536  0.02006212  1
  O2-  O550  1  0.34231830  0.92706478  0.35008288  1
  O2-  O551  1  0.39585562  0.94597783  0.70833596  1
  O2-  O552  1  0.58469686  0.17634752  0.02233301  1
  O2-  O553  1  0.59227973  0.16699933  0.36198565  1
  O2-  O554  1  0.60122038  0.19777431  0.69253523  1
  O2-  O555  1  0.58168419  0.40264308  0.01202382  1
  O2-  O556  1  0.58622673  0.41748190  0.35811709  1
  O2-  O557  1  0.59529908  0.42126277  0.69045223  1
  O2-  O558  1  0.58171323  0.66039392  0.02258111  1
  O2-  O559  1  0.57997090  0.66991470  0.35189567  1
  O2-  O560  1  0.59419769  0.67875833  0.69606068  1
  O2-  O561  1  0.56833317  0.92628253  0.01766399  1
  O2-  O562  1  0.59332857  0.92400299  0.35647515  1
  O2-  O563  1  0.56282311  0.88712346  0.67362735  1
  O2-  O564  1  0.81241728  0.15346733  0.02151061  1
  O2-  O565  1  0.83451164  0.16639251  0.34889602  1
  O2-  O566  1  0.80229403  0.18206588  0.68321971  1
  O2-  O567  1  0.82093514  0.43145232  0.02545175  1
  O2-  O568  1  0.83102345  0.41806069  0.35214586  1
  O2-  O569  1  0.84551914  0.42668206  0.69533720  1
  O2-  O570  1  0.83072209  0.67286307  0.01799411  1
  O2-  O571  1  0.84420051  0.67892817  0.35196413  1
  O2-  O572  1  0.82366101  0.65828334  0.68398421  1
  O2-  O573  1  0.83477629  0.92205314  0.01434675  1
  O2-  O574  1  0.83261933  0.92051762  0.35012322  1
  O2-  O575  1  0.84423400  0.91748892  0.69342683  1
