# generated using pymatgen
data_H2O
_symmetry_space_group_name_H-M   'P 1'
_cell_length_a   18.00178453
_cell_length_b   17.99842479
_cell_length_c   22.01427356
_cell_angle_alpha   90.00258710
_cell_angle_beta   89.99356650
_cell_angle_gamma   119.99997880
_symmetry_Int_Tables_number   1
_chemical_formula_structural   H2O
_chemical_formula_sum   'H384 O192'
_cell_volume   6177.10718752
_cell_formula_units_Z   192
loop_
 _symmetry_equiv_pos_site_id
 _symmetry_equiv_pos_as_xyz
  1  'x, y, z'
loop_
 _atom_type_symbol
 _atom_type_oxidation_number
  H+  1.0
  O2-  -2.0
loop_
 _atom_site_type_symbol
 _atom_site_label
 _atom_site_symmetry_multiplicity
 _atom_site_fract_x
 _atom_site_fract_y
 _atom_site_fract_z
 _atom_site_occupancy
  H+  H0  1  0.87473234  0.89677191  0.49456541  1
  H+  H1  1  0.27801126  0.87561753  0.66755063  1
  H+  H2  1  0.61472285  0.47028439  0.33033719  1
  H+  H3  1  0.11052241  0.63355588  0.82231762  1
  H+  H4  1  0.64014832  0.11723473  0.32986249  1
  H+  H5  1  0.85884321  0.39446844  0.83740666  1
  H+  H6  1  0.72248657  0.11647549  0.83665915  1
  H+  H7  1  0.72212823  0.84426192  0.33097879  1
  H+  H8  1  0.88870733  0.62562449  1.00677612  1
  H+  H9  1  0.11092698  0.47910907  1.00376807  1
  H+  H10  1  0.28188523  0.64198675  0.15051708  1
  H+  H11  1  0.48530198  0.61456400  0.17039743  1
  H+  H12  1  0.88733854  0.50676049  0.16725894  1
  H+  H13  1  0.10179562  0.72561949  0.50663951  1
  H+  H14  1  0.87165732  0.04082330  0.35826175  1
  H+  H15  1  0.60280787  0.71865292  0.65911029  1
  H+  H16  1  0.12400609  0.60289508  0.51394508  1
  H+  H17  1  0.60799602  0.97449594  0.82819697  1
  H+  H18  1  0.77595207  0.87760576  0.82977060  1
  H+  H19  1  0.34585915  0.21689697  1.00068331  1
  H+  H20  1  0.66135585  0.88496829  0.17821092  1
  H+  H21  1  0.59281602  0.36417959  0.82324099  1
  H+  H22  1  0.97341102  0.09430019  0.83207165  1
  H+  H23  1  0.17073068  0.84106550  0.21155650  1
  H+  H24  1  0.84298287  0.18790697  0.38475698  1
  H+  H25  1  0.87269386  0.71156229  0.18005669  1
  H+  H26  1  0.41565222  0.32962138  0.25002687  1
  H+  H27  1  0.52227277  0.14430172  0.84196368  1
  H+  H28  1  -0.02072845  0.12323123  0.49357335  1
  H+  H29  1  0.77959296  0.13009147  0.00119342  1
  H+  H30  1  0.73383789  0.60633279  0.99561352  1
  H+  H31  1  0.45715567  0.32828078  0.82751003  1
  H+  H32  1  0.13123130  1.01393969  -0.01205646  1
  H+  H33  1  0.63720899  0.36044687  0.31366112  1
  H+  H34  1  0.52185777  0.63834828  0.33930055  1
  H+  H35  1  0.74192534  0.47770518  0.62019864  1
  H+  H36  1  0.86561166  0.73050292  1.01789227  1
  H+  H37  1  0.89201019  0.86081124  0.00126238  1
  H+  H38  1  0.10970687  0.70886822  0.37843873  1
  H+  H39  1  0.98025480  0.13754259  0.20035705  1
  H+  H40  1  0.12764866  0.75996716  0.83454042  1
  H+  H41  1  0.97048695  0.07041764  0.34597533  1
  H+  H42  1  0.97181647  0.61713194  0.32384312  1
  H+  H43  1  0.29911115  0.41128048  0.29959257  1
  H+  H44  1  0.63010899  0.10742768  0.84460484  1
  H+  H45  1  0.62623718  0.73658857  0.48778828  1
  H+  H46  1  0.25095994  0.13148284  0.48829501  1
  H+  H47  1  0.37667050  0.98928830  0.34974904  1
  H+  H48  1  0.35212069  0.13183871  0.15834733  1
  H+  H49  1  0.64981499  0.00685268  0.67315057  1
  H+  H50  1  0.48561548  0.61754315  0.51077643  1
  H+  H51  1  0.16529332  0.82595085  0.89332227  1
  H+  H52  1  0.46063215  0.84627924  0.97406142  1
  H+  H53  1  0.43894184  0.11501811  1.03621416  1
  H+  H54  1  0.62854545  0.81151038  0.57573124  1
  H+  H55  1  -0.00386147  0.38802768  0.32294927  1
  H+  H56  1  0.64418461  0.99271752  0.00539157  1
  H+  H57  1  0.36971532  0.38787160  0.31810994  1
  H+  H58  1  0.37018377  0.47960009  0.16071740  1
  H+  H59  1  0.98156116  0.86548376  0.66055547  1
  H+  H60  1  0.77504243  0.67231668  0.84806371  1
  H+  H61  1  0.11434524  0.88765062  1.00628594  1
  H+  H62  1  0.37127593  0.51629115  0.65692326  1
  H+  H63  1  0.24600925  0.83989085  0.81958489  1
  H+  H64  1  0.73236507  0.12075351  0.17371260  1
  H+  H65  1  0.88782458  0.53621048  0.00308615  1
  H+  H66  1  0.11461154  0.34537595  0.50588255  1
  H+  H67  1  0.16861949  0.05384112  0.33299658  1
  H+  H68  1  0.45839591  0.61261575  0.98499046  1
  H+  H69  1  0.85727513  0.52360449  0.85187230  1
  H+  H70  1  0.88465142  0.77582380  0.51434051  1
  H+  H71  1  0.97797676  0.83402956  0.29897636  1
  H+  H72  1  0.40808515  0.81728316  0.88630805  1
  H+  H73  1  0.96036757  0.61032398  0.52772519  1
  H+  H74  1  0.87762749  0.27451372  0.50288348  1
  H+  H75  1  0.87420168  0.59031924  0.32026456  1
  H+  H76  1  0.39335603  0.01901247  0.18542681  1
  H+  H77  1  0.86511048  0.22641038  0.67069658  1
  H+  H78  1  0.40999130  0.57784659  0.59738831  1
  H+  H79  1  0.19720141  0.31908014  0.34032441  1
  H+  H80  1  0.11137538  0.22534824  0.16759395  1
  H+  H81  1  0.27281284  0.86083935  0.26035685  1
  H+  H82  1  0.74471823  0.86450481  -0.00730465  1
  H+  H83  1  0.31428083  0.87761707  0.07365580  1
  H+  H84  1  0.12127974  0.34575878  0.83957016  1
  H+  H85  1  0.37454155  0.73833721  0.33864058  1
  H+  H86  1  0.64604889  -0.00406765  0.17062968  1
  H+  H87  1  0.12658819  0.39553660  0.16200043  1
  H+  H88  1  0.90426771  0.37289404  0.17029997  1
  H+  H89  1  0.85146810  0.65217431  0.84794814  1
  H+  H90  1  0.09954847  0.21583013  0.49216670  1
  H+  H91  1  0.57081753  0.65383464  0.05251029  1
  H+  H92  1  0.86149099  0.14495587  0.47289994  1
  H+  H93  1  0.40230197  0.87554378  0.34110911  1
  H+  H94  1  0.22777364  0.86806881  -0.01536335  1
  H+  H95  1  0.62619845  0.30291314  0.50041497  1
  H+  H96  1  0.06616276  0.75746983  0.34930679  1
  H+  H97  1  0.64511214  0.10943951  0.98818386  1
  H+  H98  1  0.73410150  0.60350729  0.18103918  1
  H+  H99  1  0.12418369  0.48771452  0.34692295  1
  H+  H100  1  0.39809446  0.57275704  0.92591373  1
  H+  H101  1  0.77057108  0.13721934  0.47956485  1
  H+  H102  1  0.64589558  0.89763940  0.70368947  1
  H+  H103  1  0.52677457  0.38554863  0.31811142  1
  H+  H104  1  0.88265649  -0.01199319  1.00404980  1
  H+  H105  1  0.86929136  -0.02633150  0.68664117  1
  H+  H106  1  0.02108141  0.62419150  0.15635126  1
  H+  H107  1  0.39459133  0.87705807  0.24730494  1
  H+  H108  1  0.63452711  0.26944581  0.83662933  1
  H+  H109  1  0.40103702  0.12207885  0.32943718  1
  H+  H110  1  0.39509281  0.28059645  0.31561879  1
  H+  H111  1  0.65463377  0.87241604  0.49166341  1
  H+  H112  1  0.02155091  0.63710524  0.67275378  1
  H+  H113  1  0.12294898  -0.02478926  0.66880622  1
  H+  H114  1  0.38615386  0.28094453  0.66629060  1
  H+  H115  1  0.64315068  0.35384931  -0.00666033  1
  H+  H116  1  1.01011326  0.37230811  0.66996537  1
  H+  H117  1  0.39293505  0.53285847  0.32420471  1
  H+  H118  1  0.23106511  0.11489637  0.65580628  1
  H+  H119  1  0.25150885  0.36406626  0.82651064  1
  H+  H120  1  0.71831715  0.61711518  0.33453486  1
  H+  H121  1  0.59221636  0.83843822  0.63258275  1
  H+  H122  1  0.38936214  0.18364730  0.84765176  1
  H+  H123  1  0.48862250  0.87506632  0.32738591  1
  H+  H124  1  0.85795336  0.71968763  0.33853479  1
  H+  H125  1  0.89516063  0.33564736  1.01844268  1
  H+  H126  1  0.78003692  0.13305931  0.67720669  1
  H+  H127  1  0.34239382  0.21881659  0.49870786  1
  H+  H128  1  0.63623474  0.08857117  0.52746882  1
  H+  H129  1  0.35825305  0.71022554  0.81426208  1
  H+  H130  1  0.88810528  0.58273785  0.91241446  1
  H+  H131  1  0.87322557  0.21302897  0.00404360  1
  H+  H132  1  0.64631250  0.63103338  0.51414956  1
  H+  H133  1  0.50099411  0.64474982  0.81482613  1
  H+  H134  1  0.62256465  0.21910750  -0.00474983  1
  H+  H135  1  0.84958625  0.23985387  0.82887907  1
  H+  H136  1  0.46611362  0.11480329  0.16751574  1
  H+  H137  1  0.38667696  0.27179410  0.16130997  1
  H+  H138  1  0.86504026  0.72581677  0.67019992  1
  H+  H139  1  0.85261310  0.85088926  0.31839245  1
  H+  H140  1  0.62336355  0.61955292  0.15976590  1
  H+  H141  1  0.58957992  0.44894769  0.83037552  1
  H+  H142  1  0.12281079  0.01618791  0.49907516  1
  H+  H143  1  0.13367892  0.26688145  0.66054437  1
  H+  H144  1  0.33977268  1.02045592  0.78499933  1
  H+  H145  1  0.61528694  0.27032559  0.69644392  1
  H+  H146  1  0.59590551  0.08700675  0.68662183  1
  H+  H147  1  0.63759623  0.25881344  0.67253354  1
  H+  H148  1  0.62829770  0.78393973  0.18768067  1
  H+  H149  1  0.88577087  0.61509853  0.67192042  1
  H+  H150  1  0.30188243  0.37634538  0.00451412  1
  H+  H151  1  0.86568278  -0.02899617  0.82636040  1
  H+  H152  1  0.97109135  0.36747688  0.84378115  1
  H+  H153  1  0.89284825  0.11950038  0.67325605  1
  H+  H154  1  0.90071178  0.84266703  0.20092471  1
  H+  H155  1  0.64523609  0.62535323  0.66985838  1
  H+  H156  1  0.38811211  0.06691445  0.86863240  1
  H+  H157  1  0.97729257  0.85574579  1.00230181  1
  H+  H158  1  0.87166807  -0.01573435  0.48831489  1
  H+  H159  1  0.03163475  0.13503128  0.67886740  1
  H+  H160  1  0.35650654  0.89542146  0.50298999  1
  H+  H161  1  0.89246739  0.86733516  0.66350658  1
  H+  H162  1  0.86991594  0.41276935  -0.02057809  1
  H+  H163  1  0.63857676  0.53955057  0.51290963  1
  H+  H164  1  0.09576541  0.25826402  -0.06825504  1
  H+  H165  1  0.32709106  0.68957730  0.64195609  1
  H+  H166  1  0.36750958  0.11611964  0.50310958  1
  H+  H167  1  0.36561398  0.58862151  0.83025040  1
  H+  H168  1  0.77815338  0.37374343  0.15425975  1
  H+  H169  1  0.37783276  0.03252379  0.50813458  1
  H+  H170  1  0.10663716  0.62958348  0.66903604  1
  H+  H171  1  0.01308050  0.87709938  0.48893334  1
  H+  H172  1  0.76444574  0.38145363  0.34427368  1
  H+  H173  1  0.11546951  0.89034149  0.33435829  1
  H+  H174  1  0.13126290  0.35237945  0.33397379  1
  H+  H175  1  0.10422416  0.13382960  0.17382660  1
  H+  H176  1  0.56539670  0.90987187  0.03652097  1
  H+  H177  1  0.86540919  0.14898852  0.17010447  1
  H+  H178  1  0.86420318  0.47781383  0.50062232  1
  H+  H179  1  0.26288983  0.65094290  0.48987514  1
  H+  H180  1  0.87219410  0.61053591  0.52075619  1
  H+  H181  1  0.52478899  0.13499790  0.33155263  1
  H+  H182  1  0.50250184  0.15266168  0.48723948  1
  H+  H183  1  0.33619476  0.35665879  0.81873071  1
  H+  H184  1  0.35373259  0.63552983  -0.00599860  1
  H+  H185  1  0.40065180  0.52818989  0.50484685  1
  H+  H186  1  0.31654457  0.40656524  0.72962101  1
  H+  H187  1  0.14973932  0.14642772  1.02335653  1
  H+  H188  1  0.52538067  0.41900166  0.49623214  1
  H+  H189  1  0.49623650  0.78003594  0.56260065  1
  H+  H190  1  0.10833944  0.89809279  0.15276155  1
  H+  H191  1  0.35373533  0.61601768  0.65884456  1
  H+  H192  1  0.11621478  0.12912707  0.82704092  1
  H+  H193  1  0.88336666  0.10246032  0.98386757  1
  H+  H194  1  0.41633603  0.78328103  0.68801461  1
  H+  H195  1  0.37842132  0.30737415  0.91764351  1
  H+  H196  1  0.53368405  0.87437393  0.49639453  1
  H+  H197  1  0.10208632  0.87750789  0.49019093  1
  H+  H198  1  0.37228481  0.15576402  0.67645918  1
  H+  H199  1  0.35415362  0.38551837  0.67060847  1
  H+  H200  1  0.11735614  0.88411199  0.82363028  1
  H+  H201  1  0.90802794  0.57777541  0.61360530  1
  H+  H202  1  0.18496636  0.78984014  0.29504193  1
  H+  H203  1  0.60680736  0.48810406  0.67772429  1
  H+  H204  1  0.23770795  0.12529516  0.84355615  1
  H+  H205  1  0.11740956  0.50362718  0.66082610  1
  H+  H206  1  0.90119606  0.30426292  0.31773079  1
  H+  H207  1  0.14349224  0.61834491  0.16983634  1
  H+  H208  1  0.47420924  0.11312502  0.66045076  1
  H+  H209  1  0.24532530  0.63099608  0.32597254  1
  H+  H210  1  0.80438523  0.74584040  0.37634605  1
  H+  H211  1  0.52958018  0.38223671  0.15978309  1
  H+  H212  1  0.07601049  0.18578720  0.34510690  1
  H+  H213  1  0.47529289  0.37190734  0.66324185  1
  H+  H214  1  0.37066530  0.76087590  0.98273204  1
  H+  H215  1  0.20516588  0.84089530  0.14557390  1
  H+  H216  1  0.10312958  0.22408835  -0.00290752  1
  H+  H217  1  0.08124369  0.42411764  0.40448848  1
  H+  H218  1  0.12583968  0.97763435  0.82443111  1
  H+  H219  1  0.10222034  0.71967611  0.15535630  1
  H+  H220  1  0.59735183  0.23017356  0.14904231  1
  H+  H221  1  0.67333694  0.09045218  0.23341310  1
  H+  H222  1  0.29406506  0.00560838  0.79387484  1
  H+  H223  1  0.11836946  0.10321532  0.50332287  1
  H+  H224  1  0.21651007  0.86039162  0.50785011  1
  H+  H225  1  0.12364298  0.25777792  0.83604535  1
  H+  H226  1  0.15993669  0.08877111  0.24084824  1
  H+  H227  1  0.60564709  0.72739105  0.00231455  1
  H+  H228  1  0.77675947  0.85571760  0.16787613  1
  H+  H229  1  0.62814969  0.60994652  0.32687484  1
  H+  H230  1  0.88471587  0.36825618  0.50707794  1
  H+  H231  1  0.20906407  0.58982820  0.66070530  1
  H+  H232  1  0.50656423  0.86887099  0.68025703  1
  H+  H233  1  0.37064931  0.87964324  0.67534570  1
  H+  H234  1  0.34504213  0.83761910  0.81585669  1
  H+  H235  1  0.53308029  0.12981083  -0.00272019  1
  H+  H236  1  0.11029091  0.98726333  0.15877578  1
  H+  H237  1  0.38127701  0.38982809  0.48191435  1
  H+  H238  1  0.39174557  0.36452145  0.16209898  1
  H+  H239  1  0.59881910  0.17341422  0.49067995  1
  H+  H240  1  -0.01096172  0.87581681  0.83157025  1
  H+  H241  1  0.33997609  0.18259273  0.73662477  1
  H+  H242  1  0.53563237  0.37421631  0.01741632  1
  H+  H243  1  0.78268423  0.40301953  0.67728566  1
  H+  H244  1  0.11974699  0.13300494  0.67027854  1
  H+  H245  1  0.46877028  0.29318518  0.53412284  1
  H+  H246  1  0.37111896  -0.00928558  1.00503286  1
  H+  H247  1  0.36437830  0.89791848  0.98819879  1
  H+  H248  1  0.85822238  0.46144077  0.34368954  1
  H+  H249  1  0.36135518  0.72266940  0.49723045  1
  H+  H250  1  0.10371291  0.46571878  0.82391907  1
  H+  H251  1  0.77540082  0.63807977  0.67422689  1
  H+  H252  1  0.22062646  0.61395821  0.98669494  1
  H+  H253  1  0.86591104  0.62149171  0.16550477  1
  H+  H254  1  0.88049047  0.35944970  0.66054813  1
  H+  H255  1  0.73308180  0.12646700  0.32539136  1
  H+  H256  1  1.01047809  0.38141154  0.49495051  1
  H+  H257  1  0.14423912  0.86148639  0.65978402  1
  H+  H258  1  0.12994655  0.48731088  0.16084619  1
  H+  H259  1  0.64219160  0.00787544  0.50832587  1
  H+  H260  1  0.15687302  0.63104477  0.32130389  1
  H+  H261  1  0.41781283  0.37073907  0.97257380  1
  H+  H262  1  0.66092453  0.87106729  0.99496214  1
  H+  H263  1  0.64290347  0.86820629  0.84221713  1
  H+  H264  1  0.34333019  0.47826013  0.00571989  1
  H+  H265  1  0.65045917  0.51445493  0.99783921  1
  H+  H266  1  0.22296197  0.10035141  -0.01158071  1
  H+  H267  1  0.36920480  0.50208996  0.83452275  1
  H+  H268  1  1.00322358  0.38491867  0.17241428  1
  H+  H269  1  0.58746105  0.73568934  0.81955532  1
  H+  H270  1  0.65001173  0.36206262  0.17016468  1
  H+  H271  1  0.09993135  0.37223530  0.67115359  1
  H+  H272  1  0.62402700  -0.01537786  0.34126609  1
  H+  H273  1  0.64234590  0.70858973  0.13370518  1
  H+  H274  1  0.97833788  0.13159490  0.96690658  1
  H+  H275  1  0.35721722  0.13300192  1.00405154  1
  H+  H276  1  0.34734949  0.86948378  0.18231868  1
  H+  H277  1  0.63816639  0.27158739  0.31824976  1
  H+  H278  1  -0.00862599  0.36208073  0.00027600  1
  H+  H279  1  0.21727759  0.60115777  0.83224541  1
  H+  H280  1  0.61158298  0.41721617  0.48856144  1
  H+  H281  1  0.14050488  0.77645838  0.98941972  1
  H+  H282  1  0.92242302  0.84130236  0.57004507  1
  H+  H283  1  0.87563016  0.17130964  0.32044239  1
  H+  H284  1  0.21730362  0.35902724  0.65697498  1
  H+  H285  1  0.77341953  0.38468521  0.99507848  1
  H+  H286  1  0.72029481  0.53680857  0.85360418  1
  H+  H287  1  0.47460460  0.85591731  0.82968459  1
  H+  H288  1  0.21800237  0.11688171  0.18005108  1
  H+  H289  1  0.91624122  0.08541637  0.25379564  1
  H+  H290  1  0.09099477  0.42400619  0.06482970  1
  H+  H291  1  0.89173845  0.78211106  0.84549840  1
  H+  H292  1  0.28575181  0.78449484  0.10043899  1
  H+  H293  1  0.08723519  0.92536418  0.06483227  1
  H+  H294  1  0.44168366  0.81936256  0.58140937  1
  H+  H295  1  0.64066448  0.94344297  0.10991296  1
  H+  H296  1  0.82842165  0.67157908  0.44870527  1
  H+  H297  1  0.83436905  0.66679449  0.07675203  1
  H+  H298  1  0.83311839  0.90266845  0.73640962  1
  H+  H299  1  0.09370341  0.91761090  0.72901096  1
  H+  H300  1  0.34868282  0.41913508  0.42623155  1
  H+  H301  1  0.76892617  0.64135427  0.50823632  1
  H+  H302  1  0.62160027  0.89338459  0.34105649  1
  H+  H303  1  0.15684855  0.57114058  0.56915349  1
  H+  H304  1  0.72063633  0.36300245  0.83722782  1
  H+  H305  1  0.58940342  0.66846878  0.43362696  1
  H+  H306  1  0.91239062  0.11980764  0.54450620  1
  H+  H307  1  0.12073456  0.11054756  0.33608650  1
  H+  H308  1  0.14597072  0.31600110  0.56383685  1
  H+  H309  1  0.04650651  0.65315559  0.45739336  1
  H+  H310  1  0.16085303  0.83119334  0.56851027  1
  H+  H311  1  0.66498819  0.58821322  0.60916220  1
  H+  H312  1  0.06289087  0.87073905  0.39633969  1
  H+  H313  1  0.89261606  0.87701170  0.83419214  1
  H+  H314  1  0.32211656  0.16069381  0.09880329  1
  H+  H315  1  0.33191041  0.66854560  0.05639736  1
  H+  H316  1  0.33389196  0.68189168  0.39844569  1
  H+  H317  1  0.42471912  0.11144217  0.59900812  1
  H+  H318  1  0.42558994  0.59387679  0.22878388  1
  H+  H319  1  0.59068120  0.68830434  0.72777097  1
  H+  H320  1  0.06871141  0.14886045  0.42999242  1
  H+  H321  1  0.08519281  0.66738388  0.76340177  1
  H+  H322  1  0.16944861  0.33296771  0.23344138  1
  H+  H323  1  0.91837055  0.33796396  0.90618914  1
  H+  H324  1  0.39037755  0.62124685  0.32795468  1
  H+  H325  1  0.58537349  0.91645593  0.76786364  1
  H+  H326  1  0.41966821  0.32391605  0.57740292  1
  H+  H327  1  0.06836781  0.40249734  0.76674916  1
  H+  H328  1  0.50507102  0.02597408  0.71439670  1
  H+  H329  1  0.58292441  0.91636491  0.43138144  1
  H+  H330  1  0.74473064  0.87279750  0.49698231  1
  H+  H331  1  0.29312942  0.89918679  0.34600523  1
  H+  H332  1  0.83486736  0.15519892  0.10272472  1
  H+  H333  1  0.91146751  0.06840891  0.88946438  1
  H+  H334  1  0.35430002  0.18472039  0.40437394  1
  H+  H335  1  0.67387799  0.37206228  0.55345630  1
  H+  H336  1  0.13211725  0.61426207  0.98705937  1
  H+  H337  1  0.57068390  0.17047113  0.09057025  1
  H+  H338  1  0.67033466  0.83823874  0.27123997  1
  H+  H339  1  0.82960385  0.18076359  0.76962634  1
  H+  H340  1  0.67679478  0.06823391  0.61354985  1
  H+  H341  1  0.66944154  0.57716666  0.23821147  1
  H+  H342  1  0.41529725  0.08337346  0.26687459  1
  H+  H343  1  0.91690087  0.56465302  0.22806633  1
  H+  H344  1  0.66674940  0.32950999  0.92806341  1
  H+  H345  1  0.18144722  0.59604204  0.22892862  1
  H+  H346  1  0.15998644  0.57635350  0.89292442  1
  H+  H347  1  0.45019257  0.23949085  0.38423540  1
  H+  H348  1  0.94308185  0.36093610  0.24386828  1
  H+  H349  1  0.43039956  0.11709803  0.92947920  1
  H+  H350  1  0.32120744  0.65116604  0.75553266  1
  H+  H351  1  0.83764475  0.40612341  0.09430215  1
  H+  H352  1  0.16920881  0.08038445  0.59634381  1
  H+  H353  1  0.87341730  0.48128342  0.68492216  1
  H+  H354  1  0.91557989  0.06862935  0.62289683  1
  H+  H355  1  0.85529286  0.93331033  0.06642661  1
  H+  H356  1  0.57739254  0.17471122  0.39232817  1
  H+  H357  1  0.66940575  0.55318152  0.90435547  1
  H+  H358  1  0.12058243  0.17660757  0.08249714  1
  H+  H359  1  0.08668433  0.66814406  0.06261260  1
  H+  H360  1  0.65637295  0.41323352  0.65262002  1
  H+  H361  1  0.84549182  0.89876041  0.37546120  1
  H+  H362  1  0.81419127  0.81409571  0.12359878  1
  H+  H363  1  0.33347120  0.92511472  0.44133357  1
  H+  H364  1  0.61997128  0.47101356  0.16530784  1
  H+  H365  1  0.57461771  0.41586545  0.73164737  1
  H+  H366  1  0.67779556  0.32789995  0.22730945  1
  H+  H367  1  0.23380970  0.36661620  0.17564039  1
  H+  H368  1  0.02520911  0.64463332  0.00541433  1
  H+  H369  1  0.31193318  0.87152349  0.75000244  1
  H+  H370  1  0.67386398  0.83526829  0.89937383  1
  H+  H371  1  0.33000140  0.42090782  0.10172873  1
  H+  H372  1  0.61101881  0.72613669  0.33867480  1
  H+  H373  1  0.10191796  0.46869120  0.49818526  1
  H+  H374  1  0.90451935  0.32837160  0.59760571  1
  H+  H375  1  0.59571433  0.40756497  0.07546043  1
  H+  H376  1  0.83165534  0.42088408  0.77541474  1
  H+  H377  1  0.83607601  0.41930711  0.43923349  1
  H+  H378  1  0.08937311  0.15794774  0.76595219  1
  H+  H379  1  0.37120744  0.64554975  0.14744729  1
  H+  H380  1  0.67287855  0.07775738  0.92788475  1
  H+  H381  1  0.13909820  0.76928074  0.65727375  1
  H+  H382  1  0.17198625  0.08028340  0.89895062  1
  H+  H383  1  0.56383949  0.14069632  0.77782696  1
  O2-  O384  1  0.07438792  0.16397320  0.15707773  1
  O2-  O385  1  0.06851755  0.15324449  0.47867986  1
  O2-  O386  1  0.08271042  0.15532896  0.81112760  1
  O2-  O387  1  0.09651186  0.42625549  0.14682597  1
  O2-  O388  1  0.07104885  0.41061487  0.47902885  1
  O2-  O389  1  0.06972654  0.40378643  0.81215053  1
  O2-  O390  1  0.08190202  0.65922226  0.14217222  1
  O2-  O391  1  0.06639777  0.66143547  0.49924140  1
  O2-  O392  1  0.08514246  0.66876770  0.80858799  1
  O2-  O393  1  0.08237935  0.93115511  0.13694461  1
  O2-  O394  1  0.07109376  0.90249417  0.46828998  1
  O2-  O395  1  0.09053845  0.91773814  0.80851773  1
  O2-  O396  1  0.32562500  0.16554402  0.14409883  1
  O2-  O397  1  0.31352875  0.16348985  0.47606141  1
  O2-  O398  1  0.35726274  0.20550519  0.82239564  1
  O2-  O399  1  0.33853952  0.41856167  0.14707625  1
  O2-  O400  1  0.35670128  0.42522995  0.47026206  1
  O2-  O401  1  0.31146457  0.39306990  0.80855668  1
  O2-  O402  1  0.33896466  0.67201232  0.13040982  1
  O2-  O403  1  0.31274396  0.69786383  0.46845454  1
  O2-  O404  1  0.32131126  0.64989495  0.80059941  1
  O2-  O405  1  0.29486589  0.84077839  0.11199640  1
  O2-  O406  1  0.32595025  0.92332817  0.48722720  1
  O2-  O407  1  0.29798824  0.84496918  0.79497935  1
  O2-  O408  1  0.54773768  0.18243728  0.12780813  1
  O2-  O409  1  0.56196598  0.18990647  0.46945662  1
  O2-  O410  1  0.57730489  0.16187766  0.82047527  1
  O2-  O411  1  0.59162256  0.41158902  0.14785183  1
  O2-  O412  1  0.58331268  0.45239155  0.47963839  1
  O2-  O413  1  0.55722731  0.39041808  0.81083223  1
  O2-  O414  1  0.59514649  0.65067878  0.14085910  1
  O2-  O415  1  0.59343426  0.67363005  0.47873880  1
  O2-  O416  1  0.54329393  0.69469118  0.79133955  1
  O2-  O417  1  0.62913113  0.93559747  0.15387925  1
  O2-  O418  1  0.58921518  0.91629849  0.47683714  1
  O2-  O419  1  0.57730497  0.91343372  0.81373626  1
  O2-  O420  1  0.82952363  0.16579619  0.14608978  1
  O2-  O421  1  0.82785888  0.17341577  0.46092712  1
  O2-  O422  1  0.81396247  0.18098824  0.81266024  1
  O2-  O423  1  0.83969277  0.40520314  0.13918870  1
  O2-  O424  1  0.84952322  0.42130760  0.48366152  1
  O2-  O425  1  0.82524388  0.42054165  0.82062137  1
  O2-  O426  1  0.83757204  0.65652693  0.15780296  1
  O2-  O427  1  0.83121987  0.66921657  0.49349247  1
  O2-  O428  1  0.83492258  0.69625087  0.83555201  1
  O2-  O429  1  0.83165907  0.86236620  0.15122877  1
  O2-  O430  1  0.84448093  0.92396287  0.47454802  1
  O2-  O431  1  0.83616308  0.90640799  0.81370146  1
  O2-  O432  1  0.15797919  0.08502488  0.19473252  1
  O2-  O433  1  0.15257112  0.07493573  0.51642632  1
  O2-  O434  1  0.17732888  0.08337150  0.85268225  1
  O2-  O435  1  0.17228853  0.33876235  0.18859327  1
  O2-  O436  1  0.14018591  0.31036191  0.51896411  1
  O2-  O437  1  0.15257945  0.31668512  0.85433245  1
  O2-  O438  1  0.17840888  0.59226490  0.18381654  1
  O2-  O439  1  0.15798806  0.57499109  0.52355217  1
  O2-  O440  1  0.15712372  0.57230559  0.84751034  1
  O2-  O441  1  0.15231944  0.82787944  0.16860705  1
  O2-  O442  1  0.15615246  0.82848768  0.52253659  1
  O2-  O443  1  0.16414132  0.82378348  0.84763731  1
  O2-  O444  1  0.41006890  0.07953986  0.19029982  1
  O2-  O445  1  0.40684720  0.09502711  0.51737884  1
  O2-  O446  1  0.42889468  0.12461410  0.88285909  1
  O2-  O447  1  0.42171810  0.33281590  0.17560190  1
  O2-  O448  1  0.42626843  0.31170826  0.53284470  1
  O2-  O449  1  0.39355547  0.29586761  0.84098181  1
  O2-  O450  1  0.42494776  0.58925722  0.18361463  1
  O2-  O451  1  0.42511455  0.58525495  0.52448462  1
  O2-  O452  1  0.39744479  0.56246541  0.84911013  1
  O2-  O453  1  0.35991621  0.89584439  0.22336474  1
  O2-  O454  1  0.45547233  0.79706974  0.54463842  1
  O2-  O455  1  0.41175298  0.81754985  0.84093273  1
  O2-  O456  1  0.67113182  0.08704094  0.18863386  1
  O2-  O457  1  0.67643619  0.06745342  0.52710077  1
  O2-  O458  1  0.66256769  0.07756573  0.85437878  1
  O2-  O459  1  0.67919325  0.32930115  0.18131933  1
  O2-  O460  1  0.65695830  0.36422417  0.51019233  1
  O2-  O461  1  0.65902796  0.32982045  0.85134257  1
  O2-  O462  1  0.67176054  0.57332186  0.19259489  1
  O2-  O463  1  0.67386929  0.59920148  0.53184170  1
  O2-  O464  1  0.66958016  0.54289595  0.85893217  1
  O2-  O465  1  0.67911120  0.83960396  0.19524523  1
  O2-  O466  1  0.68177886  0.84027921  0.50805299  1
  O2-  O467  1  0.67195674  0.83569265  0.85404030  1
  O2-  O468  1  0.92985926  0.13107913  0.22362449  1
  O2-  O469  1  0.91330285  0.09821198  0.50421979  1
  O2-  O470  1  0.91210482  0.06230736  0.84429448  1
  O2-  O471  1  0.94320157  0.35614964  0.19143835  1
  O2-  O472  1  0.90998874  0.33102517  0.52318997  1
  O2-  O473  1  0.91233204  0.34436375  0.86201218  1
  O2-  O474  1  0.91765973  0.56730961  0.18286379  1
  O2-  O475  1  0.89849547  0.57703312  0.53782077  1
  O2-  O476  1  0.86176857  0.57523416  0.87149799  1
  O2-  O477  1  0.93016888  0.81150212  0.21638820  1
  O2-  O478  1  0.91977606  0.83845746  0.52408701  1
  O2-  O479  1  0.93022132  0.85079451  0.85042971  1
  O2-  O480  1  0.16714896  0.10111294  0.31313071  1
  O2-  O481  1  0.17059047  0.08016756  0.64171855  1
  O2-  O482  1  0.16381751  0.07424146  0.97119275  1
  O2-  O483  1  0.15150284  0.31590752  0.31453868  1
  O2-  O484  1  0.15564409  0.32603585  0.64409991  1
  O2-  O485  1  0.06205141  0.22692699  0.96748250  1
  O2-  O486  1  0.18414512  0.59826380  0.30941999  1
  O2-  O487  1  0.14881660  0.56477781  0.64584317  1
  O2-  O488  1  0.16039787  0.58246517  0.97119431  1
  O2-  O489  1  0.22008087  0.85074296  0.28488198  1
  O2-  O490  1  0.17308376  0.83051729  0.64251043  1
  O2-  O491  1  0.16690812  0.83501186  0.97070535  1
  O2-  O492  1  0.42014407  0.08304112  0.31246232  1
  O2-  O493  1  0.43236723  0.12699678  0.64250373  1
  O2-  O494  1  0.42234063  0.08795608  0.99633030  1
  O2-  O495  1  0.41661303  0.33699691  0.29558940  1
  O2-  O496  1  0.41450371  0.33962189  0.64741006  1
  O2-  O497  1  0.37156045  0.31380489  0.96195339  1
  O2-  O498  1  0.42176448  0.59352067  0.31016419  1
  O2-  O499  1  0.39965022  0.57685763  0.64277046  1
  O2-  O500  1  0.39713039  0.57876655  0.97120633  1
  O2-  O501  1  0.42624522  0.84654797  0.31601466  1
  O2-  O502  1  0.44255506  0.83979736  0.66863738  1
  O2-  O503  1  0.40047244  0.82112580  0.96299514  1
  O2-  O504  1  0.67136691  0.08705868  0.31663573  1
  O2-  O505  1  0.67487684  0.07082771  0.65822880  1
  O2-  O506  1  0.67674964  0.07964273  0.97385360  1
  O2-  O507  1  0.67073918  0.33101185  0.30181929  1
  O2-  O508  1  0.70694770  0.41700771  0.63026648  1
  O2-  O509  1  0.67374055  0.32691304  0.97326573  1
  O2-  O510  1  0.66247651  0.58259781  0.31355017  1
  O2-  O511  1  0.66464312  0.58373612  0.65450708  1
  O2-  O512  1  0.67655021  0.57009663  0.97670046  1
  O2-  O513  1  0.66456448  0.83247354  0.31663086  1
  O2-  O514  1  0.58098541  0.78932555  0.60613378  1
  O2-  O515  1  0.68414926  0.83539943  0.97817321  1
  O2-  O516  1  0.90740695  0.02940185  0.33118340  1
  O2-  O517  1  0.92482417  0.08669636  0.66511749  1
  O2-  O518  1  0.91870405  0.07869728  0.96621793  1
  O2-  O519  1  0.93936091  0.36291216  0.30097282  1
  O2-  O520  1  0.90685071  0.32658914  0.64349462  1
  O2-  O521  1  0.92707498  0.32538892  0.98698089  1
  O2-  O522  1  0.91551186  0.57368576  0.30702042  1
  O2-  O523  1  0.91586093  0.58202554  0.65881520  1
  O2-  O524  1  0.91969102  0.59628402  0.98886877  1
  O2-  O525  1  0.91867548  0.80873491  0.28229314  1
  O2-  O526  1  0.92189333  0.83704561  0.64490086  1
  O2-  O527  1  0.91492432  0.82215651  0.99226773  1
  O2-  O528  1  0.15672745  0.19734801  0.04540733  1
  O2-  O529  1  0.06126261  0.13213559  0.36587793  1
  O2-  O530  1  0.09404067  0.16553054  0.68914681  1
  O2-  O531  1  0.08295933  0.41972272  0.02023302  1
  O2-  O532  1  0.08884457  0.42671441  0.35872963  1
  O2-  O533  1  0.06964882  0.40242028  0.68711188  1
  O2-  O534  1  0.08738804  0.67242533  0.01737702  1
  O2-  O535  1  0.07477254  0.70648841  0.34386493  1
  O2-  O536  1  0.08466572  0.66793084  0.68277449  1
  O2-  O537  1  0.08406958  0.91847422  0.01875843  1
  O2-  O538  1  0.06123289  0.84890696  0.35322396  1
  O2-  O539  1  0.09351482  0.91462344  0.68371131  1
  O2-  O540  1  0.32270145  0.15913189  0.01917660  1
  O2-  O541  1  0.39282180  0.20249825  0.36776733  1
  O2-  O542  1  0.33439849  0.17857847  0.69201734  1
  O2-  O543  1  0.31033084  0.42445178  0.02977347  1
  O2-  O544  1  0.33884109  0.41910863  0.33240151  1
  O2-  O545  1  0.31929548  0.41145294  0.68438929  1
  O2-  O546  1  0.32686840  0.66931647  0.01044227  1
  O2-  O547  1  0.34150334  0.67757721  0.35316273  1
  O2-  O548  1  0.31925370  0.64885392  0.67392538  1
  O2-  O549  1  0.33452280  0.92386775  0.00936591  1
  O2-  O550  1  0.34760586  0.93078112  0.36927236  1
  O2-  O551  1  0.33344649  0.90195573  0.69074477  1
  O2-  O552  1  0.59466714  0.15903513  0.01084761  1
  O2-  O553  1  0.58457320  0.16799783  0.34831422  1
  O2-  O554  1  0.54463172  0.08642146  0.70599315  1
  O2-  O555  1  0.59575061  0.40384398  0.02924740  1
  O2-  O556  1  0.58505507  0.40705036  0.33467439  1
  O2-  O557  1  0.57702105  0.42374893  0.68678326  1
  O2-  O558  1  0.55606132  0.67163704  0.01455040  1
  O2-  O559  1  0.58280710  0.66548838  0.35358190  1
  O2-  O560  1  0.62459342  0.69492303  0.69010898  1
  O2-  O561  1  0.62600161  0.93544639  0.02715679  1
  O2-  O562  1  0.59055315  0.92333661  0.35548427  1
  O2-  O563  1  0.60496890  0.91653630  0.69450681  1
  O2-  O564  1  0.83836591  0.15281681  0.01831951  1
  O2-  O565  1  0.84452000  0.19679556  0.33953344  1
  O2-  O566  1  0.84210188  0.16782404  0.68917320  1
  O2-  O567  1  0.83466943  0.41884401  0.01065876  1
  O2-  O568  1  0.82028581  0.40900675  0.36616908  1
  O2-  O569  1  0.83846652  0.41883663  0.69673619  1
  O2-  O570  1  0.83437377  0.66737644  0.03171936  1
  O2-  O571  1  0.81453592  0.69651982  0.37112156  1
  O2-  O572  1  0.83733828  0.66567671  0.68473214  1
  O2-  O573  1  0.85073913  0.92828859  0.02210862  1
  O2-  O574  1  0.81416056  0.84492510  0.35231665  1
  O2-  O575  1  0.83977772  0.91087758  0.69147862  1
