# generated using pymatgen
data_H2O
_symmetry_space_group_name_H-M   'P 1'
_cell_length_a   17.99227869
_cell_length_b   17.99556602
_cell_length_c   21.99916287
_cell_angle_alpha   89.98839194
_cell_angle_beta   89.99911792
_cell_angle_gamma   119.99943496
_symmetry_Int_Tables_number   1
_chemical_formula_structural   H2O
_chemical_formula_sum   'H384 O192'
_cell_volume   6168.66132644
_cell_formula_units_Z   192
loop_
 _symmetry_equiv_pos_site_id
 _symmetry_equiv_pos_as_xyz
  1  'x, y, z'
loop_
 _atom_type_symbol
 _atom_type_oxidation_number
  H+  1.0
  O2-  -2.0
loop_
 _atom_site_type_symbol
 _atom_site_label
 _atom_site_symmetry_multiplicity
 _atom_site_fract_x
 _atom_site_fract_y
 _atom_site_fract_z
 _atom_site_occupancy
  H+  H0  1  0.49266114  0.84615732  0.02745005  1
  H+  H1  1  0.03334592  0.38507868  0.49863962  1
  H+  H2  1  0.11884304  0.48756308  0.34098003  1
  H+  H3  1  0.81931446  0.31738476  0.87580404  1
  H+  H4  1  0.88832468  0.52999342  0.83498841  1
  H+  H5  1  0.61542753  0.19786891  0.67275828  1
  H+  H6  1  1.03910062  0.89886775  0.66775574  1
  H+  H7  1  0.36560675  0.88850575  0.33170157  1
  H+  H8  1  1.02066812  0.18312202  0.47943111  1
  H+  H9  1  0.59315416  0.43071718  0.11201454  1
  H+  H10  1  0.47617146  0.03455279  0.12952659  1
  H+  H11  1  0.39718634  0.53141730  0.66922565  1
  H+  H12  1  0.38027774  0.35041220  0.69498212  1
  H+  H13  1  0.98073072  0.85155092  0.18593773  1
  H+  H14  1  0.61584667  0.12379777  0.85724204  1
  H+  H15  1  0.60319092  0.95514594  0.17313247  1
  H+  H16  1  0.76595939  0.35394704  0.66638110  1
  H+  H17  1  0.36015865  0.64691609  0.15905548  1
  H+  H18  1  0.27968750  0.64464237  0.33492725  1
  H+  H19  1  0.33398935  0.68792160  0.10552264  1
  H+  H20  1  0.59314686  0.98033776  0.83410889  1
  H+  H21  1  0.11545417  0.13820293  0.00635638  1
  H+  H22  1  0.51473133  0.63957505  0.82410115  1
  H+  H23  1  0.14580716  0.61736219  0.32734628  1
  H+  H24  1  0.62993874  0.50425898  0.41585737  1
  H+  H25  1  0.36445745  0.97888739  0.17130553  1
  H+  H26  1  0.65866976  0.45296225  0.45722354  1
  H+  H27  1  0.91335597  0.53191219  0.61123080  1
  H+  H28  1  0.50575024  0.38999601  0.46909664  1
  H+  H29  1  0.36967011  0.88699905  0.49335030  1
  H+  H30  1  0.63080100  0.85985792  0.17111022  1
  H+  H31  1  0.04338498  0.64982976  0.67674982  1
  H+  H32  1  0.76699104  0.63353037  0.19928897  1
  H+  H33  1  0.34704978  0.21485096  0.33315071  1
  H+  H34  1  0.89266705  0.02560743  0.67386251  1
  H+  H35  1  0.88348899  0.03188306  0.99019282  1
  H+  H36  1  0.52805399  0.64136974  0.15784206  1
  H+  H37  1  0.38934965  0.90591378  0.18351543  1
  H+  H38  1  0.24682439  0.11071086  0.50933781  1
  H+  H39  1  0.67625814  0.84243990  0.25499203  1
  H+  H40  1  0.89756289  0.60091284  0.33630449  1
  H+  H41  1  0.57959433  0.69520481  0.76956636  1
  H+  H42  1  0.12283086  0.79760398  0.84208360  1
  H+  H43  1  0.37054021  0.22436099  0.83657795  1
  H+  H44  1  0.12865681  0.20407894  0.82497354  1
  H+  H45  1  0.63416669  0.52761333  0.99493293  1
  H+  H46  1  0.73462895  0.59620079  0.83957800  1
  H+  H47  1  0.12281182  0.72707021  0.49012987  1
  H+  H48  1  0.85620758  0.08890952  0.51300442  1
  H+  H49  1  0.27618385  0.88516966  0.33347378  1
  H+  H50  1  0.13826036  0.54306437  0.84338265  1
  H+  H51  1  0.63147513  0.63449730  0.51946245  1
  H+  H52  1  0.28090587  0.38470315  0.67256187  1
  H+  H53  1  0.34306918  0.12897098  0.67484843  1
  H+  H54  1  0.10174457  0.63431218  0.16545492  1
  H+  H55  1  0.90926159  0.99519606  0.83611863  1
  H+  H56  1  0.36859904  -0.05163709  1.00875561  1
  H+  H57  1  0.47614531  0.86613051  0.51202692  1
  H+  H58  1  0.97961223  0.35565932  0.67853579  1
  H+  H59  1  0.65921789  0.42436627  0.03159611  1
  H+  H60  1  0.38828455  0.01733920  0.50049546  1
  H+  H61  1  0.13090496  0.02305181  0.99915104  1
  H+  H62  1  0.84018234  0.36505992  0.88015999  1
  H+  H63  1  0.46526158  0.33438525  0.69542363  1
  H+  H64  1  0.48708753  0.38438987  0.17486479  1
  H+  H65  1  0.51586519  0.11839579  0.33608470  1
  H+  H66  1  0.47293714  0.09052315  -0.01565429  1
  H+  H67  1  0.30254284  0.18676007  0.14016999  1
  H+  H68  1  0.85560359  0.20819163  0.49453990  1
  H+  H69  1  0.17708786  0.16956484  0.50138594  1
  H+  H70  1  0.58878164  0.93262410  0.76855516  1
  H+  H71  1  0.52448711  0.12096938  0.69210242  1
  H+  H72  1  0.36627563  0.39982876  0.15309926  1
  H+  H73  1  0.23094535  0.36662858  0.16874905  1
  H+  H74  1  0.39131683  0.77953689  0.31222661  1
  H+  H75  1  0.83078738  0.19464868  0.66545238  1
  H+  H76  1  0.98856799  0.37044964  1.00309611  1
  H+  H77  1  1.02560437  0.14090256  0.67110980  1
  H+  H78  1  0.10574817  0.73028057  0.00948289  1
  H+  H79  1  0.41761067  0.33341229  1.00923267  1
  H+  H80  1  0.23711738  0.86262478  0.66468164  1
  H+  H81  1  0.09975810  0.30243788  0.85481243  1
  H+  H82  1  0.60458371  0.77384095  0.51141175  1
  H+  H83  1  0.20459723  0.08700686  0.16307391  1
  H+  H84  1  0.11030548  0.87747945  0.18323600  1
  H+  H85  1  0.92341857  0.33398793  0.61930292  1
  H+  H86  1  0.53136688  0.66463739  0.67489983  1
  H+  H87  1  0.38038133  1.02026964  0.32620290  1
  H+  H88  1  0.14801812  0.61634450  0.66590347  1
  H+  H89  1  0.52582079  0.88407532  0.33107860  1
  H+  H90  1  0.07650045  0.91048701  0.07984310  1
  H+  H91  1  0.13623769  0.11617305  0.65741685  1
  H+  H92  1  0.27173221  0.64341355  0.49347146  1
  H+  H93  1  0.74388592  0.37549950  0.48087666  1
  H+  H94  1  0.87689729  0.78033478  0.51175221  1
  H+  H95  1  0.87786248  0.64798054  0.83408175  1
  H+  H96  1  0.64071622  0.10281913  0.33069353  1
  H+  H97  1  0.81023267  0.90727168  0.40067844  1
  H+  H98  1  0.87935129  0.89897461  0.68405043  1
  H+  H99  1  0.14952131  0.96100396  0.84096093  1
  H+  H100  1  0.33844598  0.68067139  0.39405790  1
  H+  H101  1  0.89076916  0.10456348  0.33984857  1
  H+  H102  1  0.12164112  0.85900658  1.00310040  1
  H+  H103  1  0.86153173  0.33516896  0.53420296  1
  H+  H104  1  0.67248931  0.90973292  0.67901169  1
  H+  H105  1  0.87811016  0.85182388  0.33513008  1
  H+  H106  1  0.64428201  0.53633487  0.17991669  1
  H+  H107  1  0.86048383  0.23046047  0.15369319  1
  H+  H108  1  0.78205850  0.13242709  0.15518434  1
  H+  H109  1  0.21280824  0.88030415  0.84641719  1
  H+  H110  1  0.87939846  0.78376864  -0.01586878  1
  H+  H111  1  0.77598610  0.39436455  0.16767506  1
  H+  H112  1  0.86759777  0.72652965  0.20086783  1
  H+  H113  1  0.13523090  0.98102074  0.49718262  1
  H+  H114  1  0.91468325  0.90114468  0.83298827  1
  H+  H115  1  0.14337868  0.06405391  0.93297096  1
  H+  H116  1  1.02819293  0.64994142  0.83031292  1
  H+  H117  1  0.78682427  0.66016612  0.67700891  1
  H+  H118  1  0.37910368  0.60479421  0.83975610  1
  H+  H119  1  0.35987184  0.23663199  0.69874672  1
  H+  H120  1  0.94095271  0.88080271  0.49947361  1
  H+  H121  1  0.60978086  0.18903239  -0.01032149  1
  H+  H122  1  -0.02396832  0.08670729  0.34957751  1
  H+  H123  1  0.85450393  0.89364090  -0.00404436  1
  H+  H124  1  0.17125877  0.58422818  0.26744546  1
  H+  H125  1  0.88618311  0.36651922  0.17133068  1
  H+  H126  1  0.61728915  0.72931071  0.15382422  1
  H+  H127  1  0.72703950  0.59599207  0.34977611  1
  H+  H128  1  0.62179331  0.63057206  0.33748787  1
  H+  H129  1  0.27058380  0.63915381  0.83515014  1
  H+  H130  1  0.37496696  0.54906022  0.99545251  1
  H+  H131  1  0.87167356  0.99796579  0.34135607  1
  H+  H132  1  0.71439964  0.09842791  0.49920410  1
  H+  H133  1  0.62577195  0.67844665  0.67666626  1
  H+  H134  1  0.60960606  0.30472018  0.95957412  1
  H+  H135  1  0.39996543  0.08036484  0.26773225  1
  H+  H136  1  0.42994589  0.10865292  0.17107412  1
  H+  H137  1  0.12528813  0.49118199  1.01176296  1
  H+  H138  1  0.38917610  0.53470906  0.17096382  1
  H+  H139  1  0.69686623  0.85866014  0.50531033  1
  H+  H140  1  0.62541171  0.61109588  0.98566481  1
  H+  H141  1  0.14094845  0.63383626  0.84609420  1
  H+  H142  1  0.51761713  0.64264071  1.00387486  1
  H+  H143  1  0.57722222  0.75533928  0.84561493  1
  H+  H144  1  0.42313457  0.84124970  0.57416092  1
  H+  H145  1  0.73187477  0.89970311  0.83844611  1
  H+  H146  1  0.76567122  0.64379885  -0.02702112  1
  H+  H147  1  0.64790569  0.62654518  0.17344884  1
  H+  H148  1  0.72206546  0.90735613  0.80679154  1
  H+  H149  1  0.02548436  0.63312018  0.00985102  1
  H+  H150  1  0.86097989  0.46097500  0.32768917  1
  H+  H151  1  0.78351144  0.12427360  0.84732960  1
  H+  H152  1  0.40959066  0.78745294  0.67294698  1
  H+  H153  1  0.36593079  0.82281999  1.00948485  1
  H+  H154  1  0.09988012  0.10002027  0.82827558  1
  H+  H155  1  0.13619803  0.52586281  0.17612717  1
  H+  H156  1  0.11842940  0.72456170  0.33261877  1
  H+  H157  1  0.86436623  0.48209007  0.16222954  1
  H+  H158  1  0.90084911  0.79065125  0.66405161  1
  H+  H159  1  0.22273412  0.61730538  0.17447912  1
  H+  H160  1  0.15172551  0.42758908  0.82420527  1
  H+  H161  1  0.38098612  0.08926223  0.99312267  1
  H+  H162  1  0.05861437  0.23536360  0.31259104  1
  H+  H163  1  0.37291567  0.01647997  0.84287805  1
  H+  H164  1  0.76491221  0.88596279  0.33308098  1
  H+  H165  1  0.55644884  0.37864762  0.01702896  1
  H+  H166  1  0.97744316  0.35718669  0.32727555  1
  H+  H167  1  0.39488917  0.36037105  0.84903847  1
  H+  H168  1  0.41131821  0.35945328  0.44791029  1
  H+  H169  1  0.63925572  0.28798293  0.16964191  1
  H+  H170  1  0.72530287  0.87101133  0.16002982  1
  H+  H171  1  0.27328585  0.12179108  -0.00322125  1
  H+  H172  1  0.25036847  0.40697780  0.31832451  1
  H+  H173  1  1.01564083  0.88997240  1.02139212  1
  H+  H174  1  0.02971917  0.19356580  0.51285931  1
  H+  H175  1  0.62773652  0.77011533  -0.00644526  1
  H+  H176  1  0.86616052  0.62903528  0.19902483  1
  H+  H177  1  0.85357904  0.64441379  0.51664698  1
  H+  H178  1  0.59639906  0.42332313  0.67369116  1
  H+  H179  1  0.37139632  0.64511911  0.68231048  1
  H+  H180  1  0.51698384  0.12267936  0.49068355  1
  H+  H181  1  0.14428683  0.52314329  0.51120889  1
  H+  H182  1  0.37682434  0.89644003  0.68149890  1
  H+  H183  1  0.92565614  0.94467961  0.10739636  1
  H+  H184  1  0.35859141  0.97501442  0.67311082  1
  H+  H185  1  0.37929082  0.11371097  0.84777595  1
  H+  H186  1  0.60569087  0.20508183  0.33631058  1
  H+  H187  1  0.14694155  0.83520377  0.94012886  1
  H+  H188  1  0.98738206  0.11316101  0.17867761  1
  H+  H189  1  0.86669463  0.36300078  0.68003241  1
  H+  H190  1  0.33741522  0.91113802  0.43114046  1
  H+  H191  1  0.12681023  0.89607334  0.66689883  1
  H+  H192  1  0.13982457  0.27245173  0.64050849  1
  H+  H193  1  0.11787576  0.38152087  0.50967901  1
  H+  H194  1  0.92368605  0.43108018  0.55259452  1
  H+  H195  1  0.87170106  0.21757894  0.34038511  1
  H+  H196  1  0.37307369  0.53386058  0.51979358  1
  H+  H197  1  0.61289077  0.88006435  0.33439415  1
  H+  H198  1  0.99880053  0.11667673  0.83714554  1
  H+  H199  1  0.28336597  0.67198548  0.00426177  1
  H+  H200  1  0.74162964  0.38022133  1.00744384  1
  H+  H201  1  0.81573782  0.13925146  0.77896533  1
  H+  H202  1  0.35629534  0.42180054  -0.00517354  1
  H+  H203  1  0.82695139  0.95877765  0.49381812  1
  H+  H204  1  0.36083046  0.72391687  0.82596971  1
  H+  H205  1  0.01932839  0.88054230  0.34411475  1
  H+  H206  1  0.85296937  0.65066297  -0.00671401  1
  H+  H207  1  0.63500456  0.32743007  0.66291818  1
  H+  H208  1  0.47317326  0.85281391  0.21578699  1
  H+  H209  1  0.11981492  0.47788295  0.67230526  1
  H+  H210  1  0.71444903  0.07662482  0.68282207  1
  H+  H211  1  0.62348525  0.45533993  0.82620010  1
  H+  H212  1  0.61677012  0.39888518  0.17285291  1
  H+  H213  1  0.14455198  0.62894261  0.00187495  1
  H+  H214  1  0.60496092  0.88042011  0.49326541  1
  H+  H215  1  0.93480824  0.25376270  0.85088671  1
  H+  H216  1  0.40131218  0.24101950  0.99770835  1
  H+  H217  1  0.86575421  0.50444974  0.99570757  1
  H+  H218  1  0.57902903  0.85541351  0.85061831  1
  H+  H219  1  0.91530436  0.78262424  0.84552348  1
  H+  H220  1  0.93997745  0.08380145  0.51348705  1
  H+  H221  1  0.09643749  0.67332929  0.39695764  1
  H+  H222  1  0.11695802  0.63705725  0.48873545  1
  H+  H223  1  0.27463325  0.37862251  0.83198082  1
  H+  H224  1  0.21759891  0.10257065  0.32400069  1
  H+  H225  1  0.27316144  0.39726170  0.52325185  1
  H+  H226  1  0.64337819  0.01551105  0.33272031  1
  H+  H227  1  0.05537183  0.88636686  0.50403235  1
  H+  H228  1  0.64519554  0.77629689  0.31033998  1
  H+  H229  1  0.34705965  0.88911403  0.82663689  1
  H+  H230  1  0.15382815  0.40518049  0.31718532  1
  H+  H231  1  0.14073022  0.02665200  0.65888665  1
  H+  H232  1  0.10117226  0.09894865  0.35034217  1
  H+  H233  1  0.67030119  0.29813199  0.91351620  1
  H+  H234  1  0.76781057  0.47179708  0.77894589  1
  H+  H235  1  0.39106658  0.10866428  0.49734867  1
  H+  H236  1  0.12981138  0.01117967  0.32410949  1
  H+  H237  1  0.81663810  0.50779128  0.51686366  1
  H+  H238  1  0.46658718  0.87012084  0.81735905  1
  H+  H239  1  0.62449080  0.09898675  0.49778640  1
  H+  H240  1  0.71377455  0.34519694  0.32189019  1
  H+  H241  1  0.13498783  0.27563390  1.00123941  1
  H+  H242  1  0.88440958  0.34856821  0.32626044  1
  H+  H243  1  0.87102591  0.65267125  0.67360180  1
  H+  H244  1  0.77367635  0.65687309  0.50635664  1
  H+  H245  1  0.25498106  0.13284444  0.67838784  1
  H+  H246  1  0.52414927  0.34568074  0.38806100  1
  H+  H247  1  0.55375303  0.12038233  0.15559950  1
  H+  H248  1  0.90153519  0.10386005  0.83819793  1
  H+  H249  1  0.36435731  0.40883213  0.52531341  1
  H+  H250  1  0.62210002  0.32371252  0.82770926  1
  H+  H251  1  0.10288266  0.96209571  0.17323472  1
  H+  H252  1  0.11158188  0.38468910  0.16177903  1
  H+  H253  1  0.16804682  0.28368218  0.54378049  1
  H+  H254  1  0.39450625  0.62602884  0.32841373  1
  H+  H255  1  0.49929053  0.63683043  0.51318138  1
  H+  H256  1  1.01338328  0.35010687  0.84769136  1
  H+  H257  1  0.83147221  0.15663477  0.43195093  1
  H+  H258  1  0.78090160  0.12810371  0.34138333  1
  H+  H259  1  0.40452061  0.29495506  0.16467682  1
  H+  H260  1  0.15586655  0.86399725  0.50883777  1
  H+  H261  1  0.23626645  0.61638958  0.66583944  1
  H+  H262  1  0.42938807  0.32624699  0.90458036  1
  H+  H263  1  0.69715315  0.08797028  0.93758356  1
  H+  H264  1  0.82247117  0.86906971  0.49381973  1
  H+  H265  1  0.29308760  0.02031171  0.61764079  1
  H+  H266  1  0.39530738  0.82925311  0.76805248  1
  H+  H267  1  0.48315196  0.62437777  0.32721567  1
  H+  H268  1  0.89333909  -0.01599892  0.15756273  1
  H+  H269  1  0.64828381  0.57097133  0.67259491  1
  H+  H270  1  0.92967930  0.07007257  0.23698177  1
  H+  H271  1  0.58936932  0.86935519  1.02497762  1
  H+  H272  1  0.98783050  0.60447545  0.33179335  1
  H+  H273  1  0.65210112  0.09513835  0.18226424  1
  H+  H274  1  0.36010874  0.73321964  0.49677867  1
  H+  H275  1  0.38115891  0.22344905  0.47814921  1
  H+  H276  1  0.26009663  0.39834557  0.00550474  1
  H+  H277  1  0.97646939  0.61536345  0.17549714  1
  H+  H278  1  0.37338179  0.49401214  0.34512675  1
  H+  H279  1  0.37057243  0.35899428  0.32235248  1
  H+  H280  1  0.05825829  0.24737600  0.34522907  1
  H+  H281  1  0.85844973  0.71323826  0.34798523  1
  H+  H282  1  0.88243176  0.24515958  0.00756437  1
  H+  H283  1  0.49662020  0.88198415  0.67271153  1
  H+  H284  1  0.33751649  0.09956036  0.17126958  1
  H+  H285  1  0.36096706  0.46983764  0.83200758  1
  H+  H286  1  0.64715269  0.55604397  0.51064172  1
  H+  H287  1  0.11419582  0.13359538  0.16311331  1
  H+  H288  1  0.02250397  0.38518401  0.16048934  1
  H+  H289  1  1.00924573  0.86793268  0.85179330  1
  H+  H290  1  0.60886392  0.81894205  0.91288483  1
  H+  H291  1  0.91390708  0.33022040  0.22874696  1
  H+  H292  1  0.09321287  0.42901562  0.07044514  1
  H+  H293  1  0.08928888  0.91396772  0.39699901  1
  H+  H294  1  0.84512596  0.42724039  0.47205761  1
  H+  H295  1  0.17389425  0.60147080  0.94138470  1
  H+  H296  1  0.32112997  0.92583182  0.77206358  1
  H+  H297  1  0.39533426  0.33126254  0.25958265  1
  H+  H298  1  0.32905463  0.42935016  0.40161016  1
  H+  H299  1  0.63126072  0.70009401  0.38298489  1
  H+  H300  1  0.58236271  0.38237670  0.74049667  1
  H+  H301  1  0.94776811  0.32491803  0.94141781  1
  H+  H302  1  0.90496877  0.06768032  0.60809217  1
  H+  H303  1  0.35618802  0.12998442  0.33539050  1
  H+  H304  1  0.61707171  0.06986116  0.69623462  1
  H+  H305  1  0.16523309  0.32470102  0.90686767  1
  H+  H306  1  0.38489663  0.06931864  0.58905791  1
  H+  H307  1  0.40710731  0.31639005  0.58186487  1
  H+  H308  1  0.41397101  0.59096281  0.61096054  1
  H+  H309  1  0.89483234  0.68885465  0.08843128  1
  H+  H310  1  0.82262934  0.41293746  0.72566634  1
  H+  H311  1  0.40712095  0.07014236  0.90981553  1
  H+  H312  1  0.61184670  0.20055409  0.77561546  1
  H+  H313  1  0.61397305  -0.01168837  0.48910140  1
  H+  H314  1  0.31968369  0.15147439  0.78637580  1
  H+  H315  1  0.61151063  0.32417457  0.51816221  1
  H+  H316  1  0.92018120  0.57012035  0.90048049  1
  H+  H317  1  0.15083270  0.21227953  0.44980941  1
  H+  H318  1  0.75490204  0.38632885  0.80705261  1
  H+  H319  1  0.65963118  0.32621411  0.23697516  1
  H+  H320  1  0.66020538  0.81676144  0.67211395  1
  H+  H321  1  0.09208783  0.68438674  0.77334543  1
  H+  H322  1  0.93307270  0.85729291  0.93945339  1
  H+  H323  1  0.24088759  0.85946087  0.50816873  1
  H+  H324  1  0.64489797  0.51894740  0.31637971  1
  H+  H325  1  0.68084337  0.06950976  0.24206586  1
  H+  H326  1  0.91830033  0.84905412  0.60511509  1
  H+  H327  1  0.55451214  0.88815574  0.11849988  1
  H+  H328  1  0.94269017  0.49476484  0.97319011  1
  H+  H329  1  0.13253592  0.36551920  0.99844925  1
  H+  H330  1  0.71179381  0.86377205  0.98447949  1
  H+  H331  1  0.02786667  0.14067286  0.00960761  1
  H+  H332  1  0.83971732  0.17508714  0.07006326  1
  H+  H333  1  0.33077900  0.43080665  0.09705217  1
  H+  H334  1  0.87458578  0.14702374  0.00491675  1
  H+  H335  1  0.32911961  0.41280652  0.73769472  1
  H+  H336  1  0.66553153  0.56081630  0.89266047  1
  H+  H337  1  0.31452848  0.13461291  0.06285372  1
  H+  H338  1  0.57491756  0.15058571  0.42890855  1
  H+  H339  1  0.83720952  0.66213987  0.40995102  1
  H+  H340  1  0.92795921  0.09513138  0.93449392  1
  H+  H341  1  0.49496582  0.35045017  0.32372272  1
  H+  H342  1  0.41453811  0.58472148  0.89890132  1
  H+  H343  1  0.33501917  0.66910081  0.74040108  1
  H+  H344  1  0.07357454  0.66464746  0.10602048  1
  H+  H345  1  0.04912139  0.06538852  0.41186717  1
  H+  H346  1  0.57637124  0.91349827  0.42736559  1
  H+  H347  1  0.18323839  0.08551586  0.56845656  1
  H+  H348  1  0.61677130  0.33255734  0.32506999  1
  H+  H349  1  0.89312771  0.85511051  0.17797349  1
  H+  H350  1  0.39176965  0.64456889  0.99040517  1
  H+  H351  1  0.84224437  0.11244297  0.65817617  1
  H+  H352  1  0.82238449  0.92226996  0.05302950  1
  H+  H353  1  0.35719195  0.90897866  0.07467875  1
  H+  H354  1  0.54812000  0.65452683  0.45140065  1
  H+  H355  1  0.11914048  0.38892573  0.66806148  1
  H+  H356  1  0.09589417  0.42101859  0.39744072  1
  H+  H357  1  0.10335048  0.43255110  0.76587626  1
  H+  H358  1  0.42099827  0.59295732  0.23039478  1
  H+  H359  1  0.18119142  0.83268814  0.60260208  1
  H+  H360  1  0.52765112  0.37217008  0.82862982  1
  H+  H361  1  0.62493184  0.24552267  0.50284527  1
  H+  H362  1  0.92432377  0.57670448  0.23916962  1
  H+  H363  1  0.09067348  0.17184184  0.10520004  1
  H+  H364  1  0.08971358  0.16662828  0.72736693  1
  H+  H365  1  0.91116965  0.82435983  0.27706689  1
  H+  H366  1  0.14401110  0.27339158  0.17824059  1
  H+  H367  1  0.33296106  0.15652561  0.42624370  1
  H+  H368  1  0.13128225  0.73748258  0.67507887  1
  H+  H369  1  0.37559624  0.62523163  0.51392995  1
  H+  H370  1  0.85132685  0.68159420  0.77513115  1
  H+  H371  1  0.15439068  0.07079284  0.22942627  1
  H+  H372  1  0.67672970  0.61460340  0.60714858  1
  H+  H373  1  0.18666823  0.36851921  0.25118789  1
  H+  H374  1  0.84683298  0.66941202  0.09063000  1
  H+  H375  1  0.58003372  0.66543172  0.06189415  1
  H+  H376  1  0.17233107  0.58381999  0.56975124  1
  H+  H377  1  0.78819243  0.42360230  0.07136811  1
  H+  H378  1  0.36261447  0.30946246  0.57731286  1
  H+  H379  1  0.56710570  0.12590510  0.04589190  1
  H+  H380  1  0.79125302  0.90500586  0.69310751  1
  H+  H381  1  0.81199129  0.40309766  0.38298085  1
  H+  H382  1  0.87237040  0.93038032  0.77238268  1
  H+  H383  1  0.66437243  0.30290486  0.60009293  1
  O2-  O384  1  0.09190391  0.17304339  0.15061962  1
  O2-  O385  1  0.18173959  0.22485843  0.48841066  1
  O2-  O386  1  0.08954510  0.14873108  0.80574058  1
  O2-  O387  1  0.08378272  0.41701177  0.14713347  1
  O2-  O388  1  0.09295947  0.40975685  0.48498465  1
  O2-  O389  1  0.10740292  0.44060715  0.81099890  1
  O2-  O390  1  0.06615156  0.65868037  0.15094115  1
  O2-  O391  1  0.09239142  0.67006250  0.47022450  1
  O2-  O392  1  0.08938019  0.68713381  0.81839582  1
  O2-  O393  1  0.07575276  0.89871279  0.16248543  1
  O2-  O394  1  0.10764719  0.92048161  0.48070695  1
  O2-  O395  1  0.15323737  1.01210279  0.82130992  1
  O2-  O396  1  0.28997529  0.12850848  0.13220352  1
  O2-  O397  1  0.34344456  0.16120139  0.47171447  1
  O2-  O398  1  0.33910930  0.16142260  0.82877608  1
  O2-  O399  1  0.33162160  0.42707849  0.14231800  1
  O2-  O400  1  0.32993163  0.42683793  0.50183117  1
  O2-  O401  1  0.33407020  0.40916285  0.81638801  1
  O2-  O402  1  0.32324667  0.67114003  0.14861306  1
  O2-  O403  1  0.33272352  0.67474586  0.47846391  1
  O2-  O404  1  0.32974660  0.66090600  0.81810618  1
  O2-  O405  1  0.38779670  0.94452216  0.15218246  1
  O2-  O406  1  0.33965285  0.91660356  0.47647154  1
  O2-  O407  1  0.31840477  0.92321337  0.81736819  1
  O2-  O408  1  0.51760469  0.09683127  0.12000295  1
  O2-  O409  1  0.57801120  0.15273980  0.47483551  1
  O2-  O410  1  0.60446400  0.20640169  0.81982039  1
  O2-  O411  1  0.58805058  0.43054896  0.15748367  1
  O2-  O412  1  0.62004056  0.47632691  0.45700748  1
  O2-  O413  1  0.58632436  0.39340680  0.81087901  1
  O2-  O414  1  0.58772133  0.66807660  0.14090278  1
  O2-  O415  1  0.55991522  0.66589878  0.49473332  1
  O2-  O416  1  0.57350852  0.68803506  0.81473208  1
  O2-  O417  1  0.56602704  0.89313319  0.16443037  1
  O2-  O418  1  0.57694635  0.91844648  0.47315731  1
  O2-  O419  1  0.57064727  0.92317112  0.81440006  1
  O2-  O420  1  0.83545150  0.17299133  0.13378028  1
  O2-  O421  1  0.82203070  0.15059216  0.47763087  1
  O2-  O422  1  0.83513384  0.14318759  0.82079233  1
  O2-  O423  1  0.83189725  0.42180903  0.14602262  1
  O2-  O424  1  0.79218860  0.42518025  0.45919693  1
  O2-  O425  1  0.79848356  0.44060495  0.78653167  1
  O2-  O426  1  0.83315178  0.66169065  0.20974731  1
  O2-  O427  1  0.83491414  0.67984786  0.49384305  1
  O2-  O428  1  0.85004677  0.68104116  0.82013263  1
  O2-  O429  1  0.87523452  0.92929364  0.13257734  1
  O2-  O430  1  0.79524568  0.90002383  0.47484510  1
  O2-  O431  1  0.88373862  0.93295688  0.81897898  1
  O2-  O432  1  0.14471156  0.06345126  0.18474323  1
  O2-  O433  1  0.18547844  0.08152138  0.52299257  1
  O2-  O434  1  0.10250448  0.03497680  0.86206817  1
  O2-  O435  1  0.17318495  0.33647350  0.18934528  1
  O2-  O436  1  0.17457072  0.33959030  0.56064347  1
  O2-  O437  1  0.16052642  0.31990097  0.86136178  1
  O2-  O438  1  0.16341297  0.58491316  0.19288040  1
  O2-  O439  1  0.17180004  0.58377307  0.52437499  1
  O2-  O440  1  0.16900896  0.60142100  0.86153623  1
  O2-  O441  1  0.17221130  0.83829845  0.23242569  1
  O2-  O442  1  0.18187684  0.83129821  0.52630859  1
  O2-  O443  1  0.15193485  0.85680280  0.85873493  1
  O2-  O444  1  0.37607884  0.07927064  0.19399506  1
  O2-  O445  1  0.41813200  0.07760131  0.51755182  1
  O2-  O446  1  0.40729852  0.07664702  0.86115932  1
  O2-  O447  1  0.42275036  0.35109398  0.18264701  1
  O2-  O448  1  0.44987985  0.33848707  0.45961230  1
  O2-  O449  1  0.42748691  0.33080914  0.85970635  1
  O2-  O450  1  0.42335504  0.59505380  0.18538598  1
  O2-  O451  1  0.40401438  0.59478697  0.53391285  1
  O2-  O452  1  0.41055761  0.57510887  0.85400605  1
  O2-  O453  1  0.41587500  0.83837802  0.23280336  1
  O2-  O454  1  0.41727043  0.83677152  0.52921886  1
  O2-  O455  1  0.40208942  0.83375218  0.81218128  1
  O2-  O456  1  0.67986375  0.06376565  0.19646082  1
  O2-  O457  1  0.65280940  0.06516870  0.51090537  1
  O2-  O458  1  0.61947960  0.07357398  0.87281308  1
  O2-  O459  1  0.66698771  0.34200010  0.19198369  1
  O2-  O460  1  0.65395339  0.30568785  0.52220107  1
  O2-  O461  1  0.66104681  0.29846175  0.83385840  1
  O2-  O462  1  0.67501928  0.59680979  0.19465121  1
  O2-  O463  1  0.66985193  0.61201242  0.53235610  1
  O2-  O464  1  0.67679483  0.54919583  0.85047060  1
  O2-  O465  1  0.67089009  0.83599436  0.18107050  1
  O2-  O466  1  0.63667145  0.83667306  0.51993560  1
  O2-  O467  1  0.57272233  0.80308553  0.87402066  1
  O2-  O468  1  0.92773902  0.07186396  0.19263928  1
  O2-  O469  1  0.88066134  0.05309326  0.52833997  1
  O2-  O470  1  0.93915167  0.08403479  0.85695115  1
  O2-  O471  1  0.91458867  0.33321248  0.18368575  1
  O2-  O472  1  0.92067850  0.37476602  0.54631913  1
  O2-  O473  1  0.98462953  0.29805026  0.87349367  1
  O2-  O474  1  0.91503915  0.58261182  0.19497775  1
  O2-  O475  1  0.83961367  0.54391145  0.55383522  1
  O2-  O476  1  0.92172323  0.58494692  0.85650807  1
  O2-  O477  1  0.91801374  0.82435564  0.20000560  1
  O2-  O478  1  0.89343611  0.84084600  0.52510856  1
  O2-  O479  1  0.94808223  0.84399733  0.86016894  1
  O2-  O480  1  0.15658352  0.07330741  0.31002007  1
  O2-  O481  1  0.17185050  0.08989385  0.64502576  1
  O2-  O482  1  0.15931213  0.07907617  0.97735333  1
  O2-  O483  1  0.20195548  0.40346612  0.29238107  1
  O2-  O484  1  0.17495553  0.33520863  0.62847066  1
  O2-  O485  1  0.16374006  0.33549526  0.98403526  1
  O2-  O486  1  0.17445153  0.58439099  0.31357402  1
  O2-  O487  1  0.17564387  0.58379587  0.65063233  1
  O2-  O488  1  0.17883231  0.60222601  0.98657905  1
  O2-  O489  1  0.17325347  0.83257722  0.29046473  1
  O2-  O490  1  0.17731796  0.83358444  0.64827967  1
  O2-  O491  1  0.14382271  0.82389546  0.98431473  1
  O2-  O492  1  0.41152336  0.08149584  0.31268829  1
  O2-  O493  1  0.35328699  0.05589080  0.62943229  1
  O2-  O494  1  0.40946964  0.05994596  0.97291502  1
  O2-  O495  1  0.39065984  0.32173524  0.30436181  1
  O2-  O496  1  0.40353320  0.31107334  0.70618022  1
  O2-  O497  1  0.44230830  0.30413771  0.98689051  1
  O2-  O498  1  0.42214090  0.59175129  0.31531126  1
  O2-  O499  1  0.42314172  0.59193341  0.65586773  1
  O2-  O500  1  0.41405561  0.60598130  0.97725746  1
  O2-  O501  1  0.42559471  0.84202291  0.29971134  1
  O2-  O502  1  0.43519753  0.84877161  0.65998482  1
  O2-  O503  1  0.38977862  0.78563985  0.99094447  1
  O2-  O504  1  0.67673889  0.07685281  0.31902080  1
  O2-  O505  1  0.65573359  0.04620579  0.70806064  1
  O2-  O506  1  0.70701921  0.11597765  0.89770880  1
  O2-  O507  1  0.65283021  0.30879983  0.30847253  1
  O2-  O508  1  0.66961365  0.30265241  0.64557206  1
  O2-  O509  1  0.66122358  0.29995904  0.95816134  1
  O2-  O510  1  0.66187809  0.56242164  0.34819219  1
  O2-  O511  1  0.68575802  0.62537466  0.65246017  1
  O2-  O512  1  0.65545925  0.58056238  0.97049538  1
  O2-  O513  1  0.67288371  0.83859550  0.30106966  1
  O2-  O514  1  0.70245047  0.87812741  0.66569291  1
  O2-  O515  1  0.64864247  0.82992591  0.97790600  1
  O2-  O516  1  0.91610213  0.06617193  0.32942433  1
  O2-  O517  1  0.91404542  0.08211119  0.65196825  1
  O2-  O518  1  0.91944127  0.09425717  0.97952297  1
  O2-  O519  1  0.91740094  0.32009098  0.31319276  1
  O2-  O520  1  0.91804393  0.32424147  0.66411585  1
  O2-  O521  1  0.93161254  0.33409701  0.98292648  1
  O2-  O522  1  0.92584458  0.57089228  0.31850685  1
  O2-  O523  1  0.91202936  0.52750702  0.56676558  1
  O2-  O524  1  0.92249409  0.53608075  0.97426758  1
  O2-  O525  1  0.90686561  0.81987856  0.32250941  1
  O2-  O526  1  0.92822679  0.85114723  0.64956261  1
  O2-  O527  1  0.91444742  0.84842758  0.98265156  1
  O2-  O528  1  0.08826324  0.17059901  0.02425149  1
  O2-  O529  1  0.06056080  0.10687675  0.37952286  1
  O2-  O530  1  0.08776049  0.17182827  0.68190417  1
  O2-  O531  1  0.09425601  0.42973394  0.02481285  1
  O2-  O532  1  0.09184549  0.42430882  0.35271180  1
  O2-  O533  1  0.08965089  0.41683311  0.68750647  1
  O2-  O534  1  0.08350143  0.66945227  0.02629644  1
  O2-  O535  1  0.09265434  0.66668850  0.35082773  1
  O2-  O536  1  0.10151251  0.67703716  0.69296011  1
  O2-  O537  1  0.07636272  0.91944218  0.03535551  1
  O2-  O538  1  0.08118620  0.91722103  0.35304706  1
  O2-  O539  1  0.10118335  0.93198664  0.67734841  1
  O2-  O540  1  0.32994713  0.14268766  0.01699489  1
  O2-  O541  1  0.32234277  0.15663889  0.35134114  1
  O2-  O542  1  0.31614084  0.15758625  0.69776714  1
  O2-  O543  1  0.32189862  0.43893155  0.01884193  1
  O2-  O544  1  0.33613977  0.43140779  0.35720043  1
  O2-  O545  1  0.33785777  0.41258354  0.69251799  1
  O2-  O546  1  0.34433743  0.70104429  0.02060564  1
  O2-  O547  1  0.34121408  0.67909098  0.34892661  1
  O2-  O548  1  0.34196952  0.67724391  0.69509939  1
  O2-  O549  1  0.34770841  0.89404736  0.03108922  1
  O2-  O550  1  0.33437605  0.91432442  0.35195697  1
  O2-  O551  1  0.33918613  0.91985820  0.69464168  1
  O2-  O552  1  0.57230263  0.12847369  0.00116594  1
  O2-  O553  1  0.57596756  0.14521815  0.35273086  1
  O2-  O554  1  0.58601171  0.14465233  0.69808058  1
  O2-  O555  1  0.60630703  0.42842090  0.03619598  1
  O2-  O556  1  0.54793907  0.36425612  0.34705750  1
  O2-  O557  1  0.57369217  0.36836748  0.69456101  1
  O2-  O558  1  0.57894406  0.66692314  0.01638688  1
  O2-  O559  1  0.60218168  0.67324628  0.34501777  1
  O2-  O560  1  0.59046778  0.70301445  0.69078975  1
  O2-  O561  1  0.54966054  0.88330879  0.04646173  1
  O2-  O562  1  0.58293848  0.90929603  0.35197073  1
  O2-  O563  1  0.60829125  0.95131825  0.70103127  1
  O2-  O564  1  0.84682498  0.18046791  0.02129266  1
  O2-  O565  1  0.84186100  0.15698478  0.35697183  1
  O2-  O566  1  0.79882748  0.13266371  0.65734675  1
  O2-  O567  1  0.76778859  0.43399522  0.03170985  1
  O2-  O568  1  0.82322771  0.39909950  0.33939799  1
  O2-  O569  1  0.82723194  0.39173406  0.68315243  1
  O2-  O570  1  0.82944488  0.67878718  -0.03144094  1
  O2-  O571  1  0.83170515  0.65386832  0.36526943  1
  O2-  O572  1  0.84748542  0.68577295  0.69205745  1
  O2-  O573  1  0.82169283  0.92351741  0.00818663  1
  O2-  O574  1  0.82246145  0.91451095  0.35544888  1
  O2-  O575  1  0.85474035  0.93055543  0.70615368  1
