# generated using pymatgen
data_H2O
_symmetry_space_group_name_H-M   'P 1'
_cell_length_a   17.97757182
_cell_length_b   17.98269867
_cell_length_c   22.01003352
_cell_angle_alpha   89.98769943
_cell_angle_beta   89.98269780
_cell_angle_gamma   119.99677186
_symmetry_Int_Tables_number   1
_chemical_formula_structural   H2O
_chemical_formula_sum   'H384 O192'
_cell_volume   6162.42011689
_cell_formula_units_Z   192
loop_
 _symmetry_equiv_pos_site_id
 _symmetry_equiv_pos_as_xyz
  1  'x, y, z'
loop_
 _atom_type_symbol
 _atom_type_oxidation_number
  H+  1.0
  O2-  -2.0
loop_
 _atom_site_type_symbol
 _atom_site_label
 _atom_site_symmetry_multiplicity
 _atom_site_fract_x
 _atom_site_fract_y
 _atom_site_fract_z
 _atom_site_occupancy
  H+  H0  1  0.21311662  0.11065955  0.33442972  1
  H+  H1  1  -0.00073696  0.07947684  0.69154766  1
  H+  H2  1  -0.02465024  0.86579910  0.32672846  1
  H+  H3  1  0.22573838  0.36181867  -0.00909017  1
  H+  H4  1  0.88253359  0.53399463  0.50638022  1
  H+  H5  1  0.10926894  0.22162738  0.01268416  1
  H+  H6  1  0.13876422  0.51787231  0.99727585  1
  H+  H7  1  0.27531545  0.56815323  0.71507315  1
  H+  H8  1  0.36573962  0.37461932  0.67768190  1
  H+  H9  1  0.60787342  1.00725395  0.41632433  1
  H+  H10  1  0.51259106  0.99028151  0.63481052  1
  H+  H11  1  0.87539804  0.47571491  0.00601460  1
  H+  H12  1  0.07561298  0.65568337  0.72925019  1
  H+  H13  1  0.23561922  0.62276135  0.31987068  1
  H+  H14  1  0.59555779  0.11872843  0.67744989  1
  H+  H15  1  0.35427878  0.47438729  0.33941158  1
  H+  H16  1  0.10074393  0.13937356  0.35072951  1
  H+  H17  1  0.37665518  0.89497196  0.34220714  1
  H+  H18  1  0.86029047  0.46927802  0.35362121  1
  H+  H19  1  0.12530481  0.77143591  0.51220707  1
  H+  H20  1  0.10887689  0.13662179  0.16401722  1
  H+  H21  1  0.47831193  0.61646657  0.99626380  1
  H+  H22  1  0.12564513  0.98527334  0.68032117  1
  H+  H23  1  0.88584010  0.35942742  0.32942813  1
  H+  H24  1  0.61071364  0.22051774  0.34122587  1
  H+  H25  1  0.63338036  0.60785466  0.49061377  1
  H+  H26  1  0.22119366  0.36221218  0.32631354  1
  H+  H27  1  0.73619405  0.62426167  0.00590475  1
  H+  H28  1  0.32802184  0.90635943  0.39956916  1
  H+  H29  1  0.76170421  0.81508846  0.68079376  1
  H+  H30  1  0.40349133  0.30047689  1.02607163  1
  H+  H31  1  0.36474020  0.48086031  1.00571965  1
  H+  H32  1  0.51592720  0.13662652  0.34712030  1
  H+  H33  1  0.23526546  0.86835514  0.32529716  1
  H+  H34  1  0.42132604  0.08539036  0.89926935  1
  H+  H35  1  0.61434387  0.47144006  0.48582190  1
  H+  H36  1  0.16147678  0.36185659  0.59545897  1
  H+  H37  1  0.99190151  0.14561119  0.49646931  1
  H+  H38  1  0.11208383  0.49363259  0.48403483  1
  H+  H39  1  0.38651102  0.62522693  0.84917391  1
  H+  H40  1  0.90765857  0.19694094  0.47374236  1
  H+  H41  1  0.25822465  0.62945981  0.48183782  1
  H+  H42  1  0.88569189  0.86633549  0.32561039  1
  H+  H43  1  0.68840892  0.33963935  0.93181106  1
  H+  H44  1  0.36743523  0.23542963  0.66129137  1
  H+  H45  1  0.37558558  0.60271513  0.48669835  1
  H+  H46  1  0.88531702  0.17357257  0.65140410  1
  H+  H47  1  0.18917542  0.57764565  0.64336934  1
  H+  H48  1  0.61778014  0.64650722  1.01404680  1
  H+  H49  1  0.62316779  0.74771381  0.66515894  1
  H+  H50  1  0.33543563  0.92634850  0.73501436  1
  H+  H51  1  0.63350003  1.02162417  0.84431193  1
  H+  H52  1  0.87984798  0.86739538  0.48756012  1
  H+  H53  1  0.46426732  0.11543003  0.67057667  1
  H+  H54  1  0.84846891  0.66140692  0.67424586  1
  H+  H55  1  0.36170358  0.13484768  0.67044021  1
  H+  H56  1  0.88381946  0.27003336  0.32353248  1
  H+  H57  1  0.12446523  0.73793637  0.33879589  1
  H+  H58  1  0.10876254  0.48083723  0.33428208  1
  H+  H59  1  0.51294232  0.60097109  0.71778028  1
  H+  H60  1  0.36748960  0.63877709  0.33002126  1
  H+  H61  1  0.93907946  0.78433650  0.63151174  1
  H+  H62  1  0.22674458  0.36626015  0.83738089  1
  H+  H63  1  0.63616948  0.84139404  0.66701976  1
  H+  H64  1  0.12284571  0.89431751  0.68064401  1
  H+  H65  1  0.35380680  0.12998087  0.34280385  1
  H+  H66  1  0.65482236  0.25391059  0.84043819  1
  H+  H67  1  0.37548374  0.24349174  0.82677656  1
  H+  H68  1  0.15298293  0.63828917  0.16763438  1
  H+  H69  1  0.53213656  0.39690339  -0.00183021  1
  H+  H70  1  0.37349902  0.85672035  -0.00333133  1
  H+  H71  1  0.51619168  0.62671910  0.47928311  1
  H+  H72  1  0.38291558  0.26207716  0.18963198  1
  H+  H73  1  0.85623877  0.97712141  0.33631713  1
  H+  H74  1  0.61230745  0.45754398  0.64738885  1
  H+  H75  1  0.89178573  0.77435671  0.84594261  1
  H+  H76  1  0.62608043  0.25290120  0.66150318  1
  H+  H77  1  0.73514486  0.27193922  0.87831375  1
  H+  H78  1  0.61584909  0.84318835  0.31876899  1
  H+  H79  1  0.38330557  1.02302986  0.33966968  1
  H+  H80  1  0.63129445  0.31317358  0.16583056  1
  H+  H81  1  0.52257610  0.64104982  0.16380990  1
  H+  H82  1  0.37832192  0.77071930  -0.00368997  1
  H+  H83  1  0.34870310  0.46228865  0.48317959  1
  H+  H84  1  0.61261752  0.52367035  0.15283810  1
  H+  H85  1  0.13541775  0.27706143  0.83289366  1
  H+  H86  1  0.66513288  0.04723666  0.50449415  1
  H+  H87  1  0.65610529  0.38028516  -0.01691805  1
  H+  H88  1  0.33727677  0.42429332  0.76937457  1
  H+  H89  1  0.89677558  0.52222212  0.83568352  1
  H+  H90  1  0.63454406  0.77984309  1.00330962  1
  H+  H91  1  0.77378795  0.37853384  0.34407533  1
  H+  H92  1  0.80943342  0.16605330  0.49085111  1
  H+  H93  1  0.38914864  0.00927417  0.18659253  1
  H+  H94  1  0.12628995  0.61340462  0.49532533  1
  H+  H95  1  0.72936124  0.33762962  0.16780937  1
  H+  H96  1  0.95635724  0.04043679  0.56995577  1
  H+  H97  1  0.12384922  0.89284173  0.16154196  1
  H+  H98  1  0.15539626  0.53488564  0.84951245  1
  H+  H99  1  0.73579360  0.63390806  0.85765840  1
  H+  H100  1  0.65965916  0.83127202  0.26063897  1
  H+  H101  1  0.02770858  0.89242014  0.83569547  1
  H+  H102  1  0.88393664  0.27297257  0.17276197  1
  H+  H103  1  0.97668286  0.17992186  0.64639221  1
  H+  H104  1  0.48337993  0.12919040  0.51241993  1
  H+  H105  1  0.36692235  -0.01964482  0.82725818  1
  H+  H106  1  0.89711009  0.39896900  0.52058278  1
  H+  H107  1  0.22798796  0.11266681  0.50715441  1
  H+  H108  1  0.14779389  0.62617727  0.32255033  1
  H+  H109  1  0.13271290  0.11616659  0.66283427  1
  H+  H110  1  0.12255233  0.84139530  0.99334622  1
  H+  H111  1  0.62080195  0.86880483  0.17444617  1
  H+  H112  1  0.86133377  0.22353708  0.83407568  1
  H+  H113  1  0.78401804  0.39032719  0.00293834  1
  H+  H114  1  0.61218117  0.89062977  0.83504722  1
  H+  H115  1  0.24603254  0.62680911  0.85159228  1
  H+  H116  1  0.98130095  0.67050369  0.65207719  1
  H+  H117  1  0.83505072  0.40882382  0.09390129  1
  H+  H118  1  0.03364202  0.89221831  0.16207296  1
  H+  H119  1  0.13396825  0.36566338  0.32519682  1
  H+  H120  1  0.84059366  0.94639811  0.10857056  1
  H+  H121  1  0.53863013  0.89251367  0.67704552  1
  H+  H122  1  0.63972719  0.27335705  0.50689147  1
  H+  H123  1  0.64634343  0.53383218  0.00572064  1
  H+  H124  1  0.41849377  0.78644384  0.32887807  1
  H+  H125  1  0.60976438  0.71744804  0.32927232  1
  H+  H126  1  0.64426961  0.35586779  0.32184527  1
  H+  H127  1  0.52099697  0.44333124  0.79768716  1
  H+  H128  1  0.34537433  0.71767367  0.48147943  1
  H+  H129  1  0.85073958  0.13323659  0.33459122  1
  H+  H130  1  0.38647247  0.73654510  0.15224172  1
  H+  H131  1  0.75007071  0.66869414  0.18004130  1
  H+  H132  1  0.41658263  0.84127585  0.90084974  1
  H+  H133  1  0.86888090  0.63479754  0.83315797  1
  H+  H134  1  0.36442983  0.57830060  0.64047964  1
  H+  H135  1  0.62573791  0.65678716  0.85273618  1
  H+  H136  1  0.62611779  0.14585982  0.49757770  1
  H+  H137  1  0.86630786  0.38452908  0.15609039  1
  H+  H138  1  0.13625988  0.85721768  0.81926952  1
  H+  H139  1  0.71443031  0.11193611  0.66996311  1
  H+  H140  1  0.88674403  0.78607462  0.99477879  1
  H+  H141  1  0.66288211  0.07838205  0.90536870  1
  H+  H142  1  0.40464910  0.77391915  0.69229820  1
  H+  H143  1  0.84024019  0.36996455  0.72523054  1
  H+  H144  1  0.37469688  0.92030589  0.67038369  1
  H+  H145  1  0.57774572  0.13208321  0.07775381  1
  H+  H146  1  0.10385896  0.88109688  0.49981866  1
  H+  H147  1  0.89101745  0.61721088  0.33840352  1
  H+  H148  1  0.88166225  0.74522633  0.15527411  1
  H+  H149  1  0.38455356  0.37021291  0.99920702  1
  H+  H150  1  0.24556013  0.86960269  0.16948694  1
  H+  H151  1  0.72108881  0.87325077  0.99858189  1
  H+  H152  1  0.53879042  0.39288774  0.33604829  1
  H+  H153  1  0.57141240  0.56354989  0.73703039  1
  H+  H154  1  0.62825458  0.18832243  0.17311876  1
  H+  H155  1  0.38452166  0.27166376  0.50152063  1
  H+  H156  1  0.51094740  0.88403988  0.01024199  1
  H+  H157  1  -0.01911028  0.61140053  -0.00484278  1
  H+  H158  1  0.76863678  0.13591049  0.83552227  1
  H+  H159  1  0.47677678  0.62240731  0.84949827  1
  H+  H160  1  0.11587735  0.27212265  0.51559734  1
  H+  H161  1  0.88469234  0.62283412  0.49444367  1
  H+  H162  1  0.12402566  0.01526176  0.99274911  1
  H+  H163  1  0.71446171  0.59665521  0.65105162  1
  H+  H164  1  0.64045464  0.01426714  0.66632814  1
  H+  H165  1  0.89418828  0.87515837  0.17097744  1
  H+  H166  1  0.35141231  0.21360225  0.95801307  1
  H+  H167  1  0.41717274  0.87998209  0.15564425  1
  H+  H168  1  0.97756995  0.12181758  0.17522199  1
  H+  H169  1  0.92011629  0.84342314  0.93556354  1
  H+  H170  1  0.36279241  0.48715963  0.82870945  1
  H+  H171  1  0.87351675  0.65175412  0.14907909  1
  H+  H172  1  0.85854520  0.83096952  0.67915939  1
  H+  H173  1  0.36388054  0.14190348  0.49654573  1
  H+  H174  1  0.11491043  0.62780567  1.00989795  1
  H+  H175  1  0.76773125  0.88662279  0.33615184  1
  H+  H176  1  0.13850391  0.27039225  0.17157755  1
  H+  H177  1  0.51867781  0.13379576  0.82951343  1
  H+  H178  1  0.58707063  0.16786395  0.43874975  1
  H+  H179  1  0.87146244  0.98487454  0.67581903  1
  H+  H180  1  0.89020022  1.02218428  0.82891032  1
  H+  H181  1  0.01867701  0.38970213  0.33512510  1
  H+  H182  1  0.46086563  0.59862357  0.63318200  1
  H+  H183  1  0.71617695  0.84699004  0.50519388  1
  H+  H184  1  0.03760056  0.18692587  0.43353210  1
  H+  H185  1  0.14103525  0.11461763  0.50766112  1
  H+  H186  1  0.35818206  0.13045267  -0.03050784  1
  H+  H187  1  0.88558912  0.51381386  0.15249183  1
  H+  H188  1  0.79942235  0.70967356  0.69954150  1
  H+  H189  1  0.48650797  0.45773559  0.28562787  1
  H+  H190  1  0.86749512  0.20090612  0.00753274  1
  H+  H191  1  0.47318231  0.60786221  0.32235706  1
  H+  H192  1  0.61425322  0.37046483  0.66257882  1
  H+  H193  1  0.34990104  0.21509794  0.33491970  1
  H+  H194  1  0.10395512  0.22908884  0.34184961  1
  H+  H195  1  0.86730090  0.49237475  0.64498937  1
  H+  H196  1  0.38664132  0.77286152  0.84691059  1
  H+  H197  1  0.39405105  0.01971289  0.99106392  1
  H+  H198  1  0.33166658  0.41849172  0.06435870  1
  H+  H199  1  0.61363887  0.12302100  0.01464783  1
  H+  H200  1  0.08941298  0.62612498  0.66369177  1
  H+  H201  1  0.62688093  0.78406982  0.16839983  1
  H+  H202  1  0.88454294  0.38810694  0.82185353  1
  H+  H203  1  0.27318249  0.63207057  1.00950581  1
  H+  H204  1  0.40136283  0.39487651  0.31929463  1
  H+  H205  1  0.59994398  0.88304328  1.01756481  1
  H+  H206  1  0.12189451  0.38819706  0.83357629  1
  H+  H207  1  0.25682383  0.87150860  0.49324376  1
  H+  H208  1  0.48447993  0.10524280  0.99822560  1
  H+  H209  1  0.12511820  0.02177372  0.33536351  1
  H+  H210  1  0.85710008  0.96877008  0.49506221  1
  H+  H211  1  0.63478348  1.01663695  -0.00058852  1
  H+  H212  1  0.77707583  0.63834357  0.33235451  1
  H+  H213  1  0.13745931  0.02504331  0.17978786  1
  H+  H214  1  0.84853449  0.00831844  0.68555443  1
  H+  H215  1  0.56759819  -0.05818275  0.33034826  1
  H+  H216  1  0.88892060  0.35063178  0.99598530  1
  H+  H217  1  0.77067033  0.88293677  0.83356586  1
  H+  H218  1  0.93248984  0.29382919  0.58413221  1
  H+  H219  1  0.20517555  0.10107855  -0.02873405  1
  H+  H220  1  0.76643508  0.13460214  0.16257730  1
  H+  H221  1  0.28449187  0.95266173  0.03874331  1
  H+  H222  1  0.35708987  0.45574951  0.66637702  1
  H+  H223  1  0.27222285  0.13386287  0.20223283  1
  H+  H224  1  0.27306963  0.38066346  0.15940913  1
  H+  H225  1  0.21694213  0.33785245  0.51353680  1
  H+  H226  1  0.11265715  0.38247511  1.00400332  1
  H+  H227  1  0.41309076  0.32337742  0.59165217  1
  H+  H228  1  0.01960343  0.40218683  0.49268475  1
  H+  H229  1  0.98328606  0.35895849  0.84785110  1
  H+  H230  1  0.35031573  0.87985949  0.49347672  1
  H+  H231  1  0.64691652  0.52172785  0.32773518  1
  H+  H232  1  0.62373997  0.66855881  0.16877996  1
  H+  H233  1  0.16746541  0.09048181  0.60352452  1
  H+  H234  1  0.77110211  0.38969517  0.50222201  1
  H+  H235  1  1.03564470  0.64800533  0.34702250  1
  H+  H236  1  0.87807768  0.76903129  0.48498280  1
  H+  H237  1  0.85660845  0.13564997  0.16664045  1
  H+  H238  1  0.51031359  0.34020765  0.14993243  1
  H+  H239  1  0.10629324  0.97187803  0.49603708  1
  H+  H240  1  0.13951164  0.03785722  0.82278119  1
  H+  H241  1  0.58159889  0.67487248  0.07018688  1
  H+  H242  1  0.45953679  0.82777564  0.52421148  1
  H+  H243  1  0.63753444  0.60719608  0.32894755  1
  H+  H244  1  0.08167924  0.91022295  0.39971055  1
  H+  H245  1  0.12119733  0.63467302  0.82659162  1
  H+  H246  1  0.96787694  0.11362418  0.33070171  1
  H+  H247  1  0.22486305  0.86361476  0.66473211  1
  H+  H248  1  0.47870446  0.34777515  0.64848884  1
  H+  H249  1  0.72924177  0.09950692  0.99759085  1
  H+  H250  1  0.11062794  0.71651798  0.00719264  1
  H+  H251  1  0.65094950  0.52194279  0.16544227  1
  H+  H252  1  0.37099761  1.02851015  0.66894494  1
  H+  H253  1  0.86010263  0.35226957  0.65571663  1
  H+  H254  1  0.02595059  0.38218997  0.15598049  1
  H+  H255  1  0.02092328  0.88326731  0.00797449  1
  H+  H256  1  0.13535206  0.77373159  0.66586521  1
  H+  H257  1  0.08309154  0.41082065  0.06478405  1
  H+  H258  1  0.38491378  0.60816626  0.17028369  1
  H+  H259  1  -0.02406191  0.86495556  0.49243031  1
  H+  H260  1  0.88830048  0.03257624  0.17878311  1
  H+  H261  1  0.26787331  0.14300722  0.67005846  1
  H+  H262  1  0.87308062  0.64669526  0.00265969  1
  H+  H263  1  0.77160459  0.89805938  0.16148312  1
  H+  H264  1  0.99610233  0.87417180  0.66120920  1
  H+  H265  1  0.62241724  0.58461483  0.64587413  1
  H+  H266  1  0.36218662  0.38001706  0.15516193  1
  H+  H267  1  0.01866972  0.63968526  0.48945167  1
  H+  H268  1  0.86620383  0.73057443  0.33053966  1
  H+  H269  1  0.87854121  0.50770972  0.67723179  1
  H+  H270  1  0.03652517  0.63854391  0.15576111  1
  H+  H271  1  0.63707472  0.78492851  0.85406140  1
  H+  H272  1  0.36572668  0.63764597  0.00715490  1
  H+  H273  1  0.72219250  0.32815216  0.66216668  1
  H+  H274  1  0.20976413  0.84029156  0.99385163  1
  H+  H275  1  0.36031118  0.13112214  0.20281921  1
  H+  H276  1  0.49923676  0.91651783  0.49134197  1
  H+  H277  1  0.37357586  0.77218263  0.66823763  1
  H+  H278  1  0.58947862  0.91641527  0.43365628  1
  H+  H279  1  0.70449407  0.09293133  0.34680839  1
  H+  H280  1  -0.01532279  0.61005496  0.83802310  1
  H+  H281  1  0.61317577  0.38206768  0.49424725  1
  H+  H282  1  0.11529913  0.88751075  0.33872373  1
  H+  H283  1  0.58889654  0.90825473  0.73974362  1
  H+  H284  1  0.38688031  0.37754296  0.83844848  1
  H+  H285  1  0.77027911  0.64275979  0.48027429  1
  H+  H286  1  0.32073827  0.66045436  0.68596413  1
  H+  H287  1  0.81198594  0.23462166  0.69606046  1
  H+  H288  1  0.06322567  0.16033543  0.72908001  1
  H+  H289  1  0.47869023  0.09376044  0.19249475  1
  H+  H290  1  0.54445548  0.90218651  0.10404669  1
  H+  H291  1  0.66605446  0.84861740  0.91040397  1
  H+  H292  1  0.91625303  0.33416775  0.23093974  1
  H+  H293  1  0.35612295  0.37771303  0.48739544  1
  H+  H294  1  0.15071244  0.57494414  0.55321881  1
  H+  H295  1  0.40317747  0.56854778  0.54413841  1
  H+  H296  1  0.86775210  0.90606285  -0.00769444  1
  H+  H297  1  0.92336430  0.58298923  0.93468479  1
  H+  H298  1  0.82530837  0.65674879  0.77803116  1
  H+  H299  1  0.82973831  0.41360189  0.44243693  1
  H+  H300  1  0.79511072  0.38001719  0.81625810  1
  H+  H301  1  0.92178744  0.84380696  0.23008635  1
  H+  H302  1  0.05315428  0.35576398  0.66656356  1
  H+  H303  1  0.81574653  0.16887187  0.74256273  1
  H+  H304  1  0.91229929  0.09669187  0.57462798  1
  H+  H305  1  0.59597534  0.67795454  0.79066694  1
  H+  H306  1  0.18613705  0.60919830  0.23309317  1
  H+  H307  1  0.88446525  0.10745945  0.83257069  1
  H+  H308  1  0.31924813  0.18835781  0.08137351  1
  H+  H309  1  0.09391001  0.66635159  0.09533869  1
  H+  H310  1  0.67412728  0.31830548  0.26579924  1
  H+  H311  1  0.41099069  0.57681518  0.26418171  1
  H+  H312  1  0.60527493  0.41477324  0.14981064  1
  H+  H313  1  0.65962005  0.81015833  0.56461630  1
  H+  H314  1  1.02111108  0.14427270  0.81870273  1
  H+  H315  1  0.33083034  0.91279191  0.07794514  1
  H+  H316  1  0.45897567  0.91230625  0.59131095  1
  H+  H317  1  0.08091911  0.16639581  0.10238057  1
  H+  H318  1  0.08440396  0.91075681  0.06526543  1
  H+  H319  1  0.59220425  0.40870165  0.39736028  1
  H+  H320  1  0.60609184  0.71563174  0.48675750  1
  H+  H321  1  0.07190596  0.42306268  0.42318806  1
  H+  H322  1  0.41768134  0.58628252  0.93656284  1
  H+  H323  1  0.83304731  0.17634344  0.39218699  1
  H+  H324  1  0.17327622  0.58408358  0.94036940  1
  H+  H325  1  0.10293327  0.13037761  1.01268828  1
  H+  H326  1  0.60390171  0.12476130  0.82986191  1
  H+  H327  1  0.09064245  0.42576420  0.77964402  1
  H+  H328  1  0.22797804  0.12705851  0.82162645  1
  H+  H329  1  0.68348588  0.09136871  0.56931676  1
  H+  H330  1  0.61836397  0.09855713  0.34955939  1
  H+  H331  1  0.39047087  0.12081698  0.84265799  1
  H+  H332  1  0.08413307  0.92187951  0.77544122  1
  H+  H333  1  0.81738086  0.87506729  0.77388649  1
  H+  H334  1  0.11551150  0.71964829  0.81156708  1
  H+  H335  1  0.86193693  0.04710813  1.02642053  1
  H+  H336  1  0.47543092  0.36030588  0.50088072  1
  H+  H337  1  0.38380184  0.51783880  0.16985509  1
  H+  H338  1  0.15718286  0.83136755  0.57208788  1
  H+  H339  1  0.17785761  0.84035855  0.26533792  1
  H+  H340  1  0.97783710  0.35171273  0.99576604  1
  H+  H341  1  0.42253492  0.97444201  0.12051893  1
  H+  H342  1  0.33441265  0.66777990  0.38771340  1
  H+  H343  1  0.58009819  0.66093423  0.39033229  1
  H+  H344  1  0.41174608  0.07859993  0.27972992  1
  H+  H345  1  0.32732364  0.16493740  0.43626640  1
  H+  H346  1  0.92023790  0.32713630  0.90554605  1
  H+  H347  1  0.10177080  0.49578077  0.62960561  1
  H+  H348  1  0.15637427  0.78190013  0.16745864  1
  H+  H349  1  0.11400079  0.38152045  0.15554719  1
  H+  H350  1  0.58330177  0.39746215  0.05589113  1
  H+  H351  1  0.82841134  0.92032763  0.42893751  1
  H+  H352  1  0.69304206  0.63206622  0.23955105  1
  H+  H353  1  0.25395586  0.64380695  0.16983566  1
  H+  H354  1  0.43281564  0.35118873  0.22299644  1
  H+  H355  1  0.92562832  0.64476786  0.59201087  1
  H+  H356  1  0.89652688  0.57531580  0.20593471  1
  H+  H357  1  0.36895119  0.89129858  0.82634477  1
  H+  H358  1  0.16547844  0.32951364  0.93230008  1
  H+  H359  1  0.22541056  0.85855609  0.81343026  1
  H+  H360  1  0.66529017  0.32665404  0.56855909  1
  H+  H361  1  0.32541450  0.40730958  0.39586076  1
  H+  H362  1  0.16746381  0.33141577  0.23017587  1
  H+  H363  1  0.56791695  0.44218391  0.73697718  1
  H+  H364  1  0.42047006  0.10125636  0.56962112  1
  H+  H365  1  0.15065862  0.07856291  0.24167290  1
  H+  H366  1  0.88554967  0.86028945  0.84487574  1
  H+  H367  1  0.66775606  0.58049311  0.54905272  1
  H+  H368  1  0.35585961  0.17927956  0.08286028  1
  H+  H369  1  0.92838267  0.57581729  0.29277844  1
  H+  H370  1  0.43225399  0.35532132  0.89137244  1
  H+  H371  1  0.34688883  0.18327243  0.76888700  1
  H+  H372  1  0.83118322  0.15227134  0.06943143  1
  H+  H373  1  0.33977971  0.67060823  0.09709642  1
  H+  H374  1  0.59533390  0.02163207  0.17209665  1
  H+  H375  1  0.57076154  0.15249680  0.73749139  1
  H+  H376  1  0.91439030  0.08664308  0.26857941  1
  H+  H377  1  0.84799583  0.68206495  0.06192152  1
  H+  H378  1  0.11337771  0.14964364  0.80950351  1
  H+  H379  1  0.52074656  0.88728395  0.83045767  1
  H+  H380  1  0.34184348  0.67790222  0.78968167  1
  H+  H381  1  0.83260502  0.67345569  0.42078864  1
  H+  H382  1  0.67862726  0.60782030  0.91844615  1
  H+  H383  1  0.08762309  0.67621088  0.43386638  1
  O2-  O384  1  0.07999198  0.16814682  0.14931510  1
  O2-  O385  1  0.02009169  0.19997834  0.47329300  1
  O2-  O386  1  0.08065550  0.18086985  0.80067344  1
  O2-  O387  1  0.08449498  0.41106324  0.13848009  1
  O2-  O388  1  0.07658888  0.42814784  0.47014740  1
  O2-  O389  1  0.09125978  0.42200888  0.82369859  1
  O2-  O390  1  0.09738767  0.67090717  0.14241638  1
  O2-  O391  1  0.08167047  0.66940719  0.47905633  1
  O2-  O392  1  0.08432107  0.65480968  0.80679134  1
  O2-  O393  1  0.09408145  0.92330053  0.14683745  1
  O2-  O394  1  0.07469387  0.91159361  0.48096785  1
  O2-  O395  1  0.08810728  0.92312646  0.82057170  1
  O2-  O396  1  0.33445288  0.16662225  0.21325186  1
  O2-  O397  1  0.32694955  0.16654665  0.48159733  1
  O2-  O398  1  0.34781403  0.18222017  0.81343942  1
  O2-  O399  1  0.33369727  0.41305793  0.14298524  1
  O2-  O400  1  0.31946137  0.40049118  0.47125431  1
  O2-  O401  1  0.33291248  0.42572951  0.81480827  1
  O2-  O402  1  0.34342993  0.67520202  0.14330693  1
  O2-  O403  1  0.31946377  0.65867847  0.46698970  1
  O2-  O404  1  0.34121790  0.67534802  0.83368220  1
  O2-  O405  1  0.37225859  0.92514588  0.13858484  1
  O2-  O406  1  0.31108466  0.89190024  0.47018404  1
  O2-  O407  1  0.34028836  0.92207909  0.80857653  1
  O2-  O408  1  0.58898304  0.12620707  0.16182467  1
  O2-  O409  1  0.59072514  0.17129934  0.48420495  1
  O2-  O410  1  0.57855578  0.15868098  0.81215874  1
  O2-  O411  1  0.56920007  0.35732120  0.13278813  1
  O2-  O412  1  0.58221822  0.40927346  0.47452728  1
  O2-  O413  1  0.56439444  0.48056268  0.76770858  1
  O2-  O414  1  0.58097413  0.68018396  0.14726259  1
  O2-  O415  1  0.57790893  0.65690084  0.46713512  1
  O2-  O416  1  0.59067834  0.68299410  0.83468665  1
  O2-  O417  1  0.54245563  0.90512147  0.15029606  1
  O2-  O418  1  0.59087893  0.96643826  0.45235929  1
  O2-  O419  1  0.58189190  0.91865882  0.81517761  1
  O2-  O420  1  0.82643942  0.16493877  0.14862317  1
  O2-  O421  1  0.85741759  0.20259354  0.46343826  1
  O2-  O422  1  0.82708048  0.16442660  0.81661160  1
  O2-  O423  1  0.83253174  0.41120723  0.13996715  1
  O2-  O424  1  0.83214182  0.42393246  0.48722611  1
  O2-  O425  1  0.85420260  0.41369103  0.79931162  1
  O2-  O426  1  0.84592780  0.68559386  0.13850511  1
  O2-  O427  1  0.83231091  0.67684002  0.46664102  1
  O2-  O428  1  0.83869458  0.66682396  0.82199128  1
  O2-  O429  1  0.83400359  0.92759482  0.15180747  1
  O2-  O430  1  0.82964742  0.91216483  0.47435034  1
  O2-  O431  1  0.82800574  0.90308470  0.81431751  1
  O2-  O432  1  0.16166557  0.08408368  0.19701223  1
  O2-  O433  1  0.16663863  0.08177998  0.52342183  1
  O2-  O434  1  0.16658654  0.09933364  0.81109717  1
  O2-  O435  1  0.17226814  0.33229901  0.18511403  1
  O2-  O436  1  0.16785915  0.30441221  0.54121637  1
  O2-  O437  1  0.16616689  0.33570152  0.85256298  1
  O2-  O438  1  0.19152125  0.61594065  0.18658270  1
  O2-  O439  1  0.15644178  0.58018393  0.50711162  1
  O2-  O440  1  0.18126631  0.59472126  0.86416437  1
  O2-  O441  1  0.18585462  0.84123751  0.18431182  1
  O2-  O442  1  0.15355368  0.83221409  0.52652969  1
  O2-  O443  1  0.16280559  0.82245017  0.80731653  1
  O2-  O444  1  0.41777015  0.06869176  0.20452344  1
  O2-  O445  1  0.42273768  0.10618015  0.52506757  1
  O2-  O446  1  0.41848317  0.08659537  0.85380220  1
  O2-  O447  1  0.41945250  0.32664509  0.18136308  1
  O2-  O448  1  0.41529432  0.33248633  0.51692693  1
  O2-  O449  1  0.42474776  0.35224952  0.84728388  1
  O2-  O450  1  0.41348453  0.57743907  0.18718303  1
  O2-  O451  1  0.40599619  0.57175199  0.49891180  1
  O2-  O452  1  0.41486438  0.58836271  0.86042248  1
  O2-  O453  1  0.45158549  0.84686859  0.16721768  1
  O2-  O454  1  0.44971762  0.87587895  0.51802955  1
  O2-  O455  1  0.41796508  0.83855249  0.85583323  1
  O2-  O456  1  0.63548358  0.08280507  0.18340575  1
  O2-  O457  1  0.69453461  0.10352788  0.52520821  1
  O2-  O458  1  0.66231162  0.08223785  0.85973555  1
  O2-  O459  1  0.67144048  0.29780770  0.18580679  1
  O2-  O460  1  0.66735469  0.33371276  0.52342241  1
  O2-  O461  1  0.70759611  0.30161428  0.86022633  1
  O2-  O462  1  0.70582124  0.67153722  0.20497320  1
  O2-  O463  1  0.66907938  0.58187062  0.50356012  1
  O2-  O464  1  0.67769116  0.61547758  0.87375667  1
  O2-  O465  1  0.65817890  0.84461038  0.18434104  1
  O2-  O466  1  0.65657222  0.81151454  0.51975011  1
  O2-  O467  1  0.66810799  0.84783436  0.86506417  1
  O2-  O468  1  0.91739871  0.09376841  0.19235816  1
  O2-  O469  1  0.92079901  0.05691168  0.54661351  1
  O2-  O470  1  0.92197875  0.08309666  0.84130396  1
  O2-  O471  1  0.91606067  0.33439120  0.18560399  1
  O2-  O472  1  0.94639620  0.39489961  0.54034617  1
  O2-  O473  1  0.92145656  0.32882502  0.85953748  1
  O2-  O474  1  0.91772996  0.57721829  0.16504408  1
  O2-  O475  1  0.91627088  0.59714271  0.51436685  1
  O2-  O476  1  0.92407671  0.58035464  0.85408442  1
  O2-  O477  1  0.92632392  0.84629532  0.18483362  1
  O2-  O478  1  0.91041739  0.83309885  0.49917985  1
  O2-  O479  1  0.92040033  0.83495237  0.86075887  1
  O2-  O480  1  0.15157785  0.08288299  0.32216457  1
  O2-  O481  1  0.17198014  0.09517129  0.64872508  1
  O2-  O482  1  0.14249168  0.07370225  0.97763090  1
  O2-  O483  1  0.16066368  0.33204855  0.31106372  1
  O2-  O484  1  0.16496740  0.40115095  0.63041277  1
  O2-  O485  1  0.16477560  0.33051899  0.97758073  1
  O2-  O486  1  0.17482069  0.59437509  0.30402357  1
  O2-  O487  1  0.13242864  0.55981554  0.62524203  1
  O2-  O488  1  0.17097376  0.58062520  0.98615068  1
  O2-  O489  1  0.17419882  0.83945463  0.31055049  1
  O2-  O490  1  0.16445792  0.83374720  0.64961218  1
  O2-  O491  1  0.14993714  0.80768744  0.97954888  1
  O2-  O492  1  0.41014456  0.08401806  0.32505861  1
  O2-  O493  1  0.40375257  0.09107681  0.65474847  1
  O2-  O494  1  0.42721253  0.07939540  0.97641767  1
  O2-  O495  1  0.45242973  0.39746515  0.29743288  1
  O2-  O496  1  0.41541212  0.31858842  0.63744430  1
  O2-  O497  1  0.41549716  0.33676778  0.99017925  1
  O2-  O498  1  0.41115882  0.57816114  0.30990091  1
  O2-  O499  1  0.40183010  0.55839064  0.62137834  1
  O2-  O500  1  0.41707391  0.58471652  0.98248417  1
  O2-  O501  1  0.44911991  0.84954325  0.32008411  1
  O2-  O502  1  0.46702747  0.93017034  0.63491714  1
  O2-  O503  1  0.40801912  0.83206911  0.98216011  1
  O2-  O504  1  0.64084435  0.05755492  0.35123083  1
  O2-  O505  1  0.65620850  0.07254489  0.65092781  1
  O2-  O506  1  0.66913437  0.07547409  0.98189754  1
  O2-  O507  1  0.67432501  0.32361040  0.31096523  1
  O2-  O508  1  0.66400034  0.31292424  0.64684817  1
  O2-  O509  1  0.69016955  0.35187874  0.97562890  1
  O2-  O510  1  0.67397089  0.58286208  0.31450631  1
  O2-  O511  1  0.65960304  0.56583393  0.62634211  1
  O2-  O512  1  0.67349275  0.59605167  0.99583076  1
  O2-  O513  1  0.65702225  0.82480455  0.30618137  1
  O2-  O514  1  0.65937014  0.80571472  0.64932137  1
  O2-  O515  1  0.65828997  0.84102838  0.98985916  1
  O2-  O516  1  0.90815689  0.08057407  0.31400766  1
  O2-  O517  1  0.93004680  0.17874795  0.62190765  1
  O2-  O518  1  0.87405894  0.00123920  1.03954578  1
  O2-  O519  1  0.91752669  0.33240416  0.31124071  1
  O2-  O520  1  0.90106659  0.32584401  0.58475053  1
  O2-  O521  1  0.91679907  0.31807546  0.98084054  1
  O2-  O522  1  0.92333985  0.58438815  0.33585155  1
  O2-  O523  1  0.93608429  0.67668351  0.63064223  1
  O2-  O524  1  0.92036093  0.58407365  0.98000558  1
  O2-  O525  1  0.91562894  0.83599007  0.30996530  1
  O2-  O526  1  0.94091105  0.83934815  0.63880081  1
  O2-  O527  1  0.91691089  0.84727810  0.98118272  1
  O2-  O528  1  0.07902412  0.16449683  0.03209068  1
  O2-  O529  1  0.07007994  0.17110487  0.36100751  1
  O2-  O530  1  0.04811215  0.13721484  0.68547080  1
  O2-  O531  1  0.08200335  0.41276423  0.01860875  1
  O2-  O532  1  0.07872723  0.42265532  0.35288703  1
  O2-  O533  1  0.07817907  0.39012150  0.62989025  1
  O2-  O534  1  0.08297644  0.65624495  0.02620021  1
  O2-  O535  1  0.09819171  0.67805548  0.35603148  1
  O2-  O536  1  0.07280693  0.66441801  0.68432133  1
  O2-  O537  1  0.08182638  0.90454290  0.02034845  1
  O2-  O538  1  0.08060820  0.91279121  0.35457894  1
  O2-  O539  1  0.09353315  0.92567438  0.69570419  1
  O2-  O540  1  0.31911593  0.15087975  -0.04393692  1
  O2-  O541  1  0.32239731  0.16073545  0.35689325  1
  O2-  O542  1  0.33188323  0.17280664  0.68216399  1
  O2-  O543  1  0.33382477  0.41893066  0.01886407  1
  O2-  O544  1  0.32755487  0.41205043  0.35002725  1
  O2-  O545  1  0.33960316  0.40717631  0.69428523  1
  O2-  O546  1  0.33479899  0.66709061  0.02342499  1
  O2-  O547  1  0.34017532  0.67347803  0.34278994  1
  O2-  O548  1  0.29104645  0.59889143  0.67627738  1
  O2-  O549  1  0.31183576  0.91786658  0.03324791  1
  O2-  O550  1  0.33774051  0.91641743  0.35404282  1
  O2-  O551  1  0.33066487  0.93108199  0.68930403  1
  O2-  O552  1  0.57587973  0.14195574  0.03397458  1
  O2-  O553  1  0.57706435  0.16317341  0.36107548  1
  O2-  O554  1  0.56540194  0.14951624  0.69163083  1
  O2-  O555  1  0.59136139  0.42212075  0.01437553  1
  O2-  O556  1  0.59742974  0.41262864  0.35175999  1
  O2-  O557  1  0.57955559  0.39975401  0.66690488  1
  O2-  O558  1  0.58352523  0.67481434  0.02463269  1
  O2-  O559  1  0.57952521  0.65692603  0.34480208  1
  O2-  O560  1  0.57221068  0.61389888  0.71372649  1
  O2-  O561  1  0.56815965  0.91300560  0.03100544  1
  O2-  O562  1  0.53837989  0.87926790  0.34013621  1
  O2-  O563  1  0.59475067  0.90601292  0.69412780  1
  O2-  O564  1  0.83361657  0.14240655  0.02506529  1
  O2-  O565  1  0.82107824  0.16520138  0.34712368  1
  O2-  O566  1  0.80866097  0.17745823  0.69794480  1
  O2-  O567  1  0.84450596  0.41476432  0.02008760  1
  O2-  O568  1  0.83197462  0.40748898  0.36386155  1
  O2-  O569  1  0.81684497  0.33233631  0.68848631  1
  O2-  O570  1  0.84416484  0.67894478  0.01653678  1
  O2-  O571  1  0.83879367  0.67017273  0.34666044  1
  O2-  O572  1  0.79669957  0.65277230  0.69718489  1
  O2-  O573  1  0.83249208  0.93590177  -0.00781560  1
  O2-  O574  1  0.82732205  0.91647187  0.35262949  1
  O2-  O575  1  0.80534875  0.81043845  0.70511665  1
