# generated using pymatgen
data_H2O
_symmetry_space_group_name_H-M   'P 1'
_cell_length_a   17.98530525
_cell_length_b   17.97790730
_cell_length_c   21.99170954
_cell_angle_alpha   89.99165473
_cell_angle_beta   89.99892143
_cell_angle_gamma   120.01580315
_symmetry_Int_Tables_number   1
_chemical_formula_structural   H2O
_chemical_formula_sum   'H384 O192'
_cell_volume   6157.11669678
_cell_formula_units_Z   192
loop_
 _symmetry_equiv_pos_site_id
 _symmetry_equiv_pos_as_xyz
  1  'x, y, z'
loop_
 _atom_type_symbol
 _atom_type_oxidation_number
  H+  1.0
  O2-  -2.0
loop_
 _atom_site_type_symbol
 _atom_site_label
 _atom_site_symmetry_multiplicity
 _atom_site_fract_x
 _atom_site_fract_y
 _atom_site_fract_z
 _atom_site_occupancy
  H+  H0  1  0.36436233  0.63393422  0.01999641  1
  H+  H1  1  0.14928491  0.81173712  0.67171696  1
  H+  H2  1  0.16648548  0.09565383  0.14317567  1
  H+  H3  1  0.88618025  0.51874256  0.00364639  1
  H+  H4  1  0.64203444  0.10508666  0.48326259  1
  H+  H5  1  0.36898026  0.22745264  0.83579016  1
  H+  H6  1  0.85338504  0.23084397  0.15457129  1
  H+  H7  1  0.14844925  0.80661837  0.85138436  1
  H+  H8  1  -0.01666423  0.79082604  0.41844518  1
  H+  H9  1  0.88054012  0.87027101  0.65601321  1
  H+  H10  1  0.27922833  0.63295859  0.68024917  1
  H+  H11  1  -0.02989307  0.87396219  0.65370021  1
  H+  H12  1  0.52562154  0.89428286  0.82670688  1
  H+  H13  1  0.60713893  0.88950032  0.99362621  1
  H+  H14  1  0.02944678  0.37104468  0.67073873  1
  H+  H15  1  0.22377074  0.29956275  0.49121279  1
  H+  H16  1  0.10950183  0.16127863  0.51154112  1
  H+  H17  1  0.69458399  0.01903118  0.67509490  1
  H+  H18  1  0.86475982  0.89419978  0.83372948  1
  H+  H19  1  0.73383850  0.88212754  0.84242393  1
  H+  H20  1  0.63265887  0.58291962  0.56465415  1
  H+  H21  1  0.53772676  0.64689083  0.01837974  1
  H+  H22  1  0.19076905  0.96769964  0.46327592  1
  H+  H23  1  0.36145456  0.14243277  0.33963992  1
  H+  H24  1  0.29982767  0.63851634  0.45088897  1
  H+  H25  1  0.86145201  0.48711290  0.16207672  1
  H+  H26  1  0.51896500  0.38832103  0.34172414  1
  H+  H27  1  -0.04689447  0.59900383  0.49284121  1
  H+  H28  1  0.29603552  0.12179113  0.15751047  1
  H+  H29  1  0.08190969  0.23281756  0.66698173  1
  H+  H30  1  0.36320657  0.13147307  0.00054396  1
  H+  H31  1  0.21121447  0.13226956  0.67656049  1
  H+  H32  1  0.63635364  0.73822485  0.65469640  1
  H+  H33  1  0.37412562  0.35942154  0.66852400  1
  H+  H34  1  0.63705675  0.52530504  0.31990238  1
  H+  H35  1  0.87010463  0.51441480  0.52045904  1
  H+  H36  1  0.83364237  0.41856139  0.07766159  1
  H+  H37  1  0.40309770  0.78311303  0.52889811  1
  H+  H38  1  0.94248069  0.32240356  0.58069689  1
  H+  H39  1  0.15245584  0.37442297  0.99806290  1
  H+  H40  1  0.65940193  0.33417142  0.23211078  1
  H+  H41  1  0.94050114  0.60222523  0.13470709  1
  H+  H42  1  0.38308243  0.85263731  0.15456696  1
  H+  H43  1  0.35566822  0.71886113  0.30046185  1
  H+  H44  1  0.62844130  0.96529332  0.47703967  1
  H+  H45  1  0.43450267  0.59298787  1.08879857  1
  H+  H46  1  0.72658354  0.87043259  0.17300635  1
  H+  H47  1  0.45693203  0.13018724  0.57994294  1
  H+  H48  1  0.39104763  0.85049448  0.30189088  1
  H+  H49  1  0.38216613  0.27645906  0.33212425  1
  H+  H50  1  0.30629132  0.89889018  0.51906260  1
  H+  H51  1  0.34775691  0.22623774  0.68369962  1
  H+  H52  1  0.40075039  0.77222470  0.67816799  1
  H+  H53  1  0.26952877  0.39202167  0.83171004  1
  H+  H54  1  0.15998700  0.56376033  0.22850481  1
  H+  H55  1  0.63009444  0.36287706  0.17259186  1
  H+  H56  1  0.87042160  0.39553587  0.82243168  1
  H+  H57  1  0.90568200  0.66541619  0.34301543  1
  H+  H58  1  0.09112195  0.15262745  0.68038739  1
  H+  H59  1  1.01056564  0.61380574  1.01372390  1
  H+  H60  1  0.46193042  0.35741548  0.51101790  1
  H+  H61  1  0.86728122  0.87762270  1.01683131  1
  H+  H62  1  0.40065053  0.52771883  1.03422620  1
  H+  H63  1  0.40443518  0.03915360  0.32675825  1
  H+  H64  1  0.14241279  0.50250532  0.66509171  1
  H+  H65  1  0.36185072  0.22319237  0.49980184  1
  H+  H66  1  1.02178200  0.38117277  1.00517128  1
  H+  H67  1  0.38064206  0.76160052  0.15781847  1
  H+  H68  1  0.25132425  0.84867201  0.66726043  1
  H+  H69  1  0.63408154  0.86413592  0.15582463  1
  H+  H70  1  0.77769714  0.15079554  0.83244254  1
  H+  H71  1  0.63449826  0.37322657  0.32834178  1
  H+  H72  1  0.62982288  0.53065723  0.17135546  1
  H+  H73  1  0.73140093  0.35560209  0.67625586  1
  H+  H74  1  0.76576412  0.14092262  0.15594970  1
  H+  H75  1  0.10630298  0.70406282  0.01849745  1
  H+  H76  1  0.86004506  0.74580760  0.51009161  1
  H+  H77  1  0.50157020  0.10318470  0.17441784  1
  H+  H78  1  0.13470874  0.51658119  0.33105642  1
  H+  H79  1  0.10496686  0.38047996  0.15945352  1
  H+  H80  1  0.64520022  0.52975630  0.97714147  1
  H+  H81  1  0.35186209  0.37291467  0.16676842  1
  H+  H82  1  0.71687270  0.36509191  0.53560424  1
  H+  H83  1  0.29759036  0.89058810  0.32146333  1
  H+  H84  1  0.11608038  0.38955808  0.34229602  1
  H+  H85  1  0.87685594  1.02246287  0.00619092  1
  H+  H86  1  0.77890473  0.38520605  0.01514313  1
  H+  H87  1  0.64464652  0.88273609  0.84222125  1
  H+  H88  1  0.37627929  0.60159845  0.17246328  1
  H+  H89  1  0.36483172  0.34088116  0.51884107  1
  H+  H90  1  0.36863291  0.96456339  0.15261048  1
  H+  H91  1  0.91514136  0.08422548  0.94915056  1
  H+  H92  1  0.64313587  0.83159535  0.49253332  1
  H+  H93  1  0.85302534  0.13678289  0.00927208  1
  H+  H94  1  0.41786873  0.81971831  0.24145728  1
  H+  H95  1  0.88562031  0.37083339  0.17190465  1
  H+  H96  1  0.63277227  0.51323936  0.65815192  1
  H+  H97  1  0.11707339  0.37761761  0.68388295  1
  H+  H98  1  0.88163700  0.76499183  0.16987073  1
  H+  H99  1  0.85580172  0.97658005  0.67490790  1
  H+  H100  1  0.58581764  1.00112049  0.31401986  1
  H+  H101  1  0.09136850  0.14167382  0.20573174  1
  H+  H102  1  0.88889431  0.76964126  0.99721302  1
  H+  H103  1  0.83231912  0.61956464  0.49190267  1
  H+  H104  1  0.99815960  0.90995927  0.32336953  1
  H+  H105  1  0.50584542  0.38144638  0.68113685  1
  H+  H106  1  0.86609498  0.64926805  0.66919158  1
  H+  H107  1  0.88189328  0.27129410  0.99568855  1
  H+  H108  1  0.03809116  0.66856781  0.86840720  1
  H+  H109  1  0.35212463  0.87419946  -0.00537872  1
  H+  H110  1  0.51383960  0.38487412  0.16705017  1
  H+  H111  1  0.63479682  0.03640621  0.83394574  1
  H+  H112  1  0.02057650  0.39731421  0.83409220  1
  H+  H113  1  0.42158592  0.05041416  0.53670393  1
  H+  H114  1  0.64111408  0.25325316  -0.01560496  1
  H+  H115  1  0.86364623  0.14755798  0.84238108  1
  H+  H116  1  0.88954603  0.36381922  1.00212943  1
  H+  H117  1  0.38305599  0.36612690  0.33066784  1
  H+  H118  1  -0.04626357  0.37199041  0.48344934  1
  H+  H119  1  0.72080654  0.11439300  -0.01236065  1
  H+  H120  1  0.01805452  0.15575351  0.50922052  1
  H+  H121  1  0.38086248  0.01615607  0.98225521  1
  H+  H122  1  0.13383965  0.60729041  0.32283968  1
  H+  H123  1  0.10399087  0.71403790  0.48684354  1
  H+  H124  1  0.54419802  0.88152707  0.67980201  1
  H+  H125  1  0.72642180  0.37751473  0.32226790  1
  H+  H126  1  0.37621447  0.51280368  0.17337580  1
  H+  H127  1  0.10726943  0.61034240  0.01440644  1
  H+  H128  1  0.88684523  0.85786758  0.17415173  1
  H+  H129  1  0.62688060  0.38643238  0.96850222  1
  H+  H130  1  -0.02164546  0.85758699  -0.00457451  1
  H+  H131  1  0.38297584  0.88825674  0.68347914  1
  H+  H132  1  0.64392222  0.61629727  0.32300175  1
  H+  H133  1  0.75272112  0.64091846  0.48066586  1
  H+  H134  1  0.17083407  0.54168848  0.49208180  1
  H+  H135  1  0.16981790  0.86423641  0.32366089  1
  H+  H136  1  0.88794536  0.03281092  0.85233765  1
  H+  H137  1  0.88362454  0.01668913  0.31783518  1
  H+  H138  1  0.72732865  0.77548940  0.62611580  1
  H+  H139  1  0.12627218  0.66732799  0.86808852  1
  H+  H140  1  0.26986148  0.63895358  0.83623329  1
  H+  H141  1  0.12336304  0.27253020  0.18388257  1
  H+  H142  1  0.40089221  0.52507033  0.32621962  1
  H+  H143  1  0.38182730  -0.00664781  0.82437532  1
  H+  H144  1  0.53500251  0.63370181  0.34658100  1
  H+  H145  1  0.13112261  0.53648128  0.84596326  1
  H+  H146  1  0.59839234  0.61413932  0.66776780  1
  H+  H147  1  0.64692339  0.61971829  0.98856681  1
  H+  H148  1  0.37873111  0.51740981  0.84232091  1
  H+  H149  1  0.81919178  0.40884464  0.71137045  1
  H+  H150  1  0.26305124  0.62733482  0.15898348  1
  H+  H151  1  0.01155972  0.11349163  0.04077762  1
  H+  H152  1  0.60699529  0.62577522  0.81612096  1
  H+  H153  1  0.78112548  0.84509209  0.05209406  1
  H+  H154  1  0.78090683  0.63625731  0.00625490  1
  H+  H155  1  0.11477253  0.95630588  0.15461396  1
  H+  H156  1  0.77356624  0.88095852  0.67834687  1
  H+  H157  1  0.13514857  0.70037013  0.62149015  1
  H+  H158  1  0.41740625  0.87715877  0.53176732  1
  H+  H159  1  0.10019167  0.14981728  0.83847258  1
  H+  H160  1  0.89183805  0.61176443  1.00374716  1
  H+  H161  1  0.38598899  0.77524585  0.83718624  1
  H+  H162  1  0.87314416  0.48530922  0.81966062  1
  H+  H163  1  0.94828697  0.11529755  0.66867423  1
  H+  H164  1  0.21706940  0.35692643  0.17544928  1
  H+  H165  1  0.98655840  0.63250070  0.63165852  1
  H+  H166  1  0.08334545  0.66690062  0.38720167  1
  H+  H167  1  0.62177646  0.14217035  0.15116166  1
  H+  H168  1  0.62004710  0.23842411  0.80398649  1
  H+  H169  1  0.13303329  0.28775124  0.84666661  1
  H+  H170  1  0.46753254  0.85750117  0.98832810  1
  H+  H171  1  0.04823334  0.03891864  0.42850419  1
  H+  H172  1  0.60639653  0.09808122  0.31714223  1
  H+  H173  1  -0.03844422  0.11179784  0.21749801  1
  H+  H174  1  0.72715500  0.28941286  0.94810303  1
  H+  H175  1  0.58812897  0.41226737  -0.08571768  1
  H+  H176  1  0.12738271  1.05605367  0.30415725  1
  H+  H177  1  0.64763386  0.77708375  0.33968159  1
  H+  H178  1  0.09968342  1.00751987  0.67431134  1
  H+  H179  1  0.28383027  0.39656664  1.00998436  1
  H+  H180  1  0.27100627  0.39137361  0.33648315  1
  H+  H181  1  0.89626942  0.62364819  0.84357294  1
  H+  H182  1  0.25343458  0.62168041  0.31088901  1
  H+  H183  1  0.73452714  0.11230918  0.70055410  1
  H+  H184  1  0.09760713  0.10866719  1.04069314  1
  H+  H185  1  0.12737057  0.72408975  0.32771165  1
  H+  H186  1  0.39510913  0.60046203  0.49805473  1
  H+  H187  1  0.46743167  0.60068290  0.65488058  1
  H+  H188  1  0.10208253  0.62830490  0.47555634  1
  H+  H189  1  0.63289842  0.65202537  0.15705716  1
  H+  H190  1  0.61706258  0.23025611  0.15598042  1
  H+  H191  1  0.84824598  0.38075325  0.53736260  1
  H+  H192  1  0.73220843  0.11104651  0.48067416  1
  H+  H193  1  1.02192530  0.63316261  0.19062164  1
  H+  H194  1  0.47130714  0.36737887  0.84642540  1
  H+  H195  1  0.13792599  0.85147177  0.17268778  1
  H+  H196  1  0.39068431  0.13578343  0.15929138  1
  H+  H197  1  0.33201622  0.47750494  0.49784887  1
  H+  H198  1  0.47109495  0.10428953  0.98907506  1
  H+  H199  1  0.62543237  0.86916115  0.68305195  1
  H+  H200  1  0.17345574  0.86341024  0.51029901  1
  H+  H201  1  0.34303017  0.64173410  0.34892815  1
  H+  H202  1  0.38986997  0.86727033  0.83784614  1
  H+  H203  1  0.85908785  0.89456711  0.33426509  1
  H+  H204  1  0.33062636  0.12924283  0.68302004  1
  H+  H205  1  0.10658800  0.86360905  0.00513176  1
  H+  H206  1  0.66361846  0.58862209  0.23187046  1
  H+  H207  1  0.63265443  0.31645950  0.57555348  1
  H+  H208  1  0.89479164  0.78479622  0.32707265  1
  H+  H209  1  0.97004798  0.86708996  0.84186609  1
  H+  H210  1  0.88036185  0.27300164  0.49136249  1
  H+  H211  1  0.85267922  0.72882340  0.67328181  1
  H+  H212  1  0.32490017  0.16346363  0.39884656  1
  H+  H213  1  0.52147795  0.87983989  0.14448059  1
  H+  H214  1  0.62339965  0.25227948  0.49623363  1
  H+  H215  1  0.32613930  0.41286039  0.73512093  1
  H+  H216  1  0.11249054  0.60482450  0.62109777  1
  H+  H217  1  0.89226505  0.37430957  0.32145157  1
  H+  H218  1  0.85739172  0.62970033  0.16064920  1
  H+  H219  1  0.13829753  0.37939750  0.84629170  1
  H+  H220  1  0.97274056  0.12511742  0.85516178  1
  H+  H221  1  0.77155458  0.39228661  0.16428874  1
  H+  H222  1  0.59163931  0.33504638  0.67090849  1
  H+  H223  1  0.63070923  0.01940584  0.16014934  1
  H+  H224  1  0.11354119  1.03460994  0.84937259  1
  H+  H225  1  0.43654320  0.58482890  0.26820057  1
  H+  H226  1  0.19056665  0.33904198  0.59030948  1
  H+  H227  1  0.11335829  0.39724805  0.52462412  1
  H+  H228  1  0.12780956  0.51024295  1.00205382  1
  H+  H229  1  0.83841761  0.20887391  0.63626163  1
  H+  H230  1  0.86920317  0.49488809  0.32148112  1
  H+  H231  1  0.35766460  0.38848633  0.83236240  1
  H+  H232  1  0.21426571  0.83114230  -0.00962921  1
  H+  H233  1  0.36547429  0.13741255  0.50098515  1
  H+  H234  1  0.13668909  1.01419407  0.00203641  1
  H+  H235  1  0.23324958  0.12883521  0.51764907  1
  H+  H236  1  0.39253713  0.26751909  0.17994441  1
  H+  H237  1  0.63713422  0.12618277  0.82591456  1
  H+  H238  1  0.51680155  0.62327936  0.81816581  1
  H+  H239  1  0.02361487  0.15003238  0.34577733  1
  H+  H240  1  0.82024630  0.41287257  0.59675367  1
  H+  H241  1  0.84637144  0.08577859  0.66305142  1
  H+  H242  1  0.53664792  0.15747898  0.49592642  1
  H+  H243  1  0.13424367  0.28441472  0.33156368  1
  H+  H244  1  0.53086195  0.15008054  0.80878647  1
  H+  H245  1  0.60133769  0.39286456  0.50173473  1
  H+  H246  1  0.28765484  0.90915243  0.82504279  1
  H+  H247  1  0.63933431  0.86075177  0.32964297  1
  H+  H248  1  0.01531847  0.38182605  0.15706347  1
  H+  H249  1  0.72296117  0.87624223  0.98679852  1
  H+  H250  1  0.47858276  0.35549287  0.98455850  1
  H+  H251  1  0.35238379  0.46672967  0.67389481  1
  H+  H252  1  0.38306256  0.60789836  0.66218749  1
  H+  H253  1  0.35658251  0.00769401  0.66716697  1
  H+  H254  1  0.62170531  0.73634691  -0.00299128  1
  H+  H255  1  0.13785382  0.76663665  0.94296259  1
  H+  H256  1  0.10931300  0.92503461  0.67057774  1
  H+  H257  1  0.98647480  0.61949511  0.30726721  1
  H+  H258  1  0.22488807  0.12905981  0.30581070  1
  H+  H259  1  0.39768529  0.70547039  0.43546610  1
  H+  H260  1  0.86343373  0.97573784  0.19007729  1
  H+  H261  1  0.63817501  0.75963251  0.15454118  1
  H+  H262  1  0.86862082  0.14992263  0.48650717  1
  H+  H263  1  0.10909279  0.90676044  0.81936996  1
  H+  H264  1  0.95203891  0.83367057  0.49527680  1
  H+  H265  1  0.63902972  0.06845425  0.22229430  1
  H+  H266  1  0.87111721  0.23153308  0.33129166  1
  H+  H267  1  0.17167151  0.96289782  0.49469719  1
  H+  H268  1  0.37057047  0.39013383  0.01283326  1
  H+  H269  1  0.18519789  0.89253356  0.88837308  1
  H+  H270  1  0.19343935  0.43008851  0.48244710  1
  H+  H271  1  0.88624771  0.03696615  0.50416527  1
  H+  H272  1  0.62322720  0.39414678  0.82601086  1
  H+  H273  1  0.27400178  0.88139711  0.15255533  1
  H+  H274  1  0.74102692  0.37530166  0.82388691  1
  H+  H275  1  0.65815193  0.69633412  0.49855042  1
  H+  H276  1  0.86543168  0.73053465  0.82688780  1
  H+  H277  1  0.61982798  0.25061878  0.34428990  1
  H+  H278  1  0.35778461  0.71794257  0.00216551  1
  H+  H279  1  0.72115779  0.60394219  0.65680971  1
  H+  H280  1  0.51661867  0.86547764  0.33096674  1
  H+  H281  1  0.34615965  0.91834219  0.73969311  1
  H+  H282  1  0.22153330  0.10632823  0.00323955  1
  H+  H283  1  0.88789335  0.28059046  0.84315959  1
  H+  H284  1  0.10360104  0.26864412  0.56471214  1
  H+  H285  1  0.09517301  1.05353719  0.42681965  1
  H+  H286  1  0.60594382  0.12865168  0.00154248  1
  H+  H287  1  0.52781157  0.15996304  0.34720706  1
  H+  H288  1  0.43862949  0.83385580  0.62036601  1
  H+  H289  1  0.91518124  0.58496141  0.90359400  1
  H+  H290  1  0.32615468  0.40375880  0.10612249  1
  H+  H291  1  0.77075390  0.89522161  0.33882529  1
  H+  H292  1  0.12831998  0.51006329  0.16655662  1
  H+  H293  1  0.40969665  0.82557298  0.92894638  1
  H+  H294  1  0.19143913  0.82380798  0.56897107  1
  H+  H295  1  0.92089152  0.59601949  0.25145142  1
  H+  H296  1  0.58123457  0.91614107  0.08573986  1
  H+  H297  1  0.34636507  0.16317383  0.06396787  1
  H+  H298  1  0.20333438  0.62834556  0.52915948  1
  H+  H299  1  0.62213992  0.48489071  0.83106077  1
  H+  H300  1  0.84509615  0.17647154  0.42111009  1
  H+  H301  1  0.13853013  0.05157575  0.52049255  1
  H+  H302  1  0.35736933  0.63466936  0.83499155  1
  H+  H303  1  0.85920055  0.68085009  0.40078862  1
  H+  H304  1  0.58093159  0.16565165  0.06050189  1
  H+  H305  1  0.39907654  0.56590899  0.56605764  1
  H+  H306  1  0.30139571  0.02494792  0.62084670  1
  H+  H307  1  0.41962083  0.58095940  0.89917380  1
  H+  H308  1  0.33301295  0.66247790  0.74229716  1
  H+  H309  1  0.67754948  0.59588449  0.89261066  1
  H+  H310  1  0.84850514  0.93699314  0.12218196  1
  H+  H311  1  0.39975537  0.12355915  0.83414654  1
  H+  H312  1  0.08082538  0.42378199  0.77559194  1
  H+  H313  1  0.03369495  0.89055527  0.41647500  1
  H+  H314  1  0.07160656  0.18977654  0.40855269  1
  H+  H315  1  0.09394732  0.41894107  0.40494399  1
  H+  H316  1  0.91587657  0.34163702  0.90181649  1
  H+  H317  1  0.84028448  0.92701252  0.77378123  1
  H+  H318  1  0.91167112  0.61001055  0.58686782  1
  H+  H319  1  0.07826783  0.40973487  0.06632285  1
  H+  H320  1  0.02053532  0.87133364  0.15947715  1
  H+  H321  1  0.32117676  0.41892082  0.39842007  1
  H+  H322  1  0.91280707  0.83231475  0.90244547  1
  H+  H323  1  0.83339761  0.66345794  0.06963856  1
  H+  H324  1  0.14020335  0.76379244  0.18616039  1
  H+  H325  1  0.18691828  0.83598921  0.25747467  1
  H+  H326  1  0.16255620  0.34073490  0.26918990  1
  H+  H327  1  0.56967158  0.20051936  0.70836562  1
  H+  H328  1  0.41347104  0.32848012  0.23912060  1
  H+  H329  1  0.16351411  0.58385436  0.90942274  1
  H+  H330  1  0.48354289  0.03373389  0.22354658  1
  H+  H331  1  0.87122782  0.14324409  0.32971425  1
  H+  H332  1  0.59116932  0.92188974  0.77022220  1
  H+  H333  1  0.59740819  0.64996093  0.40415889  1
  H+  H334  1  0.67771289  0.33110621  0.88054514  1
  H+  H335  1  0.04855719  0.63648131  0.74518227  1
  H+  H336  1  0.32103368  0.65708807  0.09887464  1
  H+  H337  1  0.90618408  0.82341602  0.56816775  1
  H+  H338  1  0.84103630  0.44262796  0.38309445  1
  H+  H339  1  0.05957010  0.14273911  0.13683196  1
  H+  H340  1  0.09224150  0.92697839  0.31921090  1
  H+  H341  1  0.57767406  0.41887592  0.40102784  1
  H+  H342  1  0.83848394  0.67100172  0.76669003  1
  H+  H343  1  0.14255819  0.08757910  0.91112108  1
  H+  H344  1  0.56839468  0.41523559  0.10619277  1
  H+  H345  1  0.06872092  0.93567779  0.76625418  1
  H+  H346  1  0.40894266  0.33372871  0.90410921  1
  H+  H347  1  0.58984657  0.19347166  0.42300972  1
  H+  H348  1  0.20065560  0.53872989  0.60774365  1
  H+  H349  1  0.32253275  0.90652399  0.05220600  1
  H+  H350  1  0.58495832  0.47327577  0.49775985  1
  H+  H351  1  0.38844100  0.26860962  -0.00333840  1
  H+  H352  1  0.54358750  0.87964350  0.49369623  1
  H+  H353  1  0.66273729  0.09156482  0.92640532  1
  H+  H354  1  0.66828324  0.84479207  0.92456716  1
  H+  H355  1  0.67198028  0.80744721  0.55421047  1
  H+  H356  1  0.56995334  0.41317307  0.73834707  1
  H+  H357  1  0.76872764  0.63500474  0.16061996  1
  H+  H358  1  0.61450595  0.68614717  0.09076599  1
  H+  H359  1  0.18491075  0.35226744  0.93805665  1
  H+  H360  1  0.10899890  0.62850325  0.18585641  1
  H+  H361  1  0.78789079  0.89712162  0.48751240  1
  H+  H362  1  0.90329807  0.08866233  0.56719132  1
  H+  H363  1  0.97970187  0.37210464  0.32771867  1
  H+  H364  1  0.36458186  0.91086437  0.37437112  1
  H+  H365  1  0.81912619  0.16941545  0.06461559  1
  H+  H366  1  0.43692384  0.09887974  0.27068132  1
  H+  H367  1  0.08078656  0.89510094  0.06501410  1
  H+  H368  1  0.21812176  0.60294950  1.00271623  1
  H+  H369  1  0.56974134  0.64681688  0.72714108  1
  H+  H370  1  0.06941660  0.68462547  0.74530615  1
  H+  H371  1  0.16134321  0.11144534  0.61310573  1
  H+  H372  1  0.90484935  0.82831463  0.26061546  1
  H+  H373  1  0.18133554  0.08009834  0.21314333  1
  H+  H374  1  0.91806594  0.33908196  0.22874168  1
  H+  H375  1  0.40695962  0.32607553  0.61149745  1
  H+  H376  1  0.73468145  0.61960189  0.83256190  1
  H+  H377  1  0.06976084  0.18217843  0.77925585  1
  H+  H378  1  0.60485937  0.97771106  -0.00622396  1
  H+  H379  1  0.84226123  0.94036287  0.42840115  1
  H+  H380  1  0.38270659  0.95104539  0.47330516  1
  H+  H381  1  0.57479081  0.90312401  0.39172224  1
  H+  H382  1  0.43224816  0.09119687  0.89029009  1
  H+  H383  1  0.33003338  0.16717536  0.77845705  1
  O2-  O384  1  0.05972842  0.16144543  0.18079221  1
  O2-  O385  1  0.08170121  0.19538791  0.50202106  1
  O2-  O386  1  0.07254933  0.18425531  0.82413291  1
  O2-  O387  1  0.07617196  0.41082330  0.14123533  1
  O2-  O388  1  0.14043586  0.43491982  0.48942928  1
  O2-  O389  1  0.08235104  0.43132946  0.82029980  1
  O2-  O390  1  0.08518879  0.66611027  0.19710466  1
  O2-  O391  1  0.07098247  0.65900374  0.46520132  1
  O2-  O392  1  0.10130300  0.70508966  0.87668431  1
  O2-  O393  1  0.08024289  0.89466977  0.14293523  1
  O2-  O394  1  0.01583320  0.84193698  0.44507801  1
  O2-  O395  1  0.06961290  0.92916349  0.81103469  1
  O2-  O396  1  0.35746977  0.16234342  0.14621447  1
  O2-  O397  1  0.33086783  0.16170402  0.48479624  1
  O2-  O398  1  0.34598091  0.16753845  0.82164738  1
  O2-  O399  1  0.32003842  0.40118633  0.15162478  1
  O2-  O400  1  0.28088575  0.42147388  0.47464981  1
  O2-  O401  1  0.33058679  0.42158833  0.81648934  1
  O2-  O402  1  0.32417477  0.65905515  0.14421327  1
  O2-  O403  1  0.35311092  0.64540837  0.43150233  1
  O2-  O404  1  0.32931337  0.66665463  0.81897148  1
  O2-  O405  1  0.33181916  0.90866899  0.13242101  1
  O2-  O406  1  0.37094307  0.93780804  0.51643963  1
  O2-  O407  1  0.34789920  0.93012415  0.81224207  1
  O2-  O408  1  0.58856146  0.17108766  0.13796812  1
  O2-  O409  1  0.59440993  0.19181541  0.47477422  1
  O2-  O410  1  0.58753717  0.17923760  0.78701916  1
  O2-  O411  1  0.57453584  0.41743090  0.15025757  1
  O2-  O412  1  0.56548789  0.41411420  0.48246031  1
  O2-  O413  1  0.58526763  0.42046057  0.82633906  1
  O2-  O414  1  0.61208331  0.68943074  0.13648056  1
  O2-  O415  1  0.65803042  0.64297036  0.48447420  1
  O2-  O416  1  0.57249920  0.64846675  0.79685681  1
  O2-  O417  1  0.58283823  0.91351259  0.13140390  1
  O2-  O418  1  0.59574539  0.90157133  0.46853594  1
  O2-  O419  1  0.58724526  0.92985282  0.81461464  1
  O2-  O420  1  0.82287490  0.17258096  0.13634432  1
  O2-  O421  1  0.84042900  0.17998021  0.46719130  1
  O2-  O422  1  0.83996622  0.18137619  0.82313801  1
  O2-  O423  1  0.83176341  0.42190846  0.14938166  1
  O2-  O424  1  0.82017944  0.41353341  0.55096374  1
  O2-  O425  1  0.84155622  0.42570548  0.80401751  1
  O2-  O426  1  0.82925755  0.66445297  0.14533849  1
  O2-  O427  1  0.81551999  0.66199097  0.47732067  1
  O2-  O428  1  0.83924666  0.66975693  0.81220962  1
  O2-  O429  1  0.83707947  0.92176053  0.16560913  1
  O2-  O430  1  0.84477046  0.94243284  0.47366368  1
  O2-  O431  1  0.84044571  0.93019572  0.81887099  1
  O2-  O432  1  0.18771246  0.06592261  0.16888154  1
  O2-  O433  1  0.17460500  0.11030351  0.53499997  1
  O2-  O434  1  0.13746021  0.09269795  0.86677718  1
  O2-  O435  1  0.15788764  0.33534147  0.19249049  1
  O2-  O436  1  0.26990928  0.34903534  0.51307291  1
  O2-  O437  1  0.16991989  0.34953076  0.85898255  1
  O2-  O438  1  0.16133317  0.57026554  0.18370139  1
  O2-  O439  1  0.19598348  0.60553605  0.48787453  1
  O2-  O440  1  0.16507158  0.59499742  0.86493552  1
  O2-  O441  1  0.17584687  0.82972002  0.18854584  1
  O2-  O442  1  0.20032138  0.83038817  0.52378147  1
  O2-  O443  1  0.17893492  0.87111843  0.84681687  1
  O2-  O444  1  0.45345581  0.05769917  0.20036761  1
  O2-  O445  1  0.44988306  0.11401004  0.53665480  1
  O2-  O446  1  0.43365770  0.09315073  0.84505320  1
  O2-  O447  1  0.41541380  0.32782228  0.19333268  1
  O2-  O448  1  0.40425526  0.31933671  0.52973783  1
  O2-  O449  1  0.41013913  0.33682270  0.85863531  1
  O2-  O450  1  0.41336884  0.57593264  0.17866893  1
  O2-  O451  1  0.39750312  0.55483973  0.52097178  1
  O2-  O452  1  0.41101559  0.58051032  0.85544096  1
  O2-  O453  1  0.41558365  0.82451609  0.16953870  1
  O2-  O454  1  0.44425145  0.84139101  0.54167870  1
  O2-  O455  1  0.41926032  0.83581685  0.85229977  1
  O2-  O456  1  0.65622408  0.07792252  0.17851464  1
  O2-  O457  1  0.67004258  0.07109656  0.48924557  1
  O2-  O458  1  0.66385369  0.09735489  0.84848525  1
  O2-  O459  1  0.66033818  0.33239957  0.18676577  1
  O2-  O460  1  0.65182559  0.33240426  0.53217768  1
  O2-  O461  1  0.67806474  0.34239618  0.83665529  1
  O2-  O462  1  0.66371809  0.59121444  0.18500551  1
  O2-  O463  1  0.59923733  0.57397052  0.52604081  1
  O2-  O464  1  0.67366461  0.58826703  0.84760479  1
  O2-  O465  1  0.66274605  0.83316693  0.17397304  1
  O2-  O466  1  0.67474866  0.80406120  0.50937111  1
  O2-  O467  1  0.67374248  0.85192087  0.85790546  1
  O2-  O468  1  0.90354330  0.07159260  0.23516556  1
  O2-  O469  1  0.91370221  0.09683581  0.52266818  1
  O2-  O470  1  0.91338018  0.09013990  0.87247262  1
  O2-  O471  1  0.91571575  0.33861159  0.18344959  1
  O2-  O472  1  0.90825524  0.33338746  0.51088380  1
  O2-  O473  1  0.91748767  0.34340130  0.85652794  1
  O2-  O474  1  0.90966973  0.58249129  0.17316103  1
  O2-  O475  1  0.89412586  0.57616269  0.50856138  1
  O2-  O476  1  0.92864410  0.59589488  0.85972479  1
  O2-  O477  1  0.91687799  0.82603062  0.18538661  1
  O2-  O478  1  0.89750386  0.81032829  0.52233512  1
  O2-  O479  1  0.90961658  0.83269430  0.85714309  1
  O2-  O480  1  0.17244413  0.10458874  0.28037217  1
  O2-  O481  1  0.15159781  0.10641844  0.65794700  1
  O2-  O482  1  0.15883542  0.07626310  0.99481212  1
  O2-  O483  1  0.16662104  0.34491733  0.31480535  1
  O2-  O484  1  0.12858824  0.31479982  0.59623899  1
  O2-  O485  1  0.19056366  0.35344196  0.98307634  1
  O2-  O486  1  0.16287134  0.57410856  0.30941981  1
  O2-  O487  1  0.18052242  0.55776994  0.64229508  1
  O2-  O488  1  0.15634206  0.57417196  0.98980279  1
  O2-  O489  1  0.19616599  0.83450890  0.30412726  1
  O2-  O490  1  0.19364538  0.81325918  0.64551411  1
  O2-  O491  1  0.15006869  0.79359493  0.98432915  1
  O2-  O492  1  0.42913188  0.10056061  0.31545341  1
  O2-  O493  1  0.35209455  0.05489201  0.64650929  1
  O2-  O494  1  0.41257020  0.07785459  0.97053914  1
  O2-  O495  1  0.41415816  0.33625429  0.31574193  1
  O2-  O496  1  0.40630456  0.32801714  0.65664038  1
  O2-  O497  1  0.41562649  0.32968021  0.98207964  1
  O2-  O498  1  0.43875278  0.58539519  0.31312156  1
  O2-  O499  1  0.40577491  0.57388430  0.64173603  1
  O2-  O500  1  0.43212270  0.59135609  1.04364849  1
  O2-  O501  1  0.41249782  0.81207889  0.28765148  1
  O2-  O502  1  0.43668381  0.83414855  0.66554635  1
  O2-  O503  1  0.40630107  0.82292080  0.97463092  1
  O2-  O504  1  0.58406201  0.04792939  0.29034495  1
  O2-  O505  1  0.74458552  0.07784687  0.67108312  1
  O2-  O506  1  0.65997182  0.08493783  0.97182458  1
  O2-  O507  1  0.66412534  0.34196539  0.31208562  1
  O2-  O508  1  0.61576185  0.29922105  0.65276935  1
  O2-  O509  1  0.68763439  0.30752789  0.96343981  1
  O2-  O510  1  0.66809256  0.58369729  0.30224237  1
  O2-  O511  1  0.66132479  0.57209545  0.64031777  1
  O2-  O512  1  0.68003486  0.59288611  0.97234858  1
  O2-  O513  1  0.67630729  0.83557014  0.32191013  1
  O2-  O514  1  0.68526353  0.79320847  0.63515951  1
  O2-  O515  1  0.66377010  0.84048255  0.97235039  1
  O2-  O516  1  0.92160868  0.07949558  0.30108334  1
  O2-  O517  1  0.89225271  0.07405164  0.64931624  1
  O2-  O518  1  0.91142486  0.08311229  0.99494190  1
  O2-  O519  1  0.92207154  0.34321385  0.30837881  1
  O2-  O520  1  0.95243415  0.30390717  0.62155681  1
  O2-  O521  1  0.91620000  0.33314786  0.98220225  1
  O2-  O522  1  0.92462579  0.59542172  0.29700731  1
  O2-  O523  1  0.92895848  0.62618907  0.62966470  1
  O2-  O524  1  0.92153077  0.58004873  0.98899919  1
  O2-  O525  1  0.90472544  0.83810712  0.30559770  1
  O2-  O526  1  0.90991804  0.83945865  0.63849679  1
  O2-  O527  1  0.91656360  0.83072300  0.98288706  1
  O2-  O528  1  0.05888741  0.11929564  0.06700285  1
  O2-  O529  1  0.07953157  0.18984013  0.36430207  1
  O2-  O530  1  0.05724106  0.18053542  0.69228897  1
  O2-  O531  1  0.08225077  0.41433839  0.02061673  1
  O2-  O532  1  0.08646582  0.42019748  0.36064803  1
  O2-  O533  1  0.08430627  0.40582942  0.69430130  1
  O2-  O534  1  0.07311581  0.64063836  0.03108869  1
  O2-  O535  1  0.08988236  0.66434514  0.34217002  1
  O2-  O536  1  0.09498337  0.64419223  0.60348745  1
  O2-  O537  1  0.08240655  0.89934314  0.01949406  1
  O2-  O538  1  0.05928650  0.94953395  0.33889689  1
  O2-  O539  1  0.07007317  0.94352470  0.68532199  1
  O2-  O540  1  0.33670344  0.16339951  0.01959186  1
  O2-  O541  1  0.32710299  0.16846954  0.35383368  1
  O2-  O542  1  0.30913901  0.16649878  0.69960221  1
  O2-  O543  1  0.34287943  0.42125956  0.03029869  1
  O2-  O544  1  0.33044489  0.41780497  0.35411846  1
  O2-  O545  1  0.32400200  0.40720559  0.69005543  1
  O2-  O546  1  0.32557044  0.65863794  0.01984064  1
  O2-  O547  1  0.32199575  0.65293123  0.30985280  1
  O2-  O548  1  0.33847707  0.66609981  0.69668054  1
  O2-  O549  1  0.31780712  0.90211297  0.00696157  1
  O2-  O550  1  0.36120114  0.92273609  0.33157419  1
  O2-  O551  1  0.34414855  0.91152987  0.69367966  1
  O2-  O552  1  0.57656344  0.16133282  0.01502087  1
  O2-  O553  1  0.58787837  0.19101251  0.36422178  1
  O2-  O554  1  0.55219499  0.20925801  0.66673851  1
  O2-  O555  1  0.59268715  0.41362538  -0.04070503  1
  O2-  O556  1  0.58010757  0.41754044  0.35584698  1
  O2-  O557  1  0.56842189  0.40864420  0.69352336  1
  O2-  O558  1  0.60207657  0.67861389  0.01613286  1
  O2-  O559  1  0.59626691  0.66561825  0.36163872  1
  O2-  O560  1  0.57017799  0.64750336  0.68016667  1
  O2-  O561  1  0.57429586  0.91714624  0.00918560  1
  O2-  O562  1  0.57374174  0.90859185  0.34639507  1
  O2-  O563  1  0.60624293  0.91000949  0.69222352  1
  O2-  O564  1  0.82077981  0.16744004  0.01806348  1
  O2-  O565  1  0.84353930  0.17293586  0.34872490  1
  O2-  O566  1  0.86718919  0.26907966  0.64958916  1
  O2-  O567  1  0.83786191  0.41929283  0.03105943  1
  O2-  O568  1  0.83678822  0.43458598  0.33915321  1
  O2-  O569  1  0.79199031  0.39970901  0.67128907  1
  O2-  O570  1  0.84006626  0.66471710  0.02384052  1
  O2-  O571  1  0.90324408  0.70985101  0.36881216  1
  O2-  O572  1  0.82704492  0.66873807  0.68748997  1
  O2-  O573  1  0.83004952  0.89814724  0.03711129  1
  O2-  O574  1  0.83533210  0.93089396  0.34889951  1
  O2-  O575  1  0.83375762  0.91674003  0.69204670  1
