# generated using pymatgen
data_H2O
_symmetry_space_group_name_H-M   'P 1'
_cell_length_a   17.97106793
_cell_length_b   17.97643348
_cell_length_c   21.98702030
_cell_angle_alpha   89.93628103
_cell_angle_beta   90.01037459
_cell_angle_gamma   120.01429587
_symmetry_Int_Tables_number   1
_chemical_formula_structural   H2O
_chemical_formula_sum   'H384 O192'
_cell_volume   6150.51578279
_cell_formula_units_Z   192
loop_
 _symmetry_equiv_pos_site_id
 _symmetry_equiv_pos_as_xyz
  1  'x, y, z'
loop_
 _atom_type_symbol
 _atom_type_oxidation_number
  H+  1.0
  O2-  -2.0
loop_
 _atom_site_type_symbol
 _atom_site_label
 _atom_site_symmetry_multiplicity
 _atom_site_fract_x
 _atom_site_fract_y
 _atom_site_fract_z
 _atom_site_occupancy
  H+  H0  1  0.13523308  0.86574317  0.17060990  1
  H+  H1  1  0.48157799  0.33777587  0.17847190  1
  H+  H2  1  0.34007750  0.93333889  0.76679087  1
  H+  H3  1  0.39336723  0.50352776  0.65851456  1
  H+  H4  1  0.07450608  0.16574400  0.73280806  1
  H+  H5  1  0.63164376  0.35399921  0.32825726  1
  H+  H6  1  -0.00882588  0.61938815  0.82766115  1
  H+  H7  1  0.39551862  0.27452743  0.34144707  1
  H+  H8  1  0.10352506  0.73222809  0.15640189  1
  H+  H9  1  0.52321897  0.13792377  0.49349014  1
  H+  H10  1  0.85779599  0.34574292  0.65821572  1
  H+  H11  1  0.98359286  0.86300422  0.83853601  1
  H+  H12  1  0.48714458  0.62720267  0.99711619  1
  H+  H13  1  0.15263679  0.82987726  0.71994585  1
  H+  H14  1  0.33914156  0.77607164  0.64229305  1
  H+  H15  1  0.10198877  0.13764125  0.67201670  1
  H+  H16  1  0.85297753  0.14021262  0.83728575  1
  H+  H17  1  0.12092708  0.40018672  0.99311943  1
  H+  H18  1  0.53428684  0.91672638  0.82468204  1
  H+  H19  1  0.22023753  0.86305287  0.52077179  1
  H+  H20  1  0.70414203  0.59855344  1.07203069  1
  H+  H21  1  0.85439166  0.12268962  0.66211889  1
  H+  H22  1  0.75143995  0.11616680  0.65848909  1
  H+  H23  1  0.34738899  0.12700939  0.67918063  1
  H+  H24  1  0.77380420  0.88234297  0.00930890  1
  H+  H25  1  0.24808306  0.47753786  0.14117791  1
  H+  H26  1  0.62022180  0.49256697  0.33472087  1
  H+  H27  1  0.72248982  0.85482375  0.66011304  1
  H+  H28  1  0.12884252  0.66886052  0.78343040  1
  H+  H29  1  0.87074704  0.48396877  0.00730711  1
  H+  H30  1  0.53024461  0.14513164  0.34218708  1
  H+  H31  1  0.76864307  0.38215453  0.32744336  1
  H+  H32  1  0.31763851  0.94762786  0.27669528  1
  H+  H33  1  0.52889344  0.13019899  1.00595606  1
  H+  H34  1  1.03079718  0.12780107  0.16751041  1
  H+  H35  1  0.64144746  0.03941088  0.82690901  1
  H+  H36  1  0.37123671  0.47953725  0.33242751  1
  H+  H37  1  0.64167293  0.77934815  0.50144891  1
  H+  H38  1  0.38977929  0.77298108  0.50546698  1
  H+  H39  1  0.22196441  0.61434832  0.50908232  1
  H+  H40  1  0.22485691  0.35942785  0.17749830  1
  H+  H41  1  0.59577533  0.16936803  0.39819448  1
  H+  H42  1  0.85605429  0.72241716  0.48831677  1
  H+  H43  1  0.40607093  0.76697376  0.71805166  1
  H+  H44  1  0.87724705  0.76550389  0.15617640  1
  H+  H45  1  0.86256105  0.23454256  0.83815446  1
  H+  H46  1  0.06250722  0.41255232  0.15520076  1
  H+  H47  1  -0.03584226  0.61695637  0.16754928  1
  H+  H48  1  0.97608535  0.86614149  0.50012493  1
  H+  H49  1  0.42876295  0.31725981  0.24072466  1
  H+  H50  1  0.35577518  0.72807943  0.15610996  1
  H+  H51  1  0.12541300  0.62208309  0.68612296  1
  H+  H52  1  0.98126421  0.10957731  0.32649343  1
  H+  H53  1  0.86950707  0.72703083  0.82842665  1
  H+  H54  1  0.84990766  0.38000291  0.48266098  1
  H+  H55  1  0.89103584  0.36526369  0.32388871  1
  H+  H56  1  0.13915218  0.09947082  0.18801098  1
  H+  H57  1  0.96765735  0.85890219  0.65863171  1
  H+  H58  1  0.34674551  0.31494826  0.54194276  1
  H+  H59  1  0.51838285  0.88176616  0.66695769  1
  H+  H60  1  0.77088784  0.76430086  0.27951740  1
  H+  H61  1  0.62006785  0.52023761  0.49770106  1
  H+  H62  1  0.88809736  0.11471460  0.00418725  1
  H+  H63  1  0.13776545  0.73587351  0.83737066  1
  H+  H64  1  0.48775416  0.35836529  0.34071779  1
  H+  H65  1  0.10819924  0.72743451  0.49161559  1
  H+  H66  1  0.16845653  0.31869768  0.26854238  1
  H+  H67  1  0.73255274  0.87641749  0.17106599  1
  H+  H68  1  0.86461495  0.96321277  0.82581975  1
  H+  H69  1  0.62267750  0.37471379  0.15874197  1
  H+  H70  1  0.10838547  0.88001893  1.00748078  1
  H+  H71  1  0.73116555  0.11581333  0.32174706  1
  H+  H72  1  0.40348237  1.03551004  0.30325209  1
  H+  H73  1  0.28511280  0.37445855  0.67166407  1
  H+  H74  1  0.11625821  0.38150648  0.33710244  1
  H+  H75  1  0.73308062  0.35761467  0.17243840  1
  H+  H76  1  0.23290369  0.87116330  0.84042797  1
  H+  H77  1  0.23048919  0.54355561  0.26745714  1
  H+  H78  1  0.64564234  0.61165945  0.83831905  1
  H+  H79  1  0.61903864  0.23953129  0.82934629  1
  H+  H80  1  0.72490344  0.88094722  0.32723589  1
  H+  H81  1  -0.03497391  0.61007725  0.32112045  1
  H+  H82  1  0.64264128  0.13386284  0.83274964  1
  H+  H83  1  0.34310577  0.70691801  0.00371712  1
  H+  H84  1  0.63553435  0.11126205  0.50375327  1
  H+  H85  1  0.89018742  0.36446802  0.84737799  1
  H+  H86  1  0.64111798  0.01938562  0.17112990  1
  H+  H87  1  0.35922468  0.22035624  0.67649120  1
  H+  H88  1  0.89070348  0.02224822  0.32678828  1
  H+  H89  1  0.35440870  0.86855552  0.99623900  1
  H+  H90  1  0.38184015  0.49751283  0.83929474  1
  H+  H91  1  0.12982494  0.63125136  0.16506809  1
  H+  H92  1  0.97694044  0.86392963  0.99296477  1
  H+  H93  1  0.58741338  0.16302803  0.06575338  1
  H+  H94  1  0.16838384  0.32935687  0.93570309  1
  H+  H95  1  0.86780105  0.12250900  0.16640834  1
  H+  H96  1  0.41147842  0.03381639  0.21522111  1
  H+  H97  1  0.60703643  0.72297947  0.02984388  1
  H+  H98  1  0.33456746  0.16458550  0.44597670  1
  H+  H99  1  0.11778652  0.89019179  0.82377423  1
  H+  H100  1  0.63684164  0.85795122  0.99663774  1
  H+  H101  1  0.13408477  0.34503837  0.17105719  1
  H+  H102  1  0.88412247  0.11655584  0.51010143  1
  H+  H103  1  0.61306916  0.37766371  0.68093681  1
  H+  H104  1  0.63627762  0.61062094  1.03480556  1
  H+  H105  1  0.86856336  0.47364270  0.82228289  1
  H+  H106  1  0.62901226  0.10146334  0.65597221  1
  H+  H107  1  0.23143160  0.60613033  0.86566160  1
  H+  H108  1  0.92219386  0.39801421  0.17372812  1
  H+  H109  1  0.83059046  0.74046743  0.31627364  1
  H+  H110  1  0.88511217  0.02304379  1.00067010  1
  H+  H111  1  0.64227920  0.11766673  0.32275239  1
  H+  H112  1  0.48045995  0.86319547  0.50551167  1
  H+  H113  1  0.27937394  0.61249325  0.65847031  1
  H+  H114  1  0.87871046  0.52173208  0.49494310  1
  H+  H115  1  0.62385714  0.24779232  0.66801350  1
  H+  H116  1  0.51688256  0.62111020  0.82397895  1
  H+  H117  1  0.03300739  0.40120435  0.00146459  1
  H+  H118  1  0.76283455  0.38370939  0.48426307  1
  H+  H119  1  0.89057958  0.77333037  0.98456900  1
  H+  H120  1  0.35562066  0.88265108  0.51962135  1
  H+  H121  1  0.16081474  0.36722065  0.65664155  1
  H+  H122  1  0.41239137  0.80739648  0.82185515  1
  H+  H123  1  0.61313970  0.64080943  0.48792930  1
  H+  H124  1  0.47115982  0.34726732  -0.00960354  1
  H+  H125  1  0.02959902  0.52160835  0.62213857  1
  H+  H126  1  0.01786459  0.87889792  0.16191433  1
  H+  H127  1  0.63973756  0.26843849  0.32347317  1
  H+  H128  1  0.13565290  0.13896347  0.49370358  1
  H+  H129  1  0.22639683  0.09629160  0.18659255  1
  H+  H130  1  0.61985123  0.88931525  0.15850908  1
  H+  H131  1  0.49946158  0.12297509  0.66315703  1
  H+  H132  1  0.22500485  0.10107210  -0.01099314  1
  H+  H133  1  0.96473208  0.11637967  0.66228288  1
  H+  H134  1  0.78692353  0.14796317  1.02004820  1
  H+  H135  1  0.84160769  0.87712735  0.33663784  1
  H+  H136  1  0.13335882  0.61535429  0.50322423  1
  H+  H137  1  0.10477026  0.38195548  0.50710690  1
  H+  H138  1  0.46099707  0.73970590  0.75770546  1
  H+  H139  1  0.15117450  0.50661224  0.31192842  1
  H+  H140  1  0.09854901  0.42320136  0.78112844  1
  H+  H141  1  0.36731582  -0.00331867  0.66590017  1
  H+  H142  1  0.13605721  0.26141049  0.84179530  1
  H+  H143  1  0.13246034  0.28118904  1.00011283  1
  H+  H144  1  0.78612656  0.63592685  -0.00557735  1
  H+  H145  1  0.37569630  0.39481116  0.48051265  1
  H+  H146  1  0.73672733  0.61185165  0.67466541  1
  H+  H147  1  0.39185126  0.55458660  0.16734576  1
  H+  H148  1  0.87790105  0.23759077  0.02197401  1
  H+  H149  1  0.21878979  0.10893117  0.83998306  1
  H+  H150  1  0.61232936  0.22641139  0.49567618  1
  H+  H151  1  0.11951234  0.50583493  -0.05346026  1
  H+  H152  1  0.38626157  0.11692441  0.84234319  1
  H+  H153  1  0.38308890  0.25842121  -0.00804702  1
  H+  H154  1  0.61510530  0.38552154  0.83376887  1
  H+  H155  1  0.61777860  0.37221345  0.51684233  1
  H+  H156  1  0.45399656  0.17515063  0.63441161  1
  H+  H157  1  0.36177475  0.12387214  0.01212992  1
  H+  H158  1  0.63920895  0.51153871  0.67335571  1
  H+  H159  1  0.61151942  0.89492217  0.33647877  1
  H+  H160  1  0.63177864  0.85099282  0.65928015  1
  H+  H161  1  0.35863998  0.46765264  0.01023435  1
  H+  H162  1  1.03301788  0.39133353  0.33437397  1
  H+  H163  1  0.39260508  0.62106715  0.32657230  1
  H+  H164  1  0.71241318  0.60528866  0.49553586  1
  H+  H165  1  0.27394042  0.36917412  0.82624551  1
  H+  H166  1  1.01762068  0.12660289  0.83037894  1
  H+  H167  1  0.70259813  0.58641443  0.32700219  1
  H+  H168  1  0.85004133  0.62850034  0.33553359  1
  H+  H169  1  0.63799170  0.35924969  0.99480155  1
  H+  H170  1  0.49568494  0.36762051  0.50044825  1
  H+  H171  1  0.47455019  0.35277772  0.84302537  1
  H+  H172  1  0.38802163  0.11238754  0.50736285  1
  H+  H173  1  0.05000992  0.36022954  0.69689460  1
  H+  H174  1  0.21661397  0.11630572  0.66118054  1
  H+  H175  1  0.13495541  1.01445233  -0.01031559  1
  H+  H176  1  0.46390418  0.83714254  0.98856494  1
  H+  H177  1  0.85614927  0.97228823  0.67165509  1
  H+  H178  1  0.11786128  0.12333164  0.34394808  1
  H+  H179  1  0.10453450  0.47029275  0.51087371  1
  H+  H180  1  0.11563351  0.89737844  0.48300411  1
  H+  H181  1  0.10383826  0.45694303  0.84994561  1
  H+  H182  1  0.77966196  0.63575947  0.82792673  1
  H+  H183  1  0.83655115  0.41830594  0.10134801  1
  H+  H184  1  0.73080811  0.36540308  0.84585642  1
  H+  H185  1  0.26984228  0.87653652  0.15106144  1
  H+  H186  1  0.86472967  0.88562868  0.00401786  1
  H+  H187  1  0.61516753  0.88902074  0.48942420  1
  H+  H188  1  0.35933613  0.22138576  0.83151418  1
  H+  H189  1  0.91779443  0.83323624  0.56033063  1
  H+  H190  1  0.61703090  0.22089800  0.16045378  1
  H+  H191  1  0.65433519  0.12014345  0.00178602  1
  H+  H192  1  0.24593455  0.64247833  0.15666738  1
  H+  H193  1  0.28140914  0.64249033  0.33349108  1
  H+  H194  1  0.83512220  0.16529212  0.39239914  1
  H+  H195  1  0.38651054  0.58757033  0.65725697  1
  H+  H196  1  0.85843328  0.47878814  0.15913350  1
  H+  H197  1  0.37755487  0.14388805  0.35346157  1
  H+  H198  1  0.53072404  0.48164278  0.21310860  1
  H+  H199  1  0.14024208  0.35216048  0.84269292  1
  H+  H200  1  0.39381476  0.88226638  0.83886093  1
  H+  H201  1  0.34865265  0.62349118  0.01193888  1
  H+  H202  1  0.60809328  0.96824771  0.66302405  1
  H+  H203  1  0.39752418  0.34994049  0.66471387  1
  H+  H204  1  0.61365669  0.54655081  0.24975069  1
  H+  H205  1  0.81065487  0.01839894  0.87326183  1
  H+  H206  1  0.34033514  0.40318464  0.73360297  1
  H+  H207  1  0.54207785  0.59352432  0.18344831  1
  H+  H208  1  0.38863364  0.52609848  0.49575991  1
  H+  H209  1  0.12164336  0.21368932  0.16829666  1
  H+  H210  1  0.36167819  0.96165912  0.14370962  1
  H+  H211  1  0.52596589  0.88344520  0.15876876  1
  H+  H212  1  0.26170941  0.39210814  0.01269143  1
  H+  H213  1  0.85689192  0.22455013  0.48422163  1
  H+  H214  1  0.12671416  1.02872889  0.65849263  1
  H+  H215  1  0.35676248  0.97201770  0.51964537  1
  H+  H216  1  0.89214284  0.36909220  1.00319651  1
  H+  H217  1  0.85584937  0.63303650  0.48908202  1
  H+  H218  1  0.15333072  0.64273573  0.86302826  1
  H+  H219  1  0.21920949  0.85321366  0.98899015  1
  H+  H220  1  0.36284138  0.73770441  0.33653653  1
  H+  H221  1  0.77898833  0.89464862  0.49240608  1
  H+  H222  1  0.77072007  0.13355642  0.48654253  1
  H+  H223  1  0.90796056  0.08489581  0.59925442  1
  H+  H224  1  0.36816661  0.98967210  0.82785581  1
  H+  H225  1  0.12549842  0.21759216  0.33881039  1
  H+  H226  1  0.63426938  0.02075828  0.50133557  1
  H+  H227  1  0.12558201  0.76732156  0.98949837  1
  H+  H228  1  0.10798367  0.96832110  0.16744838  1
  H+  H229  1  0.94413734  0.34544633  0.64188832  1
  H+  H230  1  0.84901195  0.63421673  0.14241165  1
  H+  H231  1  0.10618937  0.89546342  0.67153462  1
  H+  H232  1  0.53949228  0.95387808  0.02221115  1
  H+  H233  1  0.09846506  0.63767816  0.01052484  1
  H+  H234  1  0.18071188  0.32957156  0.56048253  1
  H+  H235  1  0.85554047  0.72156449  0.67274393  1
  H+  H236  1  0.23018087  0.87466432  0.67525297  1
  H+  H237  1  0.10291046  0.73458105  0.33509282  1
  H+  H238  1  0.62029793  0.13357325  0.15880142  1
  H+  H239  1  0.38556223  0.85515210  0.16468721  1
  H+  H240  1  0.84261563  0.21229779  0.66097555  1
  H+  H241  1  0.13472087  0.23539847  0.48933452  1
  H+  H242  1  0.89008257  0.02028390  0.17251653  1
  H+  H243  1  0.63712941  0.60563302  0.66887921  1
  H+  H244  1  0.61604681  0.71630305  0.66806650  1
  H+  H245  1  0.10508407  0.12368164  0.82961101  1
  H+  H246  1  0.97633218  0.35766304  0.84724434  1
  H+  H247  1  0.47868990  0.12225712  0.84124573  1
  H+  H248  1  0.52582816  0.37948850  0.67546555  1
  H+  H249  1  0.58664685  0.93493750  0.76238267  1
  H+  H250  1  1.02387627  0.14661962  1.01505893  1
  H+  H251  1  0.64037373  0.75841469  0.84995669  1
  H+  H252  1  0.89406068  0.27784943  0.32313914  1
  H+  H253  1  0.40284065  0.89035631  0.30095969  1
  H+  H254  1  0.15195248  0.72034439  0.69097337  1
  H+  H255  1  0.41936022  0.08011685  0.93653495  1
  H+  H256  1  0.11506370  0.97862792  0.82598377  1
  H+  H257  1  0.36673122  0.90787759  0.66413866  1
  H+  H258  1  1.00176425  0.62864716  1.00240988  1
  H+  H259  1  0.36161603  0.22268321  0.50954257  1
  H+  H260  1  0.67252837  0.08123531  0.23081500  1
  H+  H261  1  0.55920634  0.39203826  0.43984123  1
  H+  H262  1  0.11726055  0.98634656  0.48916109  1
  H+  H263  1  0.92406579  0.57339107  0.73394219  1
  H+  H264  1  0.53320687  0.65812888  0.33782762  1
  H+  H265  1  0.75737458  0.36667502  0.68003718  1
  H+  H266  1  0.35884051  0.11730982  0.16283010  1
  H+  H267  1  0.87617132  0.63211508  -0.00982753  1
  H+  H268  1  0.82802384  0.39990476  0.77274290  1
  H+  H269  1  0.27945634  0.59228306  0.68849267  1
  H+  H270  1  0.86669225  0.88627203  0.15663630  1
  H+  H271  1  0.23575600  0.36488953  0.49853363  1
  H+  H272  1  0.87840278  0.85650515  0.65593508  1
  H+  H273  1  0.30634370  0.45323620  0.10074491  1
  H+  H274  1  0.11053318  0.65072336  0.33170434  1
  H+  H275  1  0.61097418  0.46778929  0.01643821  1
  H+  H276  1  0.21043582  0.86638994  0.33826563  1
  H+  H277  1  0.86771310  0.13729187  0.33394955  1
  H+  H278  1  0.23279012  0.35396300  0.32519458  1
  H+  H279  1  0.34143946  0.42064306  0.42154511  1
  H+  H280  1  0.61190855  0.98350359  0.33793072  1
  H+  H281  1  0.23519621  0.11749493  0.50966915  1
  H+  H282  1  0.64628818  0.52433806  0.84088603  1
  H+  H283  1  0.78139684  0.39247360  1.00727323  1
  H+  H284  1  0.52829140  0.62421025  0.66707528  1
  H+  H285  1  0.87808924  0.51882377  0.31923481  1
  H+  H286  1  0.52713781  0.64673171  0.48892974  1
  H+  H287  1  0.09620268  0.45643459  0.67147064  1
  H+  H288  1  0.28649997  0.96038581  0.40031877  1
  H+  H289  1  0.13767387  0.82621704  0.56258436  1
  H+  H290  1  0.41293439  0.31842240  0.90280371  1
  H+  H291  1  0.16591500  0.08930497  0.56594471  1
  H+  H292  1  0.83577002  0.92118278  0.39970339  1
  H+  H293  1  0.07774510  0.92302227  0.73132560  1
  H+  H294  1  0.55289635  0.65685041  0.08454949  1
  H+  H295  1  0.41612869  0.57636735  0.55830757  1
  H+  H296  1  0.13731975  0.88615877  0.32270285  1
  H+  H297  1  0.41916901  0.31526466  0.60254132  1
  H+  H298  1  0.54681677  0.08242904  0.71847263  1
  H+  H299  1  0.58344204  0.41203159  0.77399244  1
  H+  H300  1  0.31952706  0.64924470  0.79845330  1
  H+  H301  1  0.88055765  0.59512778  0.68120807  1
  H+  H302  1  0.66613089  0.81709769  0.94408628  1
  H+  H303  1  0.84417578  0.67293321  0.07830979  1
  H+  H304  1  0.41755497  0.82948457  0.22563737  1
  H+  H305  1  0.10744626  0.96132993  0.38923706  1
  H+  H306  1  0.41322468  0.82196791  0.92611982  1
  H+  H307  1  0.89311189  0.07176118  0.91278261  1
  H+  H308  1  0.08034817  0.91118566  0.06756927  1
  H+  H309  1  0.88689306  0.32118654  0.55427209  1
  H+  H310  1  0.66926602  0.33291161  0.90490054  1
  H+  H311  1  0.10744939  0.42317634  0.09119644  1
  H+  H312  1  0.96426512  0.35928568  0.50741853  1
  H+  H313  1  0.60826506  0.45666034  0.16045321  1
  H+  H314  1  0.82544791  0.41343846  0.38763448  1
  H+  H315  1  0.12081399  0.55557340  0.59267596  1
  H+  H316  1  0.83152065  0.66927376  0.73735522  1
  H+  H317  1  0.16368047  0.05347089  0.28082974  1
  H+  H318  1  0.91842572  0.07963838  0.23357452  1
  H+  H319  1  -0.11145025  0.03053259  0.51132863  1
  H+  H320  1  0.74262735  0.13593760  0.83353046  1
  H+  H321  1  0.42934087  0.09186625  0.56434189  1
  H+  H322  1  0.87147513  0.87820899  0.82386648  1
  H+  H323  1  0.86744700  0.89357839  0.49243169  1
  H+  H324  1  0.42807746  0.59680634  0.26741864  1
  H+  H325  1  0.66887106  0.83526265  0.56188751  1
  H+  H326  1  0.64140796  0.27162779  0.99493262  1
  H+  H327  1  0.96674446  0.60960532  0.49985050  1
  H+  H328  1  0.16790431  0.83564338  0.89836210  1
  H+  H329  1  0.16319176  0.59039541  0.21972226  1
  H+  H330  1  0.10216643  0.16818461  0.42729966  1
  H+  H331  1  0.84009073  0.92129139  0.09864261  1
  H+  H332  1  0.66357498  0.03641398  1.00204364  1
  H+  H333  1  0.29370543  0.92244382  0.40050276  1
  H+  H334  1  0.70571446  0.42123432  0.55135617  1
  H+  H335  1  0.90077257  0.61989342  0.82132648  1
  H+  H336  1  0.16727693  0.83729003  0.22913521  1
  H+  H337  1  0.44950860  0.15170824  0.28482950  1
  H+  H338  1  0.73114473  0.84328335  0.85011546  1
  H+  H339  1  0.58000954  0.65722954  0.76665178  1
  H+  H340  1  0.28024675  0.12755109  0.35398226  1
  H+  H341  1  0.84892863  0.45795703  0.68621657  1
  H+  H342  1  0.41607560  0.56452565  0.89643912  1
  H+  H343  1  0.82123335  0.65845019  0.39617006  1
  H+  H344  1  0.63586003  0.79093830  0.32578737  1
  H+  H345  1  0.36187154  0.20732957  0.16975489  1
  H+  H346  1  0.47950710  0.09670783  0.16452147  1
  H+  H347  1  0.65392701  0.43252186  0.38984971  1
  H+  H348  1  0.32979121  0.58207720  0.83939858  1
  H+  H349  1  0.58170563  0.91841567  0.43070570  1
  H+  H350  1  0.37750621  0.39241440  0.33613206  1
  H+  H351  1  0.91784522  0.33331230  0.94524750  1
  H+  H352  1  0.58794267  0.17848871  0.76846038  1
  H+  H353  1  0.92383726  0.83578363  0.89890713  1
  H+  H354  1  0.64900069  0.31345042  0.61114204  1
  H+  H355  1  0.33033914  0.67138427  0.43404230  1
  H+  H356  1  0.84134620  0.16521368  0.10444625  1
  H+  H357  1  0.67229466  0.85093739  0.23007115  1
  H+  H358  1  0.35904272  0.63718806  0.49155814  1
  H+  H359  1  0.57607194  0.91701754  0.07171827  1
  H+  H360  1  0.59127558  0.69074404  0.39688844  1
  H+  H361  1  0.08074805  0.66976732  0.43186056  1
  H+  H362  1  0.47896032  0.87373377  0.31986107  1
  H+  H363  1  0.88865147  0.81035495  0.22096652  1
  H+  H364  1  0.83217720  0.91077216  0.73002603  1
  H+  H365  1  0.32652309  0.89887913  0.05605108  1
  H+  H366  1  0.38862760  1.01297143  -0.00867174  1
  H+  H367  1  0.16052368  0.07419609  0.90033756  1
  H+  H368  1  0.92274193  0.57392429  0.93770921  1
  H+  H369  1  0.66895013  0.32707757  0.23087073  1
  H+  H370  1  0.32755746  0.15193924  0.06980130  1
  H+  H371  1  0.06934607  0.67184643  0.09662614  1
  H+  H372  1  0.95370491  0.36951168  0.23190104  1
  H+  H373  1  0.32506583  0.16111629  0.77229980  1
  H+  H374  1  0.90289845  0.58590879  0.22570550  1
  H+  H375  1  0.41108145  0.83066664  0.59494735  1
  H+  H376  1  0.45931360  0.67374445  0.95027203  1
  H+  H377  1  0.77102732  0.12250182  0.16482460  1
  H+  H378  1  0.14203800  0.27113539  0.65825165  1
  H+  H379  1  0.31791706  0.66330588  0.09438455  1
  H+  H380  1  0.57810464  0.39642495  0.06543901  1
  H+  H381  1  0.36371676  0.36885643  0.82861368  1
  H+  H382  1  0.66114991  0.07613353  0.59223220  1
  H+  H383  1  0.08523046  0.17202839  0.07303964  1
  O2-  O384  1  0.09175614  0.15207249  0.15515341  1
  O2-  O385  1  0.10698518  0.17294564  0.47420339  1
  O2-  O386  1  0.07551009  0.15543308  0.81325571  1
  O2-  O387  1  0.11491048  0.41745586  0.13500667  1
  O2-  O388  1  0.06844309  0.40724672  0.51592525  1
  O2-  O389  1  0.08461688  0.40476109  0.82391357  1
  O2-  O390  1  0.07107340  0.67121327  0.14258229  1
  O2-  O391  1  0.08104570  0.66687123  0.47689198  1
  O2-  O392  1  0.11593462  0.67248730  0.82825069  1
  O2-  O393  1  0.07921984  0.91001107  0.14813550  1
  O2-  O394  1  0.08868447  0.93035830  0.46716820  1
  O2-  O395  1  0.08654550  0.91874651  0.80765353  1
  O2-  O396  1  0.32635458  0.14721847  0.15320510  1
  O2-  O397  1  0.33119270  0.15971749  0.49167207  1
  O2-  O398  1  0.32673826  0.15933678  0.81750187  1
  O2-  O399  1  0.29883279  0.47048676  0.14368366  1
  O2-  O400  1  0.34102428  0.42061820  0.46793901  1
  O2-  O401  1  0.33454255  0.39977840  0.81061331  1
  O2-  O402  1  0.31439145  0.66759025  0.14109070  1
  O2-  O403  1  0.32890749  0.66901450  0.47951011  1
  O2-  O404  1  0.28690008  0.59967995  0.82564676  1
  O2-  O405  1  0.32807847  0.89900970  0.13266072  1
  O2-  O406  1  0.32058436  0.90962609  0.52872085  1
  O2-  O407  1  0.33760118  0.92868290  0.81179591  1
  O2-  O408  1  0.58672031  0.16043906  0.14419181  1
  O2-  O409  1  0.58579133  0.16755446  0.48066422  1
  O2-  O410  1  0.58791042  0.17793815  0.81380779  1
  O2-  O411  1  0.58682115  0.39917885  0.14244018  1
  O2-  O412  1  0.55653816  0.39878472  0.48580709  1
  O2-  O413  1  0.58229209  0.41355337  0.81910310  1
  O2-  O414  1  0.51971173  0.62740632  0.16071033  1
  O2-  O415  1  0.58811422  0.67847987  0.47592983  1
  O2-  O416  1  0.57815286  0.65664964  0.81171969  1
  O2-  O417  1  0.58582717  0.91805969  0.14285652  1
  O2-  O418  1  0.58220267  0.91784155  0.47653879  1
  O2-  O419  1  0.59275647  0.94806233  0.80649206  1
  O2-  O420  1  0.83489575  0.15362506  0.15145378  1
  O2-  O421  1  0.83096736  0.16326408  0.47107612  1
  O2-  O422  1  0.82848354  0.17467754  0.82054178  1
  O2-  O423  1  0.83520016  0.41744195  0.14696418  1
  O2-  O424  1  0.82106826  0.41168640  0.46676520  1
  O2-  O425  1  0.83471957  0.40987785  0.81755112  1
  O2-  O426  1  0.82603944  0.66800099  0.12191363  1
  O2-  O427  1  0.82438133  0.66242532  0.47324988  1
  O2-  O428  1  0.84058590  0.66776078  0.81070042  1
  O2-  O429  1  0.84133127  0.92270771  0.14422967  1
  O2-  O430  1  0.83973738  0.92653295  0.47758118  1
  O2-  O431  1  0.83773385  0.90529160  0.80784268  1
  O2-  O432  1  0.16659614  0.06654290  0.20416665  1
  O2-  O433  1  0.17066704  0.09044580  0.52034608  1
  O2-  O434  1  0.15742964  0.07657926  0.85335872  1
  O2-  O435  1  0.16545490  0.31791169  0.19074727  1
  O2-  O436  1  0.17635994  0.32873111  0.51510475  1
  O2-  O437  1  0.17168745  0.32206534  0.85553850  1
  O2-  O438  1  0.16737578  0.60604121  0.17604569  1
  O2-  O439  1  0.16067031  0.58432547  0.52246727  1
  O2-  O440  1  0.18450666  0.61407420  0.89382650  1
  O2-  O441  1  0.16778946  0.83603493  0.18423992  1
  O2-  O442  1  0.15439116  0.83313151  0.51981936  1
  O2-  O443  1  0.17104792  0.83530961  0.85221057  1
  O2-  O444  1  0.41686725  0.06039253  0.17414013  1
  O2-  O445  1  0.42312289  0.08480799  0.51927195  1
  O2-  O446  1  0.41865893  0.08763962  0.85642465  1
  O2-  O447  1  0.42291766  0.30929250  0.19606850  1
  O2-  O448  1  0.39794942  0.31012073  0.53653059  1
  O2-  O449  1  0.41301420  0.32047091  0.85577732  1
  O2-  O450  1  0.43810822  0.60681163  0.18947746  1
  O2-  O451  1  0.41477779  0.58475509  0.51389808  1
  O2-  O452  1  0.40717315  0.55983967  0.85171565  1
  O2-  O453  1  0.41634293  0.82513716  0.17984493  1
  O2-  O454  1  0.42127252  0.83192510  0.52385056  1
  O2-  O455  1  0.42729991  0.85383739  0.85171372  1
  O2-  O456  1  0.67614947  0.08094220  0.18481907  1
  O2-  O457  1  0.66600402  0.08085247  0.51831105  1
  O2-  O458  1  0.67394527  0.10163817  0.84431298  1
  O2-  O459  1  0.67084899  0.32435715  0.18512048  1
  O2-  O460  1  0.66489851  0.36335686  0.53722542  1
  O2-  O461  1  0.66924761  0.33478096  0.85878211  1
  O2-  O462  1  0.58539555  0.53441474  0.20672099  1
  O2-  O463  1  0.65227110  0.58125346  0.50980436  1
  O2-  O464  1  0.68104034  0.58638303  0.85094031  1
  O2-  O465  1  0.67196700  0.85023411  0.18468705  1
  O2-  O466  1  0.67144864  0.84046238  0.51683370  1
  O2-  O467  1  0.67463386  0.81457456  0.87056282  1
  O2-  O468  1  0.91796840  0.08164861  0.18775324  1
  O2-  O469  1  0.91217010  0.08783084  0.53102792  1
  O2-  O470  1  0.87199568  0.05919013  0.86861913  1
  O2-  O471  1  0.96950510  0.39040409  0.18963053  1
  O2-  O472  1  0.89927317  0.32812944  0.51011745  1
  O2-  O473  1  0.91721736  0.33177956  0.86439237  1
  O2-  O474  1  0.90259349  0.58542057  0.18033408  1
  O2-  O475  1  0.90560646  0.58030869  0.51229592  1
  O2-  O476  1  0.92942435  0.58417013  0.81843397  1
  O2-  O477  1  0.90816548  0.82271294  0.17793262  1
  O2-  O478  1  0.91595548  0.83485500  0.51507590  1
  O2-  O479  1  0.92273057  0.83175415  0.85300364  1
  O2-  O480  1  0.16489724  0.05426341  0.32723014  1
  O2-  O481  1  0.15748503  0.08940448  0.64334681  1
  O2-  O482  1  0.16720598  0.07163954  0.96993268  1
  O2-  O483  1  0.17089353  0.31772088  0.31414736  1
  O2-  O484  1  0.18175735  0.32946431  0.64053618  1
  O2-  O485  1  0.16512752  0.33973761  0.97979771  1
  O2-  O486  1  0.19469071  0.56203337  0.28854808  1
  O2-  O487  1  0.08790149  0.53514493  0.63238316  1
  O2-  O488  1  0.11124678  0.52714280  0.90455953  1
  O2-  O489  1  0.15808807  0.84462769  0.31386113  1
  O2-  O490  1  0.16649636  0.83396295  0.67665708  1
  O2-  O491  1  0.15913080  0.82804435  0.97335732  1
  O2-  O492  1  0.43809802  0.11892594  0.32246089  1
  O2-  O493  1  0.44037583  0.11593053  0.64138788  1
  O2-  O494  1  0.42123604  0.07560118  0.98165037  1
  O2-  O495  1  0.42900611  0.33351684  0.32382665  1
  O2-  O496  1  0.42628902  0.31777101  0.65063316  1
  O2-  O497  1  0.41263857  0.31625571  0.97276557  1
  O2-  O498  1  0.42024057  0.58822407  0.31239364  1
  O2-  O499  1  0.42172839  0.56434764  0.64182823  1
  O2-  O500  1  0.43853295  0.61719700  0.96847756  1
  O2-  O501  1  0.41959638  0.84502801  0.30177615  1
  O2-  O502  1  0.39666835  0.82664110  0.64085687  1
  O2-  O503  1  0.40550942  0.81005998  0.97093198  1
  O2-  O504  1  0.67060325  0.08560114  0.30615833  1
  O2-  O505  1  0.66179165  0.07289520  0.63835661  1
  O2-  O506  1  0.69413969  0.09793923  0.99214835  1
  O2-  O507  1  0.66451968  0.32803388  0.30655042  1
  O2-  O508  1  0.65174896  0.30909674  0.65620689  1
  O2-  O509  1  0.67142054  0.33187264  0.97938085  1
  O2-  O510  1  0.64156066  0.55093032  0.31536526  1
  O2-  O511  1  0.67118917  0.57488967  0.66008089  1
  O2-  O512  1  0.67170533  0.58235414  1.03369101  1
  O2-  O513  1  0.66636210  0.85247258  0.30904611  1
  O2-  O514  1  0.66211841  0.82107674  0.64441729  1
  O2-  O515  1  0.66370736  0.82282126  0.99002378  1
  O2-  O516  1  0.92213850  0.08249052  0.30987834  1
  O2-  O517  1  0.90427253  0.08411202  0.64682554  1
  O2-  O518  1  0.91396459  0.08309846  0.98403258  1
  O2-  O519  1  0.92683706  0.33969149  0.31160088  1
  O2-  O520  1  0.88214162  0.31174768  0.63634172  1
  O2-  O521  1  0.92216757  0.33673153  0.99043411  1
  O2-  O522  1  0.90545191  0.58047376  0.30555092  1
  O2-  O523  1  0.90929227  0.56175686  0.69019306  1
  O2-  O524  1  0.91952236  0.58052483  0.98141961  1
  O2-  O525  1  0.83063259  0.78910817  0.29246874  1
  O2-  O526  1  0.90806743  0.82480998  0.64230754  1
  O2-  O527  1  0.91799888  0.83649974  0.97443395  1
  O2-  O528  1  0.08120705  0.18834739  0.03078122  1
  O2-  O529  1  0.09223331  0.15817751  0.35777018  1
  O2-  O530  1  0.07332332  0.16954652  0.68749975  1
  O2-  O531  1  0.09695917  0.43878925  0.00351916  1
  O2-  O532  1  0.09520883  0.42174119  0.34582143  1
  O2-  O533  1  0.10439730  0.41427663  0.69650761  1
  O2-  O534  1  0.06849731  0.66868420  0.02053320  1
  O2-  O535  1  0.07657738  0.67390611  0.34941142  1
  O2-  O536  1  0.15380023  0.67342589  0.71278920  1
  O2-  O537  1  0.07792922  0.91015694  0.02223905  1
  O2-  O538  1  0.11055316  0.96245075  0.34332389  1
  O2-  O539  1  0.07424118  0.92378985  0.68552798  1
  O2-  O540  1  0.32928661  0.15276480  0.02453899  1
  O2-  O541  1  0.33814288  0.16633896  0.37019281  1
  O2-  O542  1  0.31945265  0.15968233  0.69200182  1
  O2-  O543  1  0.31665011  0.42273885  0.03651344  1
  O2-  O544  1  0.34198149  0.41897210  0.34786853  1
  O2-  O545  1  0.34509838  0.40540173  0.68787123  1
  O2-  O546  1  0.31572966  0.65089585  0.02542677  1
  O2-  O547  1  0.33760553  0.67883429  0.35402404  1
  O2-  O548  1  0.40766967  0.74169003  0.75743254  1
  O2-  O549  1  0.32746478  0.90219728  0.01039867  1
  O2-  O550  1  0.37944968  0.97241705  0.28091895  1
  O2-  O551  1  0.33957854  0.93839732  0.68336443  1
  O2-  O552  1  0.58987097  0.16287541  0.02022418  1
  O2-  O553  1  0.59403319  0.16761922  0.35319737  1
  O2-  O554  1  0.57212949  0.13275452  0.69183088  1
  O2-  O555  1  0.58054446  0.40416537  0.02017132  1
  O2-  O556  1  0.59757403  0.40206517  0.37042773  1
  O2-  O557  1  0.58662608  0.41301151  0.69204916  1
  O2-  O558  1  0.57084084  0.66118631  0.04127909  1
  O2-  O559  1  0.59210656  0.69822732  0.35201345  1
  O2-  O560  1  0.58799246  0.65549794  0.68378311  1
  O2-  O561  1  0.56863266  0.92054459  0.02558258  1
  O2-  O562  1  0.57898258  0.92300925  0.35326612  1
  O2-  O563  1  0.57764112  0.90956624  0.68213893  1
  O2-  O564  1  0.84801142  0.17634134  0.03719883  1
  O2-  O565  1  0.83660550  0.16756667  0.34686332  1
  O2-  O566  1  0.81545966  0.15028996  0.67426137  1
  O2-  O567  1  0.84105146  0.42194205  0.02335850  1
  O2-  O568  1  0.82992086  0.41487985  0.34243025  1
  O2-  O569  1  0.81876461  0.39326825  0.69297509  1
  O2-  O570  1  0.84872186  0.67047212  0.00000976  1
  O2-  O571  1  0.81601475  0.65475091  0.35063545  1
  O2-  O572  1  0.82486297  0.66250909  0.69131710  1
  O2-  O573  1  0.83571594  0.91658867  0.02093620  1
  O2-  O574  1  0.83196736  0.92267657  0.35418252  1
  O2-  O575  1  0.82801851  0.91106469  0.68448440  1
