# generated using pymatgen
data_H2O
_symmetry_space_group_name_H-M   'P 1'
_cell_length_a   17.99268042
_cell_length_b   17.98677855
_cell_length_c   21.99915933
_cell_angle_alpha   90.01944299
_cell_angle_beta   89.96847639
_cell_angle_gamma   120.01449248
_symmetry_Int_Tables_number   1
_chemical_formula_structural   H2O
_chemical_formula_sum   'H384 O192'
_cell_volume   6164.84927349
_cell_formula_units_Z   192
loop_
 _symmetry_equiv_pos_site_id
 _symmetry_equiv_pos_as_xyz
  1  'x, y, z'
loop_
 _atom_type_symbol
 _atom_type_oxidation_number
  H+  1.0
  O2-  -2.0
loop_
 _atom_site_type_symbol
 _atom_site_label
 _atom_site_symmetry_multiplicity
 _atom_site_fract_x
 _atom_site_fract_y
 _atom_site_fract_z
 _atom_site_occupancy
  H+  H0  1  0.89100668  0.86846440  0.17037707  1
  H+  H1  1  0.37044840  0.46521040  0.78322953  1
  H+  H2  1  0.16817742  0.08513939  0.26433928  1
  H+  H3  1  0.87789701  0.27691801  0.49263322  1
  H+  H4  1  0.71818674  0.60083080  0.32159420  1
  H+  H5  1  0.63362849  1.03337755  0.50135575  1
  H+  H6  1  0.46635754  0.63479800  0.64992197  1
  H+  H7  1  0.86713915  0.48561385  0.32981145  1
  H+  H8  1  0.36068520  0.38956261  0.16532439  1
  H+  H9  1  0.47824112  0.86086328  0.17625409  1
  H+  H10  1  0.76756532  0.14183009  0.48775031  1
  H+  H11  1  0.67280280  0.58582273  0.90305154  1
  H+  H12  1  0.13891531  0.86636647  0.83896319  1
  H+  H13  1  0.36220266  0.72947174  0.82181620  1
  H+  H14  1  0.26726926  0.38693899  0.33305680  1
  H+  H15  1  0.40300135  0.59095556  0.56060171  1
  H+  H16  1  0.89868426  0.36773903  0.32244277  1
  H+  H17  1  0.14169299  0.52261942  0.16666742  1
  H+  H18  1  0.20740391  0.87353897  0.65573600  1
  H+  H19  1  0.82201583  0.14993506  0.77208521  1
  H+  H20  1  0.14115036  0.53065199  0.85464113  1
  H+  H21  1  0.46840905  0.58323099  0.83813216  1
  H+  H22  1  0.47096597  0.11895030  0.82518461  1
  H+  H23  1  0.88803212  0.11146084  0.32693527  1
  H+  H24  1  1.03404171  0.38626264  0.83729506  1
  H+  H25  1  0.76606731  0.39589349  0.84127503  1
  H+  H26  1  0.38350590  0.40921568  0.68628154  1
  H+  H27  1  0.48821151  0.36433154  0.67123480  1
  H+  H28  1  0.27193963  0.64282995  0.47416834  1
  H+  H29  1  0.15472822  0.12648493  0.56430199  1
  H+  H30  1  0.87014236  0.41305588  0.00086714  1
  H+  H31  1  0.61284232  -0.03529700  0.16867022  1
  H+  H32  1  0.09507628  0.92546134  0.39546094  1
  H+  H33  1  0.63589151  0.53107403  0.50820408  1
  H+  H34  1  0.36091449  0.47924279  0.16231574  1
  H+  H35  1  0.38707810  0.03274673  0.99647213  1
  H+  H36  1  0.36488662  0.11797504  0.81474520  1
  H+  H37  1  0.97583778  0.10683695  0.16871948  1
  H+  H38  1  0.91157979  0.24063316  -0.02182938  1
  H+  H39  1  0.61908070  0.22765029  0.67228779  1
  H+  H40  1  0.60706253  0.14297071  0.14144083  1
  H+  H41  1  0.78116724  0.04213929  0.71131339  1
  H+  H42  1  -0.02841728  0.86097313  -0.00953788  1
  H+  H43  1  0.72695798  0.87086126  0.99440942  1
  H+  H44  1  1.02766726  0.89106170  0.15627656  1
  H+  H45  1  0.85679861  0.14021481  0.48917308  1
  H+  H46  1  0.86500407  0.86626649  0.68145986  1
  H+  H47  1  0.09906328  -0.03781816  0.99638028  1
  H+  H48  1  0.89102183  0.62544500  0.84263808  1
  H+  H49  1  0.62845351  0.27339605  0.84439137  1
  H+  H50  1  0.59674588  0.97126013  0.00522390  1
  H+  H51  1  0.06911025  0.86021012  0.66521683  1
  H+  H52  1  0.99145242  0.47438707  0.94628674  1
  H+  H53  1  0.89586055  0.78850964  0.51875039  1
  H+  H54  1  0.63601088  0.86845212  0.99601125  1
  H+  H55  1  -0.01038974  0.88290517  0.82828136  1
  H+  H56  1  0.73360960  0.61693700  0.66326048  1
  H+  H57  1  0.62625905  0.27326423  0.50717112  1
  H+  H58  1  0.37014877  0.49061721  0.67752985  1
  H+  H59  1  0.40522774  0.28746357  -0.00340236  1
  H+  H60  1  0.62469199  0.47967729  0.67741657  1
  H+  H61  1  0.12738095  0.38572465  0.70299990  1
  H+  H62  1  -0.03319177  0.61811358  0.33557761  1
  H+  H63  1  0.13317144  0.77975004  0.50916804  1
  H+  H64  1  0.29986361  0.16403579  0.02231224  1
  H+  H65  1  0.12276797  0.72824335  0.16140659  1
  H+  H66  1  0.63530295  0.77104274  0.15837600  1
  H+  H67  1  0.15379138  0.26810781  0.67138514  1
  H+  H68  1  0.35828308  0.13636440  0.34301224  1
  H+  H69  1  0.38257035  0.02455127  0.82516918  1
  H+  H70  1  0.57582522  0.62645470  0.39919573  1
  H+  H71  1  0.63376592  0.86554253  0.16192453  1
  H+  H72  1  0.23249291  0.86752150  0.16627357  1
  H+  H73  1  0.98652880  0.87648033  0.51582721  1
  H+  H74  1  0.23271144  0.87184374  -0.01196823  1
  H+  H75  1  0.13864632  0.86117999  -0.01087034  1
  H+  H76  1  0.60986642  0.61562849  0.33484683  1
  H+  H77  1  0.62112900  0.48889146  0.01072706  1
  H+  H78  1  0.42141021  0.40653114  0.85005761  1
  H+  H79  1  0.86014572  0.73224504  0.82633557  1
  H+  H80  1  0.01497088  0.14274476  0.48359245  1
  H+  H81  1  0.15301705  0.51784394  -0.00316786  1
  H+  H82  1  0.20170647  0.37442741  0.49004367  1
  H+  H83  1  0.61264222  0.63340582  0.83415466  1
  H+  H84  1  0.76070176  0.88101866  0.62437183  1
  H+  H85  1  0.77265924  0.65303298  0.49777002  1
  H+  H86  1  0.25934338  0.63422308  0.67280906  1
  H+  H87  1  0.38101596  0.11334254  0.17822525  1
  H+  H88  1  0.26946974  0.87849037  0.34031698  1
  H+  H89  1  0.36582802  0.63846547  0.15622637  1
  H+  H90  1  0.22291343  0.08877708  0.67132145  1
  H+  H91  1  0.72799290  0.37448219  0.99464140  1
  H+  H92  1  0.61272444  0.07410809  0.20853281  1
  H+  H93  1  0.86447522  0.64728989  1.00788167  1
  H+  H94  1  0.11691522  0.73169886  0.83762648  1
  H+  H95  1  0.87755930  -0.01420779  1.00126714  1
  H+  H96  1  0.36529733  0.21768080  0.49816616  1
  H+  H97  1  0.10553681  0.42779261  0.75783504  1
  H+  H98  1  0.77822428  0.36251978  0.67994217  1
  H+  H99  1  0.27355939  0.64327438  0.82523200  1
  H+  H100  1  0.37413655  0.39429970  0.01126881  1
  H+  H101  1  0.37669493  0.53496145  0.49826072  1
  H+  H102  1  0.62520564  0.48339509  0.83590223  1
  H+  H103  1  0.92074688  0.54856808  0.63860826  1
  H+  H104  1  0.61564848  0.88482339  0.83017289  1
  H+  H105  1  0.63020130  0.10219461  0.65851391  1
  H+  H106  1  0.89695373  0.11059352  0.65611130  1
  H+  H107  1  0.36332328  0.62364899  0.00400022  1
  H+  H108  1  0.37998602  0.14735428  0.01364308  1
  H+  H109  1  0.01625830  0.62274849  0.01371892  1
  H+  H110  1  0.11812551  0.90259615  0.49928373  1
  H+  H111  1  0.89723611  0.03264679  0.83033852  1
  H+  H112  1  0.99187042  0.62038794  0.17906379  1
  H+  H113  1  0.87216006  0.39319170  0.15827356  1
  H+  H114  1  0.52082429  0.63929905  -0.00060097  1
  H+  H115  1  0.87198283  0.51693005  0.49124117  1
  H+  H116  1  0.79927306  0.39534056  0.30308299  1
  H+  H117  1  0.93742651  0.13681315  0.97918090  1
  H+  H118  1  0.08269310  0.65517555  0.10846840  1
  H+  H119  1  0.72859909  0.11066445  0.33945341  1
  H+  H120  1  0.02403643  0.38947292  0.15640189  1
  H+  H121  1  0.52337662  0.89552925  0.49418242  1
  H+  H122  1  0.36691018  0.86632946  0.64673406  1
  H+  H123  1  0.63282552  0.77003220  0.84389223  1
  H+  H124  1  0.91368541  0.34294194  0.54925100  1
  H+  H125  1  0.66733512  0.06029165  0.25500042  1
  H+  H126  1  0.10481872  0.61986870  0.01444344  1
  H+  H127  1  0.61585777  0.22904282  0.16491872  1
  H+  H128  1  0.33735608  0.97043982  0.60354945  1
  H+  H129  1  0.89808751  0.78354924  0.17394713  1
  H+  H130  1  0.51610989  0.64824484  0.50114616  1
  H+  H131  1  0.37292613  0.62365055  0.65611809  1
  H+  H132  1  0.76889173  0.13106313  0.18162467  1
  H+  H133  1  0.64769098  0.36312923  0.66213294  1
  H+  H134  1  0.09673864  0.38748994  0.48296399  1
  H+  H135  1  0.46279620  0.11440683  0.53070084  1
  H+  H136  1  0.37876406  0.01813091  0.32949400  1
  H+  H137  1  0.11563506  0.88843435  0.15315897  1
  H+  H138  1  0.60093135  0.13917820  0.50059175  1
  H+  H139  1  0.47837176  0.86524874  0.84264567  1
  H+  H140  1  0.12727554  0.13309205  0.65647817  1
  H+  H141  1  0.50818705  0.38497009  0.34141626  1
  H+  H142  1  0.38661661  0.51939976  0.99601297  1
  H+  H143  1  0.38986825  0.86619548  0.84279676  1
  H+  H144  1  0.69769351  0.60611646  0.13218993  1
  H+  H145  1  0.89530707  0.36174326  0.64990533  1
  H+  H146  1  0.73188395  0.86737806  0.15973245  1
  H+  H147  1  0.20956158  0.07541284  0.95804684  1
  H+  H148  1  0.04469770  0.16517292  0.81088245  1
  H+  H149  1  0.38167875  0.22779876  0.66891103  1
  H+  H150  1  0.58079457  0.42229889  0.43500371  1
  H+  H151  1  0.85358364  0.38494555  0.48180505  1
  H+  H152  1  0.60435505  0.38858352  0.16024134  1
  H+  H153  1  0.86381473  -0.02497621  0.35020167  1
  H+  H154  1  0.51142702  0.12395332  0.34538924  1
  H+  H155  1  0.92106442  0.35816573  0.77754142  1
  H+  H156  1  0.36628916  0.98001231  0.15809628  1
  H+  H157  1  0.51324845  0.39294212  0.84355510  1
  H+  H158  1  0.78604713  0.39552303  0.16394424  1
  H+  H159  1  0.13572966  0.22252237  0.00558562  1
  H+  H160  1  0.83608216  0.92224789  0.09745995  1
  H+  H161  1  0.86092293  0.97694495  0.15978840  1
  H+  H162  1  0.08264978  0.42237088  0.39133835  1
  H+  H163  1  0.64741311  0.76123305  0.33433861  1
  H+  H164  1  0.38733490  0.77560993  0.17226512  1
  H+  H165  1  0.88417053  0.64510604  0.16507445  1
  H+  H166  1  0.84501056  0.62601642  0.34331634  1
  H+  H167  1  0.47312308  0.61868756  0.16815146  1
  H+  H168  1  0.12824251  0.50903500  0.68244890  1
  H+  H169  1  0.98646786  0.36604554  0.32004568  1
  H+  H170  1  0.74246708  0.87132513  0.52743270  1
  H+  H171  1  0.22130275  0.12967740  0.51352339  1
  H+  H172  1  0.62087203  0.39840861  0.00932086  1
  H+  H173  1  0.39902572  0.34904423  0.52247535  1
  H+  H174  1  0.72132474  0.27802880  0.22649244  1
  H+  H175  1  0.58646899  0.17422059  0.76829392  1
  H+  H176  1  0.13690742  0.11330123  0.32395195  1
  H+  H177  1  0.16789699  0.29444444  0.84314627  1
  H+  H178  1  0.11895950  0.28109359  0.49319458  1
  H+  H179  1  0.26044595  0.61767193  1.00439922  1
  H+  H180  1  0.12755978  0.39430734  0.84972695  1
  H+  H181  1  0.14052016  0.10316831  0.97839452  1
  H+  H182  1  0.61600001  0.38603239  0.83774085  1
  H+  H183  1  0.34888878  0.67959117  0.39029473  1
  H+  H184  1  0.38803099  0.77877522  0.32482167  1
  H+  H185  1  0.40226197  0.62308875  0.32169637  1
  H+  H186  1  0.51565515  0.87784123  1.00896334  1
  H+  H187  1  0.26212372  0.11943755  0.80804098  1
  H+  H188  1  0.86875454  0.63018978  0.68428683  1
  H+  H189  1  0.22613510  0.11333141  0.17161357  1
  H+  H190  1  0.13467369  0.76829197  0.33004709  1
  H+  H191  1  0.04267297  0.39402893  -0.00317730  1
  H+  H192  1  0.49046922  0.37916673  0.99692400  1
  H+  H193  1  0.63336884  0.89508894  0.60169038  1
  H+  H194  1  0.07411137  0.61094312  0.36484503  1
  H+  H195  1  0.13011146  0.35111359  0.16003102  1
  H+  H196  1  0.87104188  0.89035037  0.34959269  1
  H+  H197  1  0.11222232  0.63806425  0.68928704  1
  H+  H198  1  0.60450620  0.64051924  0.15218966  1
  H+  H199  1  0.36112221  0.64489746  0.48386207  1
  H+  H200  1  0.89156393  0.02386294  0.64172443  1
  H+  H201  1  0.08324417  0.16837393  0.39298820  1
  H+  H202  1  0.27506323  0.88859719  0.48965202  1
  H+  H203  1  0.37177466  0.86892737  0.32870658  1
  H+  H204  1  0.10650005  0.14814939  0.48721109  1
  H+  H205  1  0.36648710  0.89171853  0.00192018  1
  H+  H206  1  0.79271708  0.05439042  0.03414148  1
  H+  H207  1  0.61251802  0.36035871  0.33428554  1
  H+  H208  1  0.23214388  0.34941508  0.70324914  1
  H+  H209  1  0.10881434  0.12771400  0.15441097  1
  H+  H210  1  0.46713796  0.36220998  0.17839435  1
  H+  H211  1  0.35988792  0.47832816  0.32984962  1
  H+  H212  1  0.90048188  0.53282744  0.17556334  1
  H+  H213  1  0.69741024  0.09353041  0.99633685  1
  H+  H214  1  0.51897561  0.58324600  0.70144668  1
  H+  H215  1  0.85847776  0.65053650  0.48801147  1
  H+  H216  1  0.37670310  0.36206341  0.32977699  1
  H+  H217  1  0.01471910  0.63205250  0.50415740  1
  H+  H218  1  0.65832613  0.78507516  0.54783511  1
  H+  H219  1  0.13999176  0.36163573  0.32601072  1
  H+  H220  1  0.17978012  0.58703149  0.93938999  1
  H+  H221  1  0.36892634  0.89220521  0.15699699  1
  H+  H222  1  0.27588132  0.63686814  0.15242091  1
  H+  H223  1  0.60940829  0.73063198  0.00180900  1
  H+  H224  1  0.87158285  0.89789780  0.50457611  1
  H+  H225  1  0.27189915  0.88720627  0.82828213  1
  H+  H226  1  0.72513973  0.11678749  0.84298055  1
  H+  H227  1  0.48139786  0.60618786  0.32296143  1
  H+  H228  1  0.86716288  0.14288495  0.83101437  1
  H+  H229  1  0.62537127  0.52141268  0.16132315  1
  H+  H230  1  0.14500853  0.61444787  0.17209003  1
  H+  H231  1  0.37208968  0.10780855  0.52353018  1
  H+  H232  1  0.91457611  0.26243498  1.00850567  1
  H+  H233  1  0.60063554  0.47150368  0.33334720  1
  H+  H234  1  0.12724891  0.00914268  0.67183291  1
  H+  H235  1  0.88530742  0.27429971  0.17245514  1
  H+  H236  1  0.94509762  0.31076957  0.63888032  1
  H+  H237  1  0.77057339  0.88599514  0.83189345  1
  H+  H238  1  -0.12120984  0.57007939  0.54988938  1
  H+  H239  1  0.38845808  0.78044068  0.49983745  1
  H+  H240  1  0.87958415  0.77594263  -0.01043581  1
  H+  H241  1  0.09381151  -0.02146616  0.80815155  1
  H+  H242  1  -0.01756735  0.87177615  0.32744736  1
  H+  H243  1  0.00964585  0.39392136  0.47871228  1
  H+  H244  1  0.17559699  0.62771335  0.31023880  1
  H+  H245  1  0.11356950  -0.01041398  0.50101085  1
  H+  H246  1  0.49064594  0.36064176  0.51153693  1
  H+  H247  1  0.47028986  0.11556016  0.17474445  1
  H+  H248  1  0.12368972  0.98049462  0.33456015  1
  H+  H249  1  0.86759488  0.22668212  0.33626279  1
  H+  H250  1  0.73000733  0.61527004  0.84168416  1
  H+  H251  1  0.71807334  0.36016858  0.50072060  1
  H+  H252  1  0.75497480  0.10254778  0.67803160  1
  H+  H253  1  0.73435450  0.85085049  0.33557821  1
  H+  H254  1  0.01117416  0.11575778  -0.01364566  1
  H+  H255  1  0.92179338  0.33705657  0.22930723  1
  H+  H256  1  0.13831941  1.02286119  0.16848948  1
  H+  H257  1  0.63699951  0.01681657  0.64221980  1
  H+  H258  1  1.02519671  0.13572480  0.33379744  1
  H+  H259  1  0.29761425  0.64558108  0.32733876  1
  H+  H260  1  0.61660597  0.39367627  0.49264316  1
  H+  H261  1  0.60823900  0.14416242  1.00196391  1
  H+  H262  1  0.63706339  0.02718586  0.83956270  1
  H+  H263  1  0.36362886  0.88741290  0.48897402  1
  H+  H264  1  0.47548761  0.12239725  -0.00665138  1
  H+  H265  1  0.26984878  0.13675675  0.34070440  1
  H+  H266  1  0.69660794  0.35765604  0.35109467  1
  H+  H267  1  1.02590427  0.64351291  0.83767784  1
  H+  H268  1  0.13823727  0.61938205  0.85402162  1
  H+  H269  1  0.91974862  0.84347714  0.90027801  1
  H+  H270  1  0.88277108  0.87374330  0.84093286  1
  H+  H271  1  0.63833215  0.28421710  0.99505311  1
  H+  H272  1  0.59671851  0.21385422  0.34948954  1
  H+  H273  1  0.88670152  0.53466552  0.84860705  1
  H+  H274  1  0.60791903  0.14051577  0.82917611  1
  H+  H275  1  0.12323966  0.47857954  0.33069942  1
  H+  H276  1  0.10709762  0.21602724  0.14620289  1
  H+  H277  1  0.12777892  0.51713532  0.48972353  1
  H+  H278  1  0.23841398  0.36254104  0.00288534  1
  H+  H279  1  0.66863263  0.31849224  0.25267669  1
  H+  H280  1  0.36073275  0.22838001  0.17131062  1
  H+  H281  1  0.80014648  0.64819062  0.17874844  1
  H+  H282  1  0.85309913  0.39547640  0.83013589  1
  H+  H283  1  0.38269874  0.76915008  0.99254573  1
  H+  H284  1  0.13792279  0.11859844  0.81511213  1
  H+  H285  1  0.61277443  0.63094794  0.67912590  1
  H+  H286  1  0.59173670  0.72147949  0.46190439  1
  H+  H287  1  0.88876951  0.11070201  0.17735398  1
  H+  H288  1  0.34601615  1.00632397  0.66741329  1
  H+  H289  1  0.88204298  0.72457408  0.67663356  1
  H+  H290  1  0.66398352  0.83324408  0.90153477  1
  H+  H291  1  0.58954831  0.92067123  0.44000487  1
  H+  H292  1  0.40651596  0.56836508  0.93212668  1
  H+  H293  1  0.91725534  0.59906728  0.93645394  1
  H+  H294  1  0.40991881  0.07886162  0.27085507  1
  H+  H295  1  0.66796999  0.09361873  0.55982459  1
  H+  H296  1  0.83422230  0.15283264  0.01848034  1
  H+  H297  1  0.17291675  0.84334099  0.90119651  1
  H+  H298  1  0.09691472  0.15517265  0.06171109  1
  H+  H299  1  0.17363510  0.83647923  0.22599889  1
  H+  H300  1  0.12038688  0.22663951  0.76403605  1
  H+  H301  1  -0.01818109  0.60727405  0.69009634  1
  H+  H302  1  0.16039972  0.83684724  0.56781190  1
  H+  H303  1  0.83737094  0.17072295  0.39747523  1
  H+  H304  1  0.40532521  0.12382584  0.61825060  1
  H+  H305  1  0.59688637  0.42071423  0.73684104  1
  H+  H306  1  0.37733906  0.27179823  0.33244747  1
  H+  H307  1  0.91705511  0.09345718  0.55642041  1
  H+  H308  1  0.88096411  0.53779287  0.99517434  1
  H+  H309  1  0.93641828  0.38681734  0.91412376  1
  H+  H310  1  0.83393561  0.67081281  0.76813227  1
  H+  H311  1  0.10582925  0.63390372  0.50121195  1
  H+  H312  1  0.52471009  0.15015530  0.67987998  1
  H+  H313  1  0.63796254  0.62047913  0.99349876  1
  H+  H314  1  0.34179968  0.42245018  0.07147268  1
  H+  H315  1  0.92004473  0.84610855  0.27139245  1
  H+  H316  1  0.83567099  0.91621507  0.44238079  1
  H+  H317  1  0.18497002  0.33471417  0.94116892  1
  H+  H318  1  0.72905715  0.62334236  -0.00200454  1
  H+  H319  1  0.18518678  0.57519675  0.54498452  1
  H+  H320  1  0.32588748  0.39499395  0.48025013  1
  H+  H321  1  0.88254763  0.02828992  0.50095114  1
  H+  H322  1  0.83862986  0.67706647  0.06882570  1
  H+  H323  1  0.41296052  0.84144659  0.26349798  1
  H+  H324  1  0.15184922  0.07511116  0.87425431  1
  H+  H325  1  0.08561398  0.41734672  0.09805428  1
  H+  H326  1  0.86459882  0.89205820  0.00243013  1
  H+  H327  1  0.04943250  0.14191259  0.63151652  1
  H+  H328  1  0.57606531  0.67123886  0.09256049  1
  H+  H329  1  0.66521209  0.58097439  0.25777582  1
  H+  H330  1  0.11061298  0.54849518  0.62358504  1
  H+  H331  1  0.06852726  0.66660895  0.41694612  1
  H+  H332  1  0.58313574  0.91877184  0.10129032  1
  H+  H333  1  0.43818303  0.35665361  0.90681132  1
  H+  H334  1  0.33087915  0.90932810  0.40182851  1
  H+  H335  1  0.13063936  0.77599891  0.66785931  1
  H+  H336  1  0.33077724  0.15644576  0.75130431  1
  H+  H337  1  0.81128776  0.14571435  0.11714870  1
  H+  H338  1  0.57842407  0.41715351  0.09873194  1
  H+  H339  1  0.62387637  0.86874657  0.29453319  1
  H+  H340  1  0.92038675  0.59252927  0.26995828  1
  H+  H341  1  0.31976108  0.43310297  0.41730968  1
  H+  H342  1  0.41099544  0.83513925  0.56210651  1
  H+  H343  1  0.36477582  0.77702541  0.65513052  1
  H+  H344  1  0.61210780  0.94666536  0.31025322  1
  H+  H345  1  0.12485395  0.38046460  0.00577759  1
  H+  H346  1  0.58060293  0.66123276  0.77568557  1
  H+  H347  1  0.07708591  0.91182770  0.06053164  1
  H+  H348  1  0.32889185  0.90490648  0.76911245  1
  H+  H349  1  0.67137629  0.33286931  0.60064742  1
  H+  H350  1  0.08949306  0.67514869  0.74803965  1
  H+  H351  1  0.65064939  0.07992590  0.93181840  1
  H+  H352  1  0.94985448  0.84755420  0.61058901  1
  H+  H353  1  0.63478013  0.10249497  0.34157776  1
  H+  H354  1  0.21889736  0.35250728  0.15879082  1
  H+  H355  1  0.34632350  0.17672443  0.10953899  1
  H+  H356  1  0.81342771  0.66350161  0.39751503  1
  H+  H357  1  0.56025785  0.15991712  0.44456681  1
  H+  H358  1  0.33840448  0.92191877  0.06129280  1
  H+  H359  1  0.65841629  0.33364175  0.90526464  1
  H+  H360  1  0.86107938  0.44419636  0.70333545  1
  H+  H361  1  0.58315353  0.91310486  0.77212855  1
  H+  H362  1  0.33492329  0.65734375  0.06828713  1
  H+  H363  1  0.41615635  0.82959673  0.93379163  1
  H+  H364  1  0.82433850  0.90116384  0.77099838  1
  H+  H365  1  0.82184505  0.41280704  0.42274632  1
  H+  H366  1  0.04636042  0.90277207  0.75566463  1
  H+  H367  1  0.25311237  0.38749341  0.85034859  1
  H+  H368  1  0.13990135  0.85938722  0.32624584  1
  H+  H369  1  0.18904955  0.58285964  0.25354693  1
  H+  H370  1  0.88701525  0.27618107  0.81932418  1
  H+  H371  1  0.41847885  0.58919692  0.22985357  1
  H+  H372  1  0.94018771  0.09128804  0.88773839  1
  H+  H373  1  0.63390160  0.61898620  0.51315073  1
  H+  H374  1  0.58222443  0.18160046  0.05971823  1
  H+  H375  1  0.91572898  0.07620957  0.26949256  1
  H+  H376  1  0.65358752  0.90018890  0.66931681  1
  H+  H377  1  0.32526786  0.15977003  0.43899806  1
  H+  H378  1  0.14251773  0.27392670  0.32547300  1
  H+  H379  1  0.67104693  0.58695691  0.60544273  1
  H+  H380  1  0.40953265  0.33379087  0.23940663  1
  H+  H381  1  0.32319547  0.67056557  0.72977011  1
  H+  H382  1  0.43106553  0.33423960  0.61193384  1
  H+  H383  1  0.83672522  0.42728064  0.06519579  1
  O2-  O384  1  0.07619681  0.15258178  0.13413323  1
  O2-  O385  1  0.07570095  0.17592621  0.46879895  1
  O2-  O386  1  0.10754011  0.19519386  0.80350371  1
  O2-  O387  1  0.08523603  0.42085005  0.14310470  1
  O2-  O388  1  0.07166543  0.42403396  0.46600178  1
  O2-  O389  1  0.09703230  0.42536465  0.83715841  1
  O2-  O390  1  0.09122717  0.66479079  0.15397012  1
  O2-  O391  1  0.07559288  0.66599238  0.49061501  1
  O2-  O392  1  0.08746991  0.67025703  0.82432083  1
  O2-  O393  1  0.08651452  0.91943722  0.13753308  1
  O2-  O394  1  0.08581701  0.93053360  0.48400457  1
  O2-  O395  1  0.05662176  0.91370660  0.80091934  1
  O2-  O396  1  0.33509444  0.16872376  0.15421315  1
  O2-  O397  1  0.32371224  0.15865306  0.48453799  1
  O2-  O398  1  0.32477400  0.15063858  0.79705875  1
  O2-  O399  1  0.33342003  0.41986074  0.14538075  1
  O2-  O400  1  0.31298538  0.43734167  0.46371115  1
  O2-  O401  1  0.37196437  0.46087565  0.82907862  1
  O2-  O402  1  0.33687204  0.66861326  0.13692609  1
  O2-  O403  1  0.33406208  0.67592273  0.46398296  1
  O2-  O404  1  0.32875885  0.67188579  0.80320567  1
  O2-  O405  1  0.33789961  0.92075655  0.14056446  1
  O2-  O406  1  0.33203324  0.91405219  0.46988405  1
  O2-  O407  1  0.33327421  0.91639000  0.81272102  1
  O2-  O408  1  0.57830887  0.17672871  0.14025333  1
  O2-  O409  1  0.56554829  0.16627258  0.48962300  1
  O2-  O410  1  0.57887226  0.17162781  0.81364705  1
  O2-  O411  1  0.57372501  0.41670124  0.14498885  1
  O2-  O412  1  0.58472364  0.42407922  0.48036065  1
  O2-  O413  1  0.58896415  0.42121088  0.82172127  1
  O2-  O414  1  0.57770558  0.67455074  0.13846177  1
  O2-  O415  1  0.57992368  0.67851036  0.49315417  1
  O2-  O416  1  0.57805566  0.66009443  0.82111418  1
  O2-  O417  1  0.58327718  0.90895626  0.14625035  1
  O2-  O418  1  0.58571695  0.93000686  0.48319162  1
  O2-  O419  1  0.58659572  0.91775015  0.81635261  1
  O2-  O420  1  0.82519677  0.16130480  0.16043963  1
  O2-  O421  1  0.82855830  0.17219952  0.47293407  1
  O2-  O422  1  0.83173930  0.16769288  0.81596377  1
  O2-  O423  1  0.84336703  0.42648652  0.14525042  1
  O2-  O424  1  0.82185026  0.41554344  0.46750437  1
  O2-  O425  1  0.82828824  0.43303592  0.83281160  1
  O2-  O426  1  0.85028718  0.67368676  0.15206241  1
  O2-  O427  1  0.83199997  0.68637685  0.48087595  1
  O2-  O428  1  0.83172340  0.67141967  0.81383516  1
  O2-  O429  1  0.82920489  0.91662194  0.14258840  1
  O2-  O430  1  0.83600820  0.92145411  0.48836926  1
  O2-  O431  1  0.83079902  0.91508975  0.81562258  1
  O2-  O432  1  0.16487962  0.08254410  0.18503332  1
  O2-  O433  1  0.15928775  0.10335049  0.52456054  1
  O2-  O434  1  0.15586722  0.07661830  0.82895305  1
  O2-  O435  1  0.15623414  0.31432997  0.16287786  1
  O2-  O436  1  0.14315555  0.34187692  0.50695114  1
  O2-  O437  1  0.19324901  0.35091066  0.86457213  1
  O2-  O438  1  0.17736401  0.58345151  0.18200915  1
  O2-  O439  1  0.16503991  0.57977878  0.50476291  1
  O2-  O440  1  0.17090428  0.59140912  0.86948177  1
  O2-  O441  1  0.17153399  0.83599552  0.18096222  1
  O2-  O442  1  0.16561571  0.84042185  0.52273973  1
  O2-  O443  1  0.17224542  0.84054339  0.85373941  1
  O2-  O444  1  0.41148926  0.08159990  0.19114713  1
  O2-  O445  1  0.40618914  0.09226099  0.55104631  1
  O2-  O446  1  0.40751084  0.08716321  0.83428074  1
  O2-  O447  1  0.40732319  0.33238433  0.19363787  1
  O2-  O448  1  0.43332802  0.32271679  0.53229622  1
  O2-  O449  1  0.44474671  0.36766694  0.86097673  1
  O2-  O450  1  0.41330805  0.58799977  0.18413098  1
  O2-  O451  1  0.40971746  0.59457005  0.51517342  1
  O2-  O452  1  0.40670063  0.54995626  0.85216107  1
  O2-  O453  1  0.41688768  0.83496849  0.18910391  1
  O2-  O454  1  0.41853864  0.83967476  0.51639900  1
  O2-  O455  1  0.41835893  0.83466984  0.85813694  1
  O2-  O456  1  0.66102506  0.06376482  0.20887693  1
  O2-  O457  1  0.66455939  0.09545277  0.51470289  1
  O2-  O458  1  0.66337975  0.08694664  0.85547302  1
  O2-  O459  1  0.69117555  0.30786789  0.21337957  1
  O2-  O460  1  0.66033568  0.33534429  0.51997026  1
  O2-  O461  1  0.65694818  0.33409835  0.85955204  1
  O2-  O462  1  0.65986800  0.58554158  0.16767103  1
  O2-  O463  1  0.66616168  0.59026684  0.52578117  1
  O2-  O464  1  0.66967273  0.58179720  0.85760894  1
  O2-  O465  1  0.66788694  0.83414255  0.17155409  1
  O2-  O466  1  0.69721893  0.84475783  0.55991680  1
  O2-  O467  1  0.66422656  0.83207726  0.85601059  1
  O2-  O468  1  0.91664974  0.07644389  0.18705646  1
  O2-  O469  1  0.91152315  0.09120704  0.51123882  1
  O2-  O470  1  0.93132064  0.09363406  0.84334361  1
  O2-  O471  1  0.91713225  0.33632160  0.18363788  1
  O2-  O472  1  0.90675377  0.33965963  0.50348640  1
  O2-  O473  1  0.92077174  0.34105386  0.81989313  1
  O2-  O474  1  0.92960682  0.59223388  0.19240592  1
  O2-  O475  1  0.90146159  0.57721101  0.50877618  1
  O2-  O476  1  0.92179969  0.59731856  0.86028200  1
  O2-  O477  1  0.92670759  0.84488661  0.18614273  1
  O2-  O478  1  0.92945905  0.84671224  0.53738759  1
  O2-  O479  1  0.91941755  0.84679154  0.85371905  1
  O2-  O480  1  0.16971022  0.08462696  0.30977306  1
  O2-  O481  1  0.16401475  0.06878746  0.68531476  1
  O2-  O482  1  0.15016788  0.06157758  0.95302332  1
  O2-  O483  1  0.17502140  0.33573743  0.31381011  1
  O2-  O484  1  0.16939323  0.31088819  0.70504381  1
  O2-  O485  1  0.17828486  0.32866059  0.98641820  1
  O2-  O486  1  0.19437829  0.58697297  0.29995213  1
  O2-  O487  1  0.14343370  0.56621829  0.66120961  1
  O2-  O488  1  0.18345799  0.58118785  0.98583798  1
  O2-  O489  1  0.16829186  0.82628306  0.31225559  1
  O2-  O490  1  0.14554955  0.83207156  0.64854900  1
  O2-  O491  1  0.17434476  0.84030823  0.96954254  1
  O2-  O492  1  0.40955204  0.07934024  0.31626910  1
  O2-  O493  1  0.40595633  0.12961365  0.66516373  1
  O2-  O494  1  0.41292990  0.09452111  0.98522473  1
  O2-  O495  1  0.40843596  0.33207707  0.31615009  1
  O2-  O496  1  0.42702754  0.33410575  0.65710060  1
  O2-  O497  1  0.43061616  0.34711856  0.97976887  1
  O2-  O498  1  0.42266554  0.58460961  0.30540188  1
  O2-  O499  1  0.40605635  0.59634848  0.63848560  1
  O2-  O500  1  0.41193705  0.57861748  0.97691723  1
  O2-  O501  1  0.40659786  0.83946103  0.30951737  1
  O2-  O502  1  0.39638504  0.83473213  0.63606606  1
  O2-  O503  1  0.41534962  0.82965583  0.97967819  1
  O2-  O504  1  0.66689582  0.07409953  0.32759820  1
  O2-  O505  1  0.66626624  0.08096284  0.63971548  1
  O2-  O506  1  0.64112408  0.07513569  0.97712267  1
  O2-  O507  1  0.64598891  0.32922313  0.32487489  1
  O2-  O508  1  0.67379506  0.32967354  0.64588357  1
  O2-  O509  1  0.66683129  0.34556274  0.98068819  1
  O2-  O510  1  0.65798656  0.57074478  0.30169092  1
  O2-  O511  1  0.67212997  0.58566011  0.65086610  1
  O2-  O512  1  0.66910219  0.58966135  0.98150191  1
  O2-  O513  1  0.68015410  0.81589473  0.31262978  1
  O2-  O514  1  0.79609436  0.91950580  0.65902953  1
  O2-  O515  1  0.66638029  0.83841137  0.98022853  1
  O2-  O516  1  0.91766112  0.07938006  0.31457251  1
  O2-  O517  1  0.92769578  0.08630743  0.63396296  1
  O2-  O518  1  0.95040402  0.09149625  0.96963759  1
  O2-  O519  1  0.92472534  0.33482875  0.30591026  1
  O2-  O520  1  0.93507306  0.35463589  0.62140111  1
  O2-  O521  1  0.95661376  0.41291580  0.95434809  1
  O2-  O522  1  0.91006678  0.58505603  0.31497752  1
  O2-  O523  1  0.91900102  0.56842983  0.67949327  1
  O2-  O524  1  0.91573766  0.59899319  0.98225452  1
  O2-  O525  1  0.92130487  0.84675702  0.31621576  1
  O2-  O526  1  0.94826400  0.83937255  0.65713327  1
  O2-  O527  1  0.91158725  0.83598252  0.97299194  1
  O2-  O528  1  0.10580924  0.15955248  0.01566909  1
  O2-  O529  1  0.08645495  0.16597357  0.34752131  1
  O2-  O530  1  0.11274544  0.17006157  0.63098632  1
  O2-  O531  1  0.09855398  0.41673952  0.01738587  1
  O2-  O532  1  0.08624114  0.41931194  0.34571275  1
  O2-  O533  1  0.10209563  0.42217768  0.71287998  1
  O2-  O534  1  0.06198740  0.62381983  0.03957224  1
  O2-  O535  1  0.06632776  0.66033350  0.37089804  1
  O2-  O536  1  0.08562893  0.67271703  0.70227540  1
  O2-  O537  1  0.07066676  0.90433384  0.01505458  1
  O2-  O538  1  0.09588503  0.92014449  0.35071872  1
  O2-  O539  1  0.03782646  0.89128482  0.67909932  1
  O2-  O540  1  0.36044101  0.18897840  0.03204057  1
  O2-  O541  1  0.32921972  0.16733732  0.35879490  1
  O2-  O542  1  0.34720630  0.16321705  0.67728881  1
  O2-  O543  1  0.34200965  0.42305427  0.02532822  1
  O2-  O544  1  0.33012715  0.42032583  0.34915728  1
  O2-  O545  1  0.35751643  0.44131063  0.70463599  1
  O2-  O546  1  0.33096858  0.65289683  0.02100133  1
  O2-  O547  1  0.35621332  0.68319429  0.34456903  1
  O2-  O548  1  0.32083043  0.66889299  0.68346847  1
  O2-  O549  1  0.33825952  0.92416258  0.01593613  1
  O2-  O550  1  0.33103891  0.90932727  0.35412051  1
  O2-  O551  1  0.32166118  0.95063914  0.64576026  1
  O2-  O552  1  0.58435207  0.18164209  0.01471634  1
  O2-  O553  1  0.57064901  0.15375404  0.36333517  1
  O2-  O554  1  0.58465046  0.16819597  0.69004589  1
  O2-  O555  1  0.59007704  0.42800277  0.02608668  1
  O2-  O556  1  0.57026307  0.41478630  0.35492176  1
  O2-  O557  1  0.59552122  0.41864005  0.69186551  1
  O2-  O558  1  0.58016612  0.66985573  0.01664418  1
  O2-  O559  1  0.57824601  0.64142246  0.35631521  1
  O2-  O560  1  0.56744611  0.64143186  0.69692731  1
  O2-  O561  1  0.57668218  0.91337861  0.02353220  1
  O2-  O562  1  0.59162138  0.89804785  0.28235290  1
  O2-  O563  1  0.61996002  0.91273891  0.64071659  1
  O2-  O564  1  0.78624982  0.10476630  0.04004263  1
  O2-  O565  1  0.83675782  0.16680389  0.35176285  1
  O2-  O566  1  0.80291289  0.10281459  0.70233911  1
  O2-  O567  1  0.83148315  0.43046885  0.02019624  1
  O2-  O568  1  0.83643760  0.42094160  0.33832531  1
  O2-  O569  1  0.83586852  0.38191133  0.69774708  1
  O2-  O570  1  0.83232422  0.67607638  0.02401375  1
  O2-  O571  1  0.80211106  0.64235044  0.35518651  1
  O2-  O572  1  0.84150325  0.66601631  0.69170004  1
  O2-  O573  1  0.83926391  0.92725393  0.01768832  1
  O2-  O574  1  0.83771751  0.91651908  0.36810648  1
  O2-  O575  1  0.81247197  0.86351297  0.69889776  1
