# generated using pymatgen
data_H2O
_symmetry_space_group_name_H-M   'P 1'
_cell_length_a   17.98228428
_cell_length_b   17.98439691
_cell_length_c   22.00256208
_cell_angle_alpha   90.01864565
_cell_angle_beta   89.98977146
_cell_angle_gamma   119.98864229
_symmetry_Int_Tables_number   1
_chemical_formula_structural   H2O
_chemical_formula_sum   'H384 O192'
_cell_volume   6163.03017248
_cell_formula_units_Z   192
loop_
 _symmetry_equiv_pos_site_id
 _symmetry_equiv_pos_as_xyz
  1  'x, y, z'
loop_
 _atom_type_symbol
 _atom_type_oxidation_number
  H+  1.0
  O2-  -2.0
loop_
 _atom_site_type_symbol
 _atom_site_label
 _atom_site_symmetry_multiplicity
 _atom_site_fract_x
 _atom_site_fract_y
 _atom_site_fract_z
 _atom_site_occupancy
  H+  H0  1  0.60294919  0.62848913  1.01201457  1
  H+  H1  1  0.12962901  0.73268819  0.16123036  1
  H+  H2  1  0.65374177  0.62836140  0.85280055  1
  H+  H3  1  0.14132237  0.77820788  0.33112990  1
  H+  H4  1  0.15992738  0.08411184  0.22791043  1
  H+  H5  1  0.87981408  1.01823871  0.01197047  1
  H+  H6  1  0.03326269  0.90559579  0.33298993  1
  H+  H7  1  1.03660243  0.89370540  0.66781048  1
  H+  H8  1  1.02356302  1.13369752  0.01659128  1
  H+  H9  1  0.36042410  0.38617623  0.84010446  1
  H+  H10  1  0.64027042  0.78364160  0.65097702  1
  H+  H11  1  0.22977951  0.36773585  0.50545028  1
  H+  H12  1  0.76077332  0.37745622  0.48668552  1
  H+  H13  1  0.62008746  0.88542199  0.82877862  1
  H+  H14  1  0.88779795  1.01937157  0.32017829  1
  H+  H15  1  0.17429021  0.84045483  0.76029261  1
  H+  H16  1  0.07825753  0.41306732  0.07397913  1
  H+  H17  1  0.52230567  0.13215437  0.50310677  1
  H+  H18  1  0.72523601  0.13514238  0.67911580  1
  H+  H19  1  0.38393430  0.61662471  0.84413449  1
  H+  H20  1  0.89827619  0.77827920  0.98372684  1
  H+  H21  1  0.96966972  0.09675077  0.84016833  1
  H+  H22  1  0.37954951  0.22942237  0.31885117  1
  H+  H23  1  0.86174146  0.97481519  0.67016609  1
  H+  H24  1  0.09925762  0.21563429  0.83925834  1
  H+  H25  1  0.88889869  0.87005511  0.17681212  1
  H+  H26  1  0.13916852  0.60891880  0.84668072  1
  H+  H27  1  0.96087758  0.94176384  0.53359017  1
  H+  H28  1  0.84295716  0.87056528  0.48441434  1
  H+  H29  1  0.46757015  0.60686687  -0.00364105  1
  H+  H30  1  0.88520979  0.36111919  0.17476941  1
  H+  H31  1  0.16439230  0.12322383  0.66988242  1
  H+  H32  1  0.61191690  0.15463445  0.01492914  1
  H+  H33  1  0.63835990  0.62031369  0.65647511  1
  H+  H34  1  0.66386049  0.33034491  0.90800681  1
  H+  H35  1  0.61056386  0.23032148  0.82916207  1
  H+  H36  1  0.35397037  0.63124682  0.33823278  1
  H+  H37  1  0.10123920  0.13236862  0.16475731  1
  H+  H38  1  0.36720822  0.89793978  0.33956933  1
  H+  H39  1  0.15010018  1.03355696  0.32224184  1
  H+  H40  1  0.52550758  0.90370237  0.64020091  1
  H+  H41  1  0.58983361  0.14073405  0.67558678  1
  H+  H42  1  0.10717574  0.13221842  0.84099278  1
  H+  H43  1  0.27590330  0.63997547  0.68257722  1
  H+  H44  1  1.03138117  0.13339902  0.49460828  1
  H+  H45  1  0.89019291  0.52193372  0.67524444  1
  H+  H46  1  0.82528227  0.90859348  0.76767731  1
  H+  H47  1  0.60891783  0.87533574  0.33768391  1
  H+  H48  1  0.11019961  0.88437944  0.16077969  1
  H+  H49  1  0.38115743  0.52218917  0.33076217  1
  H+  H50  1  0.86902232  0.63892754  0.67021792  1
  H+  H51  1  0.88563693  0.52124591  0.84923149  1
  H+  H52  1  0.75269917  0.60848628  0.16633248  1
  H+  H53  1  0.63811794  0.36524291  0.84959874  1
  H+  H54  1  0.11003028  0.48336693  0.82199730  1
  H+  H55  1  0.77137117  0.88625815  0.15959413  1
  H+  H56  1  0.77067880  0.38306448  0.83976202  1
  H+  H57  1  0.92036639  0.34201431  0.26655452  1
  H+  H58  1  0.64338750  0.37500499  0.66298706  1
  H+  H59  1  0.29980488  0.90753582  0.74664058  1
  H+  H60  1  0.12105693  0.02030856  0.17124939  1
  H+  H61  1  0.63791479  1.04521869  0.67393901  1
  H+  H62  1  0.26835713  0.63528910  1.00628291  1
  H+  H63  1  0.39317016  0.12684684  1.00261156  1
  H+  H64  1  0.36114155  0.39375376  0.16286886  1
  H+  H65  1  0.99396055  0.38791900  0.99639866  1
  H+  H66  1  0.57313459  0.66204177  0.42336374  1
  H+  H67  1  0.66401469  0.09622404  0.58393435  1
  H+  H68  1  0.52098961  0.39142720  0.33784359  1
  H+  H69  1  0.39394093  0.14431805  0.68749529  1
  H+  H70  1  0.22105707  0.60801616  0.49760663  1
  H+  H71  1  0.10805105  0.38244172  0.16069908  1
  H+  H72  1  0.11282703  0.72624335  0.00594559  1
  H+  H73  1  0.85812574  0.87991084  1.00348024  1
  H+  H74  1  0.36041455  0.89581334  0.16351959  1
  H+  H75  1  0.30076757  0.13860403  0.68170122  1
  H+  H76  1  1.02914606  0.62700336  0.50340417  1
  H+  H77  1  0.35325961  0.40617795  0.51721764  1
  H+  H78  1  0.76850650  0.38334448  0.68037842  1
  H+  H79  1  0.34443403  0.17044320  0.77978167  1
  H+  H80  1  1.04833857  0.63988851  0.16371393  1
  H+  H81  1  0.61672159  0.04079927  0.98142165  1
  H+  H82  1  0.36874741  0.98176085  0.83358521  1
  H+  H83  1  0.84348426  0.37428671  0.46307839  1
  H+  H84  1  0.89554639  0.79005085  0.32856099  1
  H+  H85  1  0.62248987  0.48723813  0.68023093  1
  H+  H86  1  0.88029022  0.26913972  0.17503557  1
  H+  H87  1  0.11822373  0.89956099  0.33385387  1
  H+  H88  1  0.76343437  0.63802536  0.01307599  1
  H+  H89  1  0.76647584  0.11268732  0.33574895  1
  H+  H90  1  0.11858216  0.22599165  0.49598100  1
  H+  H91  1  0.37522842  0.89505488  0.83205671  1
  H+  H92  1  0.22244311  0.61242651  0.33478444  1
  H+  H93  1  0.63544366  0.28089637  0.00557937  1
  H+  H94  1  0.38700424  0.11408090  0.84852597  1
  H+  H95  1  0.37510414  0.76180615  0.50494183  1
  H+  H96  1  0.13700185  0.36812097  0.32815883  1
  H+  H97  1  0.84114897  0.57985772  0.48625032  1
  H+  H98  1  0.39498486  0.12494957  0.29843735  1
  H+  H99  1  0.22688273  0.87044630  0.17687934  1
  H+  H100  1  0.88149254  0.86039092  0.83554242  1
  H+  H101  1  0.29045711  0.13911630  0.31595599  1
  H+  H102  1  0.86305492  0.88866985  0.33185893  1
  H+  H103  1  0.02975491  0.13900785  0.33850954  1
  H+  H104  1  0.77333016  0.13718438  0.81939551  1
  H+  H105  1  0.35809278  0.22690966  1.01624415  1
  H+  H106  1  0.74034293  0.62406793  0.84617296  1
  H+  H107  1  0.86595094  0.39983295  0.01229040  1
  H+  H108  1  0.40565188  0.27254046  0.68673482  1
  H+  H109  1  0.35416690  0.47235521  1.00807655  1
  H+  H110  1  0.33248402  0.34276962  0.69869926  1
  H+  H111  1  0.63483614  0.52110042  1.00127940  1
  H+  H112  1  0.86784317  0.20131669  0.48126166  1
  H+  H113  1  1.04070820  0.89469949  0.50760790  1
  H+  H114  1  0.60052841  0.86051331  0.48815648  1
  H+  H115  1  0.37951599  0.60914873  0.99620804  1
  H+  H116  1  0.12973006  0.64069648  0.67256074  1
  H+  H117  1  0.62251449  0.48477372  0.84026359  1
  H+  H118  1  0.85774653  0.97157973  0.82664240  1
  H+  H119  1  0.84226464  0.73076839  0.50757681  1
  H+  H120  1  0.13390745  0.87789860  0.50969275  1
  H+  H121  1  0.11618611  0.47581529  1.01467204  1
  H+  H122  1  0.12438306  0.89416624  0.68507057  1
  H+  H123  1  0.39708242  0.02919526  0.52692637  1
  H+  H124  1  0.63168868  0.95404499  0.02109095  1
  H+  H125  1  1.02370822  0.64045860  0.34294690  1
  H+  H126  1  0.48389218  0.86784941  0.84670687  1
  H+  H127  1  0.91802541  0.08205821  0.26126671  1
  H+  H128  1  0.47973553  0.36891152  0.85031518  1
  H+  H129  1  0.14801296  0.76234255  0.83964695  1
  H+  H130  1  0.60670528  0.63086611  0.33001308  1
  H+  H131  1  0.85843595  0.38568397  0.68248555  1
  H+  H132  1  0.37467368  0.34382098  0.45571020  1
  H+  H133  1  0.97559198  0.86639166  0.17603833  1
  H+  H134  1  0.88215195  0.09817928  0.83337873  1
  H+  H135  1  0.82058304  0.70135771  0.43941287  1
  H+  H136  1  0.98050411  0.62023562  1.00217574  1
  H+  H137  1  0.35968111  0.87956090  1.01329667  1
  H+  H138  1  0.99576234  0.38855987  0.65379519  1
  H+  H139  1  0.90606552  0.52800507  0.18353062  1
  H+  H140  1  0.32467361  0.66586573  0.43258031  1
  H+  H141  1  0.35378420  0.72075582  0.33714930  1
  H+  H142  1  0.12938984  0.61505872  0.33906179  1
  H+  H143  1  0.11213599  0.88562394  0.00371035  1
  H+  H144  1  0.08467496  0.16613184  0.07327035  1
  H+  H145  1  0.78107058  0.39580725  0.16578907  1
  H+  H146  1  0.53747538  0.39646740  0.69197583  1
  H+  H147  1  0.88191645  0.35480776  0.84156111  1
  H+  H148  1  0.62087991  0.76067186  0.49591581  1
  H+  H149  1  0.62649490  0.27999866  0.65789395  1
  H+  H150  1  0.77589949  0.88585871  0.66490397  1
  H+  H151  1  0.87359089  0.65416418  0.34953713  1
  H+  H152  1  0.59818130  0.72618000  0.15964927  1
  H+  H153  1  0.35062024  0.73733866  0.68428601  1
  H+  H154  1  0.09196578  0.67093303  0.06791397  1
  H+  H155  1  1.02308248  0.90062575  0.82189396  1
  H+  H156  1  0.42622320  0.33890623  0.63392630  1
  H+  H157  1  0.13628213  0.10986075  1.00331806  1
  H+  H158  1  0.27177233  0.13568364  0.01870714  1
  H+  H159  1  0.41524702  0.83694772  0.11256644  1
  H+  H160  1  0.39286005  0.28435358  0.17704625  1
  H+  H161  1  0.60961235  0.96538674  0.34008413  1
  H+  H162  1  0.64161485  0.28099754  0.17090981  1
  H+  H163  1  0.52212899  0.15288346  0.01642106  1
  H+  H164  1  0.61044525  0.38910388  0.00885045  1
  H+  H165  1  0.95032001  0.42449179  0.60949437  1
  H+  H166  1  0.48744518  0.11973224  0.20317208  1
  H+  H167  1  -0.03387090  0.10910149  0.65168449  1
  H+  H168  1  0.86699187  0.23279491  0.67267418  1
  H+  H169  1  0.85848476  0.13456022  0.15984092  1
  H+  H170  1  0.63797798  1.02965398  0.83520068  1
  H+  H171  1  0.63662489  0.86305425  0.17074722  1
  H+  H172  1  0.62455194  0.84750386  1.00440850  1
  H+  H173  1  0.39526806  0.50607852  0.67184197  1
  H+  H174  1  0.60923774  0.20898680  0.34350462  1
  H+  H175  1  0.84423552  0.29167131  0.52361448  1
  H+  H176  1  0.89571494  0.77799383  0.65892377  1
  H+  H177  1  0.84127082  0.66953621  0.72929343  1
  H+  H178  1  0.86485696  0.22239812  0.82303370  1
  H+  H179  1  0.46485887  0.34957522  0.46153752  1
  H+  H180  1  0.72564160  0.36975284  0.00165993  1
  H+  H181  1  0.39563792  0.11601956  0.52088096  1
  H+  H182  1  0.13273850  0.26807123  1.00541672  1
  H+  H183  1  1.01292989  0.37854652  0.48742962  1
  H+  H184  1  0.36554426  0.51314294  0.49910756  1
  H+  H185  1  0.45591823  0.60629706  0.49109938  1
  H+  H186  1  0.87980215  0.10693975  0.01087657  1
  H+  H187  1  0.97265789  0.11601787  0.17127630  1
  H+  H188  1  0.61451432  0.13905510  0.16948070  1
  H+  H189  1  0.22302093  0.36329457  0.17479839  1
  H+  H190  1  0.11139999  0.38201401  0.67288577  1
  H+  H191  1  0.16663058  0.33548367  0.23531359  1
  H+  H192  1  0.72387443  0.11014338  0.17534653  1
  H+  H193  1  0.53305137  0.66589025  0.65637605  1
  H+  H194  1  0.08343897  0.14653615  0.61192616  1
  H+  H195  1  0.46750901  0.11328382  0.61713728  1
  H+  H196  1  0.63460436  0.11765199  0.83068877  1
  H+  H197  1  0.88592862  0.53776537  0.32769313  1
  H+  H198  1  0.50585158  0.86403356  0.48845947  1
  H+  H199  1  0.89271404  0.62298905  1.00256068  1
  H+  H200  1  0.15614057  0.12526966  0.32367389  1
  H+  H201  1  0.56878772  0.89506011  0.42387065  1
  H+  H202  1  0.86259801  0.48605057  0.01444487  1
  H+  H203  1  0.90338408  0.49325132  0.52061017  1
  H+  H204  1  0.22046217  0.85478933  0.99294395  1
  H+  H205  1  0.64171304  0.87304998  0.63825976  1
  H+  H206  1  0.13790867  0.27935924  0.33060215  1
  H+  H207  1  0.61162836  0.38217772  0.49059002  1
  H+  H208  1  0.13392819  -0.01848731  0.50954017  1
  H+  H209  1  0.87774827  0.11069823  0.65496174  1
  H+  H210  1  0.40877643  0.65984440  0.64447234  1
  H+  H211  1  0.59244967  0.62823551  0.48572958  1
  H+  H212  1  0.76341742  0.14385898  1.00232815  1
  H+  H213  1  0.88338851  1.02512335  0.17007849  1
  H+  H214  1  0.42715219  0.84151649  0.90767388  1
  H+  H215  1  0.21237710  0.35186394  0.85095845  1
  H+  H216  1  0.20900033  0.33848650  0.66852041  1
  H+  H217  1  0.50660004  0.62518370  0.82783027  1
  H+  H218  1  0.23713657  0.85405000  0.84155209  1
  H+  H219  1  0.11913058  0.64177293  0.49070772  1
  H+  H220  1  0.60894393  0.48275437  0.15984802  1
  H+  H221  1  0.57102994  0.17538625  0.76813720  1
  H+  H222  1  0.36807027  0.73446284  0.83681861  1
  H+  H223  1  0.48961772  0.86288484  0.00289431  1
  H+  H224  1  0.13143660  0.35746131  0.00511511  1
  H+  H225  1  0.23011864  0.55749242  0.61608741  1
  H+  H226  1  0.38086919  0.36309355  0.00018983  1
  H+  H227  1  0.92761843  0.59944810  0.27126302  1
  H+  H228  1  -0.01543517  0.86882053  -0.01052240  1
  H+  H229  1  0.02241452  0.62752813  0.83299216  1
  H+  H230  1  0.70243179  0.62003841  0.50183587  1
  H+  H231  1  0.59943327  0.97098823  0.59718205  1
  H+  H232  1  0.09994496  0.47005659  0.48785370  1
  H+  H233  1  0.47529024  0.11378270  0.84505963  1
  H+  H234  1  0.08007899  0.66819453  0.40417128  1
  H+  H235  1  0.63369638  0.26415890  0.50815633  1
  H+  H236  1  0.13592434  0.77364689  0.50762408  1
  H+  H237  1  0.51676970  0.63061523  0.32973727  1
  H+  H238  1  0.61314464  0.61586005  0.16994908  1
  H+  H239  1  0.37029438  0.52289980  0.17400004  1
  H+  H240  1  0.63550716  1.02035545  0.17332229  1
  H+  H241  1  0.86714217  0.63890225  0.82899760  1
  H+  H242  1  0.75678981  0.87477636  0.48421089  1
  H+  H243  1  0.35339391  0.50412460  0.67900657  1
  H+  H244  1  0.91847348  0.58597558  0.90590985  1
  H+  H245  1  0.22935369  0.86831602  0.32888435  1
  H+  H246  1  0.87001699  0.11434823  0.47981454  1
  H+  H247  1  0.15578549  0.32350874  0.90973966  1
  H+  H248  1  0.76439511  0.87142939  1.00718592  1
  H+  H249  1  0.14528492  0.50823185  0.65533987  1
  H+  H250  1  0.64003838  0.51549780  0.33008744  1
  H+  H251  1  0.39034442  0.36582238  0.32944792  1
  H+  H252  1  0.10632108  0.22544247  0.16552242  1
  H+  H253  1  0.92013868  0.84438043  0.26552911  1
  H+  H254  1  0.13479986  0.35808175  0.50397953  1
  H+  H255  1  0.60745226  0.34974050  0.32406816  1
  H+  H256  1  0.13563098  0.61242974  0.99722724  1
  H+  H257  1  0.85561026  0.22688522  1.00521579  1
  H+  H258  1  1.01968602  0.39402704  0.81813972  1
  H+  H259  1  0.53094881  0.88719144  0.16136785  1
  H+  H260  1  0.86822368  0.72914268  0.82560590  1
  H+  H261  1  0.33633038  0.62686819  0.16796557  1
  H+  H262  1  0.72415425  0.86065687  0.32292809  1
  H+  H263  1  0.88138843  0.00725290  0.50181643  1
  H+  H264  1  0.63609706  0.77127562  0.83835799  1
  H+  H265  1  0.42010494  0.87235092  0.70346163  1
  H+  H266  1  0.36524107  0.98500871  0.17770943  1
  H+  H267  1  0.10404905  0.22140437  0.65657046  1
  H+  H268  1  0.35524836  0.47231650  0.83424394  1
  H+  H269  1  0.60715398  0.47007771  0.49061761  1
  H+  H270  1  0.28161131  0.12527470  0.50017843  1
  H+  H271  1  0.47325707  0.85745418  0.32614776  1
  H+  H272  1  0.61648821  0.39647679  0.15943869  1
  H+  H273  1  0.45571436  0.61496555  0.17393134  1
  H+  H274  1  0.76545848  0.39418636  0.32448965  1
  H+  H275  1  0.26549529  0.38185880  0.01224942  1
  H+  H276  1  0.88638565  0.61655360  0.48339315  1
  H+  H277  1  0.36031418  0.88731913  0.49295661  1
  H+  H278  1  0.11431026  0.97641982  0.00812742  1
  H+  H279  1  0.82674452  0.71544899  0.05618374  1
  H+  H280  1  0.47734397  0.37557799  0.17357203  1
  H+  H281  1  0.63868911  0.09953486  0.32871108  1
  H+  H282  1  0.86384878  0.11634842  0.32988589  1
  H+  H283  1  0.47101625  0.36424732  0.00051825  1
  H+  H284  1  0.14495858  0.11305928  0.51363268  1
  H+  H285  1  0.36268132  0.20567445  0.47100837  1
  H+  H286  1  0.13963185  0.02906177  0.84682760  1
  H+  H287  1  0.37974200  0.15135335  0.17452202  1
  H+  H288  1  0.27508669  0.39061194  0.34735645  1
  H+  H289  1  0.32622710  0.91514303  0.06720586  1
  H+  H290  1  0.92215983  0.32822701  0.89536408  1
  H+  H291  1  0.36792033  0.98541189  0.32909413  1
  H+  H292  1  0.93539697  0.86160679  0.57538682  1
  H+  H293  1  0.15792578  0.57582391  0.55484975  1
  H+  H294  1  0.07613864  0.41877509  0.39562673  1
  H+  H295  1  0.42550825  0.09783994  0.94386845  1
  H+  H296  1  0.65484370  0.82285632  0.94062325  1
  H+  H297  1  0.36811037  0.76601237  0.16071148  1
  H+  H298  1  0.12440064  0.51350400  0.33710122  1
  H+  H299  1  0.40404892  0.27707543  0.56355679  1
  H+  H300  1  0.32033435  0.65876214  0.06753791  1
  H+  H301  1  0.61334040  0.08186649  0.52408183  1
  H+  H302  1  0.36947845  0.23111592  0.83834364  1
  H+  H303  1  0.33826319  0.85724160  0.67112001  1
  H+  H304  1  0.07995073  0.91147318  0.10035099  1
  H+  H305  1  0.19083592  0.64109471  0.16346329  1
  H+  H306  1  0.64834156  0.57747837  0.56140025  1
  H+  H307  1  0.16021246  0.03331885  0.66589121  1
  H+  H308  1  0.08797730  0.16743471  0.39848792  1
  H+  H309  1  0.66635488  0.33131821  0.56435273  1
  H+  H310  1  0.58275305  0.41416066  0.39772158  1
  H+  H311  1  0.56401932  0.66327811  0.10122970  1
  H+  H312  1  0.33771687  0.67664532  0.77628320  1
  H+  H313  1  0.96400630  0.43339427  0.94978825  1
  H+  H314  1  0.84109429  0.42617838  0.10783014  1
  H+  H315  1  0.52585313  0.12194625  0.33278928  1
  H+  H316  1  0.41172018  0.83227905  0.26904400  1
  H+  H317  1  0.16589622  0.33372579  0.60114381  1
  H+  H318  1  0.57803254  0.16872916  0.11370220  1
  H+  H319  1  0.81312958  0.42137537  0.38827946  1
  H+  H320  1  0.67081757  0.58553093  0.94372391  1
  H+  H321  1  0.60254438  0.71730057  0.00820421  1
  H+  H322  1  0.89289188  0.86613963  0.66331935  1
  H+  H323  1  0.08246856  0.42448925  0.72972730  1
  H+  H324  1  0.66429366  0.33985226  0.22816594  1
  H+  H325  1  0.16987319  0.08315066  0.94420441  1
  H+  H326  1  0.98204279  0.60827905  0.67024952  1
  H+  H327  1  0.72600825  0.85928426  0.83876651  1
  H+  H328  1  0.35292853  0.62984894  0.49010793  1
  H+  H329  1  0.66196347  0.09793868  0.92398832  1
  H+  H330  1  0.83072082  0.91370012  0.10066919  1
  H+  H331  1  0.63545553  0.58361162  0.23111707  1
  H+  H332  1  0.92066336  0.83756282  0.89309649  1
  H+  H333  1  1.01932682  0.39805340  0.33329182  1
  H+  H334  1  0.40233766  0.57831858  0.26880929  1
  H+  H335  1  0.59667008  0.42911811  0.77948514  1
  H+  H336  1  0.57757249  0.67694057  0.72190125  1
  H+  H337  1  1.01827818  0.37994507  0.16067011  1
  H+  H338  1  0.82790603  0.41248693  0.77964341  1
  H+  H339  1  0.82700680  0.91487758  0.39015947  1
  H+  H340  1  0.13227461  0.72703495  0.69192014  1
  H+  H341  1  0.22930133  0.86322766  0.50640438  1
  H+  H342  1  0.08198335  0.64955627  0.77353315  1
  H+  H343  1  0.83757065  0.17273160  0.73196367  1
  H+  H344  1  0.42919804  0.62574326  0.58240038  1
  H+  H345  1  0.63461660  0.76984802  0.32222447  1
  H+  H346  1  0.80787399  0.61720850  0.10835445  1
  H+  H347  1  0.16532679  0.83336939  0.23439497  1
  H+  H348  1  0.16422556  0.82962355  0.93163647  1
  H+  H349  1  0.32823655  0.41947460  0.10304022  1
  H+  H350  1  0.66377442  0.82957292  0.22933549  1
  H+  H351  1  0.44090308  0.26890425  0.56829072  1
  H+  H352  1  0.78397788  0.65098866  0.35088553  1
  H+  H353  1  0.83435268  0.14330785  0.39858565  1
  H+  H354  1  0.42180461  0.34825129  0.26474601  1
  H+  H355  1  0.18089649  0.09073653  0.57523591  1
  H+  H356  1  0.91991431  0.31545110  0.56669841  1
  H+  H357  1  0.40775364  0.82507247  0.56278676  1
  H+  H358  1  0.34917555  0.17505381  0.11224167  1
  H+  H359  1  0.90911193  0.06931007  0.56103345  1
  H+  H360  1  0.41273981  0.58377163  0.90289013  1
  H+  H361  1  0.39662182  0.77659972  0.99805409  1
  H+  H362  1  0.23048941  0.11610217  0.85137683  1
  H+  H363  1  0.82497826  0.16513277  0.10237433  1
  H+  H364  1  0.58730266  0.90876389  0.09855651  1
  H+  H365  1  0.41732017  0.33562105  0.90854107  1
  H+  H366  1  0.65660855  0.82483038  0.55555451  1
  H+  H367  1  0.89513847  0.60791376  0.18045342  1
  H+  H368  1  0.56219995  0.26734250  0.28376264  1
  H+  H369  1  0.33330529  0.42110389  0.40735622  1
  H+  H370  1  0.23088223  0.61453305  0.84748057  1
  H+  H371  1  0.71328652  0.57087080  0.28314059  1
  H+  H372  1  0.29291326  0.36869754  0.75289685  1
  H+  H373  1  0.72633048  0.61803131  0.65499914  1
  H+  H374  1  0.33631092  0.92935479  0.43833729  1
  H+  H375  1  0.16593644  0.57983180  0.93883671  1
  H+  H376  1  0.08495207  0.94065306  0.76521411  1
  H+  H377  1  0.58050597  0.41955155  0.06801196  1
  H+  H378  1  0.93664492  0.54662596  0.58262553  1
  H+  H379  1  0.66586165  0.07090389  0.26729455  1
  H+  H380  1  0.58864895  0.91342130  0.77012843  1
  H+  H381  1  0.89301588  0.38101287  0.32141764  1
  H+  H382  1  0.57780768  0.15040042  0.44185395  1
  H+  H383  1  0.55837710  0.59118491  0.79127372  1
  O2-  O384  1  0.07230975  0.16565599  0.14953353  1
  O2-  O385  1  0.09270595  0.16444827  0.48229399  1
  O2-  O386  1  0.07135309  0.15500054  0.82438066  1
  O2-  O387  1  0.07726002  0.41071789  0.14345750  1
  O2-  O388  1  0.07231372  0.40977910  0.47222203  1
  O2-  O389  1  0.07072716  0.43558176  0.79491009  1
  O2-  O390  1  0.10648500  0.67249538  0.14550843  1
  O2-  O391  1  0.08306608  0.66909091  0.48270775  1
  O2-  O392  1  0.08313734  0.65326658  0.81849480  1
  O2-  O393  1  0.07829643  0.91270271  0.14560537  1
  O2-  O394  1  0.10270583  0.91907163  0.49595553  1
  O2-  O395  1  0.08391613  0.93779635  0.80983862  1
  O2-  O396  1  0.36199657  0.18960591  0.15605183  1
  O2-  O397  1  0.33977933  0.14507712  0.48421464  1
  O2-  O398  1  0.34005533  0.16974781  0.82486315  1
  O2-  O399  1  0.32850102  0.42221542  0.14868686  1
  O2-  O400  1  0.32453487  0.42109316  0.48590768  1
  O2-  O401  1  0.32489114  0.41028199  0.82423420  1
  O2-  O402  1  0.30798174  0.65946905  0.15124847  1
  O2-  O403  1  0.32367433  0.66475327  0.47798727  1
  O2-  O404  1  0.33690869  0.67384651  0.82158207  1
  O2-  O405  1  0.33220767  0.93016205  0.15545620  1
  O2-  O406  1  0.33172749  0.92076224  0.48313290  1
  O2-  O407  1  0.34219641  0.92189163  0.81613374  1
  O2-  O408  1  0.58291589  0.17008642  0.15925664  1
  O2-  O409  1  0.58254597  0.15782172  0.48646442  1
  O2-  O410  1  0.58021448  0.17063319  0.81194343  1
  O2-  O411  1  0.58223818  0.42253228  0.14448293  1
  O2-  O412  1  0.58290812  0.41178138  0.47215290  1
  O2-  O413  1  0.59117690  0.42485410  0.82476235  1
  O2-  O414  1  0.56193908  0.66436128  0.14686266  1
  O2-  O415  1  0.56825232  0.66327064  0.46856904  1
  O2-  O416  1  0.56499950  0.64473352  0.80740325  1
  O2-  O417  1  0.59077473  0.91784368  0.14708046  1
  O2-  O418  1  0.56610103  0.88956698  0.47092034  1
  O2-  O419  1  0.59077336  0.91805081  0.81430271  1
  O2-  O420  1  0.82562964  0.16395361  0.14754696  1
  O2-  O421  1  0.84057348  0.14410946  0.46191050  1
  O2-  O422  1  0.83324801  0.16413747  0.80377615  1
  O2-  O423  1  0.84251556  0.42357789  0.15316126  1
  O2-  O424  1  0.81863989  0.41149530  0.46570235  1
  O2-  O425  1  0.83171105  0.41306146  0.82487726  1
  O2-  O426  1  0.80410384  0.60702860  0.15229629  1
  O2-  O427  1  0.79623271  0.71013928  0.47768976  1
  O2-  O428  1  0.83616284  0.66720362  0.81176069  1
  O2-  O429  1  0.83232853  0.91991632  0.14592865  1
  O2-  O430  1  0.81804687  0.90551319  0.47054421  1
  O2-  O431  1  0.82323354  0.90722318  0.81269709  1
  O2-  O432  1  0.14581542  0.08104043  0.18400360  1
  O2-  O433  1  0.17233032  0.08074184  0.53043130  1
  O2-  O434  1  0.17136541  0.08633754  0.86813739  1
  O2-  O435  1  0.16266216  0.33180538  0.19015009  1
  O2-  O436  1  0.16641597  0.33091559  0.52078652  1
  O2-  O437  1  0.15207497  0.32128196  0.86475049  1
  O2-  O438  1  0.22534840  0.61861237  0.18394138  1
  O2-  O439  1  0.15840247  0.57735564  0.50983944  1
  O2-  O440  1  0.17057912  0.57987148  0.86232422  1
  O2-  O441  1  0.16545946  0.83289897  0.18895610  1
  O2-  O442  1  0.16870224  0.83444091  0.52277624  1
  O2-  O443  1  0.17359079  0.82523370  0.84538537  1
  O2-  O444  1  0.42588890  0.08889710  0.21754771  1
  O2-  O445  1  0.42957145  0.08983220  0.54010542  1
  O2-  O446  1  0.41611003  0.08133374  0.86180012  1
  O2-  O447  1  0.41782155  0.34685530  0.19008637  1
  O2-  O448  1  0.40498983  0.31216944  0.44816639  1
  O2-  O449  1  0.41851267  0.33683777  0.86280230  1
  O2-  O450  1  0.39578654  0.58338441  0.19026705  1
  O2-  O451  1  0.39807027  0.58027613  0.50985135  1
  O2-  O452  1  0.41382237  0.58473448  0.85708442  1
  O2-  O453  1  0.40734697  0.82977596  0.15659618  1
  O2-  O454  1  0.41046783  0.82451396  0.51834495  1
  O2-  O455  1  0.42395669  0.84005019  0.86190203  1
  O2-  O456  1  0.66360914  0.07949394  0.19183977  1
  O2-  O457  1  0.64009588  0.05618872  0.54953288  1
  O2-  O458  1  0.66713946  0.09076081  0.84817888  1
  O2-  O459  1  0.67162671  0.34301448  0.18338494  1
  O2-  O460  1  0.66521631  0.32700933  0.51905646  1
  O2-  O461  1  0.66521701  0.33083516  0.86237208  1
  O2-  O462  1  0.64316872  0.58523376  0.18692345  1
  O2-  O463  1  0.64395547  0.57579747  0.51617416  1
  O2-  O464  1  0.68130532  0.59546772  0.86553852  1
  O2-  O465  1  0.66338426  0.82789663  0.18409314  1
  O2-  O466  1  0.65108667  0.82303283  0.50963987  1
  O2-  O467  1  0.66407977  0.83008233  0.85415447  1
  O2-  O468  1  0.91113706  0.08499395  0.18690371  1
  O2-  O469  1  0.91896222  0.06747550  0.51631094  1
  O2-  O470  1  0.90550793  0.06247109  0.84834410  1
  O2-  O471  1  0.91356420  0.32927062  0.19052450  1
  O2-  O472  1  0.90163400  0.29863899  0.52331793  1
  O2-  O473  1  0.91433306  0.32410166  0.85076422  1
  O2-  O474  1  0.93542212  0.58957805  0.19635545  1
  O2-  O475  1  0.95376184  0.52300166  0.54762289  1
  O2-  O476  1  0.91791665  0.58340710  0.86058758  1
  O2-  O477  1  0.91723519  0.83981671  0.19460711  1
  O2-  O478  1  0.94550370  0.88151113  0.53120843  1
  O2-  O479  1  0.91499941  0.83187851  0.84793121  1
  O2-  O480  1  0.18403903  0.09472398  0.30622596  1
  O2-  O481  1  0.19620766  0.09559410  0.65432377  1
  O2-  O482  1  0.16802047  0.07998862  0.98996920  1
  O2-  O483  1  0.17014901  0.34012275  0.31586404  1
  O2-  O484  1  0.15467556  0.32658314  0.64591839  1
  O2-  O485  1  0.16422262  0.32946893  0.99105960  1
  O2-  O486  1  0.15852757  0.58148457  0.32446285  1
  O2-  O487  1  0.18572936  0.56651088  0.63437128  1
  O2-  O488  1  0.16603462  0.58108946  0.98451950  1
  O2-  O489  1  0.16950479  0.83660444  0.31322055  1
  O2-  O490  1  0.18093858  0.83796924  0.71479775  1
  O2-  O491  1  0.15988994  0.82746215  0.97662924  1
  O2-  O492  1  0.42881340  0.08994274  0.28519669  1
  O2-  O493  1  0.46820340  0.11121900  0.66293596  1
  O2-  O494  1  0.43273208  0.10660795  0.98837019  1
  O2-  O495  1  0.42491224  0.34287101  0.31034530  1
  O2-  O496  1  0.43058688  0.33598347  0.67796362  1
  O2-  O497  1  0.41083696  0.33219176  0.98509296  1
  O2-  O498  1  0.40936069  0.58250850  0.31413885  1
  O2-  O499  1  0.45524741  0.66430230  0.61817742  1
  O2-  O500  1  0.40782911  0.57785749  0.97931083  1
  O2-  O501  1  0.41149158  0.83021217  0.31341972  1
  O2-  O502  1  0.38726471  0.84570402  0.66655301  1
  O2-  O503  1  0.42895884  0.83792826  0.98577442  1
  O2-  O504  1  0.66746478  0.06780976  0.31330758  1
  O2-  O505  1  0.66156936  0.10790667  0.67453853  1
  O2-  O506  1  0.65977365  0.09910728  0.96988772  1
  O2-  O507  1  0.61792775  0.30550332  0.30247185  1
  O2-  O508  1  0.66745905  0.33984963  0.64534004  1
  O2-  O509  1  0.66565436  0.33939494  0.98571549  1
  O2-  O510  1  0.67605184  0.57619581  0.31308071  1
  O2-  O511  1  0.66502941  0.58621014  0.64227027  1
  O2-  O512  1  0.66648974  0.58386805  0.98897624  1
  O2-  O513  1  0.66222826  0.83135048  0.30971219  1
  O2-  O514  1  0.67217828  0.84075602  0.62991933  1
  O2-  O515  1  0.65584737  0.81748403  0.98526871  1
  O2-  O516  1  0.91850013  0.08147690  0.30745867  1
  O2-  O517  1  0.90426231  0.07736068  0.63918074  1
  O2-  O518  1  0.91677355  0.08130638  1.00958038  1
  O2-  O519  1  0.92650278  0.35291160  0.31153317  1
  O2-  O520  1  0.93878073  0.37273857  0.63257741  1
  O2-  O521  1  0.94072499  0.37916545  0.97182045  1
  O2-  O522  1  0.92230558  0.59955364  0.31708770  1
  O2-  O523  1  0.92242583  0.57862766  0.65435299  1
  O2-  O524  1  0.91907780  0.59016673  0.98703757  1
  O2-  O525  1  0.92110499  0.84909152  0.31215684  1
  O2-  O526  1  0.92664582  0.83991097  0.64661278  1
  O2-  O527  1  0.92418337  0.83888242  0.97182594  1
  O2-  O528  1  0.08617149  0.16494239  0.02763952  1
  O2-  O529  1  0.08969100  0.17288076  0.35351118  1
  O2-  O530  1  0.07649162  0.15662981  0.65465125  1
  O2-  O531  1  0.08018299  0.41444711  0.02691478  1
  O2-  O532  1  0.08163657  0.42739789  0.35038903  1
  O2-  O533  1  0.08609151  0.41968112  0.68278970  1
  O2-  O534  1  0.08331760  0.66605692  0.02265219  1
  O2-  O535  1  0.08434442  0.66699780  0.35883826  1
  O2-  O536  1  0.09612238  0.66328434  0.69189686  1
  O2-  O537  1  0.08036857  0.91374354  0.01996869  1
  O2-  O538  1  0.09412375  0.93599871  0.34635360  1
  O2-  O539  1  0.09721469  0.93007338  0.68129005  1
  O2-  O540  1  0.33274892  0.16782908  0.03322052  1
  O2-  O541  1  0.35429470  0.16612248  0.32197737  1
  O2-  O542  1  0.35884242  0.17008263  0.70094956  1
  O2-  O543  1  0.32758158  0.41357849  0.02593360  1
  O2-  O544  1  0.33592314  0.42154748  0.36167141  1
  O2-  O545  1  0.27869936  0.33868686  0.71282905  1
  O2-  O546  1  0.32866676  0.66405810  0.02306915  1
  O2-  O547  1  0.32234757  0.66094798  0.35324160  1
  O2-  O548  1  0.33528924  0.67822793  0.69699821  1
  O2-  O549  1  0.31524153  0.89374776  0.02516010  1
  O2-  O550  1  0.34012355  0.93147044  0.35313849  1
  O2-  O551  1  0.27415878  0.89337928  0.70410549  1
  O2-  O552  1  0.58319939  0.18234555  0.03523933  1
  O2-  O553  1  0.58126315  0.14777018  0.35520693  1
  O2-  O554  1  0.55691328  0.17213585  0.68241732  1
  O2-  O555  1  0.57992759  0.42016567  0.02236662  1
  O2-  O556  1  0.58322872  0.41736755  0.35178590  1
  O2-  O557  1  0.60087052  0.42999136  0.70002882  1
  O2-  O558  1  0.56965585  0.65663070  0.02458323  1
  O2-  O559  1  0.57829654  0.66233744  0.34407119  1
  O2-  O560  1  0.58901940  0.68105394  0.67783415  1
  O2-  O561  1  0.58466048  0.89810354  0.03312473  1
  O2-  O562  1  0.57667940  0.90397981  0.35450979  1
  O2-  O563  1  0.58784192  0.93556568  0.63536252  1
  O2-  O564  1  0.82096644  0.16936694  0.02193566  1
  O2-  O565  1  0.82880571  0.14229499  0.34980164  1
  O2-  O566  1  0.83340994  0.17295433  0.68547452  1
  O2-  O567  1  0.83216494  0.42512252  0.02915050  1
  O2-  O568  1  0.82190525  0.42758818  0.34324528  1
  O2-  O569  1  0.82678512  0.41256851  0.69971439  1
  O2-  O570  1  0.82507158  0.67187858  0.02884052  1
  O2-  O571  1  0.84386407  0.68500232  0.36496146  1
  O2-  O572  1  0.83965402  0.67058284  0.68392233  1
  O2-  O573  1  0.82453612  0.90361210  0.02287661  1
  O2-  O574  1  0.82828743  0.91691788  0.34498861  1
  O2-  O575  1  0.83408575  0.91359957  0.68361898  1
