# generated using pymatgen
data_H2O
_symmetry_space_group_name_H-M   'P 1'
_cell_length_a   17.99417935
_cell_length_b   17.99250197
_cell_length_c   21.99591713
_cell_angle_alpha   90.00656883
_cell_angle_beta   89.99057233
_cell_angle_gamma   119.98078676
_symmetry_Int_Tables_number   1
_chemical_formula_structural   H2O
_chemical_formula_sum   'H384 O192'
_cell_volume   6168.51113849
_cell_formula_units_Z   192
loop_
 _symmetry_equiv_pos_site_id
 _symmetry_equiv_pos_as_xyz
  1  'x, y, z'
loop_
 _atom_type_symbol
 _atom_type_oxidation_number
  H+  1.0
  O2-  -2.0
loop_
 _atom_site_type_symbol
 _atom_site_label
 _atom_site_symmetry_multiplicity
 _atom_site_fract_x
 _atom_site_fract_y
 _atom_site_fract_z
 _atom_site_occupancy
  H+  H0  1  0.78716169  0.38878564  0.68662582  1
  H+  H1  1  0.46889968  0.87147783  0.65333772  1
  H+  H2  1  0.71566852  0.11563412  0.17904601  1
  H+  H3  1  0.43821276  0.96313770  0.04111133  1
  H+  H4  1  0.88541355  0.26847456  0.50849158  1
  H+  H5  1  0.87156773  0.37656190  0.83408654  1
  H+  H6  1  0.24971057  0.87352859  0.82776541  1
  H+  H7  1  0.89483255  0.62812170  0.33144555  1
  H+  H8  1  0.14835590  0.63284074  0.33289238  1
  H+  H9  1  0.84175527  0.66709607  0.74521767  1
  H+  H10  1  0.12854133  0.11755842  0.84207141  1
  H+  H11  1  0.96226585  0.70355348  0.29011183  1
  H+  H12  1  0.13685140  0.88958934  0.48992033  1
  H+  H13  1  0.10958552  0.72102440  0.01329215  1
  H+  H14  1  0.68859043  0.77030756  0.46517862  1
  H+  H15  1  0.10075015  0.72023394  0.69669019  1
  H+  H16  1  0.38481407  0.86126718  0.50141117  1
  H+  H17  1  0.61586040  0.77389154  0.83632513  1
  H+  H18  1  0.35272999  0.62885715  0.49844679  1
  H+  H19  1  0.60594185  0.47742219  0.48950771  1
  H+  H20  1  0.62625615  0.33206448  0.14363927  1
  H+  H21  1  0.52785156  0.88632232  0.99998516  1
  H+  H22  1  0.76403823  0.87281139  0.33288717  1
  H+  H23  1  0.15846049  0.90888917  0.15439694  1
  H+  H24  1  0.61575442  0.12358440  0.48169647  1
  H+  H25  1  0.63375172  0.59851355  0.17315066  1
  H+  H26  1  0.47934087  0.60797874  0.66423752  1
  H+  H27  1  0.11593108  0.34614297  -0.00458691  1
  H+  H28  1  0.63379878  0.87069110  0.16432519  1
  H+  H29  1  0.23177759  0.36145041  0.50412813  1
  H+  H30  1  0.66204655  0.84417975  0.89545288  1
  H+  H31  1  0.61513270  0.64572338  0.68810061  1
  H+  H32  1  0.62149528  0.02106383  0.87904948  1
  H+  H33  1  0.82738959  0.41163062  0.39934119  1
  H+  H34  1  0.85645926  0.46447732  0.33883926  1
  H+  H35  1  0.64862876  0.25656490  0.83984938  1
  H+  H36  1  0.88588395  0.35914909  0.50409051  1
  H+  H37  1  0.35652376  0.34933435  0.16017190  1
  H+  H38  1  0.26374872  0.13931724  0.67421428  1
  H+  H39  1  0.47489530  0.36230588  0.51208542  1
  H+  H40  1  0.85928943  0.87975663  0.00410572  1
  H+  H41  1  0.59431631  0.74552844  0.46802980  1
  H+  H42  1  0.61640903  0.38987434  0.99895238  1
  H+  H43  1  0.88436822  0.60299368  0.99305344  1
  H+  H44  1  0.01574148  0.36204851  0.82907990  1
  H+  H45  1  0.60026582  0.20416988  0.07218147  1
  H+  H46  1  0.11688930  0.36983482  0.67258857  1
  H+  H47  1  0.36503070  0.38416870  0.50253411  1
  H+  H48  1  0.76836284  0.38166008  0.99415077  1
  H+  H49  1  0.87399892  0.77316171  0.67624004  1
  H+  H50  1  0.36813452  0.37954590  0.68340001  1
  H+  H51  1  0.47749694  0.86355728  0.17274217  1
  H+  H52  1  0.88760550  0.51675417  0.17997087  1
  H+  H53  1  0.55325939  0.14618513  0.67620071  1
  H+  H54  1  0.35242309  0.92039610  0.07741307  1
  H+  H55  1  0.25672147  0.40302908  0.33601059  1
  H+  H56  1  0.36228770  0.21136061  0.34082960  1
  H+  H57  1  0.88421671  0.72381775  0.83802312  1
  H+  H58  1  0.27249396  0.87717275  0.16297109  1
  H+  H59  1  0.48051229  0.10794168  0.50332785  1
  H+  H60  1  0.62017508  0.21479168  0.49310712  1
  H+  H61  1  0.87735641  0.52111534  0.67042931  1
  H+  H62  1  0.25334048  0.38091810  0.83000493  1
  H+  H63  1  0.53819329  0.13898865  0.82994298  1
  H+  H64  1  0.76420403  0.59141112  0.85317675  1
  H+  H65  1  0.47820373  0.86157253  0.82862314  1
  H+  H66  1  0.63622803  0.63211220  0.49981308  1
  H+  H67  1  0.49917324  0.63379815  0.32378365  1
  H+  H68  1  0.12967935  0.23236065  0.49007437  1
  H+  H69  1  0.11181545  0.63372126  0.01048042  1
  H+  H70  1  0.46490179  0.60620134  0.50967923  1
  H+  H71  1  0.11341184  -0.01810941  1.00392716  1
  H+  H72  1  0.47248918  0.10757167  0.32829409  1
  H+  H73  1  0.21757144  0.60928817  0.98977659  1
  H+  H74  1  0.77969889  0.14751698  0.66225059  1
  H+  H75  1  0.89366618  0.85734780  0.32635717  1
  H+  H76  1  0.96521361  0.10619526  0.99678956  1
  H+  H77  1  0.13976663  0.34129105  0.31478849  1
  H+  H78  1  0.21372587  0.63938403  0.83385252  1
  H+  H79  1  0.61452285  0.89312348  0.33427811  1
  H+  H80  1  0.77852028  0.62651360  0.99944908  1
  H+  H81  1  0.71745261  0.11668838  0.00700633  1
  H+  H82  1  0.64116951  0.61428729  -0.00912297  1
  H+  H83  1  0.10215523  0.46835268  0.00068420  1
  H+  H84  1  0.62184519  0.12655053  0.83939995  1
  H+  H85  1  0.15585845  0.08364812  0.23709605  1
  H+  H86  1  0.02197722  0.62298799  0.16735377  1
  H+  H87  1  0.60759181  -0.01567975  0.15801245  1
  H+  H88  1  0.31709897  0.94709822  0.64951480  1
  H+  H89  1  0.26567851  0.63124314  0.49739121  1
  H+  H90  1  0.92497954  0.86612907  0.51855603  1
  H+  H91  1  0.23021642  0.62451457  0.17876513  1
  H+  H92  1  0.14557453  0.59452817  0.68704159  1
  H+  H93  1  0.09672577  0.46500217  0.16188232  1
  H+  H94  1  0.36849564  0.22622374  0.49936797  1
  H+  H95  1  0.35772840  0.64332836  0.16193164  1
  H+  H96  1  0.36768840  0.62559256  0.68338558  1
  H+  H97  1  0.90159492  0.06797296  0.56576741  1
  H+  H98  1  0.85660161  1.00468193  0.51030997  1
  H+  H99  1  0.41925930  0.50902506  0.35087282  1
  H+  H100  1  0.10675125  0.63187489  0.50193425  1
  H+  H101  1  0.71917135  0.88031005  0.67175058  1
  H+  H102  1  0.36816224  0.72654923  0.34314610  1
  H+  H103  1  0.38582221  0.85961379  0.32571049  1
  H+  H104  1  0.86897216  0.48029971  -0.00220653  1
  H+  H105  1  0.13062920  0.52092145  0.52697029  1
  H+  H106  1  0.86847157  0.71448528  0.00206904  1
  H+  H107  1  0.12265113  0.01661829  0.66141859  1
  H+  H108  1  0.13805990  0.76283613  0.50620805  1
  H+  H109  1  -0.03168044  0.60984859  0.51413227  1
  H+  H110  1  -0.02367626  0.85999641  0.00264453  1
  H+  H111  1  0.47565680  0.86133796  0.32833261  1
  H+  H112  1  0.14255294  0.50839952  0.66885891  1
  H+  H113  1  0.92086810  0.82954541  0.94230351  1
  H+  H114  1  0.61089678  -0.01829287  1.00556694  1
  H+  H115  1  0.07542940  0.16395939  0.76808233  1
  H+  H116  1  0.61676420  0.46414140  0.68590030  1
  H+  H117  1  0.12585197  0.73875557  0.34920261  1
  H+  H118  1  0.39424229  0.11303538  0.51004352  1
  H+  H119  1  0.60738214  0.45667908  0.15446800  1
  H+  H120  1  0.68318661  0.83731184  0.60530253  1
  H+  H121  1  0.77077048  0.88806083  0.15570604  1
  H+  H122  1  0.75216500  0.11657689  0.84222805  1
  H+  H123  1  0.98852597  0.86210166  0.85109434  1
  H+  H124  1  0.96101243  0.61177171  0.66884883  1
  H+  H125  1  0.14856938  1.02825101  0.50188549  1
  H+  H126  1  0.02520353  0.88787260  0.33358292  1
  H+  H127  1  0.55991964  0.52912995  0.79887724  1
  H+  H128  1  0.63003502  0.87310959  0.82753876  1
  H+  H129  1  0.06994579  0.41345631  0.06149221  1
  H+  H130  1  0.61451900  0.73428719  0.67491288  1
  H+  H131  1  0.14168299  0.86796527  0.32590665  1
  H+  H132  1  0.80961050  0.85900079  0.49471190  1
  H+  H133  1  0.17875273  0.32191751  0.60241106  1
  H+  H134  1  0.85622929  0.63663344  0.50683615  1
  H+  H135  1  0.11631110  0.13048464  0.34107999  1
  H+  H136  1  0.89425449  0.63937903  0.83337429  1
  H+  H137  1  0.53669069  0.66395000  0.00883091  1
  H+  H138  1  0.40121818  0.17298497  0.84674722  1
  H+  H139  1  0.88685253  0.12647951  0.65583212  1
  H+  H140  1  0.65511862  0.46882404  0.83824537  1
  H+  H141  1  0.64397012  0.87618284  0.98515944  1
  H+  H142  1  0.94310614  0.42407097  0.14057634  1
  H+  H143  1  0.35235911  0.62783390  0.00818934  1
  H+  H144  1  0.73220896  0.87160635  0.98174827  1
  H+  H145  1  0.20559500  0.32988512  0.17020739  1
  H+  H146  1  0.90200992  0.37850879  0.66487133  1
  H+  H147  1  0.85884842  -0.03032493  1.00276976  1
  H+  H148  1  0.08315398  0.40562575  0.58082052  1
  H+  H149  1  0.36717212  0.97805127  0.49102831  1
  H+  H150  1  0.09060626  0.88178728  0.69198501  1
  H+  H151  1  0.36327933  0.87938261  0.16569917  1
  H+  H152  1  0.93191731  0.95392295  0.77206046  1
  H+  H153  1  0.27911985  0.88749678  0.48853915  1
  H+  H154  1  0.23392928  0.62308189  0.33140716  1
  H+  H155  1  0.28057276  0.62681659  0.67802624  1
  H+  H156  1  0.87732760  0.26876040  0.00211713  1
  H+  H157  1  1.00016687  0.60495660  0.85278999  1
  H+  H158  1  0.13922022  0.35421251  0.51840741  1
  H+  H159  1  0.09671808  0.12240404  0.15695553  1
  H+  H160  1  0.57495784  0.64235628  0.82609923  1
  H+  H161  1  0.86703157  0.13057293  0.49615995  1
  H+  H162  1  0.01876476  0.37706384  0.52628100  1
  H+  H163  1  0.72063672  0.11730624  0.33397562  1
  H+  H164  1  -0.03237398  0.11200568  0.65992208  1
  H+  H165  1  0.86350731  0.22984360  0.34106532  1
  H+  H166  1  0.26899937  0.16398503  0.83567953  1
  H+  H167  1  0.90042075  0.85882323  0.84378139  1
  H+  H168  1  0.85901068  0.21708367  0.16821285  1
  H+  H169  1  0.62734182  0.10857908  0.33248517  1
  H+  H170  1  0.81145665  0.93776053  0.74135658  1
  H+  H171  1  0.40543385  0.62757509  0.32905226  1
  H+  H172  1  0.97423964  0.60042826  1.00242763  1
  H+  H173  1  0.12953155  0.35528827  0.84164554  1
  H+  H174  1  0.38978553  0.27365975  0.98468412  1
  H+  H175  1  0.65827234  0.31256969  0.27070941  1
  H+  H176  1  0.09665785  0.21272483  0.15264741  1
  H+  H177  1  0.64530818  0.27870846  0.99338176  1
  H+  H178  1  0.85428064  0.63425547  0.68053676  1
  H+  H179  1  0.14186771  1.02992333  0.17524476  1
  H+  H180  1  0.18754626  0.85032264  0.92685809  1
  H+  H181  1  0.36973192  0.89197084  0.66092543  1
  H+  H182  1  0.63129644  0.52006971  0.99561995  1
  H+  H183  1  0.03618192  0.65605414  0.34398079  1
  H+  H184  1  0.25775382  0.12903633  0.15999488  1
  H+  H185  1  0.73953300  0.35041162  0.84167426  1
  H+  H186  1  0.58973845  0.78265626  0.30108991  1
  H+  H187  1  0.94373639  0.33749264  0.27122425  1
  H+  H188  1  0.36503907  0.97309041  0.33523524  1
  H+  H189  1  0.77496224  0.38450052  0.49604431  1
  H+  H190  1  0.23368358  0.35289765  0.66414245  1
  H+  H191  1  0.24234015  0.87974860  0.98658688  1
  H+  H192  1  0.86318523  0.63359788  0.16555972  1
  H+  H193  1  0.15551297  0.59037261  0.93261335  1
  H+  H194  1  0.63791519  0.78162920  0.16538450  1
  H+  H195  1  0.39676809  0.24823815  0.16163064  1
  H+  H196  1  0.37989404  0.26738894  0.66480452  1
  H+  H197  1  0.66304124  0.05870680  0.42516676  1
  H+  H198  1  0.34103732  0.48247039  0.82437621  1
  H+  H199  1  0.93224617  0.57752260  0.90655179  1
  H+  H200  1  0.22152056  0.12164735  0.99275540  1
  H+  H201  1  0.72355536  0.35720503  0.32739395  1
  H+  H202  1  0.20514140  0.34734627  0.00336423  1
  H+  H203  1  0.16071645  0.83105301  0.75634948  1
  H+  H204  1  0.38732685  0.76503608  0.98668148  1
  H+  H205  1  0.77999200  0.13216748  0.48701941  1
  H+  H206  1  0.87526601  0.10118428  0.84485620  1
  H+  H207  1  -0.07308779  0.83794976  0.26411639  1
  H+  H208  1  0.40138973  0.54727579  0.17274747  1
  H+  H209  1  -0.00929445  0.37136635  0.33479297  1
  H+  H210  1  0.10003085  0.50405232  0.35498262  1
  H+  H211  1  0.44166263  0.61409629  0.83416448  1
  H+  H212  1  0.60530360  0.87966869  0.66129562  1
  H+  H213  1  0.85829146  0.76536767  0.51744507  1
  H+  H214  1  0.65867303  0.83770404  0.25127771  1
  H+  H215  1  0.42018698  0.83089845  0.23429806  1
  H+  H216  1  0.12643831  0.90100685  0.82837882  1
  H+  H217  1  0.51280727  0.36476541  0.33890578  1
  H+  H218  1  0.52294732  0.37905716  -0.00756945  1
  H+  H219  1  0.64636953  0.57086075  0.73707879  1
  H+  H220  1  0.80849395  0.14710882  0.77953625  1
  H+  H221  1  0.87334395  0.25181278  0.84640459  1
  H+  H222  1  0.39748693  0.03733828  0.84069067  1
  H+  H223  1  0.62701024  0.50067123  0.32569602  1
  H+  H224  1  0.13572474  0.76971650  0.17802539  1
  H+  H225  1  0.04141914  0.29735917  0.29714996  1
  H+  H226  1  0.10616717  0.22572389  0.00973977  1
  H+  H227  1  0.00249348  0.88457832  0.68402391  1
  H+  H228  1  0.64654882  0.72178105  0.32517725  1
  H+  H229  1  0.10865700  0.22571578  0.82710005  1
  H+  H230  1  0.85444138  0.13357178  0.01134661  1
  H+  H231  1  0.53594575  0.64983271  0.15757865  1
  H+  H232  1  0.35440726  0.13916797  0.00203584  1
  H+  H233  1  0.36138116  0.12283186  0.34439410  1
  H+  H234  1  0.35143215  0.31479213  0.30207320  1
  H+  H235  1  0.04916298  0.88562892  0.49265691  1
  H+  H236  1  0.97162664  0.11605840  0.84348415  1
  H+  H237  1  0.76570476  0.63374063  0.50261803  1
  H+  H238  1  0.37887083  0.77036077  0.50801756  1
  H+  H239  1  0.09065228  0.20603377  0.33570987  1
  H+  H240  1  0.62738248  0.74522734  0.00073829  1
  H+  H241  1  0.90996552  0.31622154  0.90311411  1
  H+  H242  1  0.61688168  0.97765626  0.80416514  1
  H+  H243  1  -0.14017599  0.47528286  0.49803978  1
  H+  H244  1  0.13088647  0.13818111  0.48952601  1
  H+  H245  1  0.36799249  0.46919271  0.67995113  1
  H+  H246  1  0.83138743  0.00070874  0.68510690  1
  H+  H247  1  0.12297498  0.89837192  0.99974004  1
  H+  H248  1  0.43346234  0.42926033  0.35260290  1
  H+  H249  1  0.96194290  0.10293972  0.17248757  1
  H+  H250  1  0.60801988  0.97595031  0.34656731  1
  H+  H251  1  0.35815801  0.42754880  0.44158999  1
  H+  H252  1  0.77236572  0.62668449  0.16789260  1
  H+  H253  1  0.25380466  0.36433687  0.35193624  1
  H+  H254  1  0.13631117  1.02082637  0.32742877  1
  H+  H255  1  0.87742011  0.46935432  0.83796256  1
  H+  H256  1  0.35091664  0.61017860  0.83682913  1
  H+  H257  1  0.47434841  0.35147741  0.66865043  1
  H+  H258  1  0.07558763  0.15638330  0.07441627  1
  H+  H259  1  0.61384077  0.14814386  1.02011513  1
  H+  H260  1  0.39380989  0.03656473  1.00005566  1
  H+  H261  1  0.87419203  1.01489032  0.17168682  1
  H+  H262  1  0.42748003  0.04398295  0.66386523  1
  H+  H263  1  0.65787545  0.27193643  0.67250840  1
  H+  H264  1  0.69122688  0.90003021  0.48925592  1
  H+  H265  1  0.22732989  0.10824611  0.33042859  1
  H+  H266  1  0.60354273  0.36883289  0.34007935  1
  H+  H267  1  0.35265955  0.72913450  0.82243850  1
  H+  H268  1  0.60820365  0.22238944  0.34047981  1
  H+  H269  1  0.33779097  0.41324866  0.19540098  1
  H+  H270  1  0.88844951  0.86129898  0.17434622  1
  H+  H271  1  0.11470325  0.13393494  1.00599695  1
  H+  H272  1  0.63602939  0.36688910  0.83018565  1
  H+  H273  1  0.86401423  0.37926381  0.99953951  1
  H+  H274  1  0.76247981  0.59011415  0.34868814  1
  H+  H275  1  0.62312779  0.37793686  0.68119034  1
  H+  H276  1  0.11000476  0.21769929  0.67499897  1
  H+  H277  1  0.62573463  0.36068765  0.51009786  1
  H+  H278  1  0.39146959  0.85494245  0.98802737  1
  H+  H279  1  0.59948382  0.56008869  0.81679533  1
  H+  H280  1  0.96642935  0.08454017  0.33130420  1
  H+  H281  1  0.08852082  0.64914799  0.65010993  1
  H+  H282  1  0.23151956  0.86675815  0.32719585  1
  H+  H283  1  0.10202704  0.12595552  0.67454431  1
  H+  H284  1  0.96773417  0.35852911  0.99694530  1
  H+  H285  1  0.37669490  0.09842378  0.17785117  1
  H+  H286  1  0.43836601  0.54564881  0.97335292  1
  H+  H287  1  0.64554501  0.11336235  0.66135948  1
  H+  H288  1  0.83117960  0.17890055  0.40333717  1
  H+  H289  1  0.65681902  0.55975497  0.23092804  1
  H+  H290  1  0.12962871  0.30531713  0.21793174  1
  H+  H291  1  0.67618577  0.32948126  0.92922341  1
  H+  H292  1  0.60479222  0.40743679  0.77193096  1
  H+  H293  1  0.08153009  0.66463315  0.44093037  1
  H+  H294  1  0.72653981  0.61369084  0.69351427  1
  H+  H295  1  0.38113480  0.51433572  0.51124095  1
  H+  H296  1  0.32205911  0.66346060  0.76519585  1
  H+  H297  1  0.35037971  0.93540313  0.76250456  1
  H+  H298  1  0.42770736  0.09054401  0.90299459  1
  H+  H299  1  0.41798668  0.33121136  0.57351638  1
  H+  H300  1  0.83130622  0.42149783  0.09682481  1
  H+  H301  1  0.08901426  0.91760024  0.39265594  1
  H+  H302  1  0.42405102  0.29766569  0.91872751  1
  H+  H303  1  0.57681099  0.41056171  0.43392392  1
  H+  H304  1  0.68679428  0.33510065  0.61445964  1
  H+  H305  1  0.58641540  0.28430713  0.55452938  1
  H+  H306  1  0.89060262  0.83302682  0.61950423  1
  H+  H307  1  0.16926622  0.83132503  0.23644332  1
  H+  H308  1  0.41539819  0.57350054  0.60717688  1
  H+  H309  1  0.47721572  0.12853438  1.00161788  1
  H+  H310  1  0.69376010  0.56078578  0.90832871  1
  H+  H311  1  0.08108566  0.44019429  0.40956498  1
  H+  H312  1  0.25961002  0.05595440  0.12821427  1
  H+  H313  1  0.56991762  0.86128960  0.42836931  1
  H+  H314  1  0.59907144  0.67779067  0.10042697  1
  H+  H315  1  0.30808555  0.40161605  0.07595322  1
  H+  H316  1  0.64808894  0.00212632  0.48322649  1
  H+  H317  1  0.81953031  0.63108380  0.40843261  1
  H+  H318  1  0.44962675  0.09262393  0.60044185  1
  H+  H319  1  0.58485907  0.91174629  0.74772061  1
  H+  H320  1  0.08175911  0.92675001  0.77595988  1
  H+  H321  1  0.13004917  0.94012999  0.09405350  1
  H+  H322  1  0.08471235  0.65667903  0.10784638  1
  H+  H323  1  0.57629330  0.16133831  0.39893226  1
  H+  H324  1  0.90857561  0.07898752  0.93656606  1
  H+  H325  1  0.31669271  0.15719596  0.06148692  1
  H+  H326  1  0.10362120  0.64507460  0.78642849  1
  H+  H327  1  0.07816619  0.39494072  0.77128527  1
  H+  H328  1  0.85290475  0.95971910  0.34088266  1
  H+  H329  1  0.13023524  0.62243629  0.17679340  1
  H+  H330  1  0.16766051  0.58979054  0.57806332  1
  H+  H331  1  0.17149890  0.59789098  0.24370723  1
  H+  H332  1  0.85515439  0.12665752  0.16822090  1
  H+  H333  1  0.33999661  0.16550287  0.43951087  1
  H+  H334  1  0.90847882  0.06214599  0.27194674  1
  H+  H335  1  0.65967809  0.08115973  0.59726790  1
  H+  H336  1  0.41128340  0.07723283  0.26888333  1
  H+  H337  1  0.82997673  0.91388375  0.09686651  1
  H+  H338  1  0.13999040  0.03432105  0.84523980  1
  H+  H339  1  0.17897297  0.82765607  0.56214819  1
  H+  H340  1  0.32037003  0.17780715  0.73367170  1
  H+  H341  1  0.77203700  0.37071429  0.15079703  1
  H+  H342  1  0.38531975  0.01596415  0.17986971  1
  H+  H343  1  0.63534832  0.19906887  0.19314012  1
  H+  H344  1  0.09547721  0.16748067  0.42466261  1
  H+  H345  1  0.41393628  0.30932909  0.25452340  1
  H+  H346  1  0.42302379  0.83391966  0.89060229  1
  H+  H347  1  0.21669856  0.85506980  0.69757707  1
  H+  H348  1  0.33639039  0.91482908  0.39486412  1
  H+  H349  1  0.16445915  0.32708790  0.90134659  1
  H+  H350  1  0.61201176  0.97184404  0.66333597  1
  H+  H351  1  0.35798197  0.73127392  0.16089739  1
  H+  H352  1  0.43096463  0.60370176  0.23328976  1
  H+  H353  1  0.91959030  0.34341464  0.60159222  1
  H+  H354  1  0.88644059  0.77238696  0.17762539  1
  H+  H355  1  0.15680659  0.07544747  0.60100373  1
  H+  H356  1  0.32308121  0.41283820  0.76605491  1
  H+  H357  1  0.02839019  0.37652195  0.67224973  1
  H+  H358  1  0.84951044  0.42125769  0.74456898  1
  H+  H359  1  0.61548564  0.68361840  0.39065945  1
  H+  H360  1  0.40889440  0.84174899  0.59315554  1
  H+  H361  1  0.65530792  0.08103534  0.23643797  1
  H+  H362  1  0.86611825  0.23811655  0.67016904  1
  H+  H363  1  0.58233643  0.92472744  0.09772288  1
  H+  H364  1  0.64108087  0.58845674  0.56075784  1
  H+  H365  1  0.79575174  0.88780427  0.42682941  1
  H+  H366  1  0.23647338  0.11767741  0.50723780  1
  H+  H367  1  0.33569033  0.66382497  0.40173530  1
  H+  H368  1  0.32722054  0.45922760  0.01688859  1
  H+  H369  1  0.38700778  0.56805380  0.92630834  1
  H+  H370  1  0.57691119  0.40520697  0.09105775  1
  H+  H371  1  0.15824962  0.09312242  0.93437981  1
  H+  H372  1  0.56280016  0.67971477  0.76454963  1
  H+  H373  1  0.64197018  0.59629928  0.32520162  1
  H+  H374  1  0.60707954  0.16699545  0.73968512  1
  H+  H375  1  0.92430293  0.58831521  0.23458571  1
  H+  H376  1  0.90741744  0.57828027  0.57319834  1
  H+  H377  1  0.32442487  0.66414065  0.06445921  1
  H+  H378  1  0.37792094  0.89984535  0.82026951  1
  H+  H379  1  0.16617087  0.77855316  0.83938672  1
  H+  H380  1  0.89302732  -0.01483305  0.82376364  1
  H+  H381  1  0.48154620  0.34153154  0.16113821  1
  H+  H382  1  0.66170562  0.09484360  0.94577153  1
  H+  H383  1  0.82964784  0.16346920  0.07307981  1
  O2-  O384  1  0.06638709  0.15035381  0.13663417  1
  O2-  O385  1  0.10230402  0.17124590  0.47267680  1
  O2-  O386  1  0.07470927  0.16456551  0.81387789  1
  O2-  O387  1  0.04905613  0.41902439  0.13875962  1
  O2-  O388  1  0.08239235  0.40741615  0.53625858  1
  O2-  O389  1  0.07697193  0.39191847  0.81606683  1
  O2-  O390  1  0.08499647  0.65615192  0.15360395  1
  O2-  O391  1  0.07816381  0.66384613  0.48658271  1
  O2-  O392  1  0.11500247  0.66187253  0.82977194  1
  O2-  O393  1  0.16176713  0.95955714  0.13342329  1
  O2-  O394  1  0.10664082  0.92082487  0.47610018  1
  O2-  O395  1  0.09091563  0.92784716  0.82113261  1
  O2-  O396  1  0.29885784  0.11910058  0.13557513  1
  O2-  O397  1  0.33913108  0.16518836  0.48507294  1
  O2-  O398  1  0.32038051  0.20622065  0.81187694  1
  O2-  O399  1  0.32336565  0.38058986  0.15764882  1
  O2-  O400  1  0.33702040  0.41556213  0.48463745  1
  O2-  O401  1  0.31619261  0.41946119  0.81236597  1
  O2-  O402  1  0.32327691  0.66928052  0.14735014  1
  O2-  O403  1  0.32449277  0.65878482  0.48002921  1
  O2-  O404  1  0.31334444  0.66790169  0.81132317  1
  O2-  O405  1  0.33349914  0.90915464  0.14833974  1
  O2-  O406  1  0.33805835  0.91978025  0.47183808  1
  O2-  O407  1  0.34838695  0.93209779  0.80767777  1
  O2-  O408  1  0.62136836  0.24554682  0.19883269  1
  O2-  O409  1  0.58508707  0.15652259  0.47638165  1
  O2-  O410  1  0.59874898  0.16258861  0.81643751  1
  O2-  O411  1  0.57836759  0.39753730  0.13629947  1
  O2-  O412  1  0.57961871  0.41571160  0.47939283  1
  O2-  O413  1  0.61268580  0.40730067  0.81785240  1
  O2-  O414  1  0.59719893  0.67650221  0.14563457  1
  O2-  O415  1  0.63024067  0.71783507  0.46310245  1
  O2-  O416  1  0.55384841  0.67963188  0.81067621  1
  O2-  O417  1  0.58062384  0.92360062  0.14310276  1
  O2-  O418  1  0.57058218  0.83167114  0.46681000  1
  O2-  O419  1  0.58838666  0.91590840  0.79493821  1
  O2-  O420  1  0.82602287  0.15889254  0.15226186  1
  O2-  O421  1  0.84289368  0.16816647  0.48251192  1
  O2-  O422  1  0.81310072  0.14495624  0.82400733  1
  O2-  O423  1  0.83199273  0.41460388  0.14116852  1
  O2-  O424  1  0.83366326  0.41584683  0.48054818  1
  O2-  O425  1  0.84327395  0.41020549  0.82094841  1
  O2-  O426  1  0.83311807  0.66559264  0.15753026  1
  O2-  O427  1  0.82705138  0.66770976  0.49101347  1
  O2-  O428  1  0.85829592  0.66463032  0.82045126  1
  O2-  O429  1  0.83170894  0.91790232  0.14205499  1
  O2-  O430  1  0.77351595  0.87578952  0.47042642  1
  O2-  O431  1  0.88317206  0.93326637  0.79976280  1
  O2-  O432  1  0.15338309  0.08658280  0.19172242  1
  O2-  O433  1  0.17320122  0.08786765  0.51759377  1
  O2-  O434  1  0.16410181  0.09435004  0.86044396  1
  O2-  O435  1  0.14313657  0.30591789  0.17406660  1
  O2-  O436  1  0.17242832  0.32334810  0.52087247  1
  O2-  O437  1  0.16770590  0.33020540  0.85614221  1
  O2-  O438  1  0.16928241  0.59528427  0.19663809  1
  O2-  O439  1  0.16053758  0.58422624  0.53310217  1
  O2-  O440  1  0.15378089  0.61139098  0.85203618  1
  O2-  O441  1  0.17135858  0.83026714  0.19076062  1
  O2-  O442  1  0.17375190  0.82615798  0.51799393  1
  O2-  O443  1  0.18581468  0.84078614  0.83775884  1
  O2-  O444  1  0.41123991  0.07541707  0.19576561  1
  O2-  O445  1  0.42276870  0.08002856  0.52277812  1
  O2-  O446  1  0.43137098  0.09612373  0.85788971  1
  O2-  O447  1  0.42027704  0.30647987  0.17764746  1
  O2-  O448  1  0.41492817  0.33043550  0.52777779  1
  O2-  O449  1  0.39492630  0.22529303  0.84939130  1
  O2-  O450  1  0.42787226  0.60631677  0.18728314  1
  O2-  O451  1  0.40760448  0.57519240  0.52734266  1
  O2-  O452  1  0.38216953  0.57809581  0.84966882  1
  O2-  O453  1  0.41735338  0.82985654  0.18853704  1
  O2-  O454  1  0.40994497  0.83032453  0.52253469  1
  O2-  O455  1  0.41930123  0.83587357  0.84531069  1
  O2-  O456  1  0.65479042  0.08950262  0.19187583  1
  O2-  O457  1  0.66388654  0.06147232  0.46976301  1
  O2-  O458  1  0.66065681  0.08191365  0.87244482  1
  O2-  O459  1  0.65377527  0.29505714  0.14165929  1
  O2-  O460  1  0.63957503  0.31986843  0.53206474  1
  O2-  O461  1  0.67762326  0.31935556  0.85477805  1
  O2-  O462  1  0.65444638  0.55913458  0.18546853  1
  O2-  O463  1  0.65094698  0.58982574  0.51704601  1
  O2-  O464  1  0.71158958  0.54201577  0.87109086  1
  O2-  O465  1  0.66571904  0.84236188  0.18045218  1
  O2-  O466  1  0.63952278  0.90354837  0.50147505  1
  O2-  O467  1  0.65387351  0.83697387  0.84846400  1
  O2-  O468  1  0.90321567  0.07451487  0.18993773  1
  O2-  O469  1  0.89858614  0.06409067  0.52041569  1
  O2-  O470  1  0.91232819  0.07768142  0.85961218  1
  O2-  O471  1  1.00097406  0.46325790  0.12425979  1
  O2-  O472  1  0.91424837  0.32969440  0.52338114  1
  O2-  O473  1  0.91015294  0.31377069  0.85795174  1
  O2-  O474  1  0.92550759  0.57827154  0.19014623  1
  O2-  O475  1  0.90729894  0.57866101  0.52764797  1
  O2-  O476  1  0.93796189  0.57845078  0.86112706  1
  O2-  O477  1  0.91947200  0.83362004  0.19097576  1
  O2-  O478  1  0.86898678  0.82280563  0.53361516  1
  O2-  O479  1  0.92694730  0.82794047  0.86359587  1
  O2-  O480  1  0.16730685  0.08339699  0.31481180  1
  O2-  O481  1  0.15435851  0.07682467  0.64597709  1
  O2-  O482  1  0.15872492  0.09269500  0.98056931  1
  O2-  O483  1  0.09385167  0.29066429  0.29458437  1
  O2-  O484  1  0.17401535  0.32271745  0.64744662  1
  O2-  O485  1  0.14603385  0.31395585  0.98379238  1
  O2-  O486  1  0.17383643  0.59868935  0.31514699  1
  O2-  O487  1  0.16955178  0.57115797  0.65787787  1
  O2-  O488  1  0.15626176  0.58066189  0.97708939  1
  O2-  O489  1  0.16984166  0.83410870  0.31351599  1
  O2-  O490  1  0.15586663  0.82559934  0.71136235  1
  O2-  O491  1  0.18324180  0.84922034  0.97171306  1
  O2-  O492  1  0.41089246  0.07597251  0.31518924  1
  O2-  O493  1  0.46236541  0.10035436  0.64481177  1
  O2-  O494  1  0.41908401  0.09519020  0.98308791  1
  O2-  O495  1  0.40497787  0.31351612  0.29941908  1
  O2-  O496  1  0.41648827  0.33039755  0.65132499  1
  O2-  O497  1  0.42950522  0.32313228  0.95934372  1
  O2-  O498  1  0.43881474  0.60330936  0.30876317  1
  O2-  O499  1  0.41812401  0.57049395  0.65232720  1
  O2-  O500  1  0.39689162  0.56549585  0.97118760  1
  O2-  O501  1  0.41619267  0.82845951  0.31151304  1
  O2-  O502  1  0.40953360  0.85084516  0.63910725  1
  O2-  O503  1  0.41980753  0.82484534  0.97031255  1
  O2-  O504  1  0.65834355  0.07651248  0.32302441  1
  O2-  O505  1  0.66837929  0.07826042  0.64072698  1
  O2-  O506  1  0.65694438  0.08980100  0.99236288  1
  O2-  O507  1  0.66117060  0.32550081  0.31461281  1
  O2-  O508  1  0.68458719  0.33454066  0.65921785  1
  O2-  O509  1  0.67971903  0.33768562  0.97481110  1
  O2-  O510  1  0.66483170  0.55977515  0.30966437  1
  O2-  O511  1  0.66073167  0.58038233  0.69372673  1
  O2-  O512  1  0.66774803  0.57981238  0.97949037  1
  O2-  O513  1  0.64950019  0.82833125  0.29732000  1
  O2-  O514  1  0.66652550  0.83274240  0.64787446  1
  O2-  O515  1  0.67122704  0.84524551  0.96527379  1
  O2-  O516  1  0.90682105  0.05495139  0.31672445  1
  O2-  O517  1  0.90817287  0.08651829  0.64366963  1
  O2-  O518  1  0.90531356  0.07724137  0.98234981  1
  O2-  O519  1  0.96206496  0.31933795  0.30722477  1
  O2-  O520  1  0.92842674  0.34604533  0.64660544  1
  O2-  O521  1  0.90573240  0.32807262  0.98367788  1
  O2-  O522  1  0.94730244  0.64601578  0.30388357  1
  O2-  O523  1  0.90167395  0.58045584  0.65244077  1
  O2-  O524  1  0.91640526  0.56860339  0.98292942  1
  O2-  O525  1  0.93216921  0.83780651  0.31023894  1
  O2-  O526  1  0.90247735  0.83430906  0.66332543  1
  O2-  O527  1  0.91614109  0.82876342  0.98759254  1
  O2-  O528  1  0.07945339  0.16186827  0.02468515  1
  O2-  O529  1  0.08146702  0.15496719  0.35971397  1
  O2-  O530  1  0.07404646  0.15818659  0.69075694  1
  O2-  O531  1  0.07183712  0.40840616  0.01639642  1
  O2-  O532  1  0.05325141  0.45491753  0.37759898  1
  O2-  O533  1  0.09034513  0.40511389  0.68463938  1
  O2-  O534  1  0.08162491  0.66231296  0.02977840  1
  O2-  O535  1  0.09359219  0.67717498  0.36346119  1
  O2-  O536  1  0.07098723  0.65608171  0.69075009  1
  O2-  O537  1  0.09067685  0.92281186  0.02016396  1
  O2-  O538  1  0.08870448  0.91962897  0.34783997  1
  O2-  O539  1  0.06449105  0.91794092  0.69889017  1
  O2-  O540  1  0.32091567  0.16629765  0.01659824  1
  O2-  O541  1  0.33179313  0.15444526  0.36056459  1
  O2-  O542  1  0.32354283  0.17344122  0.68897867  1
  O2-  O543  1  0.29863682  0.39986548  0.03182771  1
  O2-  O544  1  0.41927475  0.46486110  0.37792869  1
  O2-  O545  1  0.33598876  0.40943335  0.69731092  1
  O2-  O546  1  0.32566260  0.66237379  0.01916179  1
  O2-  O547  1  0.33915648  0.66484500  0.35613043  1
  O2-  O548  1  0.33755067  0.65580570  0.69778366  1
  O2-  O549  1  0.37635239  0.93378569  0.03390925  1
  O2-  O550  1  0.33420281  0.91148634  0.34933922  1
  O2-  O551  1  0.33565230  0.92330776  0.68204381  1
  O2-  O552  1  0.58715563  0.18465867  0.02963113  1
  O2-  O553  1  0.57533773  0.16085331  0.35362157  1
  O2-  O554  1  0.61343468  0.17370251  0.69415146  1
  O2-  O555  1  0.58044635  0.41339348  0.01390654  1
  O2-  O556  1  0.57105616  0.39704865  0.35598660  1
  O2-  O557  1  0.58919820  0.40324412  0.69892854  1
  O2-  O558  1  0.59704206  0.68620575  0.01893168  1
  O2-  O559  1  0.60682548  0.66804688  0.34619060  1
  O2-  O560  1  0.58121184  0.67541457  0.69397012  1
  O2-  O561  1  0.58682894  0.91955031  0.01721883  1
  O2-  O562  1  0.58043101  0.91309427  0.35739953  1
  O2-  O563  1  0.57761937  0.91147984  0.67845478  1
  O2-  O564  1  0.82771775  0.16648003  0.02778073  1
  O2-  O565  1  0.81269067  0.18447764  0.36194430  1
  O2-  O566  1  0.83584284  0.17692067  0.68332733  1
  O2-  O567  1  0.83276926  0.41363168  0.01068329  1
  O2-  O568  1  0.82331259  0.40613692  0.35434421  1
  O2-  O569  1  0.84865245  0.42459119  0.69889435  1
  O2-  O570  1  0.84096928  0.65122423  0.00587454  1
  O2-  O571  1  0.81344724  0.59736332  0.37151325  1
  O2-  O572  1  0.82797024  0.66568784  0.70075010  1
  O2-  O573  1  0.82509308  0.90811814  0.01538827  1
  O2-  O574  1  0.81839597  0.89731231  0.35531060  1
  O2-  O575  1  0.78374577  0.95364986  0.70911323  1
