# generated using pymatgen
data_H2O
_symmetry_space_group_name_H-M   'P 1'
_cell_length_a   17.99867281
_cell_length_b   18.00259526
_cell_length_c   22.01217519
_cell_angle_alpha   89.99334514
_cell_angle_beta   89.97607247
_cell_angle_gamma   120.01817171
_symmetry_Int_Tables_number   1
_chemical_formula_structural   H2O
_chemical_formula_sum   'H384 O192'
_cell_volume   6175.74806523
_cell_formula_units_Z   192
loop_
 _symmetry_equiv_pos_site_id
 _symmetry_equiv_pos_as_xyz
  1  'x, y, z'
loop_
 _atom_type_symbol
 _atom_type_oxidation_number
  H+  1.0
  O2-  -2.0
loop_
 _atom_site_type_symbol
 _atom_site_label
 _atom_site_symmetry_multiplicity
 _atom_site_fract_x
 _atom_site_fract_y
 _atom_site_fract_z
 _atom_site_occupancy
  H+  H0  1  0.12999622  0.87877880  0.85608024  1
  H+  H1  1  0.74280724  0.42495963  0.32055283  1
  H+  H2  1  0.08590720  0.88353268  0.49133919  1
  H+  H3  1  0.58998127  0.46372446  0.00038777  1
  H+  H4  1  0.87673614  0.74037117  0.35171189  1
  H+  H5  1  0.74566125  0.85464603  0.32510897  1
  H+  H6  1  0.63755456  0.26583253  0.50464260  1
  H+  H7  1  0.89134162  0.46386101  0.15283851  1
  H+  H8  1  0.14964445  0.54091008  0.98667968  1
  H+  H9  1  0.53898342  0.11987307  0.49536457  1
  H+  H10  1  0.03871704  0.40729411  0.83160857  1
  H+  H11  1  0.10275443  0.26897256  0.66252299  1
  H+  H12  1  0.43354564  0.77530991  0.53736186  1
  H+  H13  1  0.21711265  0.60471291  0.50688915  1
  H+  H14  1  0.09975923  -0.01557992  0.86098150  1
  H+  H15  1  0.27601015  0.87894965  0.49244552  1
  H+  H16  1  0.76585820  0.62966477  0.49603552  1
  H+  H17  1  0.64489094  0.42080388  0.31959347  1
  H+  H18  1  0.86815458  0.86122761  0.82157151  1
  H+  H19  1  0.39815778  0.57782777  1.04070188  1
  H+  H20  1  0.11642621  0.40481627  -0.01714682  1
  H+  H21  1  0.13035871  0.36535275  0.51437938  1
  H+  H22  1  0.81353742  0.65610168  0.75860557  1
  H+  H23  1  0.90296569  0.12439552  0.83842012  1
  H+  H24  1  0.27428014  0.65302894  0.67699117  1
  H+  H25  1  0.98428163  0.38642786  0.98087220  1
  H+  H26  1  0.22126771  0.10982260  0.33265425  1
  H+  H27  1  0.63704847  0.24639664  0.01770478  1
  H+  H28  1  0.56757063  0.97009643  0.38354395  1
  H+  H29  1  0.12255809  0.39763125  0.34192217  1
  H+  H30  1  0.57718118  0.41882586  0.40092012  1
  H+  H31  1  0.72446262  0.61128358  0.17771354  1
  H+  H32  1  0.53841002  0.14941588  0.67910674  1
  H+  H33  1  0.84156507  0.63028438  0.82029165  1
  H+  H34  1  0.46784776  0.23807702  0.11379808  1
  H+  H35  1  0.11434970  0.65056480  0.67326297  1
  H+  H36  1  0.38198231  0.36111860  0.17562591  1
  H+  H37  1  0.13707446  0.89095677  0.01077691  1
  H+  H38  1  0.74396691  0.12328666  0.84256602  1
  H+  H39  1  0.66646365  0.86918621  0.32405047  1
  H+  H40  1  0.61637956  0.50039301  0.82923345  1
  H+  H41  1  0.87261007  0.90656282  -0.00733707  1
  H+  H42  1  0.78202057  0.65917695  0.34493324  1
  H+  H43  1  0.59786469  0.37291083  0.49074031  1
  H+  H44  1  0.64419853  0.98734798  0.15705533  1
  H+  H45  1  0.88022717  0.36101016  0.64862495  1
  H+  H46  1  0.23397686  0.85768430  0.98540989  1
  H+  H47  1  0.95342674  0.10965677  0.17670871  1
  H+  H48  1  0.50654522  0.86556308  0.51860000  1
  H+  H49  1  0.40167603  0.79925867  0.98847526  1
  H+  H50  1  0.40755892  0.32473367  0.55757978  1
  H+  H51  1  0.37890692  0.12981253  0.83901804  1
  H+  H52  1  0.20902548  0.11960872  0.49986014  1
  H+  H53  1  0.12031104  1.02742649  0.50394222  1
  H+  H54  1  0.86808301  0.49036938  0.34055913  1
  H+  H55  1  0.44236477  0.14100714  0.17762046  1
  H+  H56  1  0.73933414  0.88779692  0.64860341  1
  H+  H57  1  0.64098782  0.86454768  0.00529461  1
  H+  H58  1  0.86520395  0.63852522  0.66849555  1
  H+  H59  1  0.37477616  0.59437798  0.83197398  1
  H+  H60  1  0.03705444  0.88672367  0.15958448  1
  H+  H61  1  0.02255455  0.12900181  0.33510627  1
  H+  H62  1  0.98502573  0.62678064  0.98318513  1
  H+  H63  1  0.12016492  0.38928486  0.68170178  1
  H+  H64  1  0.13489456  0.76804547  0.49340865  1
  H+  H65  1  0.24805252  0.61915152  0.84045315  1
  H+  H66  1  0.34284704  0.71696620  0.47544994  1
  H+  H67  1  0.35023010  0.14018000  0.66730286  1
  H+  H68  1  0.43440862  0.48542452  0.72352424  1
  H+  H69  1  0.37619127  0.79128559  0.84198147  1
  H+  H70  1  0.76398155  0.38603046  0.49324607  1
  H+  H71  1  0.35163381  0.46390459  1.00141701  1
  H+  H72  1  0.49621131  0.11647673  -0.06413126  1
  H+  H73  1  0.83485624  0.90634833  0.40145690  1
  H+  H74  1  0.93179361  0.70906221  0.01338409  1
  H+  H75  1  0.98444708  0.60296692  0.33378470  1
  H+  H76  1  0.10237574  0.25888564  0.31656406  1
  H+  H77  1  0.13236792  1.02229323  0.00607859  1
  H+  H78  1  0.11719357  0.14568024  0.33344238  1
  H+  H79  1  0.64427585  0.62096330  0.65269039  1
  H+  H80  1  0.62212699  -0.01307892  0.83346347  1
  H+  H81  1  0.42802067  0.84917963  0.61159896  1
  H+  H82  1  0.31502047  0.88374537  0.33954237  1
  H+  H83  1  0.88499022  0.09191939  0.33337231  1
  H+  H84  1  0.27351079  -0.10191936  0.66870017  1
  H+  H85  1  0.87494550  1.01514184  0.17267520  1
  H+  H86  1  0.54693665  0.89064402  0.34456973  1
  H+  H87  1  0.64448138  0.28061220  0.65884744  1
  H+  H88  1  0.09593032  0.13735186  0.50627823  1
  H+  H89  1  0.14318977  0.56716318  0.24322124  1
  H+  H90  1  0.11118832  0.72590310  0.35348412  1
  H+  H91  1  0.53702423  0.90523238  0.00422395  1
  H+  H92  1  -0.00484063  0.88001282  0.49831346  1
  H+  H93  1  0.13087748  0.60904815  0.51283486  1
  H+  H94  1  0.95612685  0.40438640  0.35969531  1
  H+  H95  1  0.21512148  0.35045337  0.17253291  1
  H+  H96  1  0.62752138  0.51183798  0.50365250  1
  H+  H97  1  0.10478305  0.47495400  0.50215089  1
  H+  H98  1  0.12947153  0.32153946  0.25669488  1
  H+  H99  1  0.70454479  0.59195740  0.82727075  1
  H+  H100  1  0.14632627  0.62866619  -0.01197770  1
  H+  H101  1  0.52895873  0.90258859  0.83122258  1
  H+  H102  1  0.14934975  0.53887572  0.66927607  1
  H+  H103  1  0.53013560  -0.11134711  0.68259241  1
  H+  H104  1  0.89997052  0.84086996  0.90895438  1
  H+  H105  1  0.64395461  0.16138588  0.83101884  1
  H+  H106  1  0.46627104  0.36094743  0.85403559  1
  H+  H107  1  0.14024073  0.50417551  0.83708895  1
  H+  H108  1  0.83004497  0.38572951  0.33982486  1
  H+  H109  1  0.47694654  0.10054017  0.96694965  1
  H+  H110  1  0.37215595  0.35142541  0.85070432  1
  H+  H111  1  0.65020087  0.86119734  0.17202835  1
  H+  H112  1  0.45333594  0.05832856  0.18208740  1
  H+  H113  1  0.41998559  0.71891872  0.80859317  1
  H+  H114  1  0.59884371  0.62131194  0.81504687  1
  H+  H115  1  0.94510096  0.32119252  0.28294614  1
  H+  H116  1  0.89966565  0.03433895  0.83719951  1
  H+  H117  1  0.33924359  0.41846332  0.73843574  1
  H+  H118  1  0.89286049  0.99736180  0.67490575  1
  H+  H119  1  0.89014059  0.54867829  0.98627846  1
  H+  H120  1  0.17975661  0.29103753  0.81757971  1
  H+  H121  1  0.78473919  0.88072902  0.15216068  1
  H+  H122  1  0.64042920  0.77716973  0.82413234  1
  H+  H123  1  0.92702410  0.57255892  0.27208296  1
  H+  H124  1  0.09809478  0.98015569  0.66835077  1
  H+  H125  1  0.32841704  0.96219894  0.15735988  1
  H+  H126  1  0.25576397  0.13304124  0.03094788  1
  H+  H127  1  0.05485551  0.51234761  0.21030586  1
  H+  H128  1  0.39881907  0.01663090  0.50941443  1
  H+  H129  1  0.61723458  0.91290713  0.45478889  1
  H+  H130  1  0.41400241  0.33239711  0.27362877  1
  H+  H131  1  0.97911846  0.61794671  0.65703139  1
  H+  H132  1  0.55113570  0.90823037  0.16850964  1
  H+  H133  1  0.88279889  0.59459271  0.18510358  1
  H+  H134  1  0.63095856  0.36115601  0.00087720  1
  H+  H135  1  0.27728396  0.62285161  0.14208775  1
  H+  H136  1  0.64621769  0.87679368  0.65966085  1
  H+  H137  1  0.86912068  0.40957517  0.98878241  1
  H+  H138  1  0.66217202  0.33504599  0.93996284  1
  H+  H139  1  0.14823880  0.12592060  0.84458314  1
  H+  H140  1  0.11992615  0.73150724  0.00040581  1
  H+  H141  1  0.33735841  -0.02624628  0.98685255  1
  H+  H142  1  0.76645000  0.57663677  1.04429270  1
  H+  H143  1  0.40369752  0.28413102  0.17546246  1
  H+  H144  1  0.09332366  0.22382345  0.51345677  1
  H+  H145  1  0.63910918  0.38175354  0.16934868  1
  H+  H146  1  0.28160482  0.65899152  -0.00168670  1
  H+  H147  1  0.15790956  0.83785045  0.44389048  1
  H+  H148  1  0.87650103  0.09850567  0.50778504  1
  H+  H149  1  0.39622830  0.03847133  0.66769780  1
  H+  H150  1  0.63226266  0.73571032  0.15409670  1
  H+  H151  1  0.34971321  0.75443594  0.17579301  1
  H+  H152  1  0.88089108  0.52544212  0.50498202  1
  H+  H153  1  0.08424913  0.16807003  0.76416734  1
  H+  H154  1  0.86734340  0.85606910  0.50755096  1
  H+  H155  1  0.77871074  0.40408189  1.00057540  1
  H+  H156  1  0.86636984  -0.00936402  1.00234971  1
  H+  H157  1  0.13533661  0.78120726  0.65389661  1
  H+  H158  1  0.62836963  0.63811482  0.15632832  1
  H+  H159  1  0.66219283  0.13831567  0.65545224  1
  H+  H160  1  0.89724639  0.29582673  0.98094282  1
  H+  H161  1  0.96784561  0.42562256  0.32886008  1
  H+  H162  1  0.61099530  0.36722629  0.84095894  1
  H+  H163  1  0.41824584  0.11321433  0.50573782  1
  H+  H164  1  0.10674488  0.43167884  0.40612919  1
  H+  H165  1  0.88374395  0.52980925  0.83487520  1
  H+  H166  1  0.12164955  0.47597256  0.14609809  1
  H+  H167  1  0.85711548  -0.02612914  0.49150900  1
  H+  H168  1  0.62263799  0.48751236  0.66656080  1
  H+  H169  1  0.96473617  0.10134360  0.51445955  1
  H+  H170  1  0.51974879  0.39750596  0.16256421  1
  H+  H171  1  0.31594188  0.12431493  0.49004853  1
  H+  H172  1  0.89120289  0.21170179  0.33592869  1
  H+  H173  1  0.63272690  0.73993581  0.66129461  1
  H+  H174  1  0.87004788  0.76744378  0.50986222  1
  H+  H175  1  0.20620963  0.11898198  0.65672463  1
  H+  H176  1  0.12094749  0.26508224  0.17011716  1
  H+  H177  1  0.10275712  0.74726661  0.81782512  1
  H+  H178  1  0.86540561  0.24067733  0.48720644  1
  H+  H179  1  0.35734822  0.90375143  0.82591473  1
  H+  H180  1  0.86297203  0.72758361  0.67005549  1
  H+  H181  1  0.73035851  0.61455215  0.65296397  1
  H+  H182  1  0.66181528  0.86760261  0.56357248  1
  H+  H183  1  0.37168059  0.52892191  0.65783819  1
  H+  H184  1  0.51322386  0.62453839  0.81493439  1
  H+  H185  1  0.35383442  0.46547910  0.16273046  1
  H+  H186  1  0.91795756  0.58525306  0.59810260  1
  H+  H187  1  0.04395889  0.86173493  0.03070324  1
  H+  H188  1  0.74568590  0.12615387  0.65897169  1
  H+  H189  1  0.79515839  0.16160333  0.00507078  1
  H+  H190  1  0.88233362  0.23834701  0.82511889  1
  H+  H191  1  0.89468404  0.14734631  0.68269292  1
  H+  H192  1  0.77520714  0.89836370  0.81796307  1
  H+  H193  1  0.59287755  0.91779627  0.73919129  1
  H+  H194  1  0.63079525  0.52633195  0.17175959  1
  H+  H195  1  0.72032534  0.40710389  0.87148756  1
  H+  H196  1  0.40244554  0.88838796  0.98581134  1
  H+  H197  1  0.35147587  0.22744446  0.66212336  1
  H+  H198  1  0.66045837  0.57394938  0.56196111  1
  H+  H199  1  0.76381368  0.89029933  0.48630110  1
  H+  H200  1  0.34789754  0.21553914  0.01927313  1
  H+  H201  1  0.38030002  0.60428871  0.49912065  1
  H+  H202  1  0.39130419  0.60562408  0.17196358  1
  H+  H203  1  0.32111325  0.07948692  0.99577062  1
  H+  H204  1  0.51653116  0.09571941  0.34931323  1
  H+  H205  1  0.58304961  0.16911686  0.17865185  1
  H+  H206  1  0.89450221  0.85255502  0.14350160  1
  H+  H207  1  0.21994038  0.88255926  0.83797482  1
  H+  H208  1  0.47323113  0.60232955  0.32488520  1
  H+  H209  1  1.01578245  0.38707293  0.49159581  1
  H+  H210  1  0.77948086  0.39104221  0.66397531  1
  H+  H211  1  0.64153223  0.25017576  0.83392264  1
  H+  H212  1  0.61058329  0.63788443  0.34041203  1
  H+  H213  1  0.66855816  0.02985035  0.32180602  1
  H+  H214  1  0.13704992  0.85377971  0.18200541  1
  H+  H215  1  0.12552091  0.64400286  0.34291198  1
  H+  H216  1  0.63955160  0.86424061  0.83297168  1
  H+  H217  1  0.36685031  0.61637352  0.33456971  1
  H+  H218  1  0.92412441  0.79200283  0.99656353  1
  H+  H219  1  0.38281610  0.27219405  0.33354682  1
  H+  H220  1  0.41020239  0.56790502  0.23143047  1
  H+  H221  1  0.10972232  0.22471064  0.00941146  1
  H+  H222  1  0.37162927  0.66121948  -0.00270703  1
  H+  H223  1  0.78407285  0.62137413  0.03120353  1
  H+  H224  1  1.03994164  0.15249815  0.82741426  1
  H+  H225  1  0.21694063  0.84687578  0.16416539  1
  H+  H226  1  0.35286205  0.46734272  0.49641274  1
  H+  H227  1  -0.02437895  0.60707834  0.17545264  1
  H+  H228  1  0.87433443  0.22391661  0.67212962  1
  H+  H229  1  0.48209741  0.36707761  0.65159786  1
  H+  H230  1  0.36611815  0.87905493  0.49850306  1
  H+  H231  1  0.66188563  0.12969892  0.00227706  1
  H+  H232  1  0.15219300  0.53371664  0.33433971  1
  H+  H233  1  0.13391324  0.03262880  0.17649712  1
  H+  H234  1  0.77801524  0.14053578  0.49257632  1
  H+  H235  1  0.01826966  0.63268615  0.49717268  1
  H+  H236  1  0.63297628  0.12658028  0.49531546  1
  H+  H237  1  0.59851998  0.62182446  0.49311769  1
  H+  H238  1  0.41435459  0.84435397  0.33374790  1
  H+  H239  1  0.98543053  0.90102701  0.93961448  1
  H+  H240  1  0.85001213  0.23160511  0.15813110  1
  H+  H241  1  0.36714294  0.26084210  0.49889543  1
  H+  H242  1  0.73013005  0.86459427  0.00484679  1
  H+  H243  1  0.60876670  0.63660147  0.99817404  1
  H+  H244  1  0.87112721  0.43290786  1.08458991  1
  H+  H245  1  0.34977859  0.88518327  0.16080369  1
  H+  H246  1  0.86265188  0.71382688  0.16160269  1
  H+  H247  1  0.66545915  0.59049359  0.27076197  1
  H+  H248  1  0.59673751  0.25125779  0.32771231  1
  H+  H249  1  0.09151357  0.13071173  0.16684098  1
  H+  H250  1  0.38343722  0.50997202  0.32893707  1
  H+  H251  1  0.19770634  0.88421893  0.35195688  1
  H+  H252  1  0.96324767  0.35453321  0.62986310  1
  H+  H253  1  0.61781462  0.10509804  0.34361921  1
  H+  H254  1  0.40367462  0.31990736  0.94494098  1
  H+  H255  1  0.51668564  0.39074046  0.34097710  1
  H+  H256  1  0.65694523  0.03856367  0.99858080  1
  H+  H257  1  0.63554734  0.53490221  0.33128365  1
  H+  H258  1  0.36045617  0.38530985  0.34525545  1
  H+  H259  1  0.79000736  0.13831354  0.34684315  1
  H+  H260  1  0.08300230  0.28688383  0.93246237  1
  H+  H261  1  0.38821766  0.78398010  0.66704856  1
  H+  H262  1  0.09928241  0.43191418  0.04839645  1
  H+  H263  1  0.07704263  0.12467273  0.66533327  1
  H+  H264  1  0.12356119  0.10749808  1.00809854  1
  H+  H265  1  0.34944976  0.37667489  0.49387729  1
  H+  H266  1  0.01419157  0.65862055  0.81502180  1
  H+  H267  1  0.10554491  0.89591665  0.66802604  1
  H+  H268  1  0.39925963  0.37473805  0.65671471  1
  H+  H269  1  0.48151153  0.61817468  0.00219960  1
  H+  H270  1  0.60916182  0.72447427  0.34007365  1
  H+  H271  1  0.37209932  0.34639355  0.00368197  1
  H+  H272  1  0.88255068  0.61546608  0.50601553  1
  H+  H273  1  0.04515896  0.41229829  0.70015138  1
  H+  H274  1  0.86819515  0.96392321  0.34056615  1
  H+  H275  1  0.26082629  0.37960450  0.00133213  1
  H+  H276  1  0.01670767  0.14099552  0.00651023  1
  H+  H277  1  0.87231585  0.36364261  0.49273864  1
  H+  H278  1  0.92752782  0.80268653  0.10078957  1
  H+  H279  1  0.78062859  0.37880432  0.81609367  1
  H+  H280  1  0.39357370  0.03393764  0.33401093  1
  H+  H281  1  0.35988409  0.14412229  0.35161938  1
  H+  H282  1  0.32604370  0.41496993  0.40147655  1
  H+  H283  1  0.46999320  0.60419847  0.50398963  1
  H+  H284  1  0.61864192  0.73265512  0.00965330  1
  H+  H285  1  0.38310036  0.71212339  0.33585960  1
  H+  H286  1  0.90619775  0.37796303  0.82781042  1
  H+  H287  1  0.63449667  0.25921852  0.34696811  1
  H+  H288  1  0.63123630  0.19943213  0.11495608  1
  H+  H289  1  0.12798751  0.39090772  0.14136569  1
  H+  H290  1  0.83875477  0.93425884  0.76013299  1
  H+  H291  1  0.83800138  0.41681194  0.75649998  1
  H+  H292  1  0.32432694  0.65098015  0.42288025  1
  H+  H293  1  0.66251294  0.32682721  0.56361723  1
  H+  H294  1  0.32749862  0.44748955  0.83275200  1
  H+  H295  1  0.11021218  0.92277556  0.11119752  1
  H+  H296  1  0.50147023  0.13204091  0.80764497  1
  H+  H297  1  0.16915169  0.09797582  0.90869398  1
  H+  H298  1  0.32151064  0.40449169  0.10410866  1
  H+  H299  1  0.34026556  0.67967462  0.08979348  1
  H+  H300  1  0.83038180  0.67025089  0.43919624  1
  H+  H301  1  0.17525763  0.33976556  0.90710661  1
  H+  H302  1  0.84266874  0.92177480  0.09260988  1
  H+  H303  1  0.23820484  0.62070560  0.32149350  1
  H+  H304  1  0.10080776  0.86242332  0.35745599  1
  H+  H305  1  0.89612546  0.32786262  0.55249295  1
  H+  H306  1  0.16438725  0.84219130  0.59578244  1
  H+  H307  1  0.91111128  0.59394624  0.89236361  1
  H+  H308  1  0.64507073  0.37056845  0.65485107  1
  H+  H309  1  0.42172031  0.82061289  0.26671515  1
  H+  H310  1  0.07910795  0.68562241  0.72745732  1
  H+  H311  1  0.90568516  0.83104788  0.60364272  1
  H+  H312  1  0.01360099  0.89431926  0.84465449  1
  H+  H313  1  0.93272385  0.35285104  0.89086621  1
  H+  H314  1  0.66904611  0.02789309  0.51729831  1
  H+  H315  1  0.68689226  0.39786803  0.25132464  1
  H+  H316  1  0.11037187  0.43561083  0.77535398  1
  H+  H317  1  0.33334032  0.92314371  0.40655253  1
  H+  H318  1  0.69769174  0.58963196  0.97643254  1
  H+  H319  1  0.06246531  0.16020712  0.10705895  1
  H+  H320  1  0.58381417  0.12067390  0.41654136  1
  H+  H321  1  0.60770626  0.18629957  0.73328635  1
  H+  H322  1  0.82025692  0.42251069  0.43262100  1
  H+  H323  1  0.90474555  0.06440012  0.26871564  1
  H+  H324  1  0.81516388  0.10272523  0.19479468  1
  H+  H325  1  0.33906739  0.92621408  0.04984957  1
  H+  H326  1  0.59458358  0.42679388  0.72558354  1
  H+  H327  1  0.32504242  0.92539151  0.76441770  1
  H+  H328  1  0.87082901  0.47938566  0.66477127  1
  H+  H329  1  0.84420109  0.17151916  0.42469355  1
  H+  H330  1  0.34823451  0.67533396  0.75722927  1
  H+  H331  1  0.68795076  0.13521676  0.16049573  1
  H+  H332  1  0.08026087  0.65529142  0.43906764  1
  H+  H333  1  1.00995066  0.28507316  0.29008193  1
  H+  H334  1  0.40191970  0.56711465  0.89247804  1
  H+  H335  1  0.82398811  0.63691213  0.11600303  1
  H+  H336  1  0.14738382  0.08739116  0.59792764  1
  H+  H337  1  0.59481611  0.67739333  0.71834711  1
  H+  H338  1  0.59222490  0.92650687  0.06551476  1
  H+  H339  1  0.57401579  0.42254903  0.09944467  1
  H+  H340  1  0.44619365  0.10105919  0.27993676  1
  H+  H341  1  0.15758965  0.09135675  0.23397390  1
  H+  H342  1  0.87050039  0.89862885  0.67097174  1
  H+  H343  1  0.92185883  0.88229863  0.34383166  1
  H+  H344  1  0.68649753  0.09783777  0.90273265  1
  H+  H345  1  0.36939207  0.17627640  0.10281020  1
  H+  H346  1  0.32852827  0.07097407  0.92498767  1
  H+  H347  1  0.50519085  0.37258614  0.01030474  1
  H+  H348  1  0.14947711  0.33587846  0.60797482  1
  H+  H349  1  0.86504835  0.21816142  0.05668265  1
  H+  H350  1  0.85872107  0.76535488  0.82396435  1
  H+  H351  1  0.63841901  0.56422534  0.91817182  1
  H+  H352  1  0.17002807  0.59040536  0.60662526  1
  H+  H353  1  0.08427903  0.66914343  0.05912261  1
  H+  H354  1  0.57046014  0.65565801  0.43599912  1
  H+  H355  1  0.66762540  0.30983340  0.18192148  1
  H+  H356  1  0.42012547  0.85274059  0.89888038  1
  H+  H357  1  0.41007684  0.04587452  0.80361028  1
  H+  H358  1  0.92335525  0.09558227  0.93136400  1
  H+  H359  1  0.31689524  0.16852680  0.40995867  1
  H+  H360  1  0.18748412  0.59758237  0.89979919  1
  H+  H361  1  0.16887849  0.83441786  0.92911925  1
  H+  H362  1  0.55648409  0.15352779  0.02801085  1
  H+  H363  1  0.03695252  0.90899534  0.40460995  1
  H+  H364  1  0.12590464  0.02601128  0.33056001  1
  H+  H365  1  0.50747164  0.37187917  0.48946814  1
  H+  H366  1  0.36188023  0.89659236  0.67479785  1
  H+  H367  1  0.10708323  0.72068076  0.16157543  1
  H+  H368  1  0.35684056  0.64291573  0.66750856  1
  H+  H369  1  0.28797071  0.12235286  0.85684079  1
  H+  H370  1  0.59864526  0.67102526  0.08971256  1
  H+  H371  1  0.84993702  0.17422387  0.76854708  1
  H+  H372  1  0.21752975  0.36156129  0.51565977  1
  H+  H373  1  0.71779335  0.10109311  0.26926079  1
  H+  H374  1  0.89608469  0.13274366  0.98954297  1
  H+  H375  1  0.53181355  0.33285685  0.79051732  1
  H+  H376  1  0.88447031  0.32261105  0.12680026  1
  H+  H377  1  0.68075154  0.82745109  0.22913908  1
  H+  H378  1  0.69476381  0.10142156  0.57081600  1
  H+  H379  1  0.29457340  0.77428512  0.22097875  1
  H+  H380  1  0.09838519  0.62772318  0.15828674  1
  H+  H381  1  0.39180199  0.57809740  0.59358331  1
  H+  H382  1  0.43259898  0.09155675  0.60763883  1
  H+  H383  1  -0.02887823  0.86403157  0.66061982  1
  O2-  O384  1  0.05869500  0.15979347  0.15207632  1
  O2-  O385  1  0.06010604  0.16422141  0.49847907  1
  O2-  O386  1  0.09805742  0.18051030  0.80805391  1
  O2-  O387  1  0.12346158  0.43543608  0.11705570  1
  O2-  O388  1  0.07834621  0.41620749  0.48399779  1
  O2-  O389  1  0.10344634  0.43765446  0.82152045  1
  O2-  O390  1  0.07469279  0.66259182  0.14136602  1
  O2-  O391  1  0.08013849  0.65963712  0.48451618  1
  O2-  O392  1  0.07288080  0.68980082  0.79813825  1
  O2-  O393  1  0.10066843  0.91983887  0.15616663  1
  O2-  O394  1  0.05414678  0.91197735  0.47822694  1
  O2-  O395  1  0.06596590  0.92132300  0.86983761  1
  O2-  O396  1  0.41548430  0.19989410  0.13616683  1
  O2-  O397  1  0.30551632  0.16784754  0.47294388  1
  O2-  O398  1  0.34446042  0.13566930  0.87250573  1
  O2-  O399  1  0.32336858  0.40335729  0.14888938  1
  O2-  O400  1  0.31759061  0.40680410  0.48209148  1
  O2-  O401  1  0.30059175  0.38717500  0.81650556  1
  O2-  O402  1  0.33556701  0.67023620  0.13529268  1
  O2-  O403  1  0.31830590  0.65566710  0.46826476  1
  O2-  O404  1  0.35952057  0.67570082  0.80374233  1
  O2-  O405  1  0.33380354  0.91935417  0.13379589  1
  O2-  O406  1  0.33973016  0.91210950  0.48344713  1
  O2-  O407  1  0.32623657  0.93184535  0.80964800  1
  O2-  O408  1  0.64076912  0.20093722  0.16009259  1
  O2-  O409  1  0.59695738  0.14869154  0.47481950  1
  O2-  O410  1  0.61949909  0.19478196  0.81196101  1
  O2-  O411  1  0.57950875  0.42675838  0.14495022  1
  O2-  O412  1  0.56959312  0.40459850  0.47580064  1
  O2-  O413  1  0.56626555  0.38303246  0.81583309  1
  O2-  O414  1  0.60357644  0.67435610  0.13678678  1
  O2-  O415  1  0.56560041  0.65015038  0.48078582  1
  O2-  O416  1  0.57304103  0.65590990  0.80070134  1
  O2-  O417  1  0.60581602  0.92425123  0.14919238  1
  O2-  O418  1  0.61617287  0.91680206  0.49970452  1
  O2-  O419  1  0.58954453  0.92634552  0.81892357  1
  O2-  O420  1  0.77729095  0.12807341  0.20482797  1
  O2-  O421  1  0.83943070  0.17657287  0.47443411  1
  O2-  O422  1  0.85006833  0.17662544  0.81427481  1
  O2-  O423  1  0.89197179  0.42280870  0.12362353  1
  O2-  O424  1  0.82460395  0.41815385  0.47777817  1
  O2-  O425  1  0.83998963  0.41638587  0.80215664  1
  O2-  O426  1  0.82664796  0.64892968  0.15957782  1
  O2-  O427  1  0.82827711  0.66460515  0.48512707  1
  O2-  O428  1  0.80553946  0.65372129  0.80395223  1
  O2-  O429  1  0.84492997  0.91501543  0.13790124  1
  O2-  O430  1  0.82415222  0.91174280  0.47470871  1
  O2-  O431  1  0.83769637  0.93150170  0.80576101  1
  O2-  O432  1  0.15201829  0.09203492  0.18909389  1
  O2-  O433  1  0.15092904  0.08580829  0.52111380  1
  O2-  O434  1  0.17009027  0.09089218  0.86408757  1
  O2-  O435  1  0.15337594  0.32718055  0.18237335  1
  O2-  O436  1  0.15882018  0.33631062  0.53402829  1
  O2-  O437  1  0.20966465  0.35187800  0.83303745  1
  O2-  O438  1  0.11552511  0.55053216  0.20133200  1
  O2-  O439  1  0.16104712  0.57862380  0.52842981  1
  O2-  O440  1  0.18827074  0.58827700  0.85457328  1
  O2-  O441  1  0.16559690  0.81887909  0.18995058  1
  O2-  O442  1  0.16683397  0.83232104  0.48825537  1
  O2-  O443  1  0.16167327  0.84608651  0.85594911  1
  O2-  O444  1  0.46848392  0.11223463  0.20245934  1
  O2-  O445  1  0.44004179  0.07725892  0.52190999  1
  O2-  O446  1  0.44125731  0.10807164  0.79472079  1
  O2-  O447  1  0.42108796  0.34127358  0.19272507  1
  O2-  O448  1  0.40578587  0.32361892  0.51243882  1
  O2-  O449  1  0.41248391  0.34387751  0.87638906  1
  O2-  O450  1  0.40905024  0.56519899  0.18592258  1
  O2-  O451  1  0.40743070  0.57451960  0.51849767  1
  O2-  O452  1  0.39583059  0.55649353  0.84870852  1
  O2-  O453  1  0.35236172  0.80075476  0.20359606  1
  O2-  O454  1  0.44359166  0.83263158  0.52776828  1
  O2-  O455  1  0.41442692  0.85133780  0.85308928  1
  O2-  O456  1  0.71056513  0.09412261  0.15737943  1
  O2-  O457  1  0.69207327  0.09057409  0.52279516  1
  O2-  O458  1  0.68352007  0.09575681  0.85747888  1
  O2-  O459  1  0.67962872  0.36869208  0.19156199  1
  O2-  O460  1  0.66069947  0.32567737  0.51775889  1
  O2-  O461  1  0.66933101  0.35046972  0.86864267  1
  O2-  O462  1  0.66181789  0.58732490  0.18746343  1
  O2-  O463  1  0.65985855  0.57307910  0.51643842  1
  O2-  O464  1  0.64357138  0.56051396  0.84329208  1
  O2-  O465  1  0.67719208  0.82650300  0.18358480  1
  O2-  O466  1  0.65590482  0.86501834  0.51662549  1
  O2-  O467  1  0.67399386  0.83595423  0.84002075  1
  O2-  O468  1  0.89300428  0.07199201  0.19183940  1
  O2-  O469  1  0.90003719  0.06269197  0.52070298  1
  O2-  O470  1  0.93265895  0.09391504  0.85442524  1
  O2-  O471  1  0.88326471  0.26679649  0.12361327  1
  O2-  O472  1  0.90155492  0.33092299  0.50713027  1
  O2-  O473  1  0.94056573  0.35323347  0.84504245  1
  O2-  O474  1  0.91911331  0.56952174  0.19588516  1
  O2-  O475  1  0.91434345  0.58551748  0.52009032  1
  O2-  O476  1  0.90468162  0.58989156  0.84702482  1
  O2-  O477  1  0.92299932  0.81689158  0.14388500  1
  O2-  O478  1  0.89962875  0.82858742  0.52436796  1
  O2-  O479  1  0.89292379  0.82577737  0.83784527  1
  O2-  O480  1  0.16279120  0.08384471  0.31389864  1
  O2-  O481  1  0.14465794  0.08863681  0.64342967  1
  O2-  O482  1  0.15994208  0.08352902  0.99402136  1
  O2-  O483  1  0.10338725  0.31178121  0.29815003  1
  O2-  O484  1  0.13973302  0.33089454  0.65342503  1
  O2-  O485  1  0.14176416  0.32525474  0.94610273  1
  O2-  O486  1  0.17544466  0.59271675  0.31329700  1
  O2-  O487  1  0.17234682  0.59724997  0.65187630  1
  O2-  O488  1  0.18226297  0.60307826  0.97387071  1
  O2-  O489  1  0.14094723  0.83982856  0.36594996  1
  O2-  O490  1  0.16801088  0.84303822  0.63998813  1
  O2-  O491  1  0.17158898  0.82925621  0.97486853  1
  O2-  O492  1  0.44106025  0.09331193  0.32499622  1
  O2-  O493  1  0.43063394  0.09824275  0.65176819  1
  O2-  O494  1  0.31473772  0.03699996  0.96474679  1
  O2-  O495  1  0.41681363  0.33326130  0.31872439  1
  O2-  O496  1  0.42165087  0.34003293  0.63774321  1
  O2-  O497  1  0.40279459  0.31599926  0.99121489  1
  O2-  O498  1  0.41294386  0.57029068  0.30942919  1
  O2-  O499  1  0.37745423  0.58004437  0.63726431  1
  O2-  O500  1  0.41654654  0.58607505  0.99823202  1
  O2-  O501  1  0.44655444  0.82602168  0.30824145  1
  O2-  O502  1  0.41939751  0.84658055  0.65588268  1
  O2-  O503  1  0.43577289  0.85898856  0.97297326  1
  O2-  O504  1  0.69367375  0.09138011  0.31171362  1
  O2-  O505  1  0.69461582  0.11424928  0.63462138  1
  O2-  O506  1  0.68913589  0.09913387  0.98341867  1
  O2-  O507  1  0.69771013  0.42926242  0.29440885  1
  O2-  O508  1  0.67436017  0.33944607  0.63943274  1
  O2-  O509  1  0.66603654  0.33576763  0.98682271  1
  O2-  O510  1  0.66864415  0.59476819  0.31564403  1
  O2-  O511  1  0.66897821  0.58347999  0.63933534  1
  O2-  O512  1  0.63798608  0.56732755  0.96420199  1
  O2-  O513  1  0.68559913  0.83131777  0.30753817  1
  O2-  O514  1  0.67882696  0.85544695  0.63424249  1
  O2-  O515  1  0.66676765  0.82717684  1.00245182  1
  O2-  O516  1  0.91047296  0.06041311  0.31378360  1
  O2-  O517  1  0.95849459  0.10731606  0.66943979  1
  O2-  O518  1  0.92135829  0.09636973  0.97705215  1
  O2-  O519  1  0.94562247  0.26765816  0.28680470  1
  O2-  O520  1  0.90078707  0.32330913  0.62873102  1
  O2-  O521  1  0.92468844  0.35587537  0.96391685  1
  O2-  O522  1  0.92497821  0.56999390  0.31756770  1
  O2-  O523  1  0.91756148  0.58267012  0.64360961  1
  O2-  O524  1  0.92487891  0.60893748  0.97100420  1
  O2-  O525  1  0.95801247  0.85546551  0.33290186  1
  O2-  O526  1  0.90786258  0.83053545  0.64889532  1
  O2-  O527  1  0.92449103  0.86415656  0.95109613  1
  O2-  O528  1  0.07537054  0.16698980  0.02643772  1
  O2-  O529  1  0.08244571  0.17245622  0.34471736  1
  O2-  O530  1  0.04969100  0.15575667  0.68574277  1
  O2-  O531  1  0.09144127  0.43638931  0.00278413  1
  O2-  O532  1  0.12348725  0.44698967  0.36310094  1
  O2-  O533  1  0.10668845  0.43507386  0.70415442  1
  O2-  O534  1  0.08811404  0.66935285  0.01400649  1
  O2-  O535  1  0.08788231  0.66417805  0.36185559  1
  O2-  O536  1  0.08185697  0.68086135  0.68109640  1
  O2-  O537  1  0.10242964  0.91257372  0.03247855  1
  O2-  O538  1  0.04362385  0.91301120  0.35845954  1
  O2-  O539  1  0.06936214  0.91925699  0.68208256  1
  O2-  O540  1  0.31808420  0.15980583  0.04204439  1
  O2-  O541  1  0.32457560  0.16999090  0.36049118  1
  O2-  O542  1  0.31464197  0.16687671  0.67419187  1
  O2-  O543  1  0.31845969  0.40561522  0.01880543  1
  O2-  O544  1  0.33289024  0.41924579  0.35648624  1
  O2-  O545  1  0.37943526  0.44742065  0.70419316  1
  O2-  O546  1  0.34295292  0.69151315  0.01386854  1
  O2-  O547  1  0.34117307  0.65354709  0.34895286  1
  O2-  O548  1  0.33626279  0.68032134  0.68929345  1
  O2-  O549  1  0.33877820  0.92088728  0.00538926  1
  O2-  O550  1  0.32554271  0.93405823  0.36284896  1
  O2-  O551  1  0.33204095  0.92848613  0.68690467  1
  O2-  O552  1  0.61693282  0.18858035  0.03895170  1
  O2-  O553  1  0.56709762  0.09073021  0.37101012  1
  O2-  O554  1  0.60142837  0.18232332  0.68800929  1
  O2-  O555  1  0.56746369  0.40864857  0.02279559  1
  O2-  O556  1  0.57817480  0.42695347  0.35543990  1
  O2-  O557  1  0.59380155  0.42535640  0.68093809  1
  O2-  O558  1  0.58425756  0.66749693  0.02092537  1
  O2-  O559  1  0.57554268  0.66425704  0.35387611  1
  O2-  O560  1  0.60448064  0.67913556  0.67407264  1
  O2-  O561  1  0.59677926  0.93173137  0.02081810  1
  O2-  O562  1  0.59337086  0.93641145  0.36943095  1
  O2-  O563  1  0.59067440  0.91186211  0.69432302  1
  O2-  O564  1  0.85804039  0.19806691  0.01301700  1
  O2-  O565  1  0.84852196  0.16141526  0.36474965  1
  O2-  O566  1  0.85255520  0.16798800  0.69239545  1
  O2-  O567  1  0.84167854  0.44052778  0.00727213  1
  O2-  O568  1  0.81692213  0.42809757  0.35629283  1
  O2-  O569  1  0.84051471  0.41732381  0.67835045  1
  O2-  O570  1  0.93848349  0.76311825  0.03011413  1
  O2-  O571  1  0.83757436  0.68178710  0.36611939  1
  O2-  O572  1  0.83135259  0.66528191  0.68275059  1
  O2-  O573  1  0.84118739  0.92980297  0.01608971  1
  O2-  O574  1  0.84177771  0.90295909  0.35598318  1
  O2-  O575  1  0.84701471  0.93653230  0.68304598  1
