# generated using pymatgen
data_H2O
_symmetry_space_group_name_H-M   'P 1'
_cell_length_a   17.99803659
_cell_length_b   17.99890647
_cell_length_c   22.00031524
_cell_angle_alpha   90.00778007
_cell_angle_beta   89.99056993
_cell_angle_gamma   119.99995543
_symmetry_Int_Tables_number   1
_chemical_formula_structural   H2O
_chemical_formula_sum   'H384 O192'
_cell_volume   6172.07186686
_cell_formula_units_Z   192
loop_
 _symmetry_equiv_pos_site_id
 _symmetry_equiv_pos_as_xyz
  1  'x, y, z'
loop_
 _atom_type_symbol
 _atom_type_oxidation_number
  H+  1.0
  O2-  -2.0
loop_
 _atom_site_type_symbol
 _atom_site_label
 _atom_site_symmetry_multiplicity
 _atom_site_fract_x
 _atom_site_fract_y
 _atom_site_fract_z
 _atom_site_occupancy
  H+  H0  1  0.10851504  0.13287523  0.47842521  1
  H+  H1  1  0.77063861  0.13315489  0.87243091  1
  H+  H2  1  0.11235731  0.63232341  0.83654369  1
  H+  H3  1  0.82505457  0.66013123  0.77290115  1
  H+  H4  1  0.38514777  0.51451307  0.84263666  1
  H+  H5  1  0.11874164  0.22999740  0.33622467  1
  H+  H6  1  0.35658166  0.87788799  0.84549721  1
  H+  H7  1  0.38848501  0.36600886  0.16083865  1
  H+  H8  1  0.63892728  0.94052661  0.39346282  1
  H+  H9  1  0.85901402  0.21860873  0.49881467  1
  H+  H10  1  0.03084058  0.64994154  0.49670769  1
  H+  H11  1  0.64221209  0.24103895  0.66267541  1
  H+  H12  1  0.75347960  0.14125640  0.33503552  1
  H+  H13  1  0.83559506  0.17272385  0.06101210  1
  H+  H14  1  0.39243372  0.50830723  0.50469941  1
  H+  H15  1  -0.02275704  0.85569188  0.17467887  1
  H+  H16  1  0.59222072  0.26353990  -0.00567491  1
  H+  H17  1  0.13372405  0.04034414  0.63598560  1
  H+  H18  1  0.87033010  0.73314198  0.49106882  1
  H+  H19  1  0.86358005  0.87403651  0.16049698  1
  H+  H20  1  0.61766676  0.88248674  0.67854932  1
  H+  H21  1  0.11339768  0.14131109  0.83033513  1
  H+  H22  1  0.77677893  0.96364043  0.35628337  1
  H+  H23  1  0.23237542  0.36216288  0.33948803  1
  H+  H24  1  0.34060812  0.92445736  0.22863570  1
  H+  H25  1  0.06569844  0.65307365  0.75324511  1
  H+  H26  1  0.97990048  0.12824504  0.65795932  1
  H+  H27  1  0.84980650  0.48281264  0.00762368  1
  H+  H28  1  0.65145338  0.02449936  0.17389612  1
  H+  H29  1  0.22219112  0.85942870  0.17715706  1
  H+  H30  1  0.65667305  0.86840086  0.30702759  1
  H+  H31  1  0.14825108  0.63232638  0.50854409  1
  H+  H32  1  0.43804561  0.13386275  0.67073713  1
  H+  H33  1  0.10709513  0.14948485  0.66983187  1
  H+  H34  1  0.60167028  0.39202554  0.38645937  1
  H+  H35  1  0.90022893  0.53487273  0.32829274  1
  H+  H36  1  0.75292988  0.84624495  0.51951264  1
  H+  H37  1  0.17057695  0.58434300  0.89664327  1
  H+  H38  1  0.86639022  0.95908249  0.13568895  1
  H+  H39  1  0.41712468  0.08393557  1.00387689  1
  H+  H40  1  0.13029257  0.28716741  0.66647081  1
  H+  H41  1  0.59917104  0.81789399  0.84183230  1
  H+  H42  1  0.11719355  0.98002308  0.32568364  1
  H+  H43  1  0.01848106  0.37766553  0.83186876  1
  H+  H44  1  0.86851548  0.90311476  0.82649246  1
  H+  H45  1  0.45745630  0.09563203  0.33006520  1
  H+  H46  1  0.62058315  0.65326995  0.32990830  1
  H+  H47  1  0.38097721  0.76435181  0.82966559  1
  H+  H48  1  0.64511000  0.62029863  0.50266199  1
  H+  H49  1  0.36864462  0.87489434  0.32709181  1
  H+  H50  1  0.75745164  0.10591302  0.68282815  1
  H+  H51  1  0.27447779  0.39461644  0.83898015  1
  H+  H52  1  -0.01614568  0.12797358  0.83855256  1
  H+  H53  1  0.59658882  0.21542705  0.82927791  1
  H+  H54  1  0.21597853  0.49991618  0.04848235  1
  H+  H55  1  0.54419593  0.10979703  0.99984874  1
  H+  H56  1  0.50482256  0.43013081  0.48901901  1
  H+  H57  1  0.13829522  0.36484646  0.84594204  1
  H+  H58  1  0.39701336  0.28748943  0.85370398  1
  H+  H59  1  0.89026794  0.12301143  0.49952570  1
  H+  H60  1  0.52703330  0.96607953  0.43027285  1
  H+  H61  1  0.77763215  0.89371958  0.51327076  1
  H+  H62  1  0.11754369  0.89052989  0.15999547  1
  H+  H63  1  0.64824391  0.10845207  0.33115265  1
  H+  H64  1  0.85795721  0.38278674  0.15582563  1
  H+  H65  1  0.09746096  0.87706530  0.85347904  1
  H+  H66  1  0.63738743  0.51768678  0.16085324  1
  H+  H67  1  0.39023668  0.83995230  0.98766740  1
  H+  H68  1  0.16561235  0.38774327  0.18367118  1
  H+  H69  1  0.21649242  0.10632083  0.86096049  1
  H+  H70  1  0.50320120  0.59724891  0.97995105  1
  H+  H71  1  0.59545646  0.99283422  0.48357394  1
  H+  H72  1  0.21206891  0.63136597  0.67274509  1
  H+  H73  1  0.64423390  0.14530498  -0.00611026  1
  H+  H74  1  0.28351834  0.39240078  0.16149227  1
  H+  H75  1  0.60167753  0.64311818  0.04884793  1
  H+  H76  1  0.77537239  0.89465291  0.31714066  1
  H+  H77  1  0.33859610  0.91103885  0.38103941  1
  H+  H78  1  0.26702360  0.62393047  0.49682313  1
  H+  H79  1  0.53216244  0.15146465  0.49370162  1
  H+  H80  1  0.77702579  0.88379632  0.96524428  1
  H+  H81  1  0.36550959  0.22986235  0.32490773  1
  H+  H82  1  0.09208180  0.72916751  0.01373639  1
  H+  H83  1  0.23729535  0.61768114  0.98003096  1
  H+  H84  1  0.72908083  0.37831287  0.65926246  1
  H+  H85  1  0.14058504  0.11684536  0.31671628  1
  H+  H86  1  0.60428525  0.95867978  0.84474275  1
  H+  H87  1  0.85096594  0.62641476  0.83154243  1
  H+  H88  1  0.42086599  0.04935378  0.64051194  1
  H+  H89  1  0.91530032  0.33275444  0.26523796  1
  H+  H90  1  0.11934594  0.15248787  0.10331960  1
  H+  H91  1  0.87713290  1.00113590  0.82059335  1
  H+  H92  1  0.85787797  0.49419395  0.66992740  1
  H+  H93  1  0.61119861  0.38599571  0.66435615  1
  H+  H94  1  0.02153410  0.64253624  0.33883693  1
  H+  H95  1  0.37338295  0.39417223  0.00633433  1
  H+  H96  1  0.61386595  0.62791870  0.14426741  1
  H+  H97  1  0.14396027  0.78022674  0.49168363  1
  H+  H98  1  0.13778877  1.03167187  0.48540030  1
  H+  H99  1  0.88082474  0.27491922  0.98985943  1
  H+  H100  1  0.85475813  0.73743141  0.02329662  1
  H+  H101  1  0.88224583  0.10657647  0.65985427  1
  H+  H102  1  -0.03561886  0.61583658  0.66881232  1
  H+  H103  1  0.26466948  0.62482871  0.34252779  1
  H+  H104  1  0.39114231  0.76856272  0.65628538  1
  H+  H105  1  0.72374917  0.10752720  0.50575765  1
  H+  H106  1  0.47261318  0.85225821  0.83298569  1
  H+  H107  1  0.88903009  0.31017184  0.65788417  1
  H+  H108  1  1.02345213  0.89377656  0.32913317  1
  H+  H109  1  0.59443585  0.12676573  0.83550669  1
  H+  H110  1  0.12704340  0.64290212  0.15457242  1
  H+  H111  1  0.63173978  0.61302945  0.84152462  1
  H+  H112  1  0.36568731  0.39546036  0.83580326  1
  H+  H113  1  0.53382361  0.29553940  0.39983784  1
  H+  H114  1  0.86600295  0.63198396  0.15868952  1
  H+  H115  1  0.39473701  0.85567874  0.17249695  1
  H+  H116  1  0.53495345  0.63260136  0.67997257  1
  H+  H117  1  0.88777129  0.40055486  0.34002645  1
  H+  H118  1  0.16900894  0.33474433  0.90557777  1
  H+  H119  1  0.21512817  0.13438969  0.63627207  1
  H+  H120  1  0.12909650  0.51865432  0.33055008  1
  H+  H121  1  0.76082495  0.39571012  0.00780474  1
  H+  H122  1  0.10981862  0.72170314  0.84064137  1
  H+  H123  1  0.72828356  0.84970272  0.15052006  1
  H+  H124  1  0.52538486  0.63941273  0.33375176  1
  H+  H125  1  0.88873130  0.39661793  0.65366967  1
  H+  H126  1  0.47777106  0.36856062  0.30468250  1
  H+  H127  1  0.09308858  0.62805291  0.68834369  1
  H+  H128  1  0.91007961  1.00226857  0.47319664  1
  H+  H129  1  0.89310949  0.03142032  0.29950736  1
  H+  H130  1  0.63896957  0.11552040  0.51006844  1
  H+  H131  1  0.11239910  0.40166449  0.67312091  1
  H+  H132  1  0.67717332  0.00995190  0.33875458  1
  H+  H133  1  0.08553264  0.92531045  0.10268386  1
  H+  H134  1  0.88465961  -0.00878222  0.66834998  1
  H+  H135  1  0.72677384  0.60616539  0.16197398  1
  H+  H136  1  0.23105544  0.11907316  0.31800104  1
  H+  H137  1  0.87799089  0.48630087  0.50095027  1
  H+  H138  1  0.96405014  0.35763134  0.15873993  1
  H+  H139  1  0.00877592  0.89382658  0.02940811  1
  H+  H140  1  0.38224958  0.28392431  0.99093429  1
  H+  H141  1  0.63508719  0.79743479  0.69141723  1
  H+  H142  1  0.52510459  0.14759125  0.14081985  1
  H+  H143  1  0.35917002  0.13741153  0.33254512  1
  H+  H144  1  0.87955563  0.89903601  0.67183582  1
  H+  H145  1  0.63868867  0.49639423  0.36930819  1
  H+  H146  1  0.98944613  0.86588520  0.50218654  1
  H+  H147  1  0.76650227  0.64980748  0.01072558  1
  H+  H148  1  0.89495588  0.52458926  0.84680686  1
  H+  H149  1  0.52500143  0.36273566  0.99903758  1
  H+  H150  1  0.37779931  0.63000119  -0.00249481  1
  H+  H151  1  0.47926933  0.61216104  0.16581091  1
  H+  H152  1  0.77683018  0.13335067  0.16095628  1
  H+  H153  1  0.66832620  0.82170033  0.20923519  1
  H+  H154  1  0.40267033  0.51622601  0.98680820  1
  H+  H155  1  0.35551862  0.94438959  0.00509981  1
  H+  H156  1  0.88102297  0.85805967  1.07370564  1
  H+  H157  1  0.47444292  0.35725238  0.15886598  1
  H+  H158  1  0.20418610  0.85381236  1.00576806  1
  H+  H159  1  0.09958870  0.98122701  0.01529627  1
  H+  H160  1  0.88913276  0.52184218  0.17322766  1
  H+  H161  1  0.39134480  0.13654428  0.48940093  1
  H+  H162  1  0.10682561  0.74757236  0.69154368  1
  H+  H163  1  0.39171051  0.12870067  0.15776942  1
  H+  H164  1  0.89013486  0.12044608  0.84917341  1
  H+  H165  1  0.11500173  0.49162239  0.48879017  1
  H+  H166  1  0.33551991  0.14908689  -0.00977521  1
  H+  H167  1  0.24604098  0.14265182  0.00363627  1
  H+  H168  1  0.11162916  0.64315787  0.33999122  1
  H+  H169  1  0.28208100  0.39023808  0.00324742  1
  H+  H170  1  -0.00061829  0.63467475  0.01323288  1
  H+  H171  1  -0.02396072  0.61553326  0.85239905  1
  H+  H172  1  0.39012957  0.51153548  0.66157504  1
  H+  H173  1  0.39360776  0.76645404  0.16209742  1
  H+  H174  1  0.89310228  0.62136190  0.32610855  1
  H+  H175  1  0.95498567  0.87476390  0.86428770  1
  H+  H176  1  0.35385176  0.60573733  0.49369304  1
  H+  H177  1  0.85713400  0.42828565  0.44254368  1
  H+  H178  1  0.12686074  0.90115012  0.47748645  1
  H+  H179  1  0.71221429  0.27833722  0.31964088  1
  H+  H180  1  0.83907709  0.18479519  0.71139897  1
  H+  H181  1  0.23557992  0.11466335  0.16406076  1
  H+  H182  1  0.36602529  0.13495878  0.85958712  1
  H+  H183  1  0.02670434  0.38717329  0.33552030  1
  H+  H184  1  0.37066647  -0.00680341  0.48277757  1
  H+  H185  1  0.36639678  0.38077707  0.33457364  1
  H+  H186  1  0.91150230  0.87831793  0.49465603  1
  H+  H187  1  0.02765992  0.63518285  0.15895132  1
  H+  H188  1  0.39120276  0.31726590  0.64170752  1
  H+  H189  1  0.28296214  0.90165845  0.47962067  1
  H+  H190  1  0.86764677  0.13666943  0.14841576  1
  H+  H191  1  0.38134234  0.59804327  0.32457639  1
  H+  H192  1  0.86227595  0.73330672  0.67324757  1
  H+  H193  1  0.63698424  0.77171919  0.31028539  1
  H+  H194  1  0.87593320  0.61957448  0.99658147  1
  H+  H195  1  0.08796775  0.92507816  0.42083542  1
  H+  H196  1  0.47640892  0.83829081  0.31752667  1
  H+  H197  1  0.26679635  0.39483949  0.68152411  1
  H+  H198  1  0.64716491  0.87691777  0.46842148  1
  H+  H199  1  0.73916306  0.63880333  0.31309870  1
  H+  H200  1  0.15004789  0.82228470  0.91451384  1
  H+  H201  1  0.47348415  0.88564651  0.50512324  1
  H+  H202  1  0.61897612  0.86038018  0.49603445  1
  H+  H203  1  0.92401341  0.59807273  0.56784273  1
  H+  H204  1  0.78153704  0.64367459  0.49217823  1
  H+  H205  1  -0.02413212  0.10337743  0.12527348  1
  H+  H206  1  0.61501467  0.71687785  0.13667970  1
  H+  H207  1  0.24442031  0.84693911  0.69690043  1
  H+  H208  1  0.62975130  0.23141757  0.49439739  1
  H+  H209  1  0.61037539  0.39569503  0.81830236  1
  H+  H210  1  0.88896407  0.86784165  0.32120685  1
  H+  H211  1  0.68534350  0.08464614  0.23328843  1
  H+  H212  1  0.87999555  0.62422610  0.66163448  1
  H+  H213  1  0.12541878  0.01826836  0.85512887  1
  H+  H214  1  0.87211336  0.35913178  0.98839721  1
  H+  H215  1  0.11812121  0.86039970  0.31684993  1
  H+  H216  1  0.14565741  0.82061263  0.25465450  1
  H+  H217  1  0.64209884  0.86066846  0.98826146  1
  H+  H218  1  0.27981153  0.64219582  0.14665149  1
  H+  H219  1  0.21627780  0.85581810  0.85899272  1
  H+  H220  1  0.14674011  0.53911569  0.98795521  1
  H+  H221  1  0.41355303  0.60979215  0.65824312  1
  H+  H222  1  0.63545283  0.47669612  0.33810325  1
  H+  H223  1  0.58411240  0.39214746  0.09073405  1
  H+  H224  1  0.07349010  0.42707735  0.20481065  1
  H+  H225  1  0.36966810  0.46943068  0.34393644  1
  H+  H226  1  0.55742334  0.15306407  0.65614412  1
  H+  H227  1  0.15718132  0.36774872  0.00469120  1
  H+  H228  1  1.03443099  0.39726403  0.49007661  1
  H+  H229  1  0.14070730  0.01299414  0.16841616  1
  H+  H230  1  0.63974728  0.53137961  0.51337468  1
  H+  H231  1  0.54549020  0.89526429  -0.00627346  1
  H+  H232  1  0.65995147  0.32291193  0.34560523  1
  H+  H233  1  0.26499729  0.62276155  0.82206212  1
  H+  H234  1  0.47300027  0.10861121  0.84749021  1
  H+  H235  1  0.14420465  0.36552698  0.33444800  1
  H+  H236  1  0.58535727  0.18876590  0.33876188  1
  H+  H237  1  0.03160547  0.13891771  0.32409854  1
  H+  H238  1  0.01552496  0.14045519  0.48516604  1
  H+  H239  1  -0.02242273  0.86468212  0.66002424  1
  H+  H240  1  0.33029452  0.93416553  0.70179011  1
  H+  H241  1  0.11792060  0.76274807  0.32252983  1
  H+  H242  1  0.15805156  0.29306908  0.50647146  1
  H+  H243  1  0.35742208  0.70959904  0.34138947  1
  H+  H244  1  0.52124232  0.62458427  0.48346501  1
  H+  H245  1  0.13251743  0.76877424  0.16487694  1
  H+  H246  1  0.14030338  0.27072327  1.00045717  1
  H+  H247  1  0.35608489  0.29133691  0.49143239  1
  H+  H248  1  0.61119357  0.37507632  0.15488186  1
  H+  H249  1  0.71141936  0.35650930  0.85799293  1
  H+  H250  1  0.11325913  0.96407408  0.71821673  1
  H+  H251  1  0.62888735  0.64836923  0.67616960  1
  H+  H252  1  0.38106627  1.01874716  0.85129086  1
  H+  H253  1  0.65017398  0.11885504  0.65501385  1
  H+  H254  1  0.13215565  0.51881766  0.83957704  1
  H+  H255  1  0.13950131  0.51614670  0.17455917  1
  H+  H256  1  0.66572847  0.36196021  0.49495047  1
  H+  H257  1  0.89633698  0.62378824  0.50571358  1
  H+  H258  1  0.60876316  0.73602834  0.53763254  1
  H+  H259  1  0.50079649  0.38907990  0.64383189  1
  H+  H260  1  0.80234622  0.40473686  0.34400471  1
  H+  H261  1  0.35180349  0.18238826  0.65841683  1
  H+  H262  1  0.11820089  0.11783595  1.00497376  1
  H+  H263  1  0.86836410  -0.02618761  0.97197335  1
  H+  H264  1  0.77421603  0.64336078  0.67361512  1
  H+  H265  1  0.73081716  0.36003876  0.16720689  1
  H+  H266  1  0.15557275  0.57815740  0.27193431  1
  H+  H267  1  0.60854098  -0.01352899  0.67224179  1
  H+  H268  1  0.27376974  0.15301092  0.47866314  1
  H+  H269  1  0.09820513  0.87129431  0.70352725  1
  H+  H270  1  0.37182918  0.84425864  0.66775011  1
  H+  H271  1  0.62946775  0.32411201  0.89985551  1
  H+  H272  1  0.64260990  0.52876853  0.65597413  1
  H+  H273  1  0.11805773  0.86222913  1.00605473  1
  H+  H274  1  0.13364091  0.53413381  0.66758478  1
  H+  H275  1  0.91531120  0.12182043  0.27302055  1
  H+  H276  1  0.86652839  0.14274939  0.00389811  1
  H+  H277  1  0.87833137  0.26824571  0.84652337  1
  H+  H278  1  0.87246767  0.73341140  0.33916905  1
  H+  H279  1  0.38113628  0.88361508  0.50922189  1
  H+  H280  1  0.36561575  0.63371180  0.15384895  1
  H+  H281  1  0.82699534  0.41839816  0.09957219  1
  H+  H282  1  0.72023368  0.61155231  0.84319556  1
  H+  H283  1  0.83429574  0.66382069  0.10030873  1
  H+  H284  1  0.30415567  0.60493792  0.66658464  1
  H+  H285  1  0.65213477  0.77496231  0.99392464  1
  H+  H286  1  0.43089782  0.36930368  0.57875376  1
  H+  H287  1  0.65210544  0.59697861  0.94226729  1
  H+  H288  1  0.41950791  0.81191878  0.25799561  1
  H+  H289  1  0.75522082  0.36889429  0.50749755  1
  H+  H290  1  0.97949765  0.11212560  0.99795987  1
  H+  H291  1  0.14525535  0.08033489  0.94497650  1
  H+  H292  1  0.56140899  0.38740322  0.48264906  1
  H+  H293  1  0.82664188  0.17384474  0.43354513  1
  H+  H294  1  0.91626437  0.83240142  0.26365043  1
  H+  H295  1  0.13259153  0.81073170  0.63532749  1
  H+  H296  1  0.33828539  0.42172625  0.09796327  1
  H+  H297  1  0.32172004  0.17126542  0.08966459  1
  H+  H298  1  0.34259843  0.65410716  0.05664667  1
  H+  H299  1  0.79106779  0.13139363  0.80212020  1
  H+  H300  1  0.66883027  0.07400856  0.59778905  1
  H+  H301  1  0.57569309  0.41667090  0.72248640  1
  H+  H302  1  0.35750040  0.23107115  0.14952447  1
  H+  H303  1  0.62903303  0.78893830  0.90000174  1
  H+  H304  1  0.66994952  0.31955898  0.22549095  1
  H+  H305  1  0.07474447  0.16388199  0.41674860  1
  H+  H306  1  0.54028096  0.67974124  0.84291556  1
  H+  H307  1  0.33536528  0.65311258  0.73129504  1
  H+  H308  1  0.31352334  0.21879754  0.70545346  1
  H+  H309  1  0.05592474  0.89755585  0.79768068  1
  H+  H310  1  0.83902310  0.67146346  0.39696643  1
  H+  H311  1  0.17497115  0.08490585  0.22914925  1
  H+  H312  1  0.61121074  0.48465694  0.81986761  1
  H+  H313  1  0.51566181  0.89582776  0.67574085  1
  H+  H314  1  0.67740105  0.60612205  0.25422000  1
  H+  H315  1  0.41361731  0.84685714  0.57198369  1
  H+  H316  1  0.95415787  0.47668887  0.78409841  1
  H+  H317  1  0.57458754  0.14965449  0.40486783  1
  H+  H318  1  0.97906820  0.29005191  0.55019232  1
  H+  H319  1  0.91035438  0.33330760  0.90356048  1
  H+  H320  1  0.67737217  0.34465510  0.59681911  1
  H+  H321  1  0.43256213  0.57748255  0.91146489  1
  H+  H322  1  0.12097113  0.23416078  0.82988661  1
  H+  H323  1  0.42885752  0.84076341  0.92310886  1
  H+  H324  1  0.06999717  0.66474603  0.07718129  1
  H+  H325  1  0.59516568  0.71186889  0.60799522  1
  H+  H326  1  0.92524305  0.84098647  0.59648537  1
  H+  H327  1  0.60118240  0.92044017  0.05401265  1
  H+  H328  1  0.17209031  0.34404342  0.60745987  1
  H+  H329  1  0.89430464  0.39354536  0.82120505  1
  H+  H330  1  0.02627364  0.40857542  0.67330216  1
  H+  H331  1  0.48228814  0.37703796  0.83776453  1
  H+  H332  1  0.21251128  0.65845701  0.20869020  1
  H+  H333  1  0.59761539  0.16811066  0.08174503  1
  H+  H334  1  0.12991417  0.44431476  0.08396106  1
  H+  H335  1  0.17211539  0.59966445  0.56966670  1
  H+  H336  1  0.67560198  0.59300457  0.59910617  1
  H+  H337  1  0.87815319  0.86903874  1.00441586  1
  H+  H338  1  0.58813213  0.92351918  0.77691704  1
  H+  H339  1  0.41970132  0.10914266  0.54935885  1
  H+  H340  1  0.32273493  0.88758125  0.06391795  1
  H+  H341  1  0.92796972  0.09116204  0.93518721  1
  H+  H342  1  0.58517081  0.66735889  0.42743486  1
  H+  H343  1  0.94031155  0.07485796  0.19239969  1
  H+  H344  1  0.88690931  0.27916952  0.32992387  1
  H+  H345  1  0.88912131  0.76339764  0.17363926  1
  H+  H346  1  0.08485554  0.42295777  0.39638369  1
  H+  H347  1  0.62363560  0.23563966  0.14694089  1
  H+  H348  1  0.36558448  0.98426852  0.17214642  1
  H+  H349  1  0.39214899  0.52370849  0.16874481  1
  H+  H350  1  0.08524924  0.67358458  0.43429034  1
  H+  H351  1  0.32918116  0.42376600  0.73883128  1
  H+  H352  1  0.31354331  0.89535592  0.79125025  1
  H+  H353  1  0.25365664  0.33287094  0.52820751  1
  H+  H354  1  0.32467207  0.64365830  0.43036567  1
  H+  H355  1  0.42898661  0.06019746  0.93676811  1
  H+  H356  1  0.87969916  0.87296602  0.90559771  1
  H+  H357  1  0.18810274  0.34638475  0.23875449  1
  H+  H358  1  0.86809328  0.16380318  0.35514190  1
  H+  H359  1  0.87529887  0.94638904  0.41416061  1
  H+  H360  1  0.07856717  0.41330759  0.77230040  1
  H+  H361  1  0.18329414  0.85164533  0.54343404  1
  H+  H362  1  0.92179652  0.58469618  0.23129924  1
  H+  H363  1  0.64175606  0.82779682  0.62378322  1
  H+  H364  1  0.53711124  0.88848047  0.15160247  1
  H+  H365  1  0.16105421  0.09415774  0.54352361  1
  H+  H366  1  0.33565156  0.18758941  0.42159783  1
  H+  H367  1  0.08437793  0.17534541  0.73478839  1
  H+  H368  1  0.42757708  0.10779480  0.21802434  1
  H+  H369  1  0.41531656  0.57454609  0.26446515  1
  H+  H370  1  0.41549637  0.33343166  0.24798776  1
  H+  H371  1  0.42735389  0.35067915  0.93623488  1
  H+  H372  1  0.84303877  0.43205324  0.72744217  1
  H+  H373  1  0.33183869  0.16682974  0.80664628  1
  H+  H374  1  0.92834175  0.10080557  0.55987907  1
  H+  H375  1  0.37446492  0.40315267  0.43372171  1
  H+  H376  1  0.62381649  0.88633607  0.14706439  1
  H+  H377  1  0.85464991  0.94007868  0.75453921  1
  H+  H378  1  0.41340001  0.56712938  0.56397576  1
  H+  H379  1  0.35770431  0.62967798  0.82614686  1
  H+  H380  1  0.93134404  0.33936148  0.56625318  1
  H+  H381  1  0.90837260  0.58531117  0.93989649  1
  H+  H382  1  0.37082858  0.01363365  0.31558385  1
  H+  H383  1  0.88104703  0.26562043  0.16634692  1
  O2-  O384  1  0.07616045  0.16741315  0.09127810  1
  O2-  O385  1  0.07668859  0.16471593  0.46413290  1
  O2-  O386  1  0.08872589  0.17500634  0.81200373  1
  O2-  O387  1  0.11005031  0.45083439  0.16916050  1
  O2-  O388  1  0.08950037  0.43485711  0.46935910  1
  O2-  O389  1  0.07960748  0.41081225  0.81737723  1
  O2-  O390  1  0.08529897  0.66925772  0.13927142  1
  O2-  O391  1  0.09134612  0.67959128  0.47945781  1
  O2-  O392  1  0.07868726  0.66138539  0.82461433  1
  O2-  O393  1  0.09051009  0.92584377  0.14944082  1
  O2-  O394  1  0.09389973  0.92985065  0.46598825  1
  O2-  O395  1  0.06691605  0.90864749  0.84163299  1
  O2-  O396  1  0.32653200  0.16904152  0.13521405  1
  O2-  O397  1  0.33521933  0.19070321  0.46721357  1
  O2-  O398  1  0.33561233  0.16873182  0.85080765  1
  O2-  O399  1  0.34360390  0.42077663  0.14309996  1
  O2-  O400  1  0.40468322  0.41739736  0.47473102  1
  O2-  O401  1  0.33563826  0.42740107  0.82337176  1
  O2-  O402  1  0.34192569  0.66792932  0.13470875  1
  O2-  O403  1  0.32544901  0.64007794  0.47730984  1
  O2-  O404  1  0.32548206  0.65301515  0.80500108  1
  O2-  O405  1  0.33498280  0.92264981  0.18426226  1
  O2-  O406  1  0.34637831  0.93135729  0.47185095  1
  O2-  O407  1  0.32227730  0.90663078  0.83527718  1
  O2-  O408  1  0.58745077  0.17519562  0.12792898  1
  O2-  O409  1  0.59195121  0.17055168  0.48034407  1
  O2-  O410  1  0.56297932  0.15414484  0.81837427  1
  O2-  O411  1  0.58050040  0.40143886  0.13475871  1
  O2-  O412  1  0.55224633  0.42580873  0.50889814  1
  O2-  O413  1  0.58088714  0.42539627  0.80141107  1
  O2-  O414  1  0.58376989  0.65517400  0.12361223  1
  O2-  O415  1  0.58251852  0.65798226  0.47255783  1
  O2-  O416  1  0.50487696  0.61528333  0.82846222  1
  O2-  O417  1  0.59715701  0.92226949  0.13760496  1
  O2-  O418  1  0.54823271  0.94179558  0.46068556  1
  O2-  O419  1  0.58021483  0.90565990  0.81984240  1
  O2-  O420  1  0.83767851  0.16978072  0.14368618  1
  O2-  O421  1  0.82487002  0.16105923  0.47988510  1
  O2-  O422  1  0.81796100  0.15458505  0.84163872  1
  O2-  O423  1  0.82835818  0.41577918  0.14510997  1
  O2-  O424  1  0.85060581  0.42557427  0.48730366  1
  O2-  O425  1  0.89456112  0.44300280  0.79740452  1
  O2-  O426  1  0.83592930  0.66352129  0.14596918  1
  O2-  O427  1  0.84162252  0.67260136  0.47613665  1
  O2-  O428  1  0.81617182  0.65136484  0.81721926  1
  O2-  O429  1  0.83614600  0.89530555  0.13143831  1
  O2-  O430  1  0.91525418  0.95947182  0.44841908  1
  O2-  O431  1  0.84703760  0.94078322  0.80241217  1
  O2-  O432  1  0.17481694  0.07901902  0.18260100  1
  O2-  O433  1  0.16314681  0.09398207  0.49818027  1
  O2-  O434  1  0.15373485  0.08058391  0.86625673  1
  O2-  O435  1  0.19189951  0.35268307  0.19397960  1
  O2-  O436  1  0.19981196  0.33335007  0.53539539  1
  O2-  O437  1  0.17188196  0.33740000  0.85989873  1
  O2-  O438  1  0.18083448  0.61660077  0.17705101  1
  O2-  O439  1  0.17791849  0.60180433  0.52463930  1
  O2-  O440  1  0.16591582  0.58115254  0.84991538  1
  O2-  O441  1  0.15886785  0.82820349  0.18415182  1
  O2-  O442  1  0.17898753  0.84521733  0.49940903  1
  O2-  O443  1  0.15357219  0.82377181  0.86908829  1
  O2-  O444  1  0.42743019  0.10393729  0.17307950  1
  O2-  O445  1  0.42001370  0.10471328  0.50475655  1
  O2-  O446  1  0.41334677  0.07809657  0.86820903  1
  O2-  O447  1  0.41436529  0.32979886  0.17505174  1
  O2-  O448  1  0.35929946  0.34177098  0.51460064  1
  O2-  O449  1  0.42502535  0.35050594  0.85892532  1
  O2-  O450  1  0.42103816  0.58424401  0.18446066  1
  O2-  O451  1  0.40613162  0.56626861  0.51842802  1
  O2-  O452  1  0.42068983  0.58024976  0.85890131  1
  O2-  O453  1  0.42455783  0.82423807  0.18323106  1
  O2-  O454  1  0.41343257  0.85311060  0.52567118  1
  O2-  O455  1  0.41056054  0.82429901  0.84475525  1
  O2-  O456  1  0.68407728  0.08496312  0.18828400  1
  O2-  O457  1  0.66260053  0.07746340  0.52130452  1
  O2-  O458  1  0.62717840  0.06238815  0.87942808  1
  O2-  O459  1  0.66829252  0.32314158  0.18075184  1
  O2-  O460  1  0.69089896  0.33468482  0.51922720  1
  O2-  O461  1  0.64914756  0.33031106  0.85670023  1
  O2-  O462  1  0.66514006  0.57815638  0.17434465  1
  O2-  O463  1  0.67736877  0.59380305  0.52131407  1
  O2-  O464  1  0.65838019  0.58192475  0.85890501  1
  O2-  O465  1  0.66698010  0.82140595  0.16384664  1
  O2-  O466  1  0.59808202  0.75392064  0.57758433  1
  O2-  O467  1  0.60703306  0.77094088  0.85757066  1
  O2-  O468  1  0.92217300  0.07048663  0.14967790  1
  O2-  O469  1  0.93185817  0.10436366  0.51421414  1
  O2-  O470  1  0.92452766  0.09112688  0.85473700  1
  O2-  O471  1  0.90877720  0.32871840  0.17970285  1
  O2-  O472  1  0.94576363  0.31323851  0.53154854  1
  O2-  O473  1  0.91419307  0.33027530  0.85640231  1
  O2-  O474  1  0.92247487  0.58330636  0.18585780  1
  O2-  O475  1  0.93019132  0.59806373  0.52265316  1
  O2-  O476  1  0.91457782  0.58166997  0.86540507  1
  O2-  O477  1  0.91782793  0.82375870  0.19054645  1
  O2-  O478  1  0.92936165  0.84095413  0.51662681  1
  O2-  O479  1  0.89325893  0.85633294  0.86559627  1
  O2-  O480  1  0.17093759  0.08681960  0.30090499  1
  O2-  O481  1  0.15498291  0.09907456  0.62190312  1
  O2-  O482  1  0.14951729  0.08336371  0.99029726  1
  O2-  O483  1  0.17336718  0.33285138  0.32198475  1
  O2-  O484  1  0.16126194  0.34766814  0.65172850  1
  O2-  O485  1  0.17570549  0.33099415  0.98326724  1
  O2-  O486  1  0.15914364  0.58130921  0.31655112  1
  O2-  O487  1  0.15692139  0.59541635  0.65241598  1
  O2-  O488  1  0.17660496  0.59453799  0.96672475  1
  O2-  O489  1  0.14239132  0.82232492  0.30135402  1
  O2-  O490  1  0.14152121  0.81204309  0.67909461  1
  O2-  O491  1  0.14283423  0.82596508  0.99229141  1
  O2-  O492  1  0.40285317  0.07684306  0.30762355  1
  O2-  O493  1  0.43918448  0.10915794  0.63139016  1
  O2-  O494  1  0.43607733  0.04963102  0.98158311  1
  O2-  O495  1  0.41713913  0.33320961  0.29445419  1
  O2-  O496  1  0.43901551  0.37147203  0.62400813  1
  O2-  O497  1  0.42504865  0.34484733  0.98169281  1
  O2-  O498  1  0.41421171  0.57089902  0.30997322  1
  O2-  O499  1  0.42874358  0.56892231  0.64066775  1
  O2-  O500  1  0.44145649  0.57532037  0.96769708  1
  O2-  O501  1  0.41672486  0.81047565  0.30419580  1
  O2-  O502  1  0.41095103  0.82938032  0.64514541  1
  O2-  O503  1  0.44392668  0.85829797  0.96605863  1
  O2-  O504  1  0.69278705  0.09817371  0.31418014  1
  O2-  O505  1  0.66823749  0.07502881  0.64345438  1
  O2-  O506  1  0.68299531  0.10241738  0.92303913  1
  O2-  O507  1  0.69025070  0.31681183  0.30986493  1
  O2-  O508  1  0.66965712  0.34433159  0.64185669  1
  O2-  O509  1  0.57412090  0.29677499  0.96873729  1
  O2-  O510  1  0.68271363  0.62562757  0.29685392  1
  O2-  O511  1  0.67429319  0.59025679  0.64474818  1
  O2-  O512  1  0.65345089  0.59933805  0.98799919  1
  O2-  O513  1  0.67174470  0.82757890  0.28806377  1
  O2-  O514  1  0.65483812  0.85162823  0.66789298  1
  O2-  O515  1  0.67024045  0.82722382  0.97016314  1
  O2-  O516  1  0.93976089  0.08468841  0.27921267  1
  O2-  O517  1  0.92288124  0.09393990  0.63750415  1
  O2-  O518  1  0.92001507  0.08111819  0.97968143  1
  O2-  O519  1  0.92211244  0.33937243  0.30994532  1
  O2-  O520  1  0.92264145  0.36752772  0.64077297  1
  O2-  O521  1  0.90621350  0.33468478  0.97237845  1
  O2-  O522  1  0.92687508  0.59416451  0.31065913  1
  O2-  O523  1  0.90921659  0.59171280  0.64623330  1
  O2-  O524  1  0.90601033  0.58704920  0.98583774  1
  O2-  O525  1  0.92123468  0.83968601  0.30956957  1
  O2-  O526  1  0.91969971  0.83760853  0.64186298  1
  O2-  O527  1  0.90191592  0.84410407  1.03580975  1
  O2-  O528  1  0.08082773  0.16853050  0.02389296  1
  O2-  O529  1  0.08663583  0.16658890  0.34763385  1
  O2-  O530  1  0.08030404  0.17963667  0.68940088  1
  O2-  O531  1  0.15621743  0.45409900  0.04336164  1
  O2-  O532  1  0.08752716  0.41959594  0.35040903  1
  O2-  O533  1  0.08535106  0.43464670  0.69031687  1
  O2-  O534  1  0.06176392  0.66684189  0.02832667  1
  O2-  O535  1  0.08362056  0.67622843  0.35387254  1
  O2-  O536  1  0.06068387  0.65404708  0.70703948  1
  O2-  O537  1  0.07326009  0.92142854  0.03269395  1
  O2-  O538  1  0.08577329  0.91957436  0.34111490  1
  O2-  O539  1  0.06841125  0.90441964  0.71321447  1
  O2-  O540  1  0.31108308  0.17768914  0.01358494  1
  O2-  O541  1  0.33238970  0.17254239  0.34497113  1
  O2-  O542  1  0.32005154  0.21329460  0.66179953  1
  O2-  O543  1  0.34282907  0.42599300  0.01827109  1
  O2-  O544  1  0.34318543  0.40963555  0.36071077  1
  O2-  O545  1  0.32785076  0.41974093  0.69400610  1
  O2-  O546  1  0.32884468  0.63294698  0.01408390  1
  O2-  O547  1  0.32442115  0.65076858  0.35922528  1
  O2-  O548  1  0.34277989  0.66035870  0.68530306  1
  O2-  O549  1  0.30978896  0.88796408  0.02101519  1
  O2-  O550  1  0.33956119  0.90808529  0.33637019  1
  O2-  O551  1  0.30665843  0.87287195  0.70846467  1
  O2-  O552  1  0.60148166  0.15570118  0.01492245  1
  O2-  O553  1  0.56235786  0.13430952  0.36048689  1
  O2-  O554  1  0.61532734  0.17889690  0.67298722  1
  O2-  O555  1  0.58146253  0.36618857  0.00893517  1
  O2-  O556  1  0.59427353  0.33883956  0.40537883  1
  O2-  O557  1  0.57735665  0.41499234  0.67664963  1
  O2-  O558  1  0.60523178  0.64436280  0.00260580  1
  O2-  O559  1  0.58495976  0.67675612  0.34860399  1
  O2-  O560  1  0.59561812  0.67773564  0.68532812  1
  O2-  O561  1  0.60447037  0.91566738  0.00942337  1
  O2-  O562  1  0.67214672  0.95457428  0.35579146  1
  O2-  O563  1  0.57516123  0.92676476  0.69216382  1
  O2-  O564  1  0.83844506  0.17571834  0.01608395  1
  O2-  O565  1  0.83547085  0.19230092  0.36405882  1
  O2-  O566  1  0.81072994  0.12264206  0.70766271  1
  O2-  O567  1  0.81968686  0.42170988  0.02246603  1
  O2-  O568  1  0.86204556  0.43453479  0.35823379  1
  O2-  O569  1  0.83118056  0.43178528  0.68308621  1
  O2-  O570  1  0.82676386  0.67300605  0.02418506  1
  O2-  O571  1  0.84255658  0.67215503  0.35149420  1
  O2-  O572  1  0.83458661  0.67366930  0.68945216  1
  O2-  O573  1  0.84122975  0.91093015  -0.03780503  1
  O2-  O574  1  0.81818084  0.94648515  0.34052173  1
  O2-  O575  1  0.85745966  0.93509968  0.68985980  1
