# generated using pymatgen
data_H2O
_symmetry_space_group_name_H-M   'P 1'
_cell_length_a   17.99633420
_cell_length_b   17.99718914
_cell_length_c   22.00971566
_cell_angle_alpha   89.98622837
_cell_angle_beta   90.00767851
_cell_angle_gamma   119.99217472
_symmetry_Int_Tables_number   1
_chemical_formula_structural   H2O
_chemical_formula_sum   'H384 O192'
_cell_volume   6174.01984754
_cell_formula_units_Z   192
loop_
 _symmetry_equiv_pos_site_id
 _symmetry_equiv_pos_as_xyz
  1  'x, y, z'
loop_
 _atom_type_symbol
 _atom_type_oxidation_number
  H+  1.0
  O2-  -2.0
loop_
 _atom_site_type_symbol
 _atom_site_label
 _atom_site_symmetry_multiplicity
 _atom_site_fract_x
 _atom_site_fract_y
 _atom_site_fract_z
 _atom_site_occupancy
  H+  H0  1  0.37368604  0.84879912  -0.00038204  1
  H+  H1  1  0.61192096  0.89145767  0.16234649  1
  H+  H2  1  0.58409906  0.15757311  0.05925615  1
  H+  H3  1  0.34544813  -0.06176355  0.15748325  1
  H+  H4  1  0.32678982  0.85918324  0.67016860  1
  H+  H5  1  0.08488438  0.63264913  0.50992507  1
  H+  H6  1  0.54157885  0.38278612  0.00892170  1
  H+  H7  1  0.89388270  0.27675453  0.17604774  1
  H+  H8  1  0.59256847  0.20556105  0.15095840  1
  H+  H9  1  0.36481021  0.62633793  0.16090275  1
  H+  H10  1  0.88129128  0.86124460  0.83467301  1
  H+  H11  1  0.68354939  0.33541519  1.08942445  1
  H+  H12  1  0.11247501  0.53478315  -0.00466192  1
  H+  H13  1  0.35711725  0.87446272  0.49982765  1
  H+  H14  1  0.93469034  0.98071217  0.03458495  1
  H+  H15  1  0.22452141  0.11148035  0.51931093  1
  H+  H16  1  0.60873362  0.48318438  0.83242329  1
  H+  H17  1  0.11349528  -0.02467505  0.85256832  1
  H+  H18  1  0.53576948  0.93314645  0.65941251  1
  H+  H19  1  0.81383285  0.94717557  0.36469535  1
  H+  H20  1  0.85710392  0.48564393  0.30792394  1
  H+  H21  1  0.11902171  0.39441183  0.15619992  1
  H+  H22  1  0.16578390  0.12103387  0.67728807  1
  H+  H23  1  0.36054632  0.89599304  0.82145531  1
  H+  H24  1  0.64307863  1.02716452  -0.01184232  1
  H+  H25  1  0.96840392  0.36046871  0.98647859  1
  H+  H26  1  0.63217834  0.60861128  0.84759238  1
  H+  H27  1  0.30325012  0.38649775  -0.03146275  1
  H+  H28  1  0.83998818  0.57683845  0.19397025  1
  H+  H29  1  0.04704408  0.13698784  0.35045124  1
  H+  H30  1  0.52158236  0.92447945  0.69225548  1
  H+  H31  1  0.39471833  0.53139971  -0.01519864  1
  H+  H32  1  0.39438607  0.76512974  0.16937492  1
  H+  H33  1  0.19595362  0.25472281  0.96630614  1
  H+  H34  1  0.34119145  0.48711155  0.12750956  1
  H+  H35  1  0.84900227  0.43315409  0.75231267  1
  H+  H36  1  0.35279587  0.71549963  1.01390349  1
  H+  H37  1  0.04316524  0.14754861  -0.01151042  1
  H+  H38  1  0.21142202  0.84074827  0.18313636  1
  H+  H39  1  0.95961827  0.84195331  0.18370277  1
  H+  H40  1  0.47100716  0.59350237  0.50706241  1
  H+  H41  1  0.24227546  0.61830489  0.16533815  1
  H+  H42  1  0.85187390  -0.02793088  0.68400527  1
  H+  H43  1  0.85810106  0.64373995  0.51421790  1
  H+  H44  1  0.62227279  0.50072936  0.66647082  1
  H+  H45  1  0.35645318  0.73867480  0.33478650  1
  H+  H46  1  0.86545079  0.39552944  0.32660793  1
  H+  H47  1  0.88746222  0.77839280  0.51818087  1
  H+  H48  1  0.67262921  0.05487682  0.67251930  1
  H+  H49  1  0.13297573  0.73708684  0.35298903  1
  H+  H50  1  0.57278176  0.68026085  0.79504192  1
  H+  H51  1  0.61843058  0.63421683  0.00729851  1
  H+  H52  1  0.64371873  0.60555877  0.33015790  1
  H+  H53  1  0.42866906  0.44902069  0.75952215  1
  H+  H54  1  0.88077916  0.11790583  0.96203714  1
  H+  H55  1  0.72316437  0.12730763  0.52075115  1
  H+  H56  1  0.34902412  0.73554372  0.65927543  1
  H+  H57  1  0.08684271  0.46454944  0.52030308  1
  H+  H58  1  0.83090017  0.42229803  0.42907463  1
  H+  H59  1  0.14454186  0.52750277  0.17075183  1
  H+  H60  1  0.36486022  0.62134552  0.32113818  1
  H+  H61  1  0.36169808  0.13353510  0.35243392  1
  H+  H62  1  0.12916644  0.86018419  0.52383354  1
  H+  H63  1  0.35355604  0.21634018  0.50193811  1
  H+  H64  1  0.25176196  0.86021015  1.00324902  1
  H+  H65  1  0.77287043  0.63373109  0.82166689  1
  H+  H66  1  0.65131772  0.27373200  0.31744539  1
  H+  H67  1  0.14698857  0.36624129  1.00415513  1
  H+  H68  1  0.08200265  0.71358649  -0.00377587  1
  H+  H69  1  0.87025274  0.60029814  0.29375956  1
  H+  H70  1  0.37980742  0.10762481  0.50321644  1
  H+  H71  1  0.54643023  0.60495173  0.71108607  1
  H+  H72  1  0.41300798  0.26979541  0.00271047  1
  H+  H73  1  0.85444725  0.23012138  0.82869638  1
  H+  H74  1  0.61845109  -0.00256907  0.52123822  1
  H+  H75  1  0.21343577  0.85333598  0.52570790  1
  H+  H76  1  0.27489845  0.38974195  0.81657724  1
  H+  H77  1  0.16302894  0.12442764  -0.01186655  1
  H+  H78  1  0.08821142  0.91772401  0.45173282  1
  H+  H79  1  0.64977297  0.36115157  0.30588676  1
  H+  H80  1  0.63155831  0.90314566  0.01272519  1
  H+  H81  1  0.13238624  0.53184457  0.35367207  1
  H+  H82  1  0.59774370  0.71398954  0.49707241  1
  H+  H83  1  0.96533484  0.61374073  0.51538671  1
  H+  H84  1  0.01599141  0.11621712  0.81616230  1
  H+  H85  1  0.86348560  0.85612536  0.33367172  1
  H+  H86  1  0.02404785  0.89714124  0.68988317  1
  H+  H87  1  0.39082057  0.03369022  0.31706647  1
  H+  H88  1  0.47945126  0.87357768  0.52131943  1
  H+  H89  1  0.02207055  0.89167561  0.50723467  1
  H+  H90  1  0.33849412  0.60733790  0.67941068  1
  H+  H91  1  0.12308001  0.53394581  0.84256930  1
  H+  H92  1  0.61620105  0.48626126  0.15948278  1
  H+  H93  1  0.62356202  0.72596678  1.01051541  1
  H+  H94  1  0.88372931  0.36239095  -0.00995552  1
  H+  H95  1  0.37794183  0.34915369  0.86188784  1
  H+  H96  1  0.94682946  0.82804417  0.97990547  1
  H+  H97  1  0.10909295  0.84196219  0.71192244  1
  H+  H98  1  0.35464367  0.17654711  0.17615054  1
  H+  H99  1  0.66101414  0.81957125  0.60834891  1
  H+  H100  1  0.87814790  0.52421666  0.50704147  1
  H+  H101  1  0.86807129  0.48876575  0.81212760  1
  H+  H102  1  0.52025320  0.13887454  0.48900091  1
  H+  H103  1  0.12704322  0.26909936  0.51900311  1
  H+  H104  1  0.37588244  0.24953647  0.67842733  1
  H+  H105  1  0.24846570  0.41115607  0.82203596  1
  H+  H106  1  0.14450965  0.58931098  0.92475943  1
  H+  H107  1  0.09328323  0.92356824  -0.06367240  1
  H+  H108  1  0.90988496  0.37331221  0.17902840  1
  H+  H109  1  0.61514961  0.13888393  0.34020925  1
  H+  H110  1  0.22096001  0.36379785  0.14772768  1
  H+  H111  1  0.02916637  0.86127289  0.36033318  1
  H+  H112  1  0.29627556  0.14385252  0.00971113  1
  H+  H113  1  0.88761638  0.86642533  0.66865275  1
  H+  H114  1  0.10415770  0.62021200  -0.01347495  1
  H+  H115  1  0.01959869  0.51951974  0.56847716  1
  H+  H116  1  0.47704194  0.12205878  0.32760049  1
  H+  H117  1  0.25203491  0.87132894  0.32819042  1
  H+  H118  1  0.31712632  0.64818924  0.73828398  1
  H+  H119  1  0.88483139  0.99686490  -0.01588260  1
  H+  H120  1  0.42271206  0.51966494  0.79898933  1
  H+  H121  1  0.95218089  0.02535643  0.29023023  1
  H+  H122  1  0.87308798  0.28445894  0.33476100  1
  H+  H123  1  0.75268100  0.13515658  0.34713068  1
  H+  H124  1  0.61313967  0.38986925  0.81803719  1
  H+  H125  1  0.11836393  -0.02483813  0.69433975  1
  H+  H126  1  0.34855349  0.63913149  0.83516893  1
  H+  H127  1  0.89422551  0.78131162  0.66306494  1
  H+  H128  1  0.38695524  0.26901601  0.83960067  1
  H+  H129  1  0.37879206  0.41164574  0.34111184  1
  H+  H130  1  0.26640416  0.11496721  0.35301687  1
  H+  H131  1  0.63347769  0.48053607  0.32265181  1
  H+  H132  1  0.85581654  0.38823989  0.48898633  1
  H+  H133  1  0.34965761  0.45967363  0.49294158  1
  H+  H134  1  0.11077558  0.13084144  0.15285349  1
  H+  H135  1  0.73619460  0.85674321  0.34711452  1
  H+  H136  1  0.09237912  0.27626571  0.82887736  1
  H+  H137  1  0.76882120  0.87801941  0.68248064  1
  H+  H138  1  0.84995899  0.70202859  0.00735866  1
  H+  H139  1  0.39162905  0.12440509  0.82797734  1
  H+  H140  1  0.37935090  0.87535203  0.31632449  1
  H+  H141  1  0.36666736  0.63516021  1.01265068  1
  H+  H142  1  0.36224487  0.41259273  0.13487619  1
  H+  H143  1  0.21020884  0.08914403  0.17572451  1
  H+  H144  1  0.53223068  0.64217498  0.16302564  1
  H+  H145  1  0.48625365  0.62113905  -0.00846371  1
  H+  H146  1  0.72258241  0.36881095  0.50333691  1
  H+  H147  1  0.11506416  0.72699164  0.80846312  1
  H+  H148  1  0.61244658  0.39359105  0.51141725  1
  H+  H149  1  0.11181453  0.71623945  0.16435764  1
  H+  H150  1  0.61221275  0.84245728  0.32513520  1
  H+  H151  1  0.12600724  0.37341109  0.66538580  1
  H+  H152  1  0.72715371  0.60425538  0.99412756  1
  H+  H153  1  0.00256077  0.46509281  0.05108770  1
  H+  H154  1  0.26510344  0.48280711  0.27236590  1
  H+  H155  1  0.43259513  0.52296461  0.19586504  1
  H+  H156  1  1.00195734  0.39537124  0.82637808  1
  H+  H157  1  0.61196943  0.14282288  0.82232945  1
  H+  H158  1  0.90761574  0.07385659  0.31433447  1
  H+  H159  1  0.72884604  0.61121151  0.16959718  1
  H+  H160  1  0.85487618  0.61377173  0.00049970  1
  H+  H161  1  0.25950217  0.64637775  0.54122512  1
  H+  H162  1  0.85169190  0.13251189  0.50541654  1
  H+  H163  1  0.09227411  0.30935967  0.34741762  1
  H+  H164  1  0.42129870  0.03444751  0.97042534  1
  H+  H165  1  0.61564366  0.35522424  0.16361194  1
  H+  H166  1  0.15505891  0.86028636  0.33789627  1
  H+  H167  1  0.30242871  0.15244852  0.67705876  1
  H+  H168  1  0.60849047  0.70425350  0.34454707  1
  H+  H169  1  0.10084806  0.72941671  0.50759848  1
  H+  H170  1  0.63551152  0.77568944  0.17248618  1
  H+  H171  1  0.10349081  0.34392062  -0.01067012  1
  H+  H172  1  0.52266575  0.88992861  0.15865765  1
  H+  H173  1  0.73919570  0.86754425  1.00501907  1
  H+  H174  1  0.39294331  0.32557120  0.16955882  1
  H+  H175  1  0.85917097  0.70893299  0.15797389  1
  H+  H176  1  0.62319836  0.01320534  0.32736595  1
  H+  H177  1  0.63398589  0.75988152  0.66649281  1
  H+  H178  1  0.51391824  0.63682091  0.85068312  1
  H+  H179  1  0.13532586  0.02315406  0.52343160  1
  H+  H180  1  0.63226154  0.86120022  0.52132519  1
  H+  H181  1  0.88353224  0.80951645  0.23129172  1
  H+  H182  1  0.85985994  0.13751581  0.14630530  1
  H+  H183  1  0.78448918  0.15643003  0.67983483  1
  H+  H184  1  0.37821856  0.84407182  0.16719182  1
  H+  H185  1  0.87375188  0.27496939  0.51687032  1
  H+  H186  1  0.87116703  0.71288652  0.32632401  1
  H+  H187  1  0.01763898  0.40724615  0.35829866  1
  H+  H188  1  0.29236924  0.41601364  0.33494226  1
  H+  H189  1  0.16673851  0.81144079  0.92253757  1
  H+  H190  1  0.37301677  0.06845537  0.16256038  1
  H+  H191  1  0.72355984  0.11355480  0.17232171  1
  H+  H192  1  0.24022632  0.65876942  0.51562249  1
  H+  H193  1  0.97049625  0.12232132  0.66434169  1
  H+  H194  1  0.09571377  0.40617748  0.81603285  1
  H+  H195  1  0.13387343  0.63252329  0.35339317  1
  H+  H196  1  0.22850645  0.86645314  0.83171654  1
  H+  H197  1  0.54213180  0.15211974  -0.00609959  1
  H+  H198  1  0.64419183  0.54363312  0.53974901  1
  H+  H199  1  0.63301678  0.12737420  0.51887947  1
  H+  H200  1  0.10345824  0.38428601  0.51021959  1
  H+  H201  1  0.08702630  0.47907590  0.67290448  1
  H+  H202  1  0.48766542  0.40401252  0.15919758  1
  H+  H203  1  0.37974052  0.53936899  0.32977047  1
  H+  H204  1  0.64374045  0.62038441  0.17090576  1
  H+  H205  1  0.10734676  0.28600717  0.32704399  1
  H+  H206  1  0.26089763  0.64131206  0.83174995  1
  H+  H207  1  0.84787932  0.15351729  0.34982994  1
  H+  H208  1  0.14569119  0.62311840  0.16203880  1
  H+  H209  1  0.99156715  0.62363524  0.99713991  1
  H+  H210  1  0.45258300  0.09894517  0.65277277  1
  H+  H211  1  0.34939710  0.95564078  0.66304059  1
  H+  H212  1  0.34211163  0.51913637  0.86431660  1
  H+  H213  1  0.87613367  0.48366143  0.00443625  1
  H+  H214  1  0.63790970  0.77595922  0.86142752  1
  H+  H215  1  0.38954441  0.03282871  0.82595640  1
  H+  H216  1  0.63196119  0.15745370  0.67897532  1
  H+  H217  1  0.40945977  0.83210741  0.25916246  1
  H+  H218  1  1.02616324  0.63886913  0.81226863  1
  H+  H219  1  0.31574897  0.95330281  0.02849407  1
  H+  H220  1  0.85808419  0.22065184  -0.00763882  1
  H+  H221  1  0.09252807  0.16342330  0.63242090  1
  H+  H222  1  0.37358925  0.77625112  0.83972720  1
  H+  H223  1  0.63828229  0.51831945  0.99396864  1
  H+  H224  1  0.28199383  0.14371540  0.81916078  1
  H+  H225  1  0.87428690  0.36758246  0.83100587  1
  H+  H226  1  0.11258978  0.24836040  0.66788360  1
  H+  H227  1  0.65960966  0.08216740  0.89281287  1
  H+  H228  1  0.62955589  0.02614404  0.83183191  1
  H+  H229  1  0.12907251  0.62572834  0.83713491  1
  H+  H230  1  0.10205888  0.86098092  0.18584796  1
  H+  H231  1  0.82996037  0.52485020  0.94601402  1
  H+  H232  1  0.85688397  0.97514937  0.83898921  1
  H+  H233  1  0.63491502  0.39315481  0.02585021  1
  H+  H234  1  0.51602526  0.38732546  0.83217793  1
  H+  H235  1  0.87248489  0.47418980  0.17282450  1
  H+  H236  1  0.61027978  0.87356170  0.83527758  1
  H+  H237  1  0.60892751  0.63319484  0.50654217  1
  H+  H238  1  0.48983446  0.38502382  0.31327329  1
  H+  H239  1  0.71608588  0.85225615  0.51783967  1
  H+  H240  1  0.58776372  0.66934960  0.10110585  1
  H+  H241  1  0.77595250  0.65386640  0.52040720  1
  H+  H242  1  0.64387902  0.37648820  0.65615432  1
  H+  H243  1  -0.03564807  0.36138232  0.51574093  1
  H+  H244  1  0.18855770  0.83392599  0.69477266  1
  H+  H245  1  0.60732097  0.12503634  0.15478351  1
  H+  H246  1  0.14000752  0.85054640  0.97707486  1
  H+  H247  1  0.37222077  0.35391795  0.50598182  1
  H+  H248  1  0.67129599  0.91959941  0.68331876  1
  H+  H249  1  0.67086688  0.58374262  0.26451131  1
  H+  H250  1  0.46360637  0.35957933  0.51756624  1
  H+  H251  1  0.52183436  0.14367570  0.81882875  1
  H+  H252  1  0.78014469  0.62744430  0.32532991  1
  H+  H253  1  0.10826880  0.95686963  0.34829166  1
  H+  H254  1  0.85747093  0.87790281  0.15746180  1
  H+  H255  1  0.60754489  0.23063555  0.49409266  1
  H+  H256  1  0.85648317  0.87845358  0.50975934  1
  H+  H257  1  0.33747436  0.65740865  0.09811583  1
  H+  H258  1  0.62644991  0.25033559  0.67539912  1
  H+  H259  1  0.57772885  0.43240260  0.61603852  1
  H+  H260  1  0.72273725  0.86470066  0.17605422  1
  H+  H261  1  0.63601222  0.02322904  0.17543756  1
  H+  H262  1  0.40083018  0.65131301  0.47914476  1
  H+  H263  1  0.13621776  0.09175870  0.33671628  1
  H+  H264  1  0.13810832  0.85932202  0.84688744  1
  H+  H265  1  0.40929314  0.74408684  0.48535706  1
  H+  H266  1  0.86900971  0.13810577  0.68085672  1
  H+  H267  1  0.87952919  0.11725743  0.86521293  1
  H+  H268  1  0.17507090  0.04320486  0.97828060  1
  H+  H269  1  0.49788689  0.87392451  0.32587683  1
  H+  H270  1  0.02002220  0.88686416  0.85356725  1
  H+  H271  1  0.87441949  0.64808524  0.66630077  1
  H+  H272  1  0.46404654  0.07475377  0.15405217  1
  H+  H273  1  0.72513376  0.38095744  0.81169181  1
  H+  H274  1  0.76686680  0.13841265  0.82709362  1
  H+  H275  1  0.13988793  0.10326842  0.82884522  1
  H+  H276  1  0.88642382  0.02239714  0.15994788  1
  H+  H277  1  0.46441771  0.86155275  0.84568867  1
  H+  H278  1  0.22830030  0.62429139  0.34702315  1
  H+  H279  1  0.38190330  0.02008698  0.49401217  1
  H+  H280  1  0.66734312  0.32755393  0.20787543  1
  H+  H281  1  0.76688027  0.38484803  0.31942267  1
  H+  H282  1  0.89154677  0.61775098  0.82956236  1
  H+  H283  1  0.87872815  0.85736656  0.98667705  1
  H+  H284  1  0.10607566  0.12720625  0.51717964  1
  H+  H285  1  0.79795097  0.39514817  0.03150320  1
  H+  H286  1  0.87082183  0.01307026  0.51956729  1
  H+  H287  1  0.85902473  0.72463785  0.81893294  1
  H+  H288  1  0.91818377  0.58384780  0.88849970  1
  H+  H289  1  0.59314352  0.17818977  0.39800743  1
  H+  H290  1  0.07368557  0.92440450  0.01032484  1
  H+  H291  1  0.13596558  0.27404007  0.16069311  1
  H+  H292  1  0.82726084  0.91978796  0.77644223  1
  H+  H293  1  0.89024677  0.35724284  0.60356673  1
  H+  H294  1  0.38051241  0.13581807  0.01082257  1
  H+  H295  1  0.16317232  0.81731028  0.24777073  1
  H+  H296  1  0.65938426  0.95827100  0.74388222  1
  H+  H297  1  0.81420128  0.89589729  0.45145634  1
  H+  H298  1  0.68031796  0.11016684  0.61226980  1
  H+  H299  1  0.72855539  0.36717839  0.64831350  1
  H+  H300  1  0.11730046  0.66894480  0.71637995  1
  H+  H301  1  0.63755258  0.28904175  0.81729802  1
  H+  H302  1  0.43281248  0.38413312  0.25895029  1
  H+  H303  1  0.42161199  0.06152942  0.58686828  1
  H+  H304  1  0.59230710  0.18257341  0.74085995  1
  H+  H305  1  0.90130897  0.08165967  0.61078592  1
  H+  H306  1  0.18156763  0.08617158  0.61523010  1
  H+  H307  1  0.05297608  0.41777402  0.72742877  1
  H+  H308  1  0.65352543  0.82058263  0.26852874  1
  H+  H309  1  0.02500879  0.13495976  0.14439962  1
  H+  H310  1  0.07367895  0.14974068  0.45730119  1
  H+  H311  1  0.06605479  0.13996114  0.75286345  1
  H+  H312  1  0.43068781  0.82721725  0.66408619  1
  H+  H313  1  0.82641244  0.16630891  0.09022682  1
  H+  H314  1  0.83874195  0.17146394  0.74514893  1
  H+  H315  1  0.95594060  0.89148669  0.30476067  1
  H+  H316  1  0.59723590  0.93543602  0.06703078  1
  H+  H317  1  0.58714447  0.64862034  0.40477811  1
  H+  H318  1  0.90290361  0.33802480  0.89292343  1
  H+  H319  1  0.54153988  0.87508399  0.38783504  1
  H+  H320  1  0.83735307  0.66749191  0.72472179  1
  H+  H321  1  0.54731950  0.85736375  0.77942495  1
  H+  H322  1  0.60031085  0.40642002  0.37308332  1
  H+  H323  1  0.66705736  0.33587968  0.56484892  1
  H+  H324  1  0.60215291  0.94803788  0.46025383  1
  H+  H325  1  0.66030987  0.07606454  0.26925189  1
  H+  H326  1  0.08863763  0.67622803  0.41363713  1
  H+  H327  1  0.89416534  0.81657453  0.89200701  1
  H+  H328  1  0.40256905  0.81742655  0.56842967  1
  H+  H329  1  0.45747409  0.59045035  0.64920074  1
  H+  H330  1  0.39645348  0.52734268  0.69540732  1
  H+  H331  1  0.35020100  0.18514244  0.76246732  1
  H+  H332  1  0.13804618  0.21206469  0.36813941  1
  H+  H333  1  0.39697537  0.82028489  0.93863443  1
  H+  H334  1  0.66578125  0.57609670  0.90297683  1
  H+  H335  1  0.18926793  0.29376300  0.90646350  1
  H+  H336  1  0.11973562  0.00433970  0.18179194  1
  H+  H337  1  0.76948588  0.13152381  -0.01298459  1
  H+  H338  1  0.65337468  0.60980319  0.59245842  1
  H+  H339  1  0.07108721  0.44591479  0.07931516  1
  H+  H340  1  0.06790970  0.88294227  0.12647325  1
  H+  H341  1  0.20717769  0.38980898  0.24435120  1
  H+  H342  1  0.03249274  0.39493949  0.17171412  1
  H+  H343  1  0.32800099  0.91891055  0.75957954  1
  H+  H344  1  0.30106265  0.87096673  0.10453783  1
  H+  H345  1  0.89339981  0.53821261  0.60441762  1
  H+  H346  1  0.18807350  0.10288140  0.89091579  1
  H+  H347  1  0.16399715  0.34742364  0.60911998  1
  H+  H348  1  0.21092434  0.61596376  0.67412055  1
  H+  H349  1  0.15543050  0.06269254  0.27189560  1
  H+  H350  1  0.65890777  0.27946021  1.02931802  1
  H+  H351  1  0.09007067  0.16503550  0.05389955  1
  H+  H352  1  0.83001986  0.91152986  0.09923917  1
  H+  H353  1  0.88202820  0.44293343  0.10643362  1
  H+  H354  1  0.96132669  0.10071047  0.52161105  1
  H+  H355  1  0.64295136  0.11731355  0.98482220  1
  H+  H356  1  0.21701985  0.35495547  0.50881906  1
  H+  H357  1  0.32125017  0.15423128  0.44266545  1
  H+  H358  1  0.41028252  0.58882385  0.90938174  1
  H+  H359  1  0.07242726  0.42837624  0.41959252  1
  H+  H360  1  0.72669092  0.86549450  0.85049205  1
  H+  H361  1  0.83262351  0.64505904  0.10041427  1
  H+  H362  1  0.29496554  0.86910829  0.44722285  1
  H+  H363  1  0.33183161  0.14672411  0.10655292  1
  H+  H364  1  0.91997661  0.84352624  0.57514353  1
  H+  H365  1  0.33038396  0.42302793  0.03633707  1
  H+  H366  1  0.32357496  0.40492685  0.43299293  1
  H+  H367  1  0.41523387  0.58412475  0.23691160  1
  H+  H368  1  0.08171667  0.66320728  0.10108356  1
  H+  H369  1  0.32664531  0.40587761  0.64484182  1
  H+  H370  1  0.35728291  0.68895806  0.39608204  1
  H+  H371  1  0.58643759  0.45110951  0.47110578  1
  H+  H372  1  0.40024545  0.56254756  0.55997718  1
  H+  H373  1  0.39477819  0.34077942  0.60089921  1
  H+  H374  1  0.35866319  0.93715133  0.37728027  1
  H+  H375  1  0.11194378  0.57167563  0.59429950  1
  H+  H376  1  0.91551373  0.33493082  0.27214780  1
  H+  H377  1  0.82012895  0.16586569  0.44808664  1
  H+  H378  1  0.68000660  0.84126238  0.94642199  1
  H+  H379  1  0.92829796  0.09150572  0.21245916  1
  H+  H380  1  0.42909011  0.09539733  0.91664024  1
  H+  H381  1  0.58645178  0.42759618  0.09814826  1
  H+  H382  1  0.43685838  0.32469383  0.94163621  1
  H+  H383  1  0.07247377  0.31085394  0.88893477  1
  O2-  O384  1  0.08706260  0.16442340  0.13323950  1
  O2-  O385  1  0.07013759  0.15234741  0.50205967  1
  O2-  O386  1  0.06318903  0.11675408  0.79380849  1
  O2-  O387  1  0.08977252  0.42947315  0.15130317  1
  O2-  O388  1  0.06816039  0.41030506  0.49733550  1
  O2-  O389  1  0.06255020  0.43499030  0.81091302  1
  O2-  O390  1  0.09525773  0.66024071  0.14404865  1
  O2-  O391  1  0.06743285  0.66985303  0.48814445  1
  O2-  O392  1  0.08752205  0.66436569  0.79987811  1
  O2-  O393  1  0.06793652  0.88975848  0.17040044  1
  O2-  O394  1  0.08481678  0.92215704  0.49645651  1
  O2-  O395  1  0.08056120  0.91506726  0.86866405  1
  O2-  O396  1  0.31536661  0.12915190  0.15032964  1
  O2-  O397  1  0.32249927  0.15506745  0.48942247  1
  O2-  O398  1  0.34457168  0.17883116  0.80919122  1
  O2-  O399  1  0.32007967  0.42714462  0.11627987  1
  O2-  O400  1  0.31817729  0.39863262  0.47866778  1
  O2-  O401  1  0.44466855  0.50941119  0.76079981  1
  O2-  O402  1  0.33539944  0.65651614  0.14631860  1
  O2-  O403  1  0.41228192  0.70345365  0.45644677  1
  O2-  O404  1  0.32099352  0.66921711  0.81570441  1
  O2-  O405  1  0.30678783  0.87407487  0.14939897  1
  O2-  O406  1  0.32191851  0.90007371  0.48454396  1
  O2-  O407  1  0.33286006  0.92797637  0.80530099  1
  O2-  O408  1  0.57226582  0.14701701  0.13441635  1
  O2-  O409  1  0.58333319  0.17059820  0.47914432  1
  O2-  O410  1  0.58456770  0.17536392  0.80562174  1
  O2-  O411  1  0.57864237  0.42586072  0.14412556  1
  O2-  O412  1  0.57926684  0.42550837  0.51122320  1
  O2-  O413  1  0.57589037  0.42191046  0.81427039  1
  O2-  O414  1  0.59189195  0.67418007  0.14658088  1
  O2-  O415  1  0.57320944  0.65344213  0.48397473  1
  O2-  O416  1  0.57482656  0.66930146  0.83831675  1
  O2-  O417  1  0.58504386  0.92469425  0.14731610  1
  O2-  O418  1  0.59251078  0.93752480  0.50376277  1
  O2-  O419  1  0.57827862  0.89789071  0.81217052  1
  O2-  O420  1  0.82914828  0.16859131  0.13523025  1
  O2-  O421  1  0.82287310  0.16547134  0.49307898  1
  O2-  O422  1  0.82949380  0.16839921  0.81628188  1
  O2-  O423  1  0.90053891  0.44791971  0.14944247  1
  O2-  O424  1  0.82553529  0.41863215  0.47348529  1
  O2-  O425  1  0.83556596  0.42811937  0.79568865  1
  O2-  O426  1  0.83072907  0.64757129  0.14607544  1
  O2-  O427  1  0.83362484  0.67983891  0.50151120  1
  O2-  O428  1  0.83205483  0.66346085  0.80553403  1
  O2-  O429  1  0.83228870  0.91398318  0.14379683  1
  O2-  O430  1  0.82069536  0.90534173  0.49573746  1
  O2-  O431  1  0.82629018  0.91621023  0.82229756  1
  O2-  O432  1  0.15066132  0.06672250  0.19139529  1
  O2-  O433  1  0.16563541  0.08413208  0.53854585  1
  O2-  O434  1  0.17930125  0.08536560  0.84739812  1
  O2-  O435  1  0.16574596  0.33626845  0.17063183  1
  O2-  O436  1  0.15914535  0.33128438  0.52846962  1
  O2-  O437  1  0.08933537  0.27099407  0.87300142  1
  O2-  O438  1  0.17870396  0.59196104  0.17938910  1
  O2-  O439  1  0.07943186  0.54753291  0.55547771  1
  O2-  O440  1  0.15589515  0.59344254  0.85954335  1
  O2-  O441  1  0.15255154  0.81422318  0.20201149  1
  O2-  O442  1  0.15221491  0.82255825  0.53650127  1
  O2-  O443  1  0.17043253  0.82814561  0.84995945  1
  O2-  O444  1  0.40354410  0.03618812  0.16627061  1
  O2-  O445  1  0.41540671  0.07918608  0.50997287  1
  O2-  O446  1  0.42309490  0.09364866  0.84156891  1
  O2-  O447  1  0.42622389  0.38778457  0.17318304  1
  O2-  O448  1  0.40169052  0.32595023  0.52746154  1
  O2-  O449  1  0.41919212  0.32909378  0.85916410  1
  O2-  O450  1  0.43010081  0.57587586  0.19278281  1
  O2-  O451  1  0.40733320  0.56375428  0.51588488  1
  O2-  O452  1  0.39376560  0.57599613  0.86291084  1
  O2-  O453  1  0.42005136  0.82628142  0.18177006  1
  O2-  O454  1  0.41685349  0.83321110  0.52461614  1
  O2-  O455  1  0.40311105  0.83642575  0.85551705  1
  O2-  O456  1  0.66545799  0.08420988  0.19109467  1
  O2-  O457  1  0.66425292  0.10046681  0.53925874  1
  O2-  O458  1  0.65979438  0.08576456  0.84639990  1
  O2-  O459  1  0.64268817  0.31850714  0.16663961  1
  O2-  O460  1  0.66264172  0.33861242  0.51991485  1
  O2-  O461  1  0.66351230  0.35158230  0.82408107  1
  O2-  O462  1  0.66910677  0.58557609  0.18631605  1
  O2-  O463  1  0.66651790  0.60514233  0.54673658  1
  O2-  O464  1  0.66120260  0.57550893  0.85685267  1
  O2-  O465  1  0.66279812  0.83479628  0.19082187  1
  O2-  O466  1  0.65459240  0.82246119  0.53139847  1
  O2-  O467  1  0.66797766  0.83871457  0.86980715  1
  O2-  O468  1  0.91885357  0.08554787  0.16824280  1
  O2-  O469  1  0.89960996  0.07406264  0.53405008  1
  O2-  O470  1  0.90677399  0.08301229  0.87826255  1
  O2-  O471  1  0.92778644  0.33241674  0.19730319  1
  O2-  O472  1  0.90199818  0.33710946  0.52658020  1
  O2-  O473  1  0.90313143  0.33625734  0.84733046  1
  O2-  O474  1  0.82836983  0.52481281  0.21856149  1
  O2-  O475  1  0.90598264  0.57688382  0.53239833  1
  O2-  O476  1  0.92268270  0.58727887  0.84271915  1
  O2-  O477  1  0.89561041  0.81451903  0.18711456  1
  O2-  O478  1  0.91758029  0.84221047  0.52932919  1
  O2-  O479  1  0.90893931  0.82772987  0.84823221  1
  O2-  O480  1  0.15350215  0.05337308  0.31669511  1
  O2-  O481  1  0.19184643  0.08924979  0.66032659  1
  O2-  O482  1  0.20339043  0.10624162  0.97185706  1
  O2-  O483  1  0.22427865  0.42287215  0.28255603  1
  O2-  O484  1  0.15945559  0.34469244  0.65414882  1
  O2-  O485  1  0.23258126  0.29357523  0.93398433  1
  O2-  O486  1  0.16460921  0.59362491  0.33673517  1
  O2-  O487  1  0.14905075  0.59782478  0.66619099  1
  O2-  O488  1  0.14002577  0.59200267  0.97283909  1
  O2-  O489  1  0.18368599  0.83072886  0.32012622  1
  O2-  O490  1  0.12989286  0.80024331  0.71044153  1
  O2-  O491  1  0.15851384  0.80787581  0.96855652  1
  O2-  O492  1  0.41709516  0.09743791  0.31437200  1
  O2-  O493  1  0.42981705  0.04641559  0.62902997  1
  O2-  O494  1  0.43508562  0.09325397  0.96236759  1
  O2-  O495  1  0.43139878  0.37233438  0.30264124  1
  O2-  O496  1  0.39617946  0.35146284  0.64634963  1
  O2-  O497  1  0.44800381  0.32819667  0.98566350  1
  O2-  O498  1  0.38212323  0.58243429  0.30024965  1
  O2-  O499  1  0.39484380  0.55425542  0.65628723  1
  O2-  O500  1  0.42653952  0.59646462  0.97552731  1
  O2-  O501  1  0.40841808  0.83619151  0.30433383  1
  O2-  O502  1  0.37584308  0.79565557  0.64288407  1
  O2-  O503  1  0.39514393  0.81247068  0.98310630  1
  O2-  O504  1  0.65782757  0.07434967  0.31496173  1
  O2-  O505  1  0.68764858  0.11392638  0.65812173  1
  O2-  O506  1  0.66878457  0.08485972  0.96570141  1
  O2-  O507  1  0.68264082  0.33101097  0.29577738  1
  O2-  O508  1  0.66430282  0.33432669  0.64669654  1
  O2-  O509  1  0.69126241  0.34009809  1.04461181  1
  O2-  O510  1  0.67531743  0.57829326  0.30943163  1
  O2-  O511  1  0.63232763  0.60469790  0.66054609  1
  O2-  O512  1  0.66717683  0.57864385  0.97739147  1
  O2-  O513  1  0.64762998  0.81588936  0.31386262  1
  O2-  O514  1  0.66539345  0.82079516  0.65389647  1
  O2-  O515  1  0.67953217  0.83544374  0.99178279  1
  O2-  O516  1  0.95919636  0.08262543  0.29346651  1
  O2-  O517  1  0.90705631  0.08804451  0.65636998  1
  O2-  O518  1  0.91605455  0.09092359  0.94617174  1
  O2-  O519  1  0.90799540  0.34243465  0.31692955  1
  O2-  O520  1  0.87919394  0.37461728  0.64464486  1
  O2-  O521  1  0.90956697  0.32980384  0.96993511  1
  O2-  O522  1  0.88733750  0.55899605  0.27078040  1
  O2-  O523  1  0.88355355  0.50742749  0.64500761  1
  O2-  O524  1  0.88609565  0.56256607  0.96416620  1
  O2-  O525  1  0.90223877  0.83865175  0.31298477  1
  O2-  O526  1  0.92263475  0.84359165  0.65071752  1
  O2-  O527  1  0.88685596  0.80952212  0.97172349  1
  O2-  O528  1  0.09738626  0.16300625  0.00899576  1
  O2-  O529  1  0.09745941  0.15155012  0.37620273  1
  O2-  O530  1  0.08088494  0.18134229  0.67145753  1
  O2-  O531  1  0.05021219  0.45644592  0.03940649  1
  O2-  O532  1  0.07612542  0.43841393  0.37491408  1
  O2-  O533  1  0.06457102  0.41860114  0.68370815  1
  O2-  O534  1  0.05088533  0.65388535  0.01365156  1
  O2-  O535  1  0.09827298  0.67596966  0.36856287  1
  O2-  O536  1  0.14539584  0.67712408  0.67589475  1
  O2-  O537  1  0.11712314  0.93252518  -0.01928690  1
  O2-  O538  1  0.08855367  0.90154955  0.37116674  1
  O2-  O539  1  0.07708015  0.92165183  0.71487191  1
  O2-  O540  1  0.35204479  0.16362037  0.03183347  1
  O2-  O541  1  0.32257279  0.15181397  0.37183746  1
  O2-  O542  1  0.36118423  0.19159530  0.69297372  1
  O2-  O543  1  0.34652871  0.43596396  -0.00682493  1
  O2-  O544  1  0.34417593  0.43466595  0.36116081  1
  O2-  O545  1  0.31374174  0.34794047  0.65661524  1
  O2-  O546  1  0.33143789  0.65697605  0.03211174  1
  O2-  O547  1  0.33015725  0.68003578  0.35420106  1
  O2-  O548  1  0.31071195  0.64041976  0.69323116  1
  O2-  O549  1  0.30777844  0.89581787  0.02557623  1
  O2-  O550  1  0.34222997  0.92278658  0.33501526  1
  O2-  O551  1  0.31257551  0.90176406  0.68635682  1
  O2-  O552  1  0.59784294  0.17254805  0.01496002  1
  O2-  O553  1  0.59591136  0.17969193  0.35276018  1
  O2-  O554  1  0.59897845  0.18697110  0.69271158  1
  O2-  O555  1  0.60081635  0.42303876  0.02703669  1
  O2-  O556  1  0.60255609  0.41509871  0.32936592  1
  O2-  O557  1  0.60748286  0.44143282  0.65462061  1
  O2-  O558  1  0.58857178  0.66468928  0.02302538  1
  O2-  O559  1  0.59292423  0.64685160  0.35987775  1
  O2-  O560  1  0.57219628  0.63738327  0.67355822  1
  O2-  O561  1  0.60723986  0.94005353  0.02245440  1
  O2-  O562  1  0.55857161  0.89691217  0.34662053  1
  O2-  O563  1  0.68508160  0.97448034  0.70324972  1
  O2-  O564  1  0.83107333  0.15827304  0.00165953  1
  O2-  O565  1  0.81112935  0.17425609  0.36585397  1
  O2-  O566  1  0.84370877  0.17533985  0.69834852  1
  O2-  O567  1  0.86225972  0.42873895  0.02809494  1
  O2-  O568  1  0.83101041  0.42673951  0.33523420  1
  O2-  O569  1  0.83352619  0.41875106  0.62680793  1
  O2-  O570  1  0.82622777  0.64381622  0.02403373  1
  O2-  O571  1  0.84346634  0.65060618  0.33056948  1
  O2-  O572  1  0.84476905  0.67761148  0.68026244  1
  O2-  O573  1  0.88007831  0.95086210  0.01286978  1
  O2-  O574  1  0.79654423  0.88661653  0.36648132  1
  O2-  O575  1  0.82736107  0.91345112  0.70071956  1
