# generated using pymatgen
data_H2O
_symmetry_space_group_name_H-M   'P 1'
_cell_length_a   17.97879062
_cell_length_b   17.96525282
_cell_length_c   21.98647401
_cell_angle_alpha   89.99034724
_cell_angle_beta   90.00680401
_cell_angle_gamma   119.99281499
_symmetry_Int_Tables_number   1
_chemical_formula_structural   H2O
_chemical_formula_sum   'H384 O192'
_cell_volume   6150.51467101
_cell_formula_units_Z   192
loop_
 _symmetry_equiv_pos_site_id
 _symmetry_equiv_pos_as_xyz
  1  'x, y, z'
loop_
 _atom_type_symbol
 _atom_type_oxidation_number
  H+  1.0
  O2-  -2.0
loop_
 _atom_site_type_symbol
 _atom_site_label
 _atom_site_symmetry_multiplicity
 _atom_site_fract_x
 _atom_site_fract_y
 _atom_site_fract_z
 _atom_site_occupancy
  H+  H0  1  0.59202656  0.40066700  0.07735372  1
  H+  H1  1  0.34157225  0.21483872  0.72841592  1
  H+  H2  1  0.39895316  0.57812120  0.22620296  1
  H+  H3  1  -0.03823687  0.34047061  0.73089215  1
  H+  H4  1  0.37882284  0.51354929  0.51512515  1
  H+  H5  1  0.03668883  0.39573898  0.16695232  1
  H+  H6  1  0.07983544  0.41391553  0.38545966  1
  H+  H7  1  0.47220166  0.61264461  0.17273516  1
  H+  H8  1  0.37638271  0.76772256  0.16367060  1
  H+  H9  1  0.93556799  0.61709891  0.89572118  1
  H+  H10  1  0.11109963  0.46884801  0.47242424  1
  H+  H11  1  0.90236810  0.82183800  0.91877573  1
  H+  H12  1  0.72754590  0.11003831  0.50088102  1
  H+  H13  1  0.22594762  0.87394321  0.65369281  1
  H+  H14  1  0.24341595  0.12082272  0.82066912  1
  H+  H15  1  0.13141397  0.71270089  0.02354308  1
  H+  H16  1  0.84286796  0.75768179  0.34403620  1
  H+  H17  1  0.87528921  0.61187531  0.51692794  1
  H+  H18  1  0.64092243  0.12797288  0.98891448  1
  H+  H19  1  0.37327923  0.89219797  0.33295167  1
  H+  H20  1  0.71896244  0.35924444  0.17756894  1
  H+  H21  1  0.61185211  0.72232536  0.66999569  1
  H+  H22  1  0.32008230  0.98686860  0.02663566  1
  H+  H23  1  0.12112371  0.65481657  0.67806083  1
  H+  H24  1  0.80247334  0.18238282  0.22566417  1
  H+  H25  1  0.43500210  0.74511102  0.95306898  1
  H+  H26  1  0.36593281  0.89573312  0.82680813  1
  H+  H27  1  0.13655616  0.27864771  0.65226704  1
  H+  H28  1  0.49626429  0.36403576  1.00655946  1
  H+  H29  1  0.60859247  0.70711273  0.35425630  1
  H+  H30  1  0.61365609  0.10114288  0.17862259  1
  H+  H31  1  0.40380803  1.03283406  0.32943292  1
  H+  H32  1  0.88148466  0.14231042  0.98811743  1
  H+  H33  1  0.12734121  0.11246002  0.66993794  1
  H+  H34  1  0.59948418  0.49754921  0.18592339  1
  H+  H35  1  0.61148141  0.35660401  1.01970623  1
  H+  H36  1  0.54663455  0.88880871  -0.00221331  1
  H+  H37  1  0.37058482  0.62118674  -0.07851388  1
  H+  H38  1  0.22864539  0.85498780  0.19466285  1
  H+  H39  1  0.61069853  0.24084426  0.84253842  1
  H+  H40  1  0.59558666  0.40903877  0.77452340  1
  H+  H41  1  0.88407319  0.02059374  0.48715740  1
  H+  H42  1  0.54035467  0.38649469  0.83559517  1
  H+  H43  1  0.72940909  0.85575835  0.64965782  1
  H+  H44  1  0.38401233  0.39539928  0.33518414  1
  H+  H45  1  0.09808698  0.71813832  0.34270360  1
  H+  H46  1  0.62097877  0.23496396  0.16254807  1
  H+  H47  1  0.10595874  0.22193437  0.82626568  1
  H+  H48  1  0.63839396  0.86484362  0.34080286  1
  H+  H49  1  0.13420066  0.10446919  0.51708557  1
  H+  H50  1  0.62927244  0.72125936  1.00887946  1
  H+  H51  1  0.63298198  0.09733460  0.34923599  1
  H+  H52  1  0.27609582  0.64070008  0.15773309  1
  H+  H53  1  0.37662059  0.72540289  0.67221981  1
  H+  H54  1  0.62722309  0.22564763  0.33548605  1
  H+  H55  1  0.62002809  0.97045357  0.66619951  1
  H+  H56  1  0.39642206  1.02508239  0.50040874  1
  H+  H57  1  0.87850395  0.08502458  0.65314949  1
  H+  H58  1  0.38251050  0.27889044  0.16906930  1
  H+  H59  1  0.98701040  0.85520911  0.86024216  1
  H+  H60  1  0.86865267  0.09752562  0.21179274  1
  H+  H61  1  0.99406493  0.36094719  0.92053613  1
  H+  H62  1  0.87364142  0.40512437  0.16737262  1
  H+  H63  1  0.08180786  0.65697396  0.43388336  1
  H+  H64  1  0.86270491  0.86669861  0.18991131  1
  H+  H65  1  0.66917688  0.57973789  0.60897493  1
  H+  H66  1  0.49040689  0.37218711  0.50175927  1
  H+  H67  1  0.35439481  0.64457940  0.82575934  1
  H+  H68  1  0.89770693  1.01774734  0.35298420  1
  H+  H69  1  0.88354615  0.79006218  0.59593443  1
  H+  H70  1  0.92329976  0.28429186  0.96425157  1
  H+  H71  1  0.28397427  0.88838851  0.48832587  1
  H+  H72  1  0.35225978  0.88273761  0.16098725  1
  H+  H73  1  0.12342850  0.72169069  0.48939107  1
  H+  H74  1  0.85504448  0.71723617  0.67889167  1
  H+  H75  1  0.60251320  0.61516896  0.35363323  1
  H+  H76  1  0.59020145  -0.03263239  0.16549258  1
  H+  H77  1  0.51536454  0.87585208  0.81174495  1
  H+  H78  1  0.86064801  0.39035284  0.47858498  1
  H+  H79  1  0.85619594  0.65646810  0.17088075  1
  H+  H80  1  0.88692672  0.61501580  0.67098703  1
  H+  H81  1  0.86786991  0.73921984  0.48673520  1
  H+  H82  1  0.30889631  0.15886711  0.33002219  1
  H+  H83  1  0.41029984  0.57197333  0.60835798  1
  H+  H84  1  0.64829101  0.86735064  0.99403614  1
  H+  H85  1  0.96089598  0.11218098  0.18831393  1
  H+  H86  1  0.89696424  0.29731793  0.17058310  1
  H+  H87  1  0.41095294  0.12664411  0.32525270  1
  H+  H88  1  0.75220108  0.32270997  0.02421062  1
  H+  H89  1  0.77435017  0.63109956  0.00764069  1
  H+  H90  1  0.47813047  0.18732459  0.86438915  1
  H+  H91  1  0.15249557  0.37054681  0.62936775  1
  H+  H92  1  0.14195558  0.77021996  0.84516161  1
  H+  H93  1  0.80286228  0.13360208  0.28385070  1
  H+  H94  1  0.96517566  0.60732501  0.32258938  1
  H+  H95  1  0.62175371  0.13716721  0.66035578  1
  H+  H96  1  0.33552500  0.41187453  0.10902927  1
  H+  H97  1  0.96513698  0.38198625  0.74231462  1
  H+  H98  1  0.87567060  0.66600859  1.00248487  1
  H+  H99  1  0.47077225  0.62131459  0.83934919  1
  H+  H100  1  0.65107116  0.53365501  0.51247536  1
  H+  H101  1  0.62368844  0.88233593  0.66541880  1
  H+  H102  1  0.86325584  0.64174806  0.83011317  1
  H+  H103  1  0.25988268  0.63420247  0.82861375  1
  H+  H104  1  0.43187796  0.83046853  0.88175906  1
  H+  H105  1  0.84249633  0.62592240  0.33914950  1
  H+  H106  1  0.12005639  0.72214198  0.17929221  1
  H+  H107  1  0.86059726  0.22149720  0.48290276  1
  H+  H108  1  0.89440085  0.27478386  0.32591046  1
  H+  H109  1  0.14673980  0.99320921  0.33530351  1
  H+  H110  1  0.12392430  0.35067276  0.86010155  1
  H+  H111  1  0.63109783  0.76586915  0.84019434  1
  H+  H112  1  0.14481638  0.63215199  1.02836716  1
  H+  H113  1  0.32284230  0.92830744  0.72753218  1
  H+  H114  1  0.14468004  0.87437624  0.34576904  1
  H+  H115  1  0.82002411  0.27379402  0.62679478  1
  H+  H116  1  0.88115791  0.76034076  0.85089846  1
  H+  H117  1  0.09852510  0.66434414  0.11547345  1
  H+  H118  1  0.84816464  0.87627722  0.37310602  1
  H+  H119  1  0.86099653  0.13176122  0.48616053  1
  H+  H120  1  0.15068749  0.26842692  1.00937833  1
  H+  H121  1  0.11213984  0.82023844  0.10836348  1
  H+  H122  1  0.16462341  0.12242257  0.32852495  1
  H+  H123  1  0.63376591  0.60757646  0.66626491  1
  H+  H124  1  0.52239402  0.63315304  0.67516530  1
  H+  H125  1  0.37847724  0.77732333  0.32027433  1
  H+  H126  1  0.63854709  0.27521052  0.65368413  1
  H+  H127  1  0.36339070  0.47131513  0.67733199  1
  H+  H128  1  0.36339164  -0.01703706  0.83120104  1
  H+  H129  1  0.60633780  0.32756271  0.85217519  1
  H+  H130  1  0.84347117  0.72860460  0.19872126  1
  H+  H131  1  0.36237029  0.86073966  0.96467102  1
  H+  H132  1  0.37275176  0.34458788  0.69620951  1
  H+  H133  1  0.60440469  0.62849603  0.82913103  1
  H+  H134  1  0.86523108  0.86260227  0.00040510  1
  H+  H135  1  0.49168280  0.61093622  0.02750423  1
  H+  H136  1  0.87727638  0.10021893  0.84551145  1
  H+  H137  1  0.80835470  0.38836539  0.84104394  1
  H+  H138  1  0.40653659  0.35371275  0.84901080  1
  H+  H139  1  0.99739719  0.61993290  0.17660206  1
  H+  H140  1  0.11631163  0.10284028  0.83913214  1
  H+  H141  1  0.29006268  0.38480343  0.33993970  1
  H+  H142  1  0.89058016  0.00508619  0.64786972  1
  H+  H143  1  0.64114655  0.51738385  0.84269057  1
  H+  H144  1  0.10041503  0.63031740  0.33639914  1
  H+  H145  1  0.48458078  0.11491444  0.50099056  1
  H+  H146  1  0.82860123  0.19780159  0.83047651  1
  H+  H147  1  0.91209520  0.32314742  0.65468979  1
  H+  H148  1  0.62067626  0.14068727  0.49180487  1
  H+  H149  1  0.62971515  0.85415792  0.83568409  1
  H+  H150  1  0.72789625  0.12359023  -0.02028679  1
  H+  H151  1  0.59432855  0.17186529  0.43140815  1
  H+  H152  1  0.60360933  0.46692669  0.68082277  1
  H+  H153  1  0.85704078  0.48894896  0.68201884  1
  H+  H154  1  0.25622966  0.60513133  0.97850883  1
  H+  H155  1  0.38520491  0.13620837  0.83456877  1
  H+  H156  1  0.28373781  0.38051174  0.01218341  1
  H+  H157  1  0.38718405  0.23840315  0.48159611  1
  H+  H158  1  0.64636519  0.77967308  0.49996993  1
  H+  H159  1  0.14802378  0.36792068  0.18439026  1
  H+  H160  1  0.27850071  0.63320835  0.48685937  1
  H+  H161  1  0.13460111  0.52551774  0.32647518  1
  H+  H162  1  0.10157656  0.88148645  0.63607360  1
  H+  H163  1  0.10217268  0.23108682  0.17234603  1
  H+  H164  1  0.63500087  0.77458964  0.17525248  1
  H+  H165  1  0.86171986  0.76825984  1.00325518  1
  H+  H166  1  0.36788778  0.72348970  0.49156704  1
  H+  H167  1  0.31073821  0.17089212  -0.04067430  1
  H+  H168  1  0.26151121  0.47661861  0.78794394  1
  H+  H169  1  0.20542231  0.09908892  0.68800267  1
  H+  H170  1  0.88856230  0.88225256  0.48009344  1
  H+  H171  1  0.87779738  0.51596452  0.31721281  1
  H+  H172  1  -0.04650986  0.87385276  0.19833732  1
  H+  H173  1  0.76907180  0.88279939  0.81560998  1
  H+  H174  1  0.22816107  0.86313342  0.84619214  1
  H+  H175  1  0.07446343  0.98473047  0.02050562  1
  H+  H176  1  0.25143283  0.64503329  0.66332646  1
  H+  H177  1  0.89275159  0.14102899  0.34546800  1
  H+  H178  1  0.77037098  0.38066852  0.32691298  1
  H+  H179  1  0.12125017  0.21963153  0.34216492  1
  H+  H180  1  0.36456066  0.47970273  0.16390734  1
  H+  H181  1  0.41894915  0.29347068  0.32336038  1
  H+  H182  1  0.04902027  0.39068296  0.01189357  1
  H+  H183  1  0.37395248  0.77493272  0.82699853  1
  H+  H184  1  0.73837834  0.62343870  0.51627339  1
  H+  H185  1  0.14335791  0.86504071  0.49782825  1
  H+  H186  1  0.18918521  0.85551393  1.00894313  1
  H+  H187  1  0.91154211  0.33557880  0.54514709  1
  H+  H188  1  0.61456911  0.37156640  0.16717488  1
  H+  H189  1  0.53643747  0.13801655  0.33800421  1
  H+  H190  1  0.60306699  0.37879856  0.67443625  1
  H+  H191  1  0.59472297  0.62279375  0.17576258  1
  H+  H192  1  0.96739637  0.84659026  0.63799324  1
  H+  H193  1  0.03737258  0.12573719  0.34435731  1
  H+  H194  1  0.14886115  0.52329452  0.62992091  1
  H+  H195  1  0.03384217  0.89422339  0.47969231  1
  H+  H196  1  0.82773748  0.92241068  0.07568843  1
  H+  H197  1  1.02642130  0.63703127  0.82963276  1
  H+  H198  1  0.52676498  0.80274905  0.92282628  1
  H+  H199  1  1.02614206  0.64318220  0.67938218  1
  H+  H200  1  0.81581096  0.49405226  0.98976389  1
  H+  H201  1  0.52496716  0.37395607  0.15990497  1
  H+  H202  1  0.19584883  0.09000625  0.99603415  1
  H+  H203  1  0.64869434  0.36553974  0.31894072  1
  H+  H204  1  0.42478345  0.81718852  0.59745798  1
  H+  H205  1  0.17372491  0.32484471  0.41709688  1
  H+  H206  1  0.08774877  0.89663152  0.16950720  1
  H+  H207  1  0.62754931  0.63036000  0.01076633  1
  H+  H208  1  0.63101323  0.65220900  0.50472861  1
  H+  H209  1  0.13005138  0.12590601  1.00543828  1
  H+  H210  1  0.42486135  0.09446454  0.93886611  1
  H+  H211  1  0.09944240  0.47040906  0.85805617  1
  H+  H212  1  0.39597765  0.37180479  0.17626877  1
  H+  H213  1  0.38764680  0.60493980  0.66933021  1
  H+  H214  1  0.06568933  0.79224993  0.10045486  1
  H+  H215  1  0.12105785  -0.02051986  0.49752722  1
  H+  H216  1  0.88425913  0.53510533  0.84790067  1
  H+  H217  1  0.01834323  0.13494391  0.66590603  1
  H+  H218  1  0.87300171  0.52250727  0.51250950  1
  H+  H219  1  0.77376990  0.89523715  0.01206602  1
  H+  H220  1  0.62300288  0.98543538  0.00545089  1
  H+  H221  1  0.72228218  0.61193524  0.84526013  1
  H+  H222  1  0.10804354  0.37729200  0.46628716  1
  H+  H223  1  0.74563620  0.60454687  0.34898520  1
  H+  H224  1  0.13312798  0.38166443  0.01499700  1
  H+  H225  1  0.46422350  0.85828635  0.16589018  1
  H+  H226  1  0.84456175  0.39542530  0.67964049  1
  H+  H227  1  0.16693985  0.52233866  0.99896812  1
  H+  H228  1  0.89596797  0.52713215  0.16864380  1
  H+  H229  1  0.12214310  0.03299280  0.17926592  1
  H+  H230  1  0.39274046  0.85919102  0.50381960  1
  H+  H231  1  0.76576867  0.62845284  0.68325087  1
  H+  H232  1  0.02524590  0.38698528  0.32487062  1
  H+  H233  1  0.62935843  0.27014327  0.94740252  1
  H+  H234  1  0.28199561  0.38375299  0.48049492  1
  H+  H235  1  0.47918444  0.11419204  0.65254471  1
  H+  H236  1  0.36701895  0.13943254  0.99535203  1
  H+  H237  1  0.09210704  0.96497668  0.64742062  1
  H+  H238  1  0.06123875  0.44103285  0.61297150  1
  H+  H239  1  0.61470405  0.54253928  0.25048972  1
  H+  H240  1  0.85139461  0.36397635  0.01068934  1
  H+  H241  1  0.54572828  0.42358163  0.33165253  1
  H+  H242  1  1.01505260  0.13433719  0.82461155  1
  H+  H243  1  0.88329265  0.36036765  0.32437106  1
  H+  H244  1  0.87779116  0.19087207  0.69296900  1
  H+  H245  1  0.26807435  0.64499739  0.34274452  1
  H+  H246  1  0.14770299  0.52562389  0.18060487  1
  H+  H247  1  1.02260991  0.13067872  0.49012631  1
  H+  H248  1  0.77136203  0.38867329  0.48430344  1
  H+  H249  1  0.12978075  0.60584680  0.84837532  1
  H+  H250  1  0.17752647  0.82592891  0.39036239  1
  H+  H251  1  0.10662580  0.93811515  0.39627126  1
  H+  H252  1  0.16553200  0.81491555  0.94212934  1
  H+  H253  1  0.17453468  0.20529919  1.06670774  1
  H+  H254  1  0.62839981  0.86044316  0.17125901  1
  H+  H255  1  0.85820764  0.51799824  0.00593710  1
  H+  H256  1  0.48213503  0.10661712  0.17040583  1
  H+  H257  1  0.34458676  0.88566731  -0.01953080  1
  H+  H258  1  0.62855507  0.39970762  0.48794162  1
  H+  H259  1  0.10789303  0.87713007  0.85113969  1
  H+  H260  1  0.04063806  0.39144147  0.81508186  1
  H+  H261  1  0.36734603  0.51891590  0.31929504  1
  H+  H262  1  0.89231737  0.02188401  1.00144280  1
  H+  H263  1  0.13829978  0.60402579  0.49487341  1
  H+  H264  1  0.43200071  0.08291213  0.23272030  1
  H+  H265  1  0.85895134  0.87108221  0.66463248  1
  H+  H266  1  0.09782349  0.96322995  0.84825396  1
  H+  H267  1  0.89389285  0.33968715  0.81915746  1
  H+  H268  1  0.61993339  0.89091595  0.48781630  1
  H+  H269  1  0.23407915  0.36219941  0.18118558  1
  H+  H270  1  0.71854826  0.37072136  0.66055784  1
  H+  H271  1  0.37610064  0.38489735  0.01540001  1
  H+  H272  1  0.85830796  0.96900630  0.81711802  1
  H+  H273  1  0.48699091  0.84945595  0.65549022  1
  H+  H274  1  0.85208422  0.18874577  0.03523561  1
  H+  H275  1  1.03638817  0.73689656  0.97056376  1
  H+  H276  1  0.67474613  0.07678018  0.21635449  1
  H+  H277  1  0.97438174  0.36031895  0.48704622  1
  H+  H278  1  0.07255961  0.17019985  0.72816830  1
  H+  H279  1  0.48102828  0.85892752  0.50158804  1
  H+  H280  1  0.38075598  0.14639222  0.47972541  1
  H+  H281  1  0.72903938  0.10120611  0.65637757  1
  H+  H282  1  0.44255822  0.34288337  0.91244027  1
  H+  H283  1  0.37531548  0.53890134  0.83486819  1
  H+  H284  1  0.64179226  0.50699071  0.99855681  1
  H+  H285  1  0.62028784  -0.00115446  0.83804591  1
  H+  H286  1  0.35690060  0.60337420  0.31809769  1
  H+  H287  1  0.40251829  0.28031034  0.00044446  1
  H+  H288  1  0.16283460  0.46575352  0.73535028  1
  H+  H289  1  0.59282393  0.93428931  0.43381421  1
  H+  H290  1  0.08837127  0.15145756  0.43503571  1
  H+  H291  1  0.28870173  0.90016117  0.34274370  1
  H+  H292  1  0.21381857  0.36358554  0.84120589  1
  H+  H293  1  0.91861674  0.07348812  0.89983125  1
  H+  H294  1  0.18765852  0.09851188  0.26497626  1
  H+  H295  1  0.12226389  0.12171778  0.18107013  1
  H+  H296  1  0.67094066  0.83181414  0.59006337  1
  H+  H297  1  0.36693245  0.18758830  0.39081704  1
  H+  H298  1  0.59047690  0.16270143  0.72011877  1
  H+  H299  1  0.57956965  0.91734482  0.10212145  1
  H+  H300  1  0.28898829  0.93068277  0.08641101  1
  H+  H301  1  0.98516379  0.10680755  0.99804752  1
  H+  H302  1  0.14520661  0.08097407  0.90293269  1
  H+  H303  1  0.40050419  0.52184266  1.02885195  1
  H+  H304  1  0.30928869  0.17453986  0.08955054  1
  H+  H305  1  0.17287603  0.83372362  0.55605742  1
  H+  H306  1  0.87751418  0.82994053  0.29240583  1
  H+  H307  1  0.71976032  0.86458339  0.36562782  1
  H+  H308  1  0.59143648  0.66649734  0.44380218  1
  H+  H309  1  0.67314447  0.83341946  0.93390436  1
  H+  H310  1  0.39937829  0.36442245  0.50287303  1
  H+  H311  1  0.59421029  0.66401394  0.11130063  1
  H+  H312  1  0.14063132  0.61146807  0.18169915  1
  H+  H313  1  0.45837358  0.33911433  0.69707728  1
  H+  H314  1  0.08940588  0.66824845  0.77257144  1
  H+  H315  1  0.88005868  0.32148086  0.88940346  1
  H+  H316  1  0.37964246  0.60303734  0.51518687  1
  H+  H317  1  0.25325385  0.15054717  0.15060654  1
  H+  H318  1  0.91049887  0.06985935  0.55236339  1
  H+  H319  1  0.20738364  0.66140520  0.60541733  1
  H+  H320  1  0.48738738  0.13140860  -0.00371328  1
  H+  H321  1  0.15384864  0.54222889  0.54253991  1
  H+  H322  1  0.66899497  0.33766318  0.56044567  1
  H+  H323  1  0.27168755  0.38299318  0.67232841  1
  H+  H324  1  0.92115122  0.06271041  0.28601286  1
  H+  H325  1  0.73249472  0.87196260  0.49155509  1
  H+  H326  1  0.92217531  0.34198898  0.23678113  1
  H+  H327  1  0.82900850  0.41649274  0.38774311  1
  H+  H328  1  0.41871620  0.08602647  0.59541665  1
  H+  H329  1  0.13961645  0.36106697  0.32712833  1
  H+  H330  1  0.82737921  0.66511517  0.43628516  1
  H+  H331  1  0.58600090  0.90834743  0.75811605  1
  H+  H332  1  0.16035496  0.07293534  0.57669040  1
  H+  H333  1  0.17239244  0.32171411  0.94393756  1
  H+  H334  1  0.97367755  0.74790603  0.92799107  1
  H+  H335  1  0.82905170  0.67209925  0.77356769  1
  H+  H336  1  0.59673667  0.18123333  0.09847525  1
  H+  H337  1  0.21942110  0.98422244  0.75849108  1
  H+  H338  1  0.84839652  -0.02701589  0.16697176  1
  H+  H339  1  0.52069602  0.12452222  0.81031954  1
  H+  H340  1  0.75563895  0.88462279  0.16145222  1
  H+  H341  1  0.13837528  0.78220687  0.65584491  1
  H+  H342  1  0.13465353  0.26512274  0.47418952  1
  H+  H343  1  0.04997781  0.92799176  0.11571036  1
  H+  H344  1  0.30883359  0.43105990  0.75909568  1
  H+  H345  1  0.33074741  0.66834568  0.73400259  1
  H+  H346  1  0.63747142  0.02202285  0.50487308  1
  H+  H347  1  0.90993534  0.58201179  0.60982427  1
  H+  H348  1  0.81666711  0.43356747  0.77759855  1
  H+  H349  1  0.66690647  0.32769423  0.25447782  1
  H+  H350  1  0.17848951  0.81278715  0.25621805  1
  H+  H351  1  0.83356274  0.41474350  0.10651757  1
  H+  H352  1  0.35368498  0.42348741  0.43099956  1
  H+  H353  1  -0.01049490  0.89197609  0.02271136  1
  H+  H354  1  0.16982575  0.58967294  0.27070840  1
  H+  H355  1  0.60670525  0.44351924  0.43234548  1
  H+  H356  1  0.83213121  0.90903450  0.72243898  1
  H+  H357  1  0.81844733  0.13080528  0.74479717  1
  H+  H358  1  0.67320795  0.07896384  0.59407469  1
  H+  H359  1  0.40256675  0.83228841  0.25847315  1
  H+  H360  1  0.82426251  0.20079187  0.11752329  1
  H+  H361  1  0.34826827  0.91949854  0.43102628  1
  H+  H362  1  0.33625636  0.67332638  0.39730113  1
  H+  H363  1  0.38891546  0.62155171  -0.00811762  1
  H+  H364  1  0.94094780  0.88829837  0.54065755  1
  H+  H365  1  0.43840418  0.34857641  0.26268785  1
  H+  H366  1  0.64767069  0.06402997  0.89732146  1
  H+  H367  1  0.58036552  0.66243747  0.76872158  1
  H+  H368  1  0.17673653  0.96616082  0.74303957  1
  H+  H369  1  0.09969834  0.41892048  0.10945965  1
  H+  H370  1  0.17526264  0.32847421  0.27452899  1
  H+  H371  1  0.35639711  0.98688203  0.66795460  1
  H+  H372  1  0.64025142  0.27644245  0.50151996  1
  H+  H373  1  0.07280311  0.17298053  0.11269684  1
  H+  H374  1  0.66315318  0.56556520  0.93818303  1
  H+  H375  1  0.36324812  0.64032562  0.15321059  1
  H+  H376  1  0.84013936  0.16349783  0.39303515  1
  H+  H377  1  0.78707215  0.20872452  0.11257723  1
  H+  H378  1  0.92016646  0.58337669  0.23590174  1
  H+  H379  1  0.16902362  0.58135929  0.90801000  1
  H+  H380  1  0.74867011  0.10357236  0.83191506  1
  H+  H381  1  0.13488625  0.41767907  0.73735045  1
  H+  H382  1  0.60191370  0.11101899  0.81681276  1
  H+  H383  1  0.36013640  0.97542352  0.17072914  1
  O2-  O384  1  0.06271084  0.17086794  0.15806330  1
  O2-  O385  1  0.08511963  0.15936817  0.47986639  1
  O2-  O386  1  0.07480324  0.16348597  0.80760641  1
  O2-  O387  1  0.09790774  0.42142350  0.15485584  1
  O2-  O388  1  0.07410140  0.40724419  0.45953281  1
  O2-  O389  1  0.06346096  0.40477328  0.85638865  1
  O2-  O390  1  0.08638216  0.66178977  0.16139763  1
  O2-  O391  1  0.09669579  0.66024796  0.47756806  1
  O2-  O392  1  0.08865334  0.66398638  0.81820694  1
  O2-  O393  1  0.05770629  0.92837426  0.16187963  1
  O2-  O394  1  0.09676961  0.92335055  0.47345370  1
  O2-  O395  1  0.06807360  0.89957564  0.84189265  1
  O2-  O396  1  0.30917372  0.19181105  0.13149964  1
  O2-  O397  1  0.35966742  0.18177058  0.45972996  1
  O2-  O398  1  0.30505690  0.15193934  0.80698445  1
  O2-  O399  1  0.33451628  0.41558367  0.15435272  1
  O2-  O400  1  0.34506935  0.41802912  0.47623194  1
  O2-  O401  1  0.29337447  0.44841568  0.80059265  1
  O2-  O402  1  0.33367393  0.67154778  0.13872043  1
  O2-  O403  1  0.33992142  0.66369647  0.47453147  1
  O2-  O404  1  0.31842881  0.66912003  0.81038072  1
  O2-  O405  1  0.31923451  0.91416438  0.15678002  1
  O2-  O406  1  0.34580809  0.91675240  0.47671732  1
  O2-  O407  1  0.33130398  0.92381531  0.81659137  1
  O2-  O408  1  0.59363587  0.17438673  0.14326578  1
  O2-  O409  1  0.59253229  0.17310190  0.47705040  1
  O2-  O410  1  0.58047031  0.14671720  0.79669668  1
  O2-  O411  1  0.58640730  0.40359911  0.14668902  1
  O2-  O412  1  0.60327197  0.43636307  0.47710790  1
  O2-  O413  1  0.60095751  0.41245706  0.82000205  1
  O2-  O414  1  0.58358867  0.66655604  0.15516601  1
  O2-  O415  1  0.60312837  0.68322863  0.48794323  1
  O2-  O416  1  0.57645959  0.66114142  0.81434788  1
  O2-  O417  1  0.57001796  0.90863735  0.14641334  1
  O2-  O418  1  0.58695217  0.92129829  0.47818929  1
  O2-  O419  1  0.57858725  0.90413184  0.80386207  1
  O2-  O420  1  0.79165759  0.12620862  0.23890759  1
  O2-  O421  1  0.82840139  0.15983675  0.47062048  1
  O2-  O422  1  0.81108080  0.13780381  0.81864415  1
  O2-  O423  1  0.84479971  0.43511981  0.14965093  1
  O2-  O424  1  0.83081344  0.42202653  0.46670598  1
  O2-  O425  1  0.81424529  0.44050613  0.82238440  1
  O2-  O426  1  0.81518700  0.66556850  0.19376226  1
  O2-  O427  1  0.83706287  0.67623297  0.48121717  1
  O2-  O428  1  0.83110621  0.67251867  0.81963658  1
  O2-  O429  1  0.81954597  0.91573805  0.14697919  1
  O2-  O430  1  0.83775678  0.92250280  0.45744048  1
  O2-  O431  1  0.82657880  0.91250334  0.79676306  1
  O2-  O432  1  0.15840285  0.09526107  0.19021725  1
  O2-  O433  1  0.15827626  0.06890041  0.53193548  1
  O2-  O434  1  0.14586158  0.07349630  0.85765125  1
  O2-  O435  1  0.17374979  0.33281612  0.19831872  1
  O2-  O436  1  0.16582115  0.32750165  0.46096922  1
  O2-  O437  1  0.15921587  0.32235709  0.86233808  1
  O2-  O438  1  0.17544884  0.58572942  0.19636113  1
  O2-  O439  1  0.16749870  0.56814909  0.50163545  1
  O2-  O440  1  0.15890368  0.57337639  0.86251408  1
  O2-  O441  1  0.16992638  0.81521918  0.21259178  1
  O2-  O442  1  0.17378134  0.83336065  0.51038009  1
  O2-  O443  1  0.16878067  0.82915420  0.86319470  1
  O2-  O444  1  0.42365908  0.07490710  0.18805658  1
  O2-  O445  1  0.42378129  0.08560269  0.51501164  1
  O2-  O446  1  0.43079591  0.12850869  0.85501792  1
  O2-  O447  1  0.42279214  0.33632153  0.18731433  1
  O2-  O448  1  0.43089993  0.33499502  0.51611957  1
  O2-  O449  1  0.44491356  0.33660340  0.86722381  1
  O2-  O450  1  0.40914255  0.58052026  0.18074085  1
  O2-  O451  1  0.39358653  0.56552031  0.53978547  1
  O2-  O452  1  0.40944230  0.59832254  0.85142655  1
  O2-  O453  1  0.40286636  0.82915303  0.17942141  1
  O2-  O454  1  0.42098218  0.82614077  0.51753874  1
  O2-  O455  1  0.41347795  0.83595214  0.83989818  1
  O2-  O456  1  0.61618874  0.05401411  0.20082579  1
  O2-  O457  1  0.66926261  0.08315860  0.52014489  1
  O2-  O458  1  0.64930769  0.06059288  0.85192670  1
  O2-  O459  1  0.66006798  0.32485142  0.19258805  1
  O2-  O460  1  0.67178879  0.33814907  0.51503365  1
  O2-  O461  1  0.59859328  0.27434044  0.87286180  1
  O2-  O462  1  0.58961663  0.53872160  0.20956262  1
  O2-  O463  1  0.67913509  0.59078734  0.53358513  1
  O2-  O464  1  0.66146362  0.57693264  0.85879806  1
  O2-  O465  1  0.66575364  0.83724284  0.18470221  1
  O2-  O466  1  0.67529960  0.84387523  0.51209657  1
  O2-  O467  1  0.65989926  0.82650638  0.85557309  1
  O2-  O468  1  0.90551124  0.07103340  0.20864474  1
  O2-  O469  1  0.91350454  0.07931809  0.50756542  1
  O2-  O470  1  0.91485831  0.07553102  0.85480855  1
  O2-  O471  1  0.92860034  0.35293460  0.19083333  1
  O2-  O472  1  0.91258997  0.33093979  0.50064167  1
  O2-  O473  1  0.85081254  0.30317999  0.84908344  1
  O2-  O474  1  0.93075818  0.58784355  0.18844641  1
  O2-  O475  1  0.89273741  0.57430809  0.53806884  1
  O2-  O476  1  0.92424239  0.59913800  0.85260082  1
  O2-  O477  1  0.89386342  0.84360259  0.21419625  1
  O2-  O478  1  0.92254316  0.85664372  0.50240994  1
  O2-  O479  1  0.91848275  0.81754544  0.87353892  1
  O2-  O480  1  0.19862031  0.09847269  0.30960462  1
  O2-  O481  1  0.15480957  0.07720430  0.66109499  1
  O2-  O482  1  0.14065724  0.08074370  0.98065356  1
  O2-  O483  1  0.17097404  0.32862208  0.32032124  1
  O2-  O484  1  0.17976784  0.33571583  0.63589759  1
  O2-  O485  1  0.17755030  0.32949310  0.98868308  1
  O2-  O486  1  0.16131158  0.58788710  0.31620015  1
  O2-  O487  1  0.19269869  0.62922879  0.64347012  1
  O2-  O488  1  0.19247760  0.58083684  0.98075642  1
  O2-  O489  1  0.16838664  0.83086346  0.34713568  1
  O2-  O490  1  0.16690841  0.83775208  0.63377656  1
  O2-  O491  1  0.14809170  0.80273780  0.98549788  1
  O2-  O492  1  0.43901519  0.09245094  0.31309787  1
  O2-  O493  1  0.41811804  0.08546881  0.64068431  1
  O2-  O494  1  0.42472125  0.09726898  0.98366906  1
  O2-  O495  1  0.44433654  0.35446826  0.30823781  1
  O2-  O496  1  0.39501545  0.30410913  0.69835403  1
  O2-  O497  1  0.43650218  0.34189488  0.98898715  1
  O2-  O498  1  0.35967338  0.55897988  0.29286692  1
  O2-  O499  1  0.41772853  0.57438377  0.65489194  1
  O2-  O500  1  0.42841607  0.58538457  1.03164067  1
  O2-  O501  1  0.40490985  0.83676422  0.30377577  1
  O2-  O502  1  0.42635702  0.81284515  0.64251764  1
  O2-  O503  1  0.48003699  0.80706320  0.94199905  1
  O2-  O504  1  0.66478305  0.06336057  0.35252751  1
  O2-  O505  1  0.67016665  0.07672733  0.64013972  1
  O2-  O506  1  0.66527662  0.09049727  0.97376284  1
  O2-  O507  1  0.67391998  0.33112161  0.30488957  1
  O2-  O508  1  0.66224352  0.33622903  0.63982325  1
  O2-  O509  1  0.64245725  0.27354224  0.99214822  1
  O2-  O510  1  0.64394020  0.54326352  0.32752148  1
  O2-  O511  1  0.66428649  0.57596340  0.65475599  1
  O2-  O512  1  0.66882123  0.56715201  0.98344768  1
  O2-  O513  1  0.66200738  0.82730717  0.34838132  1
  O2-  O514  1  0.66828082  0.82692018  0.63570904  1
  O2-  O515  1  0.67505223  0.83346292  0.97940101  1
  O2-  O516  1  0.93222788  0.07357868  0.33064122  1
  O2-  O517  1  0.91594229  0.06656419  0.63346638  1
  O2-  O518  1  0.92705983  0.08047690  0.98117581  1
  O2-  O519  1  0.91713473  0.33353860  0.30790046  1
  O2-  O520  1  0.87344398  0.32876660  0.62622278  1
  O2-  O521  1  0.95007865  0.34625433  0.95279079  1
  O2-  O522  1  0.90696092  0.57744020  0.30261396  1
  O2-  O523  1  0.91791223  0.58549233  0.65585005  1
  O2-  O524  1  0.97775540  0.70450037  0.95219882  1
  O2-  O525  1  0.87036756  0.82052653  0.33726773  1
  O2-  O526  1  0.90030258  0.80882596  0.63786582  1
  O2-  O527  1  0.89149112  0.82845340  0.98406407  1
  O2-  O528  1  0.12146370  0.18738707  0.04385549  1
  O2-  O529  1  0.09917568  0.15991981  0.35731766  1
  O2-  O530  1  0.07702687  0.17225305  0.68284699  1
  O2-  O531  1  0.10647446  0.41668476  0.03039972  1
  O2-  O532  1  0.08579776  0.41612596  0.33976682  1
  O2-  O533  1  0.12303374  0.46598381  0.60892137  1
  O2-  O534  1  0.11248521  0.65798838  0.04616504  1
  O2-  O535  1  0.06466685  0.65544685  0.35151589  1
  O2-  O536  1  0.08586300  0.67803989  0.69570108  1
  O2-  O537  1  0.04321257  0.93105114  0.04466559  1
  O2-  O538  1  0.11139556  0.93346702  0.35131360  1
  O2-  O539  1  0.06115074  0.90442590  0.63314076  1
  O2-  O540  1  0.32901459  0.16659622  0.00027805  1
  O2-  O541  1  0.36983509  0.18968598  0.34375911  1
  O2-  O542  1  0.30060683  0.15133887  0.74055626  1
  O2-  O543  1  0.34199623  0.41068026  0.03123309  1
  O2-  O544  1  0.34996707  0.42002513  0.35401280  1
  O2-  O545  1  0.32744270  0.41257997  0.69606097  1
  O2-  O546  1  0.36313186  0.64573434  -0.04021215  1
  O2-  O547  1  0.33066656  0.67515902  0.35209193  1
  O2-  O548  1  0.33662149  0.66412338  0.68916440  1
  O2-  O549  1  0.26852848  0.94278640  0.04716015  1
  O2-  O550  1  0.34995731  0.92823780  0.35404199  1
  O2-  O551  1  0.31842577  0.92632932  0.68302839  1
  O2-  O552  1  0.59408204  0.18242683  0.01311969  1
  O2-  O553  1  0.59757863  0.16695154  0.35418786  1
  O2-  O554  1  0.59508457  0.17091769  0.67509153  1
  O2-  O555  1  0.59312007  0.39843786  0.03025726  1
  O2-  O556  1  0.60596326  0.45385151  0.34912309  1
  O2-  O557  1  0.57647017  0.40737182  0.69753019  1
  O2-  O558  1  0.60144577  0.66357113  0.02771444  1
  O2-  O559  1  0.57601423  0.64773754  0.36983868  1
  O2-  O560  1  0.58343567  0.66491482  0.69024439  1
  O2-  O561  1  0.60050540  0.92556101  0.02038372  1
  O2-  O562  1  0.60740740  0.97921049  0.35958269  1
  O2-  O563  1  0.59314127  0.91121727  0.68345888  1
  O2-  O564  1  0.85564149  0.18074742  -0.00844130  1
  O2-  O565  1  0.86026060  0.17264898  0.34974253  1
  O2-  O566  1  0.82750757  0.13445868  0.69897331  1
  O2-  O567  1  0.80974120  0.34899512  0.04338345  1
  O2-  O568  1  0.83266185  0.41340821  0.34239371  1
  O2-  O569  1  0.82003713  0.42807627  0.69814459  1
  O2-  O570  1  0.83200098  0.67410102  0.02362959  1
  O2-  O571  1  0.80755912  0.64555838  0.36110194  1
  O2-  O572  1  0.82642713  0.65978229  0.69943875  1
  O2-  O573  1  0.83336694  0.92623942  0.02912679  1
  O2-  O574  1  0.83306760  0.92254281  0.38982605  1
  O2-  O575  1  0.83367822  0.90735618  0.67642033  1
