# generated using pymatgen
data_H2O
_symmetry_space_group_name_H-M   'P 1'
_cell_length_a   17.98332831
_cell_length_b   17.98428393
_cell_length_c   21.99863340
_cell_angle_alpha   89.99585654
_cell_angle_beta   89.98556079
_cell_angle_gamma   119.99868032
_symmetry_Int_Tables_number   1
_chemical_formula_structural   H2O
_chemical_formula_sum   'H384 O192'
_cell_volume   6161.62562534
_cell_formula_units_Z   192
loop_
 _symmetry_equiv_pos_site_id
 _symmetry_equiv_pos_as_xyz
  1  'x, y, z'
loop_
 _atom_type_symbol
 _atom_type_oxidation_number
  H+  1.0
  O2-  -2.0
loop_
 _atom_site_type_symbol
 _atom_site_label
 _atom_site_symmetry_multiplicity
 _atom_site_fract_x
 _atom_site_fract_y
 _atom_site_fract_z
 _atom_site_occupancy
  H+  H0  1  0.88853050  0.62871568  0.51373910  1
  H+  H1  1  0.83861560  0.23951146  0.49080839  1
  H+  H2  1  0.13077131  0.77091684  0.33784896  1
  H+  H3  1  0.63178640  -0.00428089  0.51065270  1
  H+  H4  1  0.42944254  0.06528923  0.91018688  1
  H+  H5  1  0.86090498  0.38286998  0.00501146  1
  H+  H6  1  0.47512132  0.36153080  0.33291620  1
  H+  H7  1  0.10533155  0.13053653  0.66821246  1
  H+  H8  1  0.59974120  0.87905169  0.17061816  1
  H+  H9  1  0.60254479  0.40255607  0.49549023  1
  H+  H10  1  0.10400093  0.88199588  0.34101022  1
  H+  H11  1  0.89178126  0.36815007  0.83545893  1
  H+  H12  1  0.36288882  0.96451247  0.00320228  1
  H+  H13  1  0.88286691  0.27225509  0.98977794  1
  H+  H14  1  0.15548857  0.36848030  0.51158821  1
  H+  H15  1  0.37879213  0.11338330  0.83037813  1
  H+  H16  1  0.67535691  0.77935775  0.78157229  1
  H+  H17  1  -0.02543435  0.35770581  0.83568183  1
  H+  H18  1  0.61165284  0.25362463  0.81674295  1
  H+  H19  1  0.99452091  0.77370651  0.89495048  1
  H+  H20  1  0.23079324  0.61853100  0.16248075  1
  H+  H21  1  0.13474912  0.97525364  0.02925787  1
  H+  H22  1  0.47411337  0.86098030  0.50312119  1
  H+  H23  1  0.16204640  0.37225813  0.12784665  1
  H+  H24  1  0.61572017  0.49658362  0.49042537  1
  H+  H25  1  0.51286933  0.76977468  0.83426201  1
  H+  H26  1  0.89386338  0.51003629  0.83456637  1
  H+  H27  1  0.61124722  0.22703812  1.00803015  1
  H+  H28  1  0.08979632  0.50668346  0.15710788  1
  H+  H29  1  0.72795001  0.60408659  0.00441954  1
  H+  H30  1  0.46641065  0.61322796  0.17445937  1
  H+  H31  1  0.25972906  0.13085693  0.96315358  1
  H+  H32  1  0.87373325  0.09423203  0.65308848  1
  H+  H33  1  0.35134703  0.37725948  0.82640248  1
  H+  H34  1  0.62004717  -0.02702915  0.99789395  1
  H+  H35  1  0.38188668  0.01185188  0.35210919  1
  H+  H36  1  0.52004315  0.88355980  0.33678666  1
  H+  H37  1  0.85833983  0.09854025  0.33900124  1
  H+  H38  1  0.12416111  -0.01268209  0.51243022  1
  H+  H39  1  0.99458456  0.36036460  0.33246440  1
  H+  H40  1  0.10928529  0.86583237  0.17433365  1
  H+  H41  1  0.23804592  0.37183587  0.34826192  1
  H+  H42  1  0.60216263  0.36459845  0.65014458  1
  H+  H43  1  0.47414390  0.61504334  0.33250827  1
  H+  H44  1  0.40152395  0.11840599  0.21308544  1
  H+  H45  1  0.38309629  0.60685041  0.98815647  1
  H+  H46  1  0.02541082  0.70492993  0.71366743  1
  H+  H47  1  0.58086629  0.90401095  0.42963235  1
  H+  H48  1  0.87840340  0.59651593  0.65938586  1
  H+  H49  1  0.45474842  0.36515143  0.64608547  1
  H+  H50  1  0.61342206  0.76209662  0.55133663  1
  H+  H51  1  0.63237499  0.52565244  0.33835399  1
  H+  H52  1  0.77591341  0.34253432  0.80945986  1
  H+  H53  1  0.46307135  0.00738385  0.93262815  1
  H+  H54  1  0.38815121  0.52453591  0.33296425  1
  H+  H55  1  0.29043328  0.38081893  0.17667596  1
  H+  H56  1  0.38671638  0.76963318  0.33198567  1
  H+  H57  1  0.35669115  0.37896229  0.01321025  1
  H+  H58  1  0.88850277  0.61321769  0.33778340  1
  H+  H59  1  0.07289773  0.14980907  0.13955940  1
  H+  H60  1  0.66569486  0.79523519  0.64125982  1
  H+  H61  1  0.26747393  0.87884742  0.34844589  1
  H+  H62  1  0.84227736  0.20462992  0.66693542  1
  H+  H63  1  0.63628925  0.86838470  0.99591020  1
  H+  H64  1  0.65341512  0.63982330  0.50315022  1
  H+  H65  1  0.13417442  0.51527666  0.82813653  1
  H+  H66  1  0.97076739  0.85256609  0.18699610  1
  H+  H67  1  0.22330774  0.36460208  0.83525992  1
  H+  H68  1  0.23153542  0.68944548  0.20734631  1
  H+  H69  1  0.63924908  0.28961675  0.50030241  1
  H+  H70  1  0.38957337  0.29255888  0.17615420  1
  H+  H71  1  0.36295514  0.72358626  0.00283081  1
  H+  H72  1  0.29729425  0.38840991  0.50485600  1
  H+  H73  1  0.71683207  0.85484126  0.17291333  1
  H+  H74  1  0.21521014  0.10851662  0.17478253  1
  H+  H75  1  0.72568178  0.61480648  0.65680658  1
  H+  H76  1  0.27408040  0.63439330  0.34343402  1
  H+  H77  1  0.74229845  0.42544991  0.84439584  1
  H+  H78  1  0.12805553  0.82788434  0.51033103  1
  H+  H79  1  0.36323303  0.63456726  0.34447345  1
  H+  H80  1  0.87696937  0.76959671  0.18789840  1
  H+  H81  1  0.11305235  0.23847510  -0.03075058  1
  H+  H82  1  0.36405881  -0.02543460  0.67525823  1
  H+  H83  1  0.95944803  0.33892520  0.65966381  1
  H+  H84  1  0.94934288  0.10059599  0.19063722  1
  H+  H85  1  0.36211022  0.12289214  0.02645687  1
  H+  H86  1  0.23612128  0.85475709  0.83600655  1
  H+  H87  1  0.87810163  0.99890791  0.80437278  1
  H+  H88  1  0.11499381  0.47708018  0.34683116  1
  H+  H89  1  0.16731525  0.83472478  0.28032990  1
  H+  H90  1  0.91434922  0.84046029  0.26932411  1
  H+  H91  1  0.53106886  0.88296589  1.00118819  1
  H+  H92  1  0.64345434  0.11320892  -0.00388598  1
  H+  H93  1  0.54457784  0.63688328  0.81174385  1
  H+  H94  1  0.87515710  0.82197190  0.48151124  1
  H+  H95  1  0.26923606  0.22326179  0.11035238  1
  H+  H96  1  0.14167286  0.85949753  0.65947968  1
  H+  H97  1  0.36439536  0.88783549  0.16818476  1
  H+  H98  1  1.02433496  0.63294099  0.34870306  1
  H+  H99  1  0.77446314  0.13708090  0.00286794  1
  H+  H100  1  0.88507399  0.37447477  0.50960351  1
  H+  H101  1  0.43039920  0.85239961  0.93693396  1
  H+  H102  1  0.13668053  0.60612298  -0.02176758  1
  H+  H103  1  0.64460014  0.62995074  0.64581568  1
  H+  H104  1  0.13823606  0.01934882  0.82129490  1
  H+  H105  1  0.22376787  0.37062934  0.99477373  1
  H+  H106  1  0.84917303  -0.03031326  0.16224676  1
  H+  H107  1  0.60957531  0.37950687  0.15838391  1
  H+  H108  1  0.62156724  0.23886792  0.84644792  1
  H+  H109  1  0.61741924  0.39139293  1.01223140  1
  H+  H110  1  0.36536502  0.48100997  0.16798227  1
  H+  H111  1  0.46493645  0.36118632  0.83716310  1
  H+  H112  1  0.16226987  0.28234450  0.51807862  1
  H+  H113  1  0.21847057  0.09798047  0.66196291  1
  H+  H114  1  0.21996938  0.62987248  0.50108831  1
  H+  H115  1  0.97739080  0.11527422  0.97927314  1
  H+  H116  1  0.66184050  0.63883633  0.84616733  1
  H+  H117  1  0.87138741  0.52333087  0.17688518  1
  H+  H118  1  0.86492842  0.46593127  0.67043396  1
  H+  H119  1  0.82908078  0.89934588  0.41479172  1
  H+  H120  1  -0.01552674  0.87473670  0.33280436  1
  H+  H121  1  0.37920307  0.10042500  0.65534129  1
  H+  H122  1  0.84830627  0.96179590  0.35682594  1
  H+  H123  1  0.59767135  0.49229199  0.65381136  1
  H+  H124  1  0.26710882  0.86801752  0.49974861  1
  H+  H125  1  0.86288833  0.38921119  0.34239971  1
  H+  H126  1  0.42145411  0.64364961  0.82719151  1
  H+  H127  1  0.32836331  0.41482131  0.76726251  1
  H+  H128  1  0.53292668  0.13061449  -0.00136209  1
  H+  H129  1  0.40156673  0.74994910  0.68758020  1
  H+  H130  1  0.17236064  0.77996792  0.19747449  1
  H+  H131  1  0.60790174  0.63795152  0.35277353  1
  H+  H132  1  0.38618618  0.90819196  0.83249006  1
  H+  H133  1  0.60287103  -0.03174585  0.17002906  1
  H+  H134  1  0.39626975  0.69365101  0.77722628  1
  H+  H135  1  0.60869299  0.02364282  0.85157649  1
  H+  H136  1  0.34927708  0.63526730  0.49861053  1
  H+  H137  1  0.52710775  0.13654176  0.16725094  1
  H+  H138  1  0.13584653  0.61044572  0.32972392  1
  H+  H139  1  0.59311473  0.67606908  0.07252743  1
  H+  H140  1  0.88412664  0.87033924  0.33818831  1
  H+  H141  1  0.13714617  0.51894227  -0.01741562  1
  H+  H142  1  0.63653062  0.12247976  0.17673295  1
  H+  H143  1  0.12088875  0.62251346  0.82626396  1
  H+  H144  1  0.55038954  0.34554771  0.77637970  1
  H+  H145  1  0.88836031  0.85803711  0.81005241  1
  H+  H146  1  0.14259481  0.77306080  0.66933546  1
  H+  H147  1  0.33064433  0.59740848  0.15124760  1
  H+  H148  1  0.14792261  0.28376090  0.35189958  1
  H+  H149  1  0.85822836  0.88576813  0.16368745  1
  H+  H150  1  0.60713847  0.72622543  0.34524047  1
  H+  H151  1  0.32494787  0.17957811  0.10733802  1
  H+  H152  1  0.03720646  0.14420316  0.39070473  1
  H+  H153  1  0.97019480  0.36561899  0.50983217  1
  H+  H154  1  0.13771651  0.75774646  -0.01430531  1
  H+  H155  1  0.26582809  0.39055223  0.67705965  1
  H+  H156  1  0.79325025  0.68255605  0.51674582  1
  H+  H157  1  0.92707828  0.71710356  0.04200112  1
  H+  H158  1  0.35831391  0.22697616  0.82291179  1
  H+  H159  1  0.22022848  0.11283720  0.33638042  1
  H+  H160  1  0.88953311  0.11557816  0.99542939  1
  H+  H161  1  0.59894271  0.63330790  0.16834906  1
  H+  H162  1  0.74534868  0.63062101  0.85075603  1
  H+  H163  1  0.40177213  0.38536319  0.17710464  1
  H+  H164  1  0.39062366  0.85679169  -0.00037152  1
  H+  H165  1  0.10596497  0.59816867  0.65858967  1
  H+  H166  1  0.10327560  0.42804505  0.15619685  1
  H+  H167  1  0.00859340  0.84339082  0.48616461  1
  H+  H168  1  0.86330332  0.47785503  0.34052500  1
  H+  H169  1  0.10653366  0.97447841  0.34629773  1
  H+  H170  1  0.27007966  0.13733690  0.81314248  1
  H+  H171  1  0.35470880  0.22364198  0.33552938  1
  H+  H172  1  0.85243439  -0.01738585  0.83303244  1
  H+  H173  1  0.70679208  0.10298585  0.83735660  1
  H+  H174  1  0.39980551  0.06092483  0.59817464  1
  H+  H175  1  0.11413922  0.64768349  0.15415510  1
  H+  H176  1  0.91151045  0.33174428  0.92949215  1
  H+  H177  1  0.45995103  0.85747042  0.17865839  1
  H+  H178  1  0.94261583  0.09574931  0.32175598  1
  H+  H179  1  0.07908803  0.82097432  0.01854415  1
  H+  H180  1  0.45786050  0.09359257  0.81741838  1
  H+  H181  1  0.37865739  0.51742652  0.99455008  1
  H+  H182  1  0.35161583  0.38642747  0.67097946  1
  H+  H183  1  0.61606313  0.83711440  0.82451887  1
  H+  H184  1  0.88604697  0.60843902  0.98626725  1
  H+  H185  1  0.85835945  0.72511957  0.00874832  1
  H+  H186  1  0.27299123  0.63592252  -0.00461644  1
  H+  H187  1  0.11048805  0.48017406  0.50099512  1
  H+  H188  1  0.36285184  0.87901492  0.49931848  1
  H+  H189  1  0.72847087  0.08223653  0.66281733  1
  H+  H190  1  0.11395018  0.13627617  0.35857023  1
  H+  H191  1  0.42079103  0.34037942  0.27188277  1
  H+  H192  1  0.83349032  0.85839102  0.63095782  1
  H+  H193  1  0.63582470  0.11927162  0.32409730  1
  H+  H194  1  0.85710776  0.70943527  0.67347813  1
  H+  H195  1  0.38434063  0.77521518  0.51120389  1
  H+  H196  1  0.14368720  0.13519820  0.51321129  1
  H+  H197  1  0.61157544  0.22633624  0.33746122  1
  H+  H198  1  0.00173093  0.10127661  0.51221123  1
  H+  H199  1  0.24503265  0.87537970  0.18303534  1
  H+  H200  1  0.72115510  0.61424654  0.34313240  1
  H+  H201  1  0.45749119  0.40214783  0.49760636  1
  H+  H202  1  0.01332566  0.38636334  -0.00001566  1
  H+  H203  1  0.12232624  0.39191680  0.35267217  1
  H+  H204  1  0.39477920  0.13442245  0.96089194  1
  H+  H205  1  0.85136359  0.13912034  0.16496987  1
  H+  H206  1  0.35156715  0.13315220  0.34546458  1
  H+  H207  1  0.40362614  0.51482482  0.84205568  1
  H+  H208  1  0.85879222  0.48731058  0.49463571  1
  H+  H209  1  0.21935619  0.85200279  -0.00478380  1
  H+  H210  1  0.84952080  0.69426295  0.40718871  1
  H+  H211  1  0.27362681  0.88082981  0.67935979  1
  H+  H212  1  0.10669468  0.37898288  0.82099179  1
  H+  H213  1  0.35323898  -0.02586605  0.81773869  1
  H+  H214  1  0.37149721  0.65241089  0.68424779  1
  H+  H215  1  0.96337705  0.09741922  0.65437238  1
  H+  H216  1  0.88356769  0.86814915  -0.00841503  1
  H+  H217  1  0.60968638  0.38787005  0.34643055  1
  H+  H218  1  0.90033015  0.78363209  0.59488508  1
  H+  H219  1  0.36278610  0.15404565  0.48366703  1
  H+  H220  1  0.86276542  0.22228958  0.34337453  1
  H+  H221  1  0.35166230  0.42118842  0.40855909  1
  H+  H222  1  0.09701186  -0.01734129  1.03358114  1
  H+  H223  1  0.85500534  0.23149802  0.16267781  1
  H+  H224  1  0.13125433  0.27060826  0.66019710  1
  H+  H225  1  0.04027064  0.87541951  0.82629153  1
  H+  H226  1  0.71271844  0.09196870  0.51342754  1
  H+  H227  1  0.71917484  0.85307301  0.33434569  1
  H+  H228  1  0.07962873  0.10107657  0.19522354  1
  H+  H229  1  0.63225939  0.27507536  0.17171508  1
  H+  H230  1  0.96633775  0.84087504  0.64789825  1
  H+  H231  1  0.58456022  0.66105469  0.74528518  1
  H+  H232  1  0.57734904  0.10084542  0.80991600  1
  H+  H233  1  0.38352901  0.85687849  0.33439326  1
  H+  H234  1  0.71836996  0.36769166  0.16931420  1
  H+  H235  1  0.85452152  0.63905403  0.17173838  1
  H+  H236  1  0.52486502  0.13405044  0.35069633  1
  H+  H237  1  0.82828318  0.65088856  0.73356477  1
  H+  H238  1  0.81478580  0.88417888  0.52810181  1
  H+  H239  1  0.95946686  0.37666278  0.17202592  1
  H+  H240  1  0.48114083  0.36716483  -0.00411798  1
  H+  H241  1  0.51852479  0.38714881  0.16032624  1
  H+  H242  1  0.35387120  0.21727283  0.66210041  1
  H+  H243  1  0.85456112  0.14533130  0.82364767  1
  H+  H244  1  0.41140506  0.08193534  0.40147932  1
  H+  H245  1  0.96789492  0.59841413  0.65813545  1
  H+  H246  1  0.12030381  0.71447813  0.83211725  1
  H+  H247  1  0.10416414  0.95982791  0.66801318  1
  H+  H248  1  0.51457558  0.63854534  0.65319282  1
  H+  H249  1  0.13803340  0.69985526  0.50414429  1
  H+  H250  1  0.73010710  0.36749007  1.00194820  1
  H+  H251  1  0.67953330  0.60329499  0.55996648  1
  H+  H252  1  0.36916440  -0.01951421  0.17005702  1
  H+  H253  1  0.11380972  0.23018147  0.81976111  1
  H+  H254  1  0.63420215  0.86034298  0.32805629  1
  H+  H255  1  0.73342531  0.87119579  -0.00220972  1
  H+  H256  1  0.72762743  0.12020765  0.32564481  1
  H+  H257  1  0.84675864  0.39098425  0.15996048  1
  H+  H258  1  0.64453823  0.77338841  1.00485260  1
  H+  H259  1  0.72273014  0.36192497  0.32758914  1
  H+  H260  1  0.13545319  0.37369804  0.99187271  1
  H+  H261  1  0.17566320  0.39407659  0.15850163  1
  H+  H262  1  0.86269348  0.72595341  0.34131867  1
  H+  H263  1  0.09238101  0.65580106  0.40331268  1
  H+  H264  1  0.59878780  0.72149698  0.16417449  1
  H+  H265  1  0.86203177  0.47300447  0.00294086  1
  H+  H266  1  0.36948554  0.38820620  0.34576567  1
  H+  H267  1  0.08069776  0.45799709  0.66511895  1
  H+  H268  1  0.13027339  0.88471755  0.81730119  1
  H+  H269  1  0.12553744  0.15764976  0.96010360  1
  H+  H270  1  0.73121681  0.12545415  0.17675439  1
  H+  H271  1  1.01660146  0.62189901  0.99164915  1
  H+  H272  1  0.39294705  0.52884665  0.51023037  1
  H+  H273  1  0.86642603  0.61841306  0.82397290  1
  H+  H274  1  0.95809866  0.84391120  1.00355175  1
  H+  H275  1  0.61042867  0.42333267  0.81696797  1
  H+  H276  1  0.84285919  0.84408251  0.80097622  1
  H+  H277  1  0.59515947  0.85420826  0.48437049  1
  H+  H278  1  0.71378984  0.61986866  0.18481672  1
  H+  H279  1  0.81242911  0.17116228  0.40382311  1
  H+  H280  1  0.59976316  0.14977382  0.65613732  1
  H+  H281  1  0.47009120  0.62449281  0.51028954  1
  H+  H282  1  0.10795605  0.13831575  0.81556593  1
  H+  H283  1  0.10044669  0.37939473  0.66937268  1
  H+  H284  1  0.98095723  0.14649601  0.83867449  1
  H+  H285  1  0.08595566  0.71488289  0.13202640  1
  H+  H286  1  0.16104945  0.25332451  0.20603134  1
  H+  H287  1  0.60901801  0.97308980  0.33577393  1
  H+  H288  1  0.91401657  0.58504690  0.27569503  1
  H+  H289  1  0.16380361  0.33891330  0.89424599  1
  H+  H290  1  0.40893141  0.58436426  0.23529090  1
  H+  H291  1  0.87376495  0.06391321  0.23885234  1
  H+  H292  1  0.88151147  0.71139702  0.82983029  1
  H+  H293  1  0.83172865  0.67458584  0.11285119  1
  H+  H294  1  0.33889111  0.91414246  0.74516387  1
  H+  H295  1  0.17517938  0.82900146  0.89519511  1
  H+  H296  1  0.15150474  0.08221573  0.28277756  1
  H+  H297  1  0.38601852  0.52507448  0.66220783  1
  H+  H298  1  0.57769201  0.42116493  0.40382907  1
  H+  H299  1  0.16812158  0.58419183  0.27059266  1
  H+  H300  1  0.40180638  0.27296282  0.98951055  1
  H+  H301  1  0.57920887  0.16277356  0.10295839  1
  H+  H302  1  0.53718618  0.88193346  0.84645308  1
  H+  H303  1  0.82955068  0.42221352  0.43851627  1
  H+  H304  1  0.14451587  0.19897515  0.07558087  1
  H+  H305  1  0.32809373  0.66826135  0.43745173  1
  H+  H306  1  0.66284872  0.82706326  0.23485451  1
  H+  H307  1  0.10281605  0.94851727  0.15987523  1
  H+  H308  1  0.40205693  0.83073119  0.23719775  1
  H+  H309  1  0.45791259  0.84739910  0.60855756  1
  H+  H310  1  0.56368067  0.13791614  0.74782444  1
  H+  H311  1  0.83012281  0.16986422  0.06360170  1
  H+  H312  1  0.92044781  0.11365880  0.89733237  1
  H+  H313  1  0.64129761  0.33735458  0.59602641  1
  H+  H314  1  0.96535457  0.29061896  0.28250650  1
  H+  H315  1  0.11973174  0.15060811  0.07139729  1
  H+  H316  1  0.06912399  0.42797253  0.05969406  1
  H+  H317  1  0.38914331  0.33826785  0.59147535  1
  H+  H318  1  0.15962923  0.06195906  0.60352951  1
  H+  H319  1  0.86109015  0.37353032  0.67355962  1
  H+  H320  1  0.07816059  0.89312437  0.43718617  1
  H+  H321  1  0.11944871  0.57334646  0.59290749  1
  H+  H322  1  0.93801112  0.81530440  0.90962117  1
  H+  H323  1  0.36404800  1.00358304  0.48475924  1
  H+  H324  1  0.58039883  0.41519295  0.09405538  1
  H+  H325  1  0.41366795  0.33408614  0.90062757  1
  H+  H326  1  0.82809670  0.94279312  0.62918277  1
  H+  H327  1  0.55912002  0.43608732  0.71364426  1
  H+  H328  1  0.40772069  0.58332178  0.60177314  1
  H+  H329  1  0.74214740  0.19994178  0.46808253  1
  H+  H330  1  0.58042165  0.68349340  0.43929102  1
  H+  H331  1  0.53674564  0.88398895  0.65490827  1
  H+  H332  1  0.96254168  0.60742447  0.17554511  1
  H+  H333  1  0.66291135  0.04146609  0.59984502  1
  H+  H334  1  0.71373333  0.86527864  0.74364491  1
  H+  H335  1  0.98457556  0.59893933  0.83806064  1
  H+  H336  1  0.43759331  0.57425721  0.90124723  1
  H+  H337  1  0.61553762  0.13843465  0.49634838  1
  H+  H338  1  0.07583469  0.16447097  0.72516046  1
  H+  H339  1  0.43583842  0.07761663  0.25880944  1
  H+  H340  1  0.17144509  0.08476562  0.87742837  1
  H+  H341  1  0.04764853  0.84176023  0.08194872  1
  H+  H342  1  0.63053052  0.65031681  1.01439170  1
  H+  H343  1  0.16717167  0.81321427  0.57144243  1
  H+  H344  1  0.17137690  0.33801353  0.60544471  1
  H+  H345  1  0.20616048  0.03735494  0.21958158  1
  H+  H346  1  0.33756117  0.16758182  0.72498934  1
  H+  H347  1  0.22253399  0.05824528  0.51520697  1
  H+  H348  1  0.16606443  0.05735919  0.97770350  1
  H+  H349  1  0.33031909  0.41097886  0.07328410  1
  H+  H350  1  0.08591861  0.41889821  0.44475095  1
  H+  H351  1  0.67798112  0.59401791  0.94216474  1
  H+  H352  1  0.91282291  0.58184690  0.56288747  1
  H+  H353  1  0.81509542  0.14998751  0.72940791  1
  H+  H354  1  0.12468520  0.17799517  0.45730786  1
  H+  H355  1  0.92408928  0.07044374  0.55757796  1
  H+  H356  1  0.66173058  0.33527089  0.26927080  1
  H+  H357  1  0.62168304  0.24376313  0.67222128  1
  H+  H358  1  0.07589876  0.66778371  0.74871526  1
  H+  H359  1  0.89218653  0.96479819  0.49893688  1
  H+  H360  1  0.82410760  0.42142577  0.09811971  1
  H+  H361  1  0.72070600  0.38051927  0.50542517  1
  H+  H362  1  0.07316844  0.64428000  0.05144177  1
  H+  H363  1  0.91065608  0.57224974  0.92589888  1
  H+  H364  1  0.83951408  0.22191681  0.81622333  1
  H+  H365  1  0.20195509  0.31808050  0.26010356  1
  H+  H366  1  0.30496613  0.62775635  0.08877297  1
  H+  H367  1  0.61553438  0.48081586  0.01031856  1
  H+  H368  1  0.83543182  0.92023045  0.06450297  1
  H+  H369  1  0.61533943  0.17671864  0.43086868  1
  H+  H370  1  0.07120941  0.40513340  0.76196287  1
  H+  H371  1  0.66806348  0.08754181  0.93273625  1
  H+  H372  1  0.90491102  0.34057914  0.23212131  1
  H+  H373  1  0.65270868  0.34739588  0.85390827  1
  H+  H374  1  0.17151737  0.57554672  0.88627316  1
  H+  H375  1  0.07585860  0.89768585  0.72482135  1
  H+  H376  1  0.67051839  0.09628258  0.24747948  1
  H+  H377  1  0.65805548  0.59298608  0.24470013  1
  H+  H378  1  0.90129891  0.31715954  0.60020198  1
  H+  H379  1  0.86642994  0.98249544  0.00511176  1
  H+  H380  1  0.67543996  0.35979071  0.94384115  1
  H+  H381  1  0.32557166  0.89935180  0.40778387  1
  H+  H382  1  0.33251775  0.91971552  0.06884955  1
  H+  H383  1  0.82814749  0.40821083  0.75406059  1
  O2-  O384  1  0.06035465  0.14122885  0.18339727  1
  O2-  O385  1  0.12143601  0.17407460  0.50222001  1
  O2-  O386  1  0.08011564  0.17113434  0.80196046  1
  O2-  O387  1  0.06192994  0.44633490  0.14480639  1
  O2-  O388  1  0.08598726  0.41888507  0.49001784  1
  O2-  O389  1  0.07339996  0.40720630  0.80744903  1
  O2-  O390  1  0.06662094  0.65369872  0.13436436  1
  O2-  O391  1  0.12033655  0.64584221  0.48047283  1
  O2-  O392  1  0.08642660  0.65461762  0.81637572  1
  O2-  O393  1  0.07078121  0.88534146  0.15660220  1
  O2-  O394  1  0.07150315  0.88175513  0.48141367  1
  O2-  O395  1  0.09447099  0.90967225  0.80304704  1
  O2-  O396  1  0.29552647  0.19784975  0.13578227  1
  O2-  O397  1  0.33726669  0.09649970  0.50157631  1
  O2-  O398  1  0.33321787  0.16910103  0.80365098  1
  O2-  O399  1  0.34362590  0.42003823  0.15321277  1
  O2-  O400  1  0.35827234  0.42082340  0.48873994  1
  O2-  O401  1  0.32519651  0.41180105  0.81272636  1
  O2-  O402  1  0.28220571  0.59675660  0.12857874  1
  O2-  O403  1  0.32221665  0.66813860  0.48276660  1
  O2-  O404  1  0.42009337  0.69707537  0.81896200  1
  O2-  O405  1  0.33538007  0.92249545  0.15269883  1
  O2-  O406  1  0.32615045  0.90293101  0.48218040  1
  O2-  O407  1  0.33737457  0.91373265  0.80658452  1
  O2-  O408  1  0.58517524  0.16653045  0.14862208  1
  O2-  O409  1  0.64075994  0.19162840  0.47238660  1
  O2-  O410  1  0.53269552  0.09960831  0.78326515  1
  O2-  O411  1  0.57890835  0.41051746  0.14148310  1
  O2-  O412  1  0.57544328  0.43575587  0.47972980  1
  O2-  O413  1  0.55759572  0.39967543  0.79188266  1
  O2-  O414  1  0.56781772  0.66103939  0.14907362  1
  O2-  O415  1  0.57830697  0.67976649  0.48569227  1
  O2-  O416  1  0.59965300  0.66654614  0.78878785  1
  O2-  O417  1  0.56510501  0.90708758  0.16274442  1
  O2-  O418  1  0.57908414  0.89811698  0.47479173  1
  O2-  O419  1  0.52204870  0.93253667  0.83913212  1
  O2-  O420  1  0.82176357  0.17014595  0.14951265  1
  O2-  O421  1  0.79040494  0.18748853  0.47053182  1
  O2-  O422  1  0.81288558  0.16100545  0.80374905  1
  O2-  O423  1  0.81819210  0.42213567  0.14362893  1
  O2-  O424  1  0.82939098  0.42430838  0.48342977  1
  O2-  O425  1  0.81776096  0.40316692  0.80319790  1
  O2-  O426  1  0.82855295  0.67410974  0.15788395  1
  O2-  O427  1  0.85805902  0.71774653  0.52401204  1
  O2-  O428  1  0.84125422  0.65462322  0.81170163  1
  O2-  O429  1  0.82602394  0.91108458  0.14485655  1
  O2-  O430  1  0.85139158  0.90082729  0.49115674  1
  O2-  O431  1  0.70689628  0.84291448  0.78475935  1
  O2-  O432  1  0.17199956  0.05822811  0.19884692  1
  O2-  O433  1  0.16454188  0.04732257  0.52569301  1
  O2-  O434  1  0.16530985  0.08133373  0.83244924  1
  O2-  O435  1  0.21640347  0.29777344  0.22217320  1
  O2-  O436  1  0.19142329  0.34513855  0.52746031  1
  O2-  O437  1  0.16169559  0.33280451  0.84912249  1
  O2-  O438  1  0.18946723  0.63371423  0.19031448  1
  O2-  O439  1  0.15686174  0.60028698  0.51356445  1
  O2-  O440  1  0.16605635  0.57648769  0.84132003  1
  O2-  O441  1  0.18404466  0.83888829  0.20138287  1
  O2-  O442  1  0.16461448  0.80527202  0.52632343  1
  O2-  O443  1  0.17459458  0.82588250  0.84996020  1
  O2-  O444  1  0.43184087  0.08603741  0.21511358  1
  O2-  O445  1  0.39692409  0.06912484  0.47869720  1
  O2-  O446  1  0.40405495  0.07758983  0.84377957  1
  O2-  O447  1  0.43051714  0.35076957  0.19074874  1
  O2-  O448  1  0.39569091  0.36860805  0.51003557  1
  O2-  O449  1  0.40680852  0.32836618  0.85562262  1
  O2-  O450  1  0.40545430  0.58035821  0.19006898  1
  O2-  O451  1  0.40920280  0.58782554  0.52327516  1
  O2-  O452  1  0.45007051  0.57099776  0.85699931  1
  O2-  O453  1  0.39854558  0.83255902  0.19209528  1
  O2-  O454  1  0.41689108  0.83698466  0.52293028  1
  O2-  O455  1  0.44720122  0.91545488  0.87689947  1
  O2-  O456  1  0.67003656  0.09606475  0.19550849  1
  O2-  O457  1  0.65627522  0.05235895  0.53205329  1
  O2-  O458  1  0.65298153  0.08575763  0.86039033  1
  O2-  O459  1  0.65777603  0.33565200  0.18596885  1
  O2-  O460  1  0.65772370  0.34852031  0.51435702  1
  O2-  O461  1  0.68695194  0.40828694  0.86553137  1
  O2-  O462  1  0.65418299  0.59174714  0.19976736  1
  O2-  O463  1  0.68783622  0.61280240  0.51463882  1
  O2-  O464  1  0.69240169  0.61875053  0.87268759  1
  O2-  O465  1  0.65770361  0.82649683  0.18973954  1
  O2-  O466  1  0.62208963  0.77025106  0.50595167  1
  O2-  O467  1  0.56597854  0.82300503  0.85091070  1
  O2-  O468  1  0.88569293  0.07298746  0.19449796  1
  O2-  O469  1  0.93856858  0.06577381  0.51438850  1
  O2-  O470  1  0.93054523  0.14455264  0.85847794  1
  O2-  O471  1  0.89965222  0.33896177  0.18735251  1
  O2-  O472  1  0.90855679  0.33636923  0.52174297  1
  O2-  O473  1  0.91420676  0.33235656  0.85223990  1
  O2-  O474  1  0.90508112  0.58245367  0.19460116  1
  O2-  O475  1  0.90937344  0.58778425  0.51817717  1
  O2-  O476  1  0.92192440  0.56913098  0.85057759  1
  O2-  O477  1  0.91147415  0.83121294  0.20334013  1
  O2-  O478  1  0.89215929  0.77696493  0.47209750  1
  O2-  O479  1  0.96194338  0.79682014  0.87507722  1
  O2-  O480  1  0.15474859  0.08022575  0.32734858  1
  O2-  O481  1  0.15719421  0.06652285  0.64858660  1
  O2-  O482  1  0.19871641  0.10948956  0.95323454  1
  O2-  O483  1  0.17682451  0.34170000  0.33324249  1
  O2-  O484  1  0.16204775  0.33354458  0.65030364  1
  O2-  O485  1  0.16744917  0.34739337  0.97362462  1
  O2-  O486  1  0.16526267  0.57874886  0.31536293  1
  O2-  O487  1  0.09013292  0.54932974  0.63199779  1
  O2-  O488  1  0.17010956  0.57827963  0.96570954  1
  O2-  O489  1  0.15885575  0.83281012  0.32511083  1
  O2-  O490  1  0.17613257  0.83069229  0.64973241  1
  O2-  O491  1  0.16090217  0.81999359  0.97656617  1
  O2-  O492  1  0.41430381  0.07668686  0.35591405  1
  O2-  O493  1  0.40334620  0.06350080  0.64235342  1
  O2-  O494  1  0.44753058  0.04925708  0.94997366  1
  O2-  O495  1  0.41477359  0.33235020  0.31663338  1
  O2-  O496  1  0.39256295  0.32832933  0.63537567  1
  O2-  O497  1  0.42066839  0.33348419  0.98082012  1
  O2-  O498  1  0.41413627  0.58404676  0.31630792  1
  O2-  O499  1  0.41857026  0.58532721  0.64634170  1
  O2-  O500  1  0.41101363  0.57401945  0.97496310  1
  O2-  O501  1  0.41600270  0.83034868  0.31674617  1
  O2-  O502  1  0.47296496  0.84698796  0.65130618  1
  O2-  O503  1  0.42236627  0.83131473  0.98052781  1
  O2-  O504  1  0.66835636  0.09112086  0.30613576  1
  O2-  O505  1  0.66515396  0.03844068  0.64716499  1
  O2-  O506  1  0.67357248  0.08491409  0.97869835  1
  O2-  O507  1  0.66140150  0.33077078  0.31429928  1
  O2-  O508  1  0.63003425  0.33081261  0.64025123  1
  O2-  O509  1  0.66887770  0.34196318  0.98695974  1
  O2-  O510  1  0.66168588  0.58811543  0.32764504  1
  O2-  O511  1  0.67022661  0.59382347  0.63433320  1
  O2-  O512  1  0.67019665  0.58022421  0.98771984  1
  O2-  O513  1  0.66217584  0.82682150  0.31470533  1
  O2-  O514  1  0.60545872  0.75629611  0.62859889  1
  O2-  O515  1  0.67130914  0.83582405  0.98518697  1
  O2-  O516  1  0.88009235  0.06126730  0.32053364  1
  O2-  O517  1  0.90491998  0.06644961  0.63605603  1
  O2-  O518  1  0.91297783  0.08008668  0.97867356  1
  O2-  O519  1  0.94131847  0.31817823  0.30779278  1
  O2-  O520  1  0.89818909  0.30874739  0.64517642  1
  O2-  O521  1  0.91100132  0.33331400  0.97527301  1
  O2-  O522  1  0.91774639  0.58308600  0.32090157  1
  O2-  O523  1  0.90906705  0.56791361  0.64160330  1
  O2-  O524  1  0.91106334  0.57346560  0.97164739  1
  O2-  O525  1  0.91927713  0.84504917  0.31754159  1
  O2-  O526  1  0.90454398  0.80591177  0.63660139  1
  O2-  O527  1  0.90745609  0.83068973  0.97811406  1
  O2-  O528  1  0.08209087  0.17498621  -0.03641639  1
  O2-  O529  1  0.09745027  0.17630808  0.37895493  1
  O2-  O530  1  0.07518569  0.16217837  0.67941496  1
  O2-  O531  1  0.07381780  0.41924616  0.01603909  1
  O2-  O532  1  0.08556176  0.41756242  0.36405296  1
  O2-  O533  1  0.06209572  0.40092909  0.68430011  1
  O2-  O534  1  0.07737638  0.65074665  0.00673750  1
  O2-  O535  1  0.08684199  0.66399531  0.35921121  1
  O2-  O536  1  0.06314774  0.68163092  0.70558202  1
  O2-  O537  1  0.02767925  0.81175179  0.04241216  1
  O2-  O538  1  0.07112996  0.91111105  0.35495251  1
  O2-  O539  1  0.07509446  0.89727333  0.67934691  1
  O2-  O540  1  0.36603431  0.15407170  -0.01081222  1
  O2-  O541  1  0.31685373  0.16169142  0.34580995  1
  O2-  O542  1  0.33086985  0.15907728  0.67994674  1
  O2-  O543  1  0.32323230  0.40511398  0.02835201  1
  O2-  O544  1  0.34276394  0.42067861  0.36389479  1
  O2-  O545  1  0.32780701  0.42098677  0.68946850  1
  O2-  O546  1  0.32927537  0.66282739  0.01698705  1
  O2-  O547  1  0.33381517  0.66632193  0.35930288  1
  O2-  O548  1  0.35922494  0.69321021  0.70533841  1
  O2-  O549  1  0.32501686  0.90967994  0.02432142  1
  O2-  O550  1  0.32831251  0.90581368  0.36196081  1
  O2-  O551  1  0.33480904  0.91436125  0.69471350  1
  O2-  O552  1  0.58315412  0.16780645  0.02484919  1
  O2-  O553  1  0.58914008  0.16607433  0.35290169  1
  O2-  O554  1  0.62171218  0.19165590  0.68883331  1
  O2-  O555  1  0.58392710  0.41953149  0.02630429  1
  O2-  O556  1  0.57813866  0.41791552  0.35813476  1
  O2-  O557  1  0.55708943  0.43275272  0.66891642  1
  O2-  O558  1  0.61131652  0.68982705  0.02918569  1
  O2-  O559  1  0.57642959  0.66852111  0.36532746  1
  O2-  O560  1  0.58162012  0.67486714  0.65981580  1
  O2-  O561  1  0.59329973  0.91249374  0.01197144  1
  O2-  O562  1  0.58189773  0.91353761  0.35064648  1
  O2-  O563  1  0.64634658  0.95084906  0.66236881  1
  O2-  O564  1  0.83523361  0.17041276  0.01894651  1
  O2-  O565  1  0.82160194  0.16355744  0.35869635  1
  O2-  O566  1  0.81480744  0.14441419  0.68347229  1
  O2-  O567  1  0.83213143  0.41446100  0.02186566  1
  O2-  O568  1  0.82929761  0.41597549  0.35385804  1
  O2-  O569  1  0.83823666  0.40923285  0.69137487  1
  O2-  O570  1  0.86462692  0.68070616  0.03203236  1
  O2-  O571  1  0.83799480  0.67244911  0.36497006  1
  O2-  O572  1  0.82571921  0.64843910  0.68813253  1
  O2-  O573  1  0.83536563  0.92032199  0.01922796  1
  O2-  O574  1  0.82885245  0.90138535  0.36897459  1
  O2-  O575  1  0.79635639  0.88128890  0.61765150  1
