# generated using pymatgen
data_H2O
_symmetry_space_group_name_H-M   'P 1'
_cell_length_a   17.99154140
_cell_length_b   17.98944946
_cell_length_c   22.01347610
_cell_angle_alpha   89.99995087
_cell_angle_beta   90.01363491
_cell_angle_gamma   120.00699448
_symmetry_Int_Tables_number   1
_chemical_formula_structural   H2O
_chemical_formula_sum   'H384 O192'
_cell_volume   6169.85380014
_cell_formula_units_Z   192
loop_
 _symmetry_equiv_pos_site_id
 _symmetry_equiv_pos_as_xyz
  1  'x, y, z'
loop_
 _atom_type_symbol
 _atom_type_oxidation_number
  H+  1.0
  O2-  -2.0
loop_
 _atom_site_type_symbol
 _atom_site_label
 _atom_site_symmetry_multiplicity
 _atom_site_fract_x
 _atom_site_fract_y
 _atom_site_fract_z
 _atom_site_occupancy
  H+  H0  1  0.72902993  0.61170506  0.18609923  1
  H+  H1  1  0.37303411  0.10722832  0.31184675  1
  H+  H2  1  0.88522807  0.77480490  0.99110515  1
  H+  H3  1  0.51948168  0.36795789  0.83260747  1
  H+  H4  1  0.74760417  0.86187569  0.51332709  1
  H+  H5  1  0.87245133  0.88671575  1.00957244  1
  H+  H6  1  0.32493249  0.65877678  0.76522312  1
  H+  H7  1  0.35586797  0.63676847  0.67128456  1
  H+  H8  1  0.21449615  0.10100258  0.17816520  1
  H+  H9  1  0.45996590  0.10811755  0.33093607  1
  H+  H10  1  0.59924201  0.86922611  0.66645064  1
  H+  H11  1  0.76611324  0.64450384  1.00929311  1
  H+  H12  1  0.10780249  0.79999092  0.49433547  1
  H+  H13  1  1.02324139  0.13609610  0.16123724  1
  H+  H14  1  0.10760569  0.97552112  0.83121653  1
  H+  H15  1  0.11732592  0.22105179  0.16209529  1
  H+  H16  1  0.12394131  0.64447697  0.34839320  1
  H+  H17  1  0.10969107  -0.00640493  0.51022882  1
  H+  H18  1  0.63083396  0.59811345  0.00075771  1
  H+  H19  1  0.95481325  0.63604103  0.67121448  1
  H+  H20  1  0.99455831  0.61310216  0.34030062  1
  H+  H21  1  0.04003201  0.40471708  0.67044857  1
  H+  H22  1  0.47703576  0.62187888  0.84372557  1
  H+  H23  1  0.58157876  0.40526788  0.55578472  1
  H+  H24  1  0.32833926  0.93322497  0.09306016  1
  H+  H25  1  0.60054500  0.12968297  0.68140074  1
  H+  H26  1  0.60875984  0.47271808  1.00227936  1
  H+  H27  1  0.62190620  0.20722375  0.50413642  1
  H+  H28  1  0.61206330  0.64094204  0.34072821  1
  H+  H29  1  0.11650009  0.72989048  0.34485679  1
  H+  H30  1  0.10031856  0.12451599  0.48594273  1
  H+  H31  1  0.63251842  0.26777882  0.84121686  1
  H+  H32  1  0.70459672  0.35546048  0.99462106  1
  H+  H33  1  0.97359713  0.35274538  0.82058745  1
  H+  H34  1  0.37843977  0.87580556  0.65608174  1
  H+  H35  1  0.70466980  0.23682655  0.38756974  1
  H+  H36  1  0.46692219  0.36065821  0.99706992  1
  H+  H37  1  0.13057374  0.35904670  0.83885714  1
  H+  H38  1  0.88133933  0.76663050  0.50648246  1
  H+  H39  1  0.21693605  0.86063042  0.32760164  1
  H+  H40  1  0.97326781  0.62963562  0.51891165  1
  H+  H41  1  0.61441756  0.17820259  0.41479271  1
  H+  H42  1  0.86935864  0.63490935  0.82289157  1
  H+  H43  1  0.73763091  0.97362644  0.96904322  1
  H+  H44  1  0.88807195  0.01306513  0.17735199  1
  H+  H45  1  0.47324158  0.36370379  0.32768073  1
  H+  H46  1  0.60568956  0.87904105  0.83077668  1
  H+  H47  1  0.11785208  0.23127785  0.33487828  1
  H+  H48  1  0.10809211  0.47397776  0.82371850  1
  H+  H49  1  0.67588049  0.59431931  0.93833279  1
  H+  H50  1  0.69828259  0.08888347  0.98707652  1
  H+  H51  1  0.64975078  0.11653472  0.34785013  1
  H+  H52  1  0.35452184  0.12790285  0.68762619  1
  H+  H53  1  0.40429658  0.33360799  0.65289005  1
  H+  H54  1  0.14461627  0.48770230  0.15344802  1
  H+  H55  1  0.09861604  0.97146833  0.68005628  1
  H+  H56  1  0.10083531  0.73226610  0.67154996  1
  H+  H57  1  0.59960869  0.37928617  -0.00324897  1
  H+  H58  1  0.26832550  0.63862350  0.67359923  1
  H+  H59  1  0.71846263  0.35836685  0.65969727  1
  H+  H60  1  0.13223715  0.11656100  0.66802651  1
  H+  H61  1  0.59971420  0.91497042  0.16885116  1
  H+  H62  1  0.52224410  0.62084073  0.17845153  1
  H+  H63  1  0.35563369  0.20994242  0.84027161  1
  H+  H64  1  0.40734279  0.83582675  0.26830195  1
  H+  H65  1  0.61917597  0.63998161  0.48812319  1
  H+  H66  1  0.88380810  -0.02007771  1.01657691  1
  H+  H67  1  0.03935444  0.39138174  0.35957706  1
  H+  H68  1  0.50845272  0.12581976  0.83776115  1
  H+  H69  1  0.88635225  0.64479881  0.34276520  1
  H+  H70  1  0.12872737  0.10146246  0.32879299  1
  H+  H71  1  0.39578811  0.63013278  0.17338172  1
  H+  H72  1  0.77692411  0.13358497  0.34333273  1
  H+  H73  1  0.92871041  0.35862521  0.19380638  1
  H+  H74  1  0.36115773  0.39761847  1.00811108  1
  H+  H75  1  0.10874710  0.63537870  0.82360393  1
  H+  H76  1  0.73437192  0.86280767  0.32923918  1
  H+  H77  1  0.87292600  -0.02379596  0.34596691  1
  H+  H78  1  0.87546364  0.09406666  0.17185484  1
  H+  H79  1  0.88498225  0.89494521  0.35205307  1
  H+  H80  1  0.73067713  0.34719844  0.51269975  1
  H+  H81  1  0.86494233  0.17327714  0.64613759  1
  H+  H82  1  0.84754923  0.42040181  0.17019658  1
  H+  H83  1  1.08794389  0.69161313  0.14873789  1
  H+  H84  1  0.23997243  0.62214546  0.16860279  1
  H+  H85  1  0.16097820  0.38039104  0.65820213  1
  H+  H86  1  0.35181528  0.71890887  0.82401069  1
  H+  H87  1  0.36889145  0.86737806  0.17004908  1
  H+  H88  1  0.62637009  0.49036013  0.68053710  1
  H+  H89  1  0.85780046  0.96632416  0.82745342  1
  H+  H90  1  0.35936682  0.97010033  0.83155470  1
  H+  H91  1  0.37887199  0.27167940  0.00338523  1
  H+  H92  1  0.88910762  0.36225122  0.35777585  1
  H+  H93  1  0.84878447  0.24878853  0.50267306  1
  H+  H94  1  0.08740452  0.30027901  0.28948037  1
  H+  H95  1  0.99033201  0.36664753  0.97946460  1
  H+  H96  1  0.13763195  0.36994084  -0.00965744  1
  H+  H97  1  0.36076070  0.97743102  0.67622130  1
  H+  H98  1  0.49019676  0.12639199  0.01019353  1
  H+  H99  1  0.88847749  0.31035226  0.64743992  1
  H+  H100  1  0.13442388  0.86444314  0.83938270  1
  H+  H101  1  0.23815062  0.62918629  0.98230207  1
  H+  H102  1  1.00946950  0.41832373  0.52272625  1
  H+  H103  1  0.60731496  0.72382078  0.81472427  1
  H+  H104  1  0.93240883  -0.02439989  0.63265928  1
  H+  H105  1  0.58904019  0.37323692  0.15362092  1
  H+  H106  1  0.34966949  0.97716527  0.15733279  1
  H+  H107  1  0.38116514  0.94882787  -0.00635192  1
  H+  H108  1  0.94446159  0.98851982  0.66530798  1
  H+  H109  1  0.52471193  0.62412058  0.66118836  1
  H+  H110  1  0.95945642  0.85551433  0.28704641  1
  H+  H111  1  0.83644125  0.48687111  0.01018790  1
  H+  H112  1  0.60450871  1.04683290  0.49316417  1
  H+  H113  1  0.90486812  0.36569726  0.96380266  1
  H+  H114  1  0.86270643  0.64053211  0.49501883  1
  H+  H115  1  0.98177827  0.11680353  0.49166695  1
  H+  H116  1  0.28950613  0.37449510  0.67683448  1
  H+  H117  1  0.10806714  -0.01415116  0.99276457  1
  H+  H118  1  0.36679107  0.24648245  0.17688457  1
  H+  H119  1  0.58590636  0.23282901  0.14966793  1
  H+  H120  1  0.26744917  0.41947075  0.48327570  1
  H+  H121  1  0.27320176  0.39754925  0.00632219  1
  H+  H122  1  0.97524924  0.84655357  0.51081154  1
  H+  H123  1  1.01482733  0.88445071  0.98962963  1
  H+  H124  1  0.61707261  0.13354995  0.14879518  1
  H+  H125  1  0.36643334  0.85294124  0.50449436  1
  H+  H126  1  0.88807477  0.10673990  -0.00922016  1
  H+  H127  1  0.35051184  -0.03042794  0.34151872  1
  H+  H128  1  0.78615647  0.87223248  0.16609684  1
  H+  H129  1  1.12314360  0.49264497  0.99318774  1
  H+  H130  1  0.26590071  0.36408059  0.83496658  1
  H+  H131  1  0.13262985  0.11380950  -0.00575690  1
  H+  H132  1  0.37154500  0.76435138  0.50926265  1
  H+  H133  1  0.47448777  0.09556004  0.51679003  1
  H+  H134  1  0.37832810  0.53015414  0.63674513  1
  H+  H135  1  0.89072208  0.10875035  0.32914530  1
  H+  H136  1  0.48889617  0.64041962  0.49949874  1
  H+  H137  1  0.74398836  0.64004542  0.84150737  1
  H+  H138  1  0.38291064  0.63626063  0.33093818  1
  H+  H139  1  0.12419510  0.85358131  0.32254266  1
  H+  H140  1  0.47158487  0.10907382  0.67334987  1
  H+  H141  1  0.39748357  0.64013459  0.49795029  1
  H+  H142  1  0.26528414  0.12916915  1.01225815  1
  H+  H143  1  0.89617290  0.06652591  0.65068789  1
  H+  H144  1  1.03408703  0.16398085  0.66960029  1
  H+  H145  1  0.13343901  0.11254085  0.84085186  1
  H+  H146  1  0.63156015  0.35740679  0.83928776  1
  H+  H147  1  0.55603631  0.17212007  0.08714642  1
  H+  H148  1  0.05172840  0.01398006  0.55000738  1
  H+  H149  1  0.38754601  0.09919696  0.52804304  1
  H+  H150  1  0.12569695  0.49345937  0.66732880  1
  H+  H151  1  0.97634044  0.45155670  0.21965987  1
  H+  H152  1  0.87532760  0.88455543  0.49975165  1
  H+  H153  1  0.88264897  0.51868767  0.84060021  1
  H+  H154  1  0.61663277  0.39694590  0.35274166  1
  H+  H155  1  0.65673382  0.32553378  0.92977719  1
  H+  H156  1  0.74764950  0.61479894  0.65213915  1
  H+  H157  1  0.56728249  0.92168411  0.44233055  1
  H+  H158  1  0.84783414  0.20808647  -0.00741817  1
  H+  H159  1  0.87979407  0.55153766  0.18079049  1
  H+  H160  1  0.20983932  0.84412856  0.16581146  1
  H+  H161  1  0.88979441  0.40039846  0.66535345  1
  H+  H162  1  0.27037444  0.88837356  0.66990439  1
  H+  H163  1  0.59488878  0.12231283  0.83509290  1
  H+  H164  1  0.35412254  0.21781875  0.31151353  1
  H+  H165  1  0.59298430  -0.00495387  0.14901841  1
  H+  H166  1  0.37947651  0.53668536  0.99590653  1
  H+  H167  1  0.98755001  0.86300590  0.19280987  1
  H+  H168  1  0.14508408  0.53108702  0.33006052  1
  H+  H169  1  0.85605858  0.09129762  0.48589290  1
  H+  H170  1  0.14888748  0.62932465  -0.01561098  1
  H+  H171  1  0.47930853  0.63043853  0.32564594  1
  H+  H172  1  0.88456364  0.10261619  0.84786690  1
  H+  H173  1  0.35176617  0.88165659  0.34087666  1
  H+  H174  1  0.38793417  0.62198513  0.84590783  1
  H+  H175  1  0.36484125  0.74136865  0.15644399  1
  H+  H176  1  0.60681325  0.99943676  -0.01089402  1
  H+  H177  1  0.50772085  0.90078959  0.49903004  1
  H+  H178  1  0.34876462  0.12533224  0.16535790  1
  H+  H179  1  0.10151941  0.86965748  0.16558626  1
  H+  H180  1  0.51292948  0.61593283  0.02150891  1
  H+  H181  1  0.97530801  0.10642786  0.84005052  1
  H+  H182  1  0.12991037  0.73887383  0.00260019  1
  H+  H183  1  0.48336208  0.34931645  0.49534653  1
  H+  H184  1  0.41577757  0.60183032  0.26368974  1
  H+  H185  1  0.89294314  0.74699926  0.66079764  1
  H+  H186  1  0.64397092  0.74230716  0.18134875  1
  H+  H187  1  0.26609408  0.12676997  0.68911441  1
  H+  H188  1  0.12733211  0.62242009  0.65876556  1
  H+  H189  1  0.77914141  0.39756758  0.35118739  1
  H+  H190  1  0.61574142  0.73139590  0.33793296  1
  H+  H191  1  0.57367281  0.74778248  -0.04205563  1
  H+  H192  1  0.60761606  0.73562701  0.95326259  1
  H+  H193  1  0.86537194  0.66452521  0.16065835  1
  H+  H194  1  0.60674715  -0.03630033  0.35272619  1
  H+  H195  1  0.13567186  0.34692337  0.51255472  1
  H+  H196  1  1.10477945  0.22334501  0.83117121  1
  H+  H197  1  0.12815545  0.24359411  0.67594295  1
  H+  H198  1  0.38219330  0.85874315  0.84518241  1
  H+  H199  1  0.29188859  0.58187613  0.46095191  1
  H+  H200  1  0.13012154  0.86955590  0.66082234  1
  H+  H201  1  0.91763791  0.42510873  0.51926951  1
  H+  H202  1  0.18608905  0.33965810  0.60227953  1
  H+  H203  1  0.31744997  0.42029858  0.38575831  1
  H+  H204  1  0.86576573  0.22460339  0.35508601  1
  H+  H205  1  0.82694456  0.68547113  0.06798153  1
  H+  H206  1  0.85403575  0.21434302  0.82700823  1
  H+  H207  1  0.38828883  0.43681887  0.69483116  1
  H+  H208  1  0.38102837  0.65559309  -0.00199476  1
  H+  H209  1  0.47069498  0.86798169  0.65270662  1
  H+  H210  1  0.75144153  0.12591170  0.14422668  1
  H+  H211  1  0.60723014  0.87666270  0.34490330  1
  H+  H212  1  0.61920723  0.63197043  0.66381858  1
  H+  H213  1  0.32490630  0.37916009  0.77791321  1
  H+  H214  1  0.64790573  0.82648411  0.15958898  1
  H+  H215  1  0.07367396  0.67330816  0.73162560  1
  H+  H216  1  0.12984538  0.57477274  0.49637525  1
  H+  H217  1  0.90737472  0.60296861  0.57598656  1
  H+  H218  1  0.72368028  0.42159088  0.18549336  1
  H+  H219  1  0.01359795  0.87620585  0.67835754  1
  H+  H220  1  0.64767854  0.53530536  0.34434715  1
  H+  H221  1  0.85924588  0.49027820  0.50565709  1
  H+  H222  1  0.10853120  0.61749893  0.14496202  1
  H+  H223  1  0.10828576  0.72410591  0.82809649  1
  H+  H224  1  0.61279969  0.98556736  0.83769388  1
  H+  H225  1  0.83554995  0.83688243  0.68084570  1
  H+  H226  1  0.26473505  0.12687795  0.31250268  1
  H+  H227  1  0.62381959  1.01347281  0.65723444  1
  H+  H228  1  0.64778223  0.29321347  0.32856123  1
  H+  H229  1  0.34649140  0.68832573  0.09463352  1
  H+  H230  1  0.46435169  0.33244476  0.16289594  1
  H+  H231  1  0.85360801  0.87526943  0.82972085  1
  H+  H232  1  0.66069617  0.83054342  0.89387982  1
  H+  H233  1  0.71547411  0.83853412  0.66052973  1
  H+  H234  1  0.63369781  0.26480283  0.66307528  1
  H+  H235  1  0.91584781  0.07619472  0.26930825  1
  H+  H236  1  0.23601084  0.90151120  0.98596972  1
  H+  H237  1  0.81617314  0.23376019  0.52793492  1
  H+  H238  1  0.84208713  0.40160666  0.02731386  1
  H+  H239  1  0.62454896  0.75456106  0.65007714  1
  H+  H240  1  0.65360125  0.63631931  0.84209163  1
  H+  H241  1  0.85879140  0.74526940  0.17419827  1
  H+  H242  1  0.75372229  0.90580512  0.00120410  1
  H+  H243  1  0.08788785  0.66361840  0.05160968  1
  H+  H244  1  0.35754682  0.96223293  0.49845878  1
  H+  H245  1  0.14691537  0.46909213  0.50741191  1
  H+  H246  1  0.03225975  0.13603543  0.33881424  1
  H+  H247  1  1.02858631  0.14099713  1.00745766  1
  H+  H248  1  0.16033574  0.36018555  0.17201026  1
  H+  H249  1  0.27380266  0.12255536  0.52358994  1
  H+  H250  1  0.11674857  0.89455014  -0.00904481  1
  H+  H251  1  0.72256574  0.86346544  0.83654676  1
  H+  H252  1  0.92239582  0.32260282  0.88187430  1
  H+  H253  1  0.21840751  0.60724180  0.83258516  1
  H+  H254  1  0.29118875  0.40000726  0.16352007  1
  H+  H255  1  0.85392457  0.37887808  0.81948968  1
  H+  H256  1  0.14803444  0.26690584  0.50575088  1
  H+  H257  1  0.46350376  0.11172222  0.17016066  1
  H+  H258  1  0.46892745  0.85983179  0.32727036  1
  H+  H259  1  0.35440434  0.50938616  0.47917846  1
  H+  H260  1  0.37790394  0.33988331  0.84733203  1
  H+  H261  1  0.46030952  0.87484985  0.17282854  1
  H+  H262  1  0.06143307  0.39615377  0.14737171  1
  H+  H263  1  0.84774181  0.19923996  0.14598443  1
  H+  H264  1  0.97121572  0.86033426  0.83789815  1
  H+  H265  1  0.22200522  0.10854823  0.84446902  1
  H+  H266  1  0.86432942  0.61238375  0.99488265  1
  H+  H267  1  0.36204869  0.73010206  0.34079665  1
  H+  H268  1  0.62335136  0.36752073  0.51281905  1
  H+  H269  1  0.73797203  0.62418791  0.33937857  1
  H+  H270  1  0.22337545  0.86236446  0.83854018  1
  H+  H271  1  0.76471218  0.37915353  0.82625816  1
  H+  H272  1  0.39938484  0.35191239  0.47500269  1
  H+  H273  1  0.33210112  0.91191660  0.77077341  1
  H+  H274  1  0.60992782  0.88999689  0.00955153  1
  H+  H275  1  0.84941267  0.49463365  0.67899304  1
  H+  H276  1  0.73117615  0.61559882  0.49582803  1
  H+  H277  1  0.90433225  0.87309302  0.20086253  1
  H+  H278  1  0.38035987  0.35721192  0.32416714  1
  H+  H279  1  0.13754169  0.28002530  0.99612394  1
  H+  H280  1  0.23307193  0.63537926  0.49564665  1
  H+  H281  1  0.38486298  0.53474006  0.17622321  1
  H+  H282  1  0.10539132  -0.03888905  0.16859816  1
  H+  H283  1  0.70061558  0.10325939  0.63437726  1
  H+  H284  1  0.35994524  0.21073447  0.52128019  1
  H+  H285  1  0.93791700  0.58509840  0.27927049  1
  H+  H286  1  0.11963588  0.68072506  0.50388447  1
  H+  H287  1  0.37344885  0.09821265  0.84982724  1
  H+  H288  1  0.81799310  0.13450580  0.78180947  1
  H+  H289  1  0.43194008  0.33502136  0.58538576  1
  H+  H290  1  0.17371786  0.85057033  0.92958499  1
  H+  H291  1  0.08344620  0.95975090  0.33706572  1
  H+  H292  1  0.17651867  0.32499663  0.23458177  1
  H+  H293  1  0.92729882  0.11155547  0.58783560  1
  H+  H294  1  0.84825377  0.65937199  0.75764905  1
  H+  H295  1  0.45403731  0.80934481  0.00057482  1
  H+  H296  1  0.91146471  0.82857409  0.92770318  1
  H+  H297  1  0.64582382  0.52415755  0.50426950  1
  H+  H298  1  0.12603904  0.10071992  0.17470361  1
  H+  H299  1  0.15766927  0.33005219  0.90062507  1
  H+  H300  1  0.15451011  0.84838680  0.59677166  1
  H+  H301  1  0.92108086  0.34503886  0.29739949  1
  H+  H302  1  0.08728154  0.16907479  0.06706524  1
  H+  H303  1  0.97235721  0.60705705  0.84267288  1
  H+  H304  1  0.67331278  0.46774531  0.20929749  1
  H+  H305  1  0.94694741  0.40202784  0.59203387  1
  H+  H306  1  0.56129192  0.90459041  0.06503415  1
  H+  H307  1  0.10022674  0.42271383  0.44521174  1
  H+  H308  1  0.89723768  0.73891501  0.34523957  1
  H+  H309  1  0.34804228  0.11843506  0.01463049  1
  H+  H310  1  0.16149677  0.08459385  0.93276490  1
  H+  H311  1  0.64416259  0.05536555  0.90678765  1
  H+  H312  1  0.65026124  0.10906114  0.20695508  1
  H+  H313  1  0.85089952  0.91104679  0.11010628  1
  H+  H314  1  0.39856941  0.06322538  0.90960139  1
  H+  H315  1  0.41409713  0.32134869  0.23367382  1
  H+  H316  1  0.87406178  0.47913303  0.35185373  1
  H+  H317  1  0.81634805  0.12318607  0.42321976  1
  H+  H318  1  0.55074501  0.37814737  0.08764503  1
  H+  H319  1  0.40937662  0.07499249  0.23227294  1
  H+  H320  1  0.40428835  0.83615601  0.58901770  1
  H+  H321  1  0.42172815  0.60059132  0.93799669  1
  H+  H322  1  0.15672000  0.81303872  0.22717259  1
  H+  H323  1  0.88583201  0.76855592  0.83238386  1
  H+  H324  1  0.32764963  0.66254375  0.40344959  1
  H+  H325  1  0.58021615  0.21984175  0.00381099  1
  H+  H326  1  0.29898100  0.15225068  0.42034148  1
  H+  H327  1  0.07756354  0.91488919  0.77190261  1
  H+  H328  1  0.41058803  0.31612293  0.90698891  1
  H+  H329  1  0.84406223  0.91510532  0.44037037  1
  H+  H330  1  0.09249400  0.42198405  0.76206913  1
  H+  H331  1  0.56971395  0.89821600  0.72611296  1
  H+  H332  1  0.41551207  0.07508254  0.61265753  1
  H+  H333  1  0.33297034  0.13967378  0.41966768  1
  H+  H334  1  0.14544300  0.06184788  0.26855780  1
  H+  H335  1  0.25775827  0.36507304  0.33200504  1
  H+  H336  1  0.67704768  0.83181248  0.26883910  1
  H+  H337  1  0.80764228  0.87607623  0.73644321  1
  H+  H338  1  0.70942918  0.09089244  0.84465861  1
  H+  H339  1  0.92339154  0.07606499  0.93548088  1
  H+  H340  1  0.42413959  0.60356034  0.58879982  1
  H+  H341  1  0.82693443  0.42808145  0.73470624  1
  H+  H342  1  0.23228070  0.61938934  0.32679241  1
  H+  H343  1  0.83996336  0.42959479  0.44664246  1
  H+  H344  1  0.67508409  0.82333668  0.57706200  1
  H+  H345  1  0.51223667  0.87746961  0.83455731  1
  H+  H346  1  0.56773117  0.62748045  0.08198032  1
  H+  H347  1  0.08009618  0.88934753  0.43580654  1
  H+  H348  1  0.68472185  0.59229386  0.59437008  1
  H+  H349  1  0.54518869  0.39861866  0.67193001  1
  H+  H350  1  0.08749171  0.16717322  0.42447204  1
  H+  H351  1  0.89150630  0.57537146  0.93708116  1
  H+  H352  1  0.91322878  0.81502792  0.60655428  1
  H+  H353  1  0.66954996  0.31092737  0.57227607  1
  H+  H354  1  0.57875867  0.65889514  0.75912305  1
  H+  H355  1  0.67807120  0.58080891  0.24954050  1
  H+  H356  1  0.12561560  0.38808862  0.35079504  1
  H+  H357  1  0.08014364  0.16897974  0.76974346  1
  H+  H358  1  0.76501534  0.10422308  0.48949642  1
  H+  H359  1  0.32537594  0.90779974  0.43669776  1
  H+  H360  1  0.65112484  0.06320549  0.29058086  1
  H+  H361  1  0.57461884  0.16251983  0.74180124  1
  H+  H362  1  0.15727057  0.07767606  0.61216910  1
  H+  H363  1  0.81530873  0.44216714  0.10704133  1
  H+  H364  1  0.07974379  0.68352952  0.44120150  1
  H+  H365  1  0.60451871  0.60501695  0.18017012  1
  H+  H366  1  0.09845696  0.43420158  0.05270565  1
  H+  H367  1  0.58289393  0.41166149  0.77598911  1
  H+  H368  1  0.16618303  0.60564892  0.59838812  1
  H+  H369  1  0.16301314  0.58259690  0.89294548  1
  H+  H370  1  0.59231612  0.67760623  0.43074657  1
  H+  H371  1  0.67040760  0.36693310  0.27684473  1
  H+  H372  1  0.32401999  0.15061617  0.77967797  1
  H+  H373  1  0.17905022  0.58777997  0.22804497  1
  H+  H374  1  0.89928112  0.01942339  0.50400758  1
  H+  H375  1  0.58109525  0.42126955  0.41052849  1
  H+  H376  1  0.84348808  0.67195162  0.43092825  1
  H+  H377  1  0.65278063  0.77000371  0.50578314  1
  H+  H378  1  0.85626898  0.59730777  0.23090058  1
  H+  H379  1  0.40411351  0.81293800  0.90065501  1
  H+  H380  1  0.32026016  0.15597828  0.10498008  1
  H+  H381  1  0.34096544  0.44191712  0.10191464  1
  H+  H382  1  0.81576187  0.14842780  0.05132109  1
  H+  H383  1  0.80954863  0.19387920  0.69228533  1
  O2-  O384  1  0.08246392  0.16164426  0.14487746  1
  O2-  O385  1  0.07989271  0.16322905  0.47103172  1
  O2-  O386  1  0.07601705  0.16268777  0.81471403  1
  O2-  O387  1  0.12046759  0.42922205  0.13342843  1
  O2-  O388  1  0.09521655  0.41934475  0.49151642  1
  O2-  O389  1  0.08068812  0.41396834  0.80647936  1
  O2-  O390  1  0.06927258  0.63600269  0.12860388  1
  O2-  O391  1  0.07684490  0.69387178  0.48570336  1
  O2-  O392  1  0.07717403  0.66534871  0.81027946  1
  O2-  O393  1  0.06904268  0.89990343  0.15681226  1
  O2-  O394  1  0.07778822  0.89159239  0.48111203  1
  O2-  O395  1  0.07787235  0.91417437  0.81746110  1
  O2-  O396  1  0.31889775  0.15669436  0.15106692  1
  O2-  O397  1  0.33286425  0.15171785  0.53776713  1
  O2-  O398  1  0.32182627  0.14809476  0.82599751  1
  O2-  O399  1  0.34621889  0.44613810  0.14697259  1
  O2-  O400  1  0.30286102  0.46819293  0.45599991  1
  O2-  O401  1  0.32606002  0.38571537  0.82241709  1
  O2-  O402  1  0.34288125  0.68223604  0.13963987  1
  O2-  O403  1  0.31233514  0.64370850  0.46456660  1
  O2-  O404  1  0.32193345  0.65812048  0.81123321  1
  O2-  O405  1  0.32191092  0.91952813  0.13694568  1
  O2-  O406  1  0.32680861  0.90293936  0.48164848  1
  O2-  O407  1  0.33101126  0.90912543  0.81583485  1
  O2-  O408  1  0.56299778  0.17341328  0.13693817  1
  O2-  O409  1  0.58841946  0.14786764  0.48462235  1
  O2-  O410  1  0.56852478  0.15562053  0.82091042  1
  O2-  O411  1  0.53650172  0.34755066  0.12798768  1
  O2-  O412  1  0.59299442  0.40260328  0.51250879  1
  O2-  O413  1  0.58079262  0.39947483  0.82041483  1
  O2-  O414  1  0.58305347  0.64302521  0.16525144  1
  O2-  O415  1  0.59606270  0.67855728  0.47630166  1
  O2-  O416  1  0.57797502  0.66229467  0.80412177  1
  O2-  O417  1  0.56618205  0.93132094  0.14308441  1
  O2-  O418  1  0.56580264  0.94173619  0.48380578  1
  O2-  O419  1  0.57356236  0.91009743  0.81755617  1
  O2-  O420  1  0.81090305  0.14051587  0.13184683  1
  O2-  O421  1  0.79976905  0.08840548  0.46385476  1
  O2-  O422  1  0.81762172  0.14901138  0.82442221  1
  O2-  O423  1  0.81952936  0.45052054  0.15276533  1
  O2-  O424  1  0.84112072  0.43020436  0.49222631  1
  O2-  O425  1  0.82533689  0.41210881  0.80947904  1
  O2-  O426  1  0.82801688  0.68919851  0.15213971  1
  O2-  O427  1  0.83336523  0.66987154  0.47585996  1
  O2-  O428  1  0.84597293  0.66850888  0.80245004  1
  O2-  O429  1  0.84736588  0.91108615  0.15556501  1
  O2-  O430  1  0.84563278  0.91723805  0.48620985  1
  O2-  O431  1  0.82238084  0.90521639  0.81475447  1
  O2-  O432  1  0.15364283  0.06942044  0.19242611  1
  O2-  O433  1  0.10810989  0.04253058  0.53061139  1
  O2-  O434  1  0.15962629  0.07978948  0.85832963  1
  O2-  O435  1  0.18283313  0.32432990  0.18875788  1
  O2-  O436  1  0.17488155  0.32553253  0.52386779  1
  O2-  O437  1  0.15431532  0.32359363  0.85532683  1
  O2-  O438  1  0.17976146  0.58330109  0.18306114  1
  O2-  O439  1  0.17609493  0.62280007  0.51809568  1
  O2-  O440  1  0.15728347  0.57738262  0.84758705  1
  O2-  O441  1  0.15109451  0.80905731  0.18230136  1
  O2-  O442  1  0.13559895  0.86291861  0.50505360  1
  O2-  O443  1  0.16382660  0.83357046  0.85544017  1
  O2-  O444  1  0.40435340  0.07672500  0.18717269  1
  O2-  O445  1  0.41612446  0.06389971  0.53390056  1
  O2-  O446  1  0.40492958  0.06775500  0.86368089  1
  O2-  O447  1  0.40590531  0.31103577  0.18805476  1
  O2-  O448  1  0.41969873  0.32065598  0.49952631  1
  O2-  O449  1  0.41042779  0.31066064  0.86195866  1
  O2-  O450  1  0.41795011  0.59609589  0.19456034  1
  O2-  O451  1  0.42963544  0.61304095  0.51622116  1
  O2-  O452  1  0.42481675  0.60474169  0.86820745  1
  O2-  O453  1  0.40092450  0.84043101  0.18853871  1
  O2-  O454  1  0.39857813  0.82375578  0.52415667  1
  O2-  O455  1  0.41446025  0.82856972  0.85711757  1
  O2-  O456  1  0.64871270  0.10093970  0.16312246  1
  O2-  O457  1  0.64456170  0.11131879  0.49745609  1
  O2-  O458  1  0.64765242  0.05622933  0.85700901  1
  O2-  O459  1  0.67020403  0.41052236  0.20733471  1
  O2-  O460  1  0.66983743  0.30980295  0.52453948  1
  O2-  O461  1  0.66624766  0.32856039  0.85441800  1
  O2-  O462  1  0.67499672  0.56610746  0.20542606  1
  O2-  O463  1  0.67034553  0.58619439  0.51153939  1
  O2-  O464  1  0.69814618  0.63618830  0.86823590  1
  O2-  O465  1  0.67585085  0.80730743  0.18844842  1
  O2-  O466  1  0.68534625  0.82849427  0.52723173  1
  O2-  O467  1  0.66011145  0.83527302  0.84949654  1
  O2-  O468  1  0.91278078  0.07479769  0.19034006  1
  O2-  O469  1  0.92140856  0.08318249  0.51078009  1
  O2-  O470  1  0.91583494  0.07212919  0.85821712  1
  O2-  O471  1  0.92174950  0.39742184  0.22112485  1
  O2-  O472  1  0.96810091  0.43075407  0.54502393  1
  O2-  O473  1  0.91326930  0.31876838  0.83712602  1
  O2-  O474  1  0.90437527  0.60516745  0.20586765  1
  O2-  O475  1  0.91168752  0.59532358  0.53117865  1
  O2-  O476  1  0.91175390  0.57798032  0.85742085  1
  O2-  O477  1  0.93036388  0.83984164  0.21721036  1
  O2-  O478  1  0.91537510  0.82611136  0.52441263  1
  O2-  O479  1  0.90968275  0.82723964  0.85118596  1
  O2-  O480  1  0.14683601  0.06000967  0.31426657  1
  O2-  O481  1  0.15579656  0.07855886  0.65684274  1
  O2-  O482  1  0.15878003  0.07939781  0.97868394  1
  O2-  O483  1  0.14256399  0.31744525  0.30859375  1
  O2-  O484  1  0.18884400  0.34618556  0.64749783  1
  O2-  O485  1  0.16786697  0.33863334  0.97784015  1
  O2-  O486  1  0.17102338  0.58953929  0.31246998  1
  O2-  O487  1  0.16010027  0.59517269  0.64296299  1
  O2-  O488  1  0.17722656  0.59506212  0.96981757  1
  O2-  O489  1  0.15715145  0.82533001  0.31088632  1
  O2-  O490  1  0.16050502  0.84190008  0.64062258  1
  O2-  O491  1  0.17534029  0.86057972  0.97493120  1
  O2-  O492  1  0.40512659  0.07267231  0.31078987  1
  O2-  O493  1  0.41094109  0.07539140  0.65784488  1
  O2-  O494  1  0.38965858  0.06148171  0.98582692  1
  O2-  O495  1  0.41648242  0.33272384  0.30778477  1
  O2-  O496  1  0.45091891  0.33722155  0.62743576  1
  O2-  O497  1  0.40448775  0.33011555  0.98594824  1
  O2-  O498  1  0.41846256  0.60595625  0.31078265  1
  O2-  O499  1  0.41960722  0.59128272  0.63412682  1
  O2-  O500  1  0.41449035  0.59870362  0.98443071  1
  O2-  O501  1  0.40794446  0.83207275  0.31355617  1
  O2-  O502  1  0.41080955  0.84657597  0.63670067  1
  O2-  O503  1  0.39646366  0.77660661  0.98096096  1
  O2-  O504  1  0.66797024  0.07455372  0.33305840  1
  O2-  O505  1  0.64000637  0.07269934  0.64566659  1
  O2-  O506  1  0.64020981  0.05699272  0.96892752  1
  O2-  O507  1  0.67418337  0.35541608  0.32114544  1
  O2-  O508  1  0.66482832  0.31833155  0.63851630  1
  O2-  O509  1  0.64736782  0.32227843  0.97525649  1
  O2-  O510  1  0.67677201  0.59449558  0.32685371  1
  O2-  O511  1  0.68677511  0.59554642  0.63927308  1
  O2-  O512  1  0.66986733  0.57877280  0.98274306  1
  O2-  O513  1  0.67446854  0.83520053  0.31381522  1
  O2-  O514  1  0.65785137  0.81751643  0.63730178  1
  O2-  O515  1  0.70874865  0.91272846  0.97914298  1
  O2-  O516  1  0.91864672  0.07650161  0.31478497  1
  O2-  O517  1  0.92468797  0.12346431  0.63191927  1
  O2-  O518  1  0.92365172  0.08030018  0.98103592  1
  O2-  O519  1  0.91940753  0.33251859  0.34117053  1
  O2-  O520  1  0.92531143  0.37470578  0.64686885  1
  O2-  O521  1  0.93064311  0.32929671  0.96227483  1
  O2-  O522  1  0.93354224  0.57954877  0.32416408  1
  O2-  O523  1  0.89503649  0.60346211  0.65426213  1
  O2-  O524  1  0.88095258  0.56980935  0.98162745  1
  O2-  O525  1  0.96242799  0.85649932  0.33425840  1
  O2-  O526  1  0.91327869  0.81029533  0.65143724  1
  O2-  O527  1  0.91893480  0.83479596  0.97321121  1
  O2-  O528  1  0.08947204  0.17234092  0.02153583  1
  O2-  O529  1  0.09257826  0.16820779  0.35312833  1
  O2-  O530  1  0.09018267  0.18237673  0.68883069  1
  O2-  O531  1  0.09004992  0.43119725  0.00805134  1
  O2-  O532  1  0.10103978  0.42271950  0.37045951  1
  O2-  O533  1  0.10138442  0.43219141  0.68096696  1
  O2-  O534  1  0.10124634  0.67632312  0.00749003  1
  O2-  O535  1  0.09136558  0.67165633  0.36479461  1
  O2-  O536  1  0.06739855  0.67200699  0.68624742  1
  O2-  O537  1  0.07829669  0.92037956  0.00335177  1
  O2-  O538  1  0.05451880  0.89712681  0.35186977  1
  O2-  O539  1  0.07416363  0.91090263  0.69406020  1
  O2-  O540  1  0.32367706  0.15529231  0.03017622  1
  O2-  O541  1  0.32630443  0.15602341  0.30124993  1
  O2-  O542  1  0.32390939  0.15442654  0.70725020  1
  O2-  O543  1  0.33346659  0.43108735  0.02135206  1
  O2-  O544  1  0.31668280  0.39100956  0.34755792  1
  O2-  O545  1  0.34095733  0.37792044  0.69684242  1
  O2-  O546  1  0.35188748  0.69256232  0.01224410  1
  O2-  O547  1  0.33580113  0.66839715  0.35331828  1
  O2-  O548  1  0.32629809  0.66341944  0.69166101  1
  O2-  O549  1  0.34651106  0.97162169  0.01108438  1
  O2-  O550  1  0.31899777  0.90908211  0.35632311  1
  O2-  O551  1  0.32984036  0.91313386  0.68623620  1
  O2-  O552  1  0.55061421  0.16393353  0.02589484  1
  O2-  O553  1  0.64537765  0.19974585  0.37424495  1
  O2-  O554  1  0.57465281  0.16409694  0.69648203  1
  O2-  O555  1  0.57263631  0.41109366  0.01517896  1
  O2-  O556  1  0.58451358  0.42638907  0.36626937  1
  O2-  O557  1  0.59389407  0.43326232  0.69938283  1
  O2-  O558  1  0.56801197  0.62424212  0.03737021  1
  O2-  O559  1  0.58008712  0.67077870  0.35286481  1
  O2-  O560  1  0.58418713  0.65833993  0.67719520  1
  O2-  O561  1  0.55982828  0.89698936  0.02034177  1
  O2-  O562  1  0.57201121  0.90113977  0.36009799  1
  O2-  O563  1  0.56904286  0.89955267  0.68132472  1
  O2-  O564  1  0.81566359  0.14759456  0.00605737  1
  O2-  O565  1  0.83584619  0.16057012  0.36130022  1
  O2-  O566  1  0.83019197  0.20248246  0.65051921  1
  O2-  O567  1  0.80568737  0.42660741  0.03358426  1
  O2-  O568  1  0.83735694  0.41995646  0.36934735  1
  O2-  O569  1  0.83117947  0.43375202  0.68904208  1
  O2-  O570  1  0.82810093  0.68097073  0.02316831  1
  O2-  O571  1  0.85694264  0.67735437  0.35418076  1
  O2-  O572  1  0.84976906  0.64842678  0.67925993  1
  O2-  O573  1  0.84952131  0.91971480  0.03173864  1
  O2-  O574  1  0.84572659  0.91652591  0.36325358  1
  O2-  O575  1  0.79707177  0.85917909  0.69304716  1
