# generated using pymatgen
data_H2O
_symmetry_space_group_name_H-M   'P 1'
_cell_length_a   17.98528959
_cell_length_b   17.98945138
_cell_length_c   21.99355011
_cell_angle_alpha   90.02219405
_cell_angle_beta   89.99730697
_cell_angle_gamma   119.99290460
_symmetry_Int_Tables_number   1
_chemical_formula_structural   H2O
_chemical_formula_sum   'H384 O192'
_cell_volume   6163.00231557
_cell_formula_units_Z   192
loop_
 _symmetry_equiv_pos_site_id
 _symmetry_equiv_pos_as_xyz
  1  'x, y, z'
loop_
 _atom_type_symbol
 _atom_type_oxidation_number
  H+  1.0
  O2-  -2.0
loop_
 _atom_site_type_symbol
 _atom_site_label
 _atom_site_symmetry_multiplicity
 _atom_site_fract_x
 _atom_site_fract_y
 _atom_site_fract_z
 _atom_site_occupancy
  H+  H0  1  0.47088109  0.88259806  0.49263368  1
  H+  H1  1  0.59676596  0.83724377  0.01841326  1
  H+  H2  1  0.23677508  0.86281144  -0.00011416  1
  H+  H3  1  0.76020444  0.13868160  0.49850652  1
  H+  H4  1  0.10783832  0.46620408  0.50156331  1
  H+  H5  1  0.61284657  0.36193311  0.82701461  1
  H+  H6  1  0.49745655  0.07472100  0.85435519  1
  H+  H7  1  0.39026950  0.49987713  0.34942715  1
  H+  H8  1  0.62994693  0.56874558  0.47395240  1
  H+  H9  1  0.73496809  0.08003561  0.33441344  1
  H+  H10  1  0.14039034  0.78391005  0.31829044  1
  H+  H11  1  0.60859521  0.12338998  1.02401854  1
  H+  H12  1  0.72906984  0.86706645  0.83171814  1
  H+  H13  1  0.49866217  0.92406980  0.96442377  1
  H+  H14  1  0.98060104  0.35182498  0.99241398  1
  H+  H15  1  0.90256800  0.60840874  0.65857588  1
  H+  H16  1  0.10803695  0.88222680  0.82929979  1
  H+  H17  1  0.38378936  0.75068310  0.46687076  1
  H+  H18  1  0.58103300  0.88599775  0.46057245  1
  H+  H19  1  0.11750518  0.38503392  0.00005663  1
  H+  H20  1  0.87352419  0.10304656  0.17801527  1
  H+  H21  1  0.57509057  0.67794059  0.10378401  1
  H+  H22  1  0.90785976  0.77031299  0.66515605  1
  H+  H23  1  0.40406899  -0.00541175  0.84819111  1
  H+  H24  1  0.99764731  0.63850207  0.99354347  1
  H+  H25  1  0.15773851  0.79309025  0.50942248  1
  H+  H26  1  0.88197772  0.60300472  0.17111577  1
  H+  H27  1  0.47119140  0.34291949  0.84456356  1
  H+  H28  1  0.36315957  0.90003573  0.32538564  1
  H+  H29  1  0.13676772  0.86425410  0.66386833  1
  H+  H30  1  0.05089353  0.64709368  0.49252494  1
  H+  H31  1  0.61399744  0.21317497  0.82132962  1
  H+  H32  1  1.02253585  0.88595093  0.67200795  1
  H+  H33  1  0.81712955  0.35959924  0.17164367  1
  H+  H34  1  0.86234076  1.00726631  -0.01206390  1
  H+  H35  1  0.33699206  0.66581054  0.76556080  1
  H+  H36  1  0.84704587  0.13683820  0.50846091  1
  H+  H37  1  0.27139892  0.63982690  0.38683934  1
  H+  H38  1  0.35955697  0.96626589  0.66816367  1
  H+  H39  1  0.67460612  0.88718929  0.51993334  1
  H+  H40  1  0.75838711  0.32612214  0.00917857  1
  H+  H41  1  0.11349124  0.63897823  0.82468963  1
  H+  H42  1  0.91205767  0.33754342  0.59717432  1
  H+  H43  1  0.84972496  1.00132213  0.66877025  1
  H+  H44  1  0.96954900  0.86123489  0.84225430  1
  H+  H45  1  0.38305909  0.27166436  0.18421172  1
  H+  H46  1  0.53094217  0.14830074  0.17190818  1
  H+  H47  1  0.16625969  0.58195507  0.93081976  1
  H+  H48  1  -0.02235468  0.36136596  0.83704057  1
  H+  H49  1  0.85848596  0.63746740  0.83707998  1
  H+  H50  1  0.37142376  0.64217725  0.67016632  1
  H+  H51  1  0.85518287  0.21528357  0.34900405  1
  H+  H52  1  0.78583480  0.47766772  1.01737833  1
  H+  H53  1  0.11781685  0.39395702  0.81713393  1
  H+  H54  1  0.35547970  0.70101988  0.00759981  1
  H+  H55  1  0.38133786  0.35944737  0.17722987  1
  H+  H56  1  0.22483776  0.86057275  0.66070111  1
  H+  H57  1  0.80928215  0.35806909  1.07256982  1
  H+  H58  1  0.11897647  0.63900763  0.00492082  1
  H+  H59  1  0.62979148  0.28434834  0.21294391  1
  H+  H60  1  0.10185583  0.71667169  0.16358647  1
  H+  H61  1  0.73057968  0.63680155  0.85634305  1
  H+  H62  1  0.60560287  0.38067753  0.32232297  1
  H+  H63  1  0.38030879  1.02743461  0.02433315  1
  H+  H64  1  0.11650191  0.88904354  0.34238577  1
  H+  H65  1  0.83319612  0.17124116  0.76388529  1
  H+  H66  1  0.86597786  0.98162079  0.34512972  1
  H+  H67  1  0.87582957  0.59860211  0.31867034  1
  H+  H68  1  0.26973088  0.13297938  0.16567404  1
  H+  H69  1  0.36145381  0.63076658  0.82473190  1
  H+  H70  1  0.86415532  0.67541139  0.74777438  1
  H+  H71  1  0.97740248  0.10637340  0.33371589  1
  H+  H72  1  0.23633909  0.62678874  0.18171589  1
  H+  H73  1  0.40036435  0.03839125  0.58665168  1
  H+  H74  1  0.88982091  0.48980193  0.48695327  1
  H+  H75  1  0.38303173  0.25632325  0.84548443  1
  H+  H76  1  0.14194366  0.61467636  0.17882129  1
  H+  H77  1  0.53038460  0.34628256  1.02546498  1
  H+  H78  1  0.96426100  0.35398528  0.33461546  1
  H+  H79  1  0.86882942  0.47669935  0.33313017  1
  H+  H80  1  0.61833325  0.14915237  0.48408950  1
  H+  H81  1  0.15468099  0.28125174  0.50695083  1
  H+  H82  1  0.39163771  0.71990115  0.15658728  1
  H+  H83  1  0.39670773  0.51865295  0.98802090  1
  H+  H84  1  0.61723385  0.14634859  0.17777441  1
  H+  H85  1  0.12708973  0.73258560  0.00731446  1
  H+  H86  1  1.00034651  0.12186274  1.01263782  1
  H+  H87  1  0.88211939  0.33081340  0.99648370  1
  H+  H88  1  0.01694715  0.14516445  0.82579865  1
  H+  H89  1  0.49650341  0.91426788  0.13935629  1
  H+  H90  1  0.86744502  0.37874048  0.33945166  1
  H+  H91  1  0.15041387  0.60477426  0.52062640  1
  H+  H92  1  0.71493307  0.84578341  0.30031200  1
  H+  H93  1  0.95852801  0.71073221  0.72654975  1
  H+  H94  1  0.38712893  0.60019095  0.98705415  1
  H+  H95  1  0.24627025  0.12151370  0.98986896  1
  H+  H96  1  0.63488823  0.54162584  0.17278981  1
  H+  H97  1  0.61123642  0.21139360  0.66522595  1
  H+  H98  1  0.13535554  0.36353861  0.65922575  1
  H+  H99  1  0.23006347  0.87406941  0.31999799  1
  H+  H100  1  0.13485093  0.10702926  0.50233505  1
  H+  H101  1  0.48131842  0.40684414  0.97508326  1
  H+  H102  1  0.88533884  0.27778247  0.50885380  1
  H+  H103  1  0.72797502  0.35228652  0.83831430  1
  H+  H104  1  0.09985049  0.47002841  0.34587549  1
  H+  H105  1  0.10894501  0.23371542  0.82339233  1
  H+  H106  1  0.92693230  0.11018574  0.46103370  1
  H+  H107  1  0.84137475  0.83893470  0.68582995  1
  H+  H108  1  0.97001432  0.85739488  0.18524059  1
  H+  H109  1  0.15547998  0.83363439  0.22866392  1
  H+  H110  1  0.84003536  0.01588523  0.69824581  1
  H+  H111  1  0.61663045  0.65123396  0.82158123  1
  H+  H112  1  0.10826393  0.37763051  0.49645913  1
  H+  H113  1  0.49719640  0.37379439  0.48986337  1
  H+  H114  1  0.15094937  0.86730215  0.99211097  1
  H+  H115  1  0.13776949  0.02377504  0.33118949  1
  H+  H116  1  0.90592764  0.61653495  0.49896527  1
  H+  H117  1  0.13368828  0.60822208  0.33020498  1
  H+  H118  1  0.64259249  0.24675763  0.48082289  1
  H+  H119  1  0.62304604  0.89454462  0.66963572  1
  H+  H120  1  0.64776416  0.02611174  0.65440588  1
  H+  H121  1  0.40424917  0.54563396  0.48175314  1
  H+  H122  1  0.86867373  0.09870556  0.99240501  1
  H+  H123  1  0.23720083  0.61445899  0.66801687  1
  H+  H124  1  1.01388801  0.63393395  0.32272470  1
  H+  H125  1  -0.01997360  0.84905635  0.50924530  1
  H+  H126  1  0.59648764  0.85941302  0.17425834  1
  H+  H127  1  0.13868111  0.98995677  -0.00511810  1
  H+  H128  1  0.10053847  0.21838752  0.34633605  1
  H+  H129  1  0.16791394  0.84310247  0.57117543  1
  H+  H130  1  0.90263409  0.55874291  0.99450649  1
  H+  H131  1  0.33947196  0.16033275  0.76575959  1
  H+  H132  1  0.47817455  0.61576461  0.65250432  1
  H+  H133  1  0.87988607  0.75364240  0.18438500  1
  H+  H134  1  0.63761391  0.10507831  0.83710243  1
  H+  H135  1  0.63177028  0.77233863  0.82193839  1
  H+  H136  1  0.45037469  0.33743155  0.64594990  1
  H+  H137  1  0.90250223  0.02490747  0.49759306  1
  H+  H138  1  0.47657874  0.61129534  0.33760612  1
  H+  H139  1  0.72708737  0.10748368  0.83961041  1
  H+  H140  1  0.63073057  0.52216860  0.32646409  1
  H+  H141  1  0.75505668  0.38193135  0.50255117  1
  H+  H142  1  0.12214778  0.89043082  0.49878494  1
  H+  H143  1  0.36095488  0.98607615  0.33197431  1
  H+  H144  1  0.16348102  0.08434116  0.76695317  1
  H+  H145  1  0.76973101  0.64276172  0.16627998  1
  H+  H146  1  0.13505087  0.52603798  0.83432186  1
  H+  H147  1  0.51744768  0.19068937  0.50078264  1
  H+  H148  1  0.35735751  0.91013370  0.07431503  1
  H+  H149  1  0.11582705  0.47730283  0.67186136  1
  H+  H150  1  0.64957934  0.78806603  0.51295195  1
  H+  H151  1  0.77272737  0.14229856  0.65881270  1
  H+  H152  1  0.74669701  0.88838533  0.15664259  1
  H+  H153  1  0.77895611  0.61954092  0.48649310  1
  H+  H154  1  0.14731350  0.40368005  0.15647628  1
  H+  H155  1  0.62901949  0.33806254  0.65741788  1
  H+  H156  1  0.44829516  0.13802374  0.58650541  1
  H+  H157  1  0.66186246  0.07465048  0.93480670  1
  H+  H158  1  0.74276287  0.67357030  0.61950564  1
  H+  H159  1  0.36362930  0.27838004  0.49319352  1
  H+  H160  1  0.62881065  1.02982558  0.49801133  1
  H+  H161  1  0.58205669  0.51896507  0.65447688  1
  H+  H162  1  0.36252625  0.25471738  0.64316321  1
  H+  H163  1  0.10457318  0.34623468  0.33431220  1
  H+  H164  1  0.12404919  0.11454026  0.81695054  1
  H+  H165  1  0.47272337  0.12178482  0.32445974  1
  H+  H166  1  0.87986443  0.36499523  0.65935307  1
  H+  H167  1  0.85182340  0.88457337  0.00849279  1
  H+  H168  1  0.88825485  0.66571668  0.01217663  1
  H+  H169  1  0.61720651  0.53433589  0.67832370  1
  H+  H170  1  0.84338583  0.45477366  0.15560260  1
  H+  H171  1  1.03119845  0.63085042  0.66635319  1
  H+  H172  1  0.24159534  0.37825502  0.81003369  1
  H+  H173  1  0.63988299  0.11116563  0.65486878  1
  H+  H174  1  0.32127995  0.80143362  0.15740932  1
  H+  H175  1  0.13499476  0.51924480  -0.01072620  1
  H+  H176  1  0.42684629  0.18944782  0.50311808  1
  H+  H177  1  0.97770441  0.61762942  0.83564369  1
  H+  H178  1  0.81403898  0.48636863  0.04492848  1
  H+  H179  1  0.61042269  0.66374674  0.52859600  1
  H+  H180  1  0.12356019  0.23640795  0.66952586  1
  H+  H181  1  0.86106606  0.72855674  0.83698310  1
  H+  H182  1  0.12130200  0.85266821  0.16767540  1
  H+  H183  1  0.21213132  0.28644957  0.22314343  1
  H+  H184  1  0.27531291  0.13153027  0.81980897  1
  H+  H185  1  0.35877155  0.46916635  0.16156544  1
  H+  H186  1  0.53540556  0.67542118  0.00081732  1
  H+  H187  1  1.00005667  0.42132926  0.12903360  1
  H+  H188  1  0.63273499  0.61244637  0.33251226  1
  H+  H189  1  0.60986253  0.64835376  0.16101128  1
  H+  H190  1  0.12677560  0.00289152  0.50522605  1
  H+  H191  1  0.62905903  0.24509899  0.99193754  1
  H+  H192  1  1.02554688  0.88507990  0.34781124  1
  H+  H193  1  0.44952898  0.81041761  0.04509242  1
  H+  H194  1  0.59924962  0.22850972  0.32280223  1
  H+  H195  1  0.36234585  0.14116897  0.33425067  1
  H+  H196  1  0.13442819  0.24725779  0.17746378  1
  H+  H197  1  0.12290679  0.01781319  0.65898824  1
  H+  H198  1  0.26496732  0.61691825  1.00429281  1
  H+  H199  1  0.35420941  0.50022606  0.69416618  1
  H+  H200  1  0.76738332  0.62903333  0.33733842  1
  H+  H201  1  0.60527808  0.77402451  0.17181739  1
  H+  H202  1  0.61529116  0.65334557  0.65679297  1
  H+  H203  1  0.83177354  0.65429301  0.39445231  1
  H+  H204  1  0.12738605  0.11110872  0.65504311  1
  H+  H205  1  0.87822683  0.76199855  0.33513413  1
  H+  H206  1  0.97024501  0.60070566  0.16945508  1
  H+  H207  1  0.66397221  0.37654893  0.50467159  1
  H+  H208  1  0.87778335  0.85209799  0.33525318  1
  H+  H209  1  0.84985825  0.24080001  0.18532558  1
  H+  H210  1  0.35622531  0.87006655  0.81331223  1
  H+  H211  1  0.86403983  0.22925401  0.82398019  1
  H+  H212  1  0.52119005  0.40371404  0.17029733  1
  H+  H213  1  0.37863735  0.59818006  0.18566170  1
  H+  H214  1  0.46808516  0.60294947  0.18249253  1
  H+  H215  1  0.22574635  0.61307996  0.83573091  1
  H+  H216  1  0.84112816  0.96843008  0.15885097  1
  H+  H217  1  0.77037113  0.38039466  0.67348911  1
  H+  H218  1  0.75314045  0.11514763  0.16371439  1
  H+  H219  1  0.76929060  0.13224353  0.00850924  1
  H+  H220  1  0.40538873  0.02356579  0.16912620  1
  H+  H221  1  0.13664639  0.77423781  0.83968406  1
  H+  H222  1  0.64200431  0.01341707  0.99184758  1
  H+  H223  1  0.47628812  0.61233199  0.83145592  1
  H+  H224  1  0.27653170  0.13085979  0.48882032  1
  H+  H225  1  0.99394367  0.88832536  0.99275640  1
  H+  H226  1  0.64147785  0.33768727  0.99283304  1
  H+  H227  1  0.22484237  0.34992433  -0.00613762  1
  H+  H228  1  0.90698137  1.07910608  0.89613569  1
  H+  H229  1  0.79991718  0.66507237  0.01253027  1
  H+  H230  1  0.72135960  0.84262401  0.67428417  1
  H+  H231  1  0.60589906  0.43686513  0.01386577  1
  H+  H232  1  0.64386542  0.91769386  0.32472840  1
  H+  H233  1  0.86397041  0.21440648  0.00833927  1
  H+  H234  1  0.86783461  0.38738354  0.82769429  1
  H+  H235  1  0.38859071  0.39582588  0.35341004  1
  H+  H236  1  0.35484761  0.12201775  0.65917140  1
  H+  H237  1  0.99476740  0.15804468  0.64457234  1
  H+  H238  1  0.39244811  0.62732095  0.48548049  1
  H+  H239  1  0.37327842  0.73187947  0.66966890  1
  H+  H240  1  0.48502848  0.86779455  0.65170354  1
  H+  H241  1  0.60864230  0.44792079  0.81733692  1
  H+  H242  1  0.07837480  0.91245976  0.73328919  1
  H+  H243  1  0.09272647  -0.01808243  0.16531850  1
  H+  H244  1  0.01023407  0.12628106  0.16684519  1
  H+  H245  1  0.52270552  0.12300755  0.65893203  1
  H+  H246  1  0.38390640  0.10154523  0.16845525  1
  H+  H247  1  0.09027556  0.20847934  1.01571757  1
  H+  H248  1  0.01026316  0.44988972  0.15660300  1
  H+  H249  1  0.37955433  0.92130785  0.52387620  1
  H+  H250  1  0.17008833  0.56543233  0.57736166  1
  H+  H251  1  0.39040167  0.76656058  0.83198897  1
  H+  H252  1  0.27111541  0.87851598  0.82032285  1
  H+  H253  1  0.04527549  0.13769578  0.49441757  1
  H+  H254  1  0.40724078  0.80912322  1.04770815  1
  H+  H255  1  0.53828372  0.31861462  0.49693761  1
  H+  H256  1  0.88138144  0.11155892  0.83563970  1
  H+  H257  1  0.85623380  0.88548234  0.83839240  1
  H+  H258  1  0.79715586  0.89154451  0.50039514  1
  H+  H259  1  0.11518329  0.72501885  0.66942863  1
  H+  H260  1  0.88996921  0.51494499  0.65372294  1
  H+  H261  1  0.39318284  0.86157117  0.65116739  1
  H+  H262  1  0.10185365  0.96827032  0.82034648  1
  H+  H263  1  0.36089797  0.38141016  0.00280072  1
  H+  H264  1  0.83280984  0.41511455  0.73245059  1
  H+  H265  1  0.86329199  0.24736112  0.66039788  1
  H+  H266  1  0.12532511  0.10678383  0.17667280  1
  H+  H267  1  0.47950116  0.36975686  0.32928310  1
  H+  H268  1  0.58095205  0.42492480  0.67611318  1
  H+  H269  1  0.88885701  0.10880770  0.33555020  1
  H+  H270  1  0.52477225  0.88371314  0.81730549  1
  H+  H271  1  0.37405535  0.90731409  1.00264478  1
  H+  H272  1  0.60729746  0.73416451  0.66953673  1
  H+  H273  1  0.39567835  0.77776857  0.30563989  1
  H+  H274  1  0.61676742  0.01441529  0.17243774  1
  H+  H275  1  0.47234324  0.11271579  1.02458377  1
  H+  H276  1  0.90635285  0.07386466  0.23632430  1
  H+  H277  1  0.36567144  0.48692225  0.79706266  1
  H+  H278  1  0.60525285  0.73094892  0.34187388  1
  H+  H279  1  -0.01887581  0.36263379  0.50870481  1
  H+  H280  1  0.26507126  0.11905599  0.66518783  1
  H+  H281  1  0.14773286  0.61478648  0.66633006  1
  H+  H282  1  0.27249268  0.37851506  0.15676095  1
  H+  H283  1  0.62589476  0.48584118  0.49911787  1
  H+  H284  1  0.58641417  0.55453196  0.99777180  1
  H+  H285  1  0.37296898  0.23756652  1.01492130  1
  H+  H286  1  0.36932253  0.14646122  0.02432005  1
  H+  H287  1  0.90786478  0.79915859  0.00080130  1
  H+  H288  1  0.65748349  0.05874627  0.23592912  1
  H+  H289  1  0.58595641  0.68133497  0.40544029  1
  H+  H290  1  0.08835334  0.91717028  0.43740567  1
  H+  H291  1  0.33861657  0.65624153  0.10222583  1
  H+  H292  1  0.41840931  0.57276266  0.89072963  1
  H+  H293  1  0.29521832  0.92592965  0.52842423  1
  H+  H294  1  0.15712741  0.07698090  0.23599564  1
  H+  H295  1  0.58260429  0.17686200  0.38466771  1
  H+  H296  1  0.61510706  0.97464335  0.82464197  1
  H+  H297  1  0.58992130  0.92544895  0.72585403  1
  H+  H298  1  0.15564335  0.07047696  0.56901751  1
  H+  H299  1  0.89485865  0.31253899  0.27805211  1
  H+  H300  1  0.33107013  0.90761981  0.72744332  1
  H+  H301  1  0.65910471  0.08305460  0.56133880  1
  H+  H302  1  0.59315702  0.16899438  0.08260171  1
  H+  H303  1  0.61689585  0.54300729  0.93358880  1
  H+  H304  1  0.57209209  0.91662104  0.09681803  1
  H+  H305  1  0.68273993  0.84158852  0.60799356  1
  H+  H306  1  0.85667766  0.97552905  0.82958751  1
  H+  H307  1  0.91762320  0.82020941  0.60177087  1
  H+  H308  1  0.13601528  0.67250538  0.45209867  1
  H+  H309  1  0.70741343  0.78922497  1.00383527  1
  H+  H310  1  0.91233596  0.81831820  0.25166213  1
  H+  H311  1  0.21290554  0.38760823  0.87495316  1
  H+  H312  1  0.11002477  0.42738562  0.06053712  1
  H+  H313  1  0.10979126  0.93418298  0.05622840  1
  H+  H314  1  0.68251538  0.91915413  0.03143252  1
  H+  H315  1  0.84996457  0.42497845  0.40158146  1
  H+  H316  1  0.41384593  0.56794409  0.27843235  1
  H+  H317  1  0.17396892  0.83480260  0.89856211  1
  H+  H318  1  0.81809346  0.15179508  0.10589040  1
  H+  H319  1  0.09994476  0.16214853  0.43330250  1
  H+  H320  1  0.85233050  0.91711129  0.43936868  1
  H+  H321  1  0.67974969  0.60837684  0.57069988  1
  H+  H322  1  0.55965315  0.36542765  0.73239013  1
  H+  H323  1  0.33090828  0.17227196  0.10803137  1
  H+  H324  1  0.63881071  0.82790755  0.25721283  1
  H+  H325  1  0.06375392  0.67681923  0.38227801  1
  H+  H326  1  0.11217564  0.13365374  0.34224011  1
  H+  H327  1  0.02328305  0.39049075  0.66770782  1
  H+  H328  1  0.41220506  0.08777022  0.26579820  1
  H+  H329  1  0.07956319  0.41839472  0.76089504  1
  H+  H330  1  0.67633574  0.32753908  0.59851292  1
  H+  H331  1  0.22590085  0.11419151  0.32646280  1
  H+  H332  1  0.86460775  0.47497707  0.82804969  1
  H+  H333  1  0.01902043  0.94013037  0.11579619  1
  H+  H334  1  0.83878908  0.67836451  0.11002261  1
  H+  H335  1  0.41184656  0.57980374  0.59658571  1
  H+  H336  1  0.92014396  0.32689325  0.89777513  1
  H+  H337  1  0.42002190  0.33050350  0.93146013  1
  H+  H338  1  0.77394811  0.91094561  0.36923820  1
  H+  H339  1  0.07904703  0.17301418  0.72566203  1
  H+  H340  1  0.42386004  0.83661269  0.55492943  1
  H+  H341  1  0.22631142  0.37554759  0.66964119  1
  H+  H342  1  0.08517403  0.66782507  0.76438106  1
  H+  H343  1  0.92561758  0.33721705  0.18275573  1
  H+  H344  1  0.16055042  0.49711382  0.15448994  1
  H+  H345  1  0.36016388  0.23015063  0.33895320  1
  H+  H346  1  0.80772956  0.90228640  0.06592355  1
  H+  H347  1  0.66752991  0.59850094  0.23288740  1
  H+  H348  1  0.59032539  0.95203110  0.41264267  1
  H+  H349  1  0.63272620  0.86862161  0.82496758  1
  H+  H350  1  0.90507626  0.56703648  0.25837885  1
  H+  H351  1  0.13429879  0.31481758  0.27587512  1
  H+  H352  1  0.58011756  0.15064593  0.76306484  1
  H+  H353  1  0.66496262  0.31174827  0.89630522  1
  H+  H354  1  0.58638974  0.42019783  0.11624405  1
  H+  H355  1  0.40752128  0.82644714  0.24456131  1
  H+  H356  1  0.86342516  0.71383333  0.49135809  1
  H+  H357  1  0.33062679  0.41176292  0.06178870  1
  H+  H358  1  0.42421310  0.84564077  0.88128305  1
  H+  H359  1  0.87824160  0.16210364  0.65189482  1
  H+  H360  1  0.92597586  0.59598759  0.89778476  1
  H+  H361  1  0.17529008  0.33928802  0.56537640  1
  H+  H362  1  0.15907899  0.29852682  0.94023121  1
  H+  H363  1  0.06441846  0.15231840  0.10427752  1
  H+  H364  1  0.52341164  0.65522978  0.50313928  1
  H+  H365  1  0.40996616  0.34232125  0.27497109  1
  H+  H366  1  0.89481055  0.85368050  0.50891164  1
  H+  H367  1  0.32811814  0.16753745  0.42571922  1
  H+  H368  1  0.58484706  0.67029126  0.75663193  1
  H+  H369  1  0.45472514  0.96449436  0.92080435  1
  H+  H370  1  0.39069747  0.33423863  0.55375002  1
  H+  H371  1  0.93895401  0.12841458  0.58240574  1
  H+  H372  1  0.93475621  0.58640190  0.55849573  1
  H+  H373  1  0.88225880  0.39582007  0.48962219  1
  H+  H374  1  0.39502294  0.41165492  0.46033465  1
  H+  H375  1  0.81292289  0.86965131  0.74563089  1
  H+  H376  1  0.17186634  0.57987972  0.27708201  1
  H+  H377  1  0.57855927  0.40213994  0.38910296  1
  H+  H378  1  0.69148360  0.67424686  0.90413009  1
  H+  H379  1  0.20515753  0.08566036  0.92512870  1
  H+  H380  1  0.91847550  0.84151212  0.90519950  1
  H+  H381  1  0.06951392  0.41072626  0.40604495  1
  H+  H382  1  0.82824364  0.15861527  0.40918166  1
  H+  H383  1  0.08306437  0.66017953  0.10386769  1
  O2-  O384  1  0.07036312  0.15364865  0.15063508  1
  O2-  O385  1  0.10512166  0.16097158  0.47976633  1
  O2-  O386  1  0.07619322  0.17444185  0.80778439  1
  O2-  O387  1  0.16153012  0.45163896  0.12921501  1
  O2-  O388  1  0.07462112  0.40621858  0.48344892  1
  O2-  O389  1  0.08167422  0.41944475  0.80665782  1
  O2-  O390  1  0.07702330  0.65562512  0.14887779  1
  O2-  O391  1  0.11471186  0.68400042  0.48969008  1
  O2-  O392  1  0.08243876  0.66883824  0.80983875  1
  O2-  O393  1  0.05038681  0.92463688  0.14456833  1
  O2-  O394  1  0.08766831  0.91836779  0.48348508  1
  O2-  O395  1  0.07182903  0.90532782  0.81216381  1
  O2-  O396  1  0.33091897  0.16550211  0.15342841  1
  O2-  O397  1  0.33152043  0.17412046  0.47146947  1
  O2-  O398  1  0.33688188  0.15924056  0.81065249  1
  O2-  O399  1  0.33235200  0.41175562  0.14138589  1
  O2-  O400  1  0.41538286  0.46506682  0.43430822  1
  O2-  O401  1  0.33438481  0.43386313  0.77113212  1
  O2-  O402  1  0.34309888  0.66315439  0.14740271  1
  O2-  O403  1  0.37132672  0.70027780  0.44027353  1
  O2-  O404  1  0.33277009  0.66321814  0.81113430  1
  O2-  O405  1  0.40882364  0.91955475  0.13950407  1
  O2-  O406  1  0.35782444  0.96047322  0.53455345  1
  O2-  O407  1  0.32917517  0.90469300  0.80115479  1
  O2-  O408  1  0.59351701  0.18218053  0.16230841  1
  O2-  O409  1  0.60028719  0.18838100  0.46621083  1
  O2-  O410  1  0.58608272  0.15195506  0.80798190  1
  O2-  O411  1  0.57374026  0.44806109  0.14997948  1
  O2-  O412  1  0.55417210  0.37718520  0.48162623  1
  O2-  O413  1  0.57746163  0.38649292  0.80907210  1
  O2-  O414  1  0.57045728  0.67002387  0.14840960  1
  O2-  O415  1  0.58823848  0.68597090  0.49699748  1
  O2-  O416  1  0.58469238  0.67703901  0.80222949  1
  O2-  O417  1  0.55574524  0.91875018  0.13930234  1
  O2-  O418  1  0.57331149  0.93557883  0.45626563  1
  O2-  O419  1  0.58762408  0.91586052  0.80530512  1
  O2-  O420  1  0.81552155  0.14829521  0.15125166  1
  O2-  O421  1  0.82376127  0.16892772  0.48762698  1
  O2-  O422  1  0.83233811  0.16810551  0.80852150  1
  O2-  O423  1  0.80593616  0.39471842  0.14296131  1
  O2-  O424  1  0.85562028  0.42893338  0.47156924  1
  O2-  O425  1  0.83567472  0.41545676  0.81163665  1
  O2-  O426  1  0.83352922  0.67145055  0.15513835  1
  O2-  O427  1  0.83932833  0.65510428  0.47317053  1
  O2-  O428  1  0.82791812  0.66771719  0.82183749  1
  O2-  O429  1  0.80525057  0.91074447  0.14038056  1
  O2-  O430  1  0.85753258  0.92053130  0.48474019  1
  O2-  O431  1  0.82355902  0.91210238  0.82051451  1
  O2-  O432  1  0.15492747  0.07469233  0.19037817  1
  O2-  O433  1  0.15894656  0.06840996  0.52210572  1
  O2-  O434  1  0.15306342  0.07966649  0.81072164  1
  O2-  O435  1  0.17812740  0.30313582  0.19804996  1
  O2-  O436  1  0.16985288  0.33907320  0.52051651  1
  O2-  O437  1  0.18971149  0.35412907  0.83784653  1
  O2-  O438  1  0.17652335  0.58983880  0.19558384  1
  O2-  O439  1  0.16321596  0.55988570  0.53243308  1
  O2-  O440  1  0.16534287  0.58569332  0.85115326  1
  O2-  O441  1  0.14430364  0.81842200  0.18471200  1
  O2-  O442  1  0.17522505  0.85113918  0.52583287  1
  O2-  O443  1  0.16799334  0.83543262  0.85336366  1
  O2-  O444  1  0.42060213  0.08039037  0.18632128  1
  O2-  O445  1  0.48224232  0.20937828  0.52488952  1
  O2-  O446  1  0.44924446  0.02990587  0.87814010  1
  O2-  O447  1  0.40959080  0.33197136  0.19961719  1
  O2-  O448  1  0.39309309  0.33895364  0.50791265  1
  O2-  O449  1  0.41332321  0.31593948  0.86266637  1
  O2-  O450  1  0.40946258  0.56856818  0.20044167  1
  O2-  O451  1  0.41860011  0.59699721  0.50666082  1
  O2-  O452  1  0.41603995  0.57625010  0.84544252  1
  O2-  O453  1  0.35190776  0.85173160  0.18361191  1
  O2-  O454  1  0.41462489  0.84208890  0.51077025  1
  O2-  O455  1  0.42259041  0.83075667  0.83735185  1
  O2-  O456  1  0.65498248  0.07140470  0.19245484  1
  O2-  O457  1  0.66034836  0.08841595  0.51598108  1
  O2-  O458  1  0.66681819  0.07438286  0.85469257  1
  O2-  O459  1  0.64065373  0.34021315  0.23004406  1
  O2-  O460  1  0.69533453  0.34851198  0.51930098  1
  O2-  O461  1  0.66642501  0.31742592  0.85052137  1
  O2-  O462  1  0.67086243  0.60353789  0.18776176  1
  O2-  O463  1  0.66006013  0.54993412  0.50135061  1
  O2-  O464  1  0.67537580  0.62672708  0.87558767  1
  O2-  O465  1  0.63236028  0.83417976  0.18740381  1
  O2-  O466  1  0.69489708  0.84703015  0.52783914  1
  O2-  O467  1  0.66251466  0.83430768  0.83890496  1
  O2-  O468  1  0.90569666  0.07357604  0.19124654  1
  O2-  O469  1  0.93101097  0.08975855  0.50141014  1
  O2-  O470  1  0.91178781  0.08130018  0.85047141  1
  O2-  O471  1  0.87339013  0.29913694  0.20536540  1
  O2-  O472  1  0.91863257  0.33829060  0.52324594  1
  O2-  O473  1  0.91704475  0.33003574  0.85210531  1
  O2-  O474  1  0.90924230  0.56976463  0.18458292  1
  O2-  O475  1  0.94087697  0.59074719  0.51319715  1
  O2-  O476  1  0.91802528  0.58831605  0.85299411  1
  O2-  O477  1  0.91248432  0.81579527  0.20473196  1
  O2-  O478  1  0.91887157  0.81692396  0.52257505  1
  O2-  O479  1  0.91026337  0.83378661  0.85993912  1
  O2-  O480  1  0.16377868  0.08258121  0.31356865  1
  O2-  O481  1  0.15334361  0.07642987  0.63953674  1
  O2-  O482  1  0.19093332  0.08337039  0.96798383  1
  O2-  O483  1  0.12905881  0.31011796  0.32034527  1
  O2-  O484  1  0.17167883  0.33777590  0.64811533  1
  O2-  O485  1  0.16222047  0.31890946  0.98167269  1
  O2-  O486  1  0.16334843  0.57563768  0.32199153  1
  O2-  O487  1  0.17567677  0.58096074  0.65484749  1
  O2-  O488  1  0.16708381  0.58133288  0.97636510  1
  O2-  O489  1  0.16707690  0.84536446  0.30746876  1
  O2-  O490  1  0.16336966  0.83148930  0.64685051  1
  O2-  O491  1  0.17886998  0.83373812  0.97960693  1
  O2-  O492  1  0.40964585  0.09078774  0.31094097  1
  O2-  O493  1  0.42517351  0.08868780  0.61582951  1
  O2-  O494  1  0.41043785  0.09016128  1.01677136  1
  O2-  O495  1  0.41532259  0.34457680  0.32083491  1
  O2-  O496  1  0.39286595  0.31472193  0.62827069  1
  O2-  O497  1  0.43044914  0.34876462  0.97691211  1
  O2-  O498  1  0.41620214  0.56966289  0.32417823  1
  O2-  O499  1  0.41582096  0.58370905  0.64131502  1
  O2-  O500  1  0.42520855  0.57863765  0.97202387  1
  O2-  O501  1  0.43472707  0.80296682  0.27143900  1
  O2-  O502  1  0.42536906  0.83370080  0.63558529  1
  O2-  O503  1  0.44492544  0.91089914  0.94485389  1
  O2-  O504  1  0.68265345  0.03978418  0.31036874  1
  O2-  O505  1  0.67648239  0.08715779  0.63855693  1
  O2-  O506  1  0.66125782  0.07300400  0.98031443  1
  O2-  O507  1  0.64036805  0.33097905  0.29383777  1
  O2-  O508  1  0.66951854  0.31834073  0.64332750  1
  O2-  O509  1  0.66184409  0.30247623  0.97130218  1
  O2-  O510  1  0.66354806  0.58465367  0.31496994  1
  O2-  O511  1  0.68899144  0.65608586  0.59813845  1
  O2-  O512  1  0.58772893  0.51173038  0.97128570  1
  O2-  O513  1  0.65446532  0.82965949  0.30254737  1
  O2-  O514  1  0.66875470  0.83667388  0.65188349  1
  O2-  O515  1  0.66074048  0.73075487  0.99077563  1
  O2-  O516  1  0.91595937  0.07585928  0.31941148  1
  O2-  O517  1  0.94603765  0.15722932  0.62164479  1
  O2-  O518  1  0.89630634  0.06742277  0.97355641  1
  O2-  O519  1  0.90103393  0.32098483  0.32367515  1
  O2-  O520  1  0.90878036  0.33274011  0.64327003  1
  O2-  O521  1  0.92262973  0.31533988  0.97456167  1
  O2-  O522  1  0.90710154  0.56870837  0.30466132  1
  O2-  O523  1  0.92441829  0.57467821  0.63728730  1
  O2-  O524  1  0.93644566  0.61694612  0.97816468  1
  O2-  O525  1  0.91027407  0.82420363  0.32139205  1
  O2-  O526  1  0.92094152  0.82636415  0.64704358  1
  O2-  O527  1  0.93136366  0.85695070  0.98222810  1
  O2-  O528  1  0.05711394  0.15040974  0.03302003  1
  O2-  O529  1  0.07864280  0.15746977  0.36266359  1
  O2-  O530  1  0.08582253  0.17367319  0.68068492  1
  O2-  O531  1  0.09155670  0.41820529  0.01675241  1
  O2-  O532  1  0.06385545  0.40936802  0.36051635  1
  O2-  O533  1  0.08195726  0.41509131  0.68441567  1
  O2-  O534  1  0.09123680  0.67118933  0.02125642  1
  O2-  O535  1  0.07341243  0.66927411  0.33968671  1
  O2-  O536  1  0.08866933  0.66514847  0.68575757  1
  O2-  O537  1  0.10245805  0.92893356  0.01203394  1
  O2-  O538  1  0.08581861  0.91746800  0.36193886  1
  O2-  O539  1  0.08309508  0.91837952  0.68790650  1
  O2-  O540  1  0.33689610  0.17937545  0.03116796  1
  O2-  O541  1  0.32863116  0.16862784  0.35087927  1
  O2-  O542  1  0.32539788  0.14951555  0.67925716  1
  O2-  O543  1  0.32811822  0.41012195  0.01631468  1
  O2-  O544  1  0.36554544  0.43387546  0.37718179  1
  O2-  O545  1  0.30274177  0.46258933  0.71956588  1
  O2-  O546  1  0.32535084  0.64126786  0.02105773  1
  O2-  O547  1  0.28063669  0.67197260  0.42503097  1
  O2-  O548  1  0.34347404  0.67320539  0.68808984  1
  O2-  O549  1  0.33592934  0.91392305  0.03221036  1
  O2-  O550  1  0.32916714  0.92329741  0.34262540  1
  O2-  O551  1  0.33056049  0.90630070  0.68124337  1
  O2-  O552  1  0.58329557  0.15826043  0.03771642  1
  O2-  O553  1  0.57125727  0.16945034  0.34050502  1
  O2-  O554  1  0.58013992  0.15016051  0.67914462  1
  O2-  O555  1  0.59149389  0.38287502  0.03528847  1
  O2-  O556  1  0.57902019  0.41443164  0.34547000  1
  O2-  O557  1  0.55802533  0.36437399  0.68678177  1
  O2-  O558  1  0.58411005  0.72345574  0.02317246  1
  O2-  O559  1  0.57975464  0.67291489  0.36107135  1
  O2-  O560  1  0.57997962  0.67131821  0.68042386  1
  O2-  O561  1  0.62184989  0.89987479  0.02475425  1
  O2-  O562  1  0.63925536  0.96310030  0.34782902  1
  O2-  O563  1  0.59240280  0.92666216  0.68053006  1
  O2-  O564  1  0.82805396  0.15514899  0.02548708  1
  O2-  O565  1  0.83238808  0.15531890  0.36413873  1
  O2-  O566  1  0.83571900  0.17979496  0.67322802  1
  O2-  O567  1  0.80725962  0.33032345  0.03277049  1
  O2-  O568  1  0.84383669  0.41834054  0.35493224  1
  O2-  O569  1  0.83201277  0.41384955  0.68681601  1
  O2-  O570  1  0.85677129  0.69333552  0.03120749  1
  O2-  O571  1  0.82994411  0.65750848  0.34909690  1
  O2-  O572  1  0.90058514  0.68753423  0.71021666  1
  O2-  O573  1  0.80393092  0.89430930  0.02007889  1
  O2-  O574  1  0.83188247  0.92047852  0.36272487  1
  O2-  O575  1  0.79133775  0.83196916  0.70950004  1
