# generated using pymatgen
data_H2O
_symmetry_space_group_name_H-M   'P 1'
_cell_length_a   17.99426548
_cell_length_b   17.98073454
_cell_length_c   21.99983299
_cell_angle_alpha   89.99253339
_cell_angle_beta   90.01200027
_cell_angle_gamma   119.96791912
_symmetry_Int_Tables_number   1
_chemical_formula_structural   H2O
_chemical_formula_sum   'H384 O192'
_cell_volume   6166.40239483
_cell_formula_units_Z   192
loop_
 _symmetry_equiv_pos_site_id
 _symmetry_equiv_pos_as_xyz
  1  'x, y, z'
loop_
 _atom_type_symbol
 _atom_type_oxidation_number
  H+  1.0
  O2-  -2.0
loop_
 _atom_site_type_symbol
 _atom_site_label
 _atom_site_symmetry_multiplicity
 _atom_site_fract_x
 _atom_site_fract_y
 _atom_site_fract_z
 _atom_site_occupancy
  H+  H0  1  0.37711097  0.10194872  0.84050805  1
  H+  H1  1  0.15950859  0.27600031  0.66376502  1
  H+  H2  1  0.26951489  0.62122107  0.65604208  1
  H+  H3  1  0.08294516  0.68055210  0.42580906  1
  H+  H4  1  0.87483500  0.99781733  0.82381468  1
  H+  H5  1  0.86704119  0.17326541  0.83631081  1
  H+  H6  1  0.52420431  0.88679977  0.67321390  1
  H+  H7  1  0.89561901  0.51217886  0.17569407  1
  H+  H8  1  0.71203076  0.83038190  0.31587115  1
  H+  H9  1  0.13992238  0.58650880  0.63994350  1
  H+  H10  1  0.38747625  0.36092207  0.65771326  1
  H+  H11  1  0.60008038  0.62062834  0.67242544  1
  H+  H12  1  0.37501378  0.57342058  0.92900499  1
  H+  H13  1  0.63248312  0.85418704  0.66590690  1
  H+  H14  1  0.09945271  0.38736662  0.18117177  1
  H+  H15  1  0.22347181  0.85588271  0.99460519  1
  H+  H16  1  0.92121766  0.02930016  0.99635193  1
  H+  H17  1  0.61471772  0.72336626  0.15558046  1
  H+  H18  1  0.16463904  0.33232273  0.90226136  1
  H+  H19  1  -0.08811415  0.54031124  0.66322454  1
  H+  H20  1  0.88475543  0.77631367  0.47384968  1
  H+  H21  1  0.76565870  0.64544459  0.15654530  1
  H+  H22  1  0.47230954  0.85460309  0.18606080  1
  H+  H23  1  0.50326544  0.87993048  1.01335754  1
  H+  H24  1  0.83191278  0.40193910  0.10630035  1
  H+  H25  1  0.27627416  0.13777990  1.00204160  1
  H+  H26  1  0.82373986  0.66509307  1.06325988  1
  H+  H27  1  0.61267759  0.37981206  1.01097410  1
  H+  H28  1  0.11381600  0.73824284  0.48755217  1
  H+  H29  1  0.47189269  0.86190758  0.32970058  1
  H+  H30  1  0.26356738  0.63975923  0.15467515  1
  H+  H31  1  0.27530694  0.13698946  0.49099522  1
  H+  H32  1  0.72309845  0.60838408  0.99422212  1
  H+  H33  1  0.71446937  0.83821419  0.65907966  1
  H+  H34  1  0.89221377  0.53046466  0.50435916  1
  H+  H35  1  0.57637925  0.68761313  0.01415947  1
  H+  H36  1  0.61314269  0.22421433  0.16471980  1
  H+  H37  1  0.35874385  0.37521093  0.49174514  1
  H+  H38  1  0.51593003  0.13558996  0.66379443  1
  H+  H39  1  0.09268287  0.36892935  0.83422338  1
  H+  H40  1  0.12629917  0.50527987  0.59505335  1
  H+  H41  1  0.66752860  0.33192529  0.23796535  1
  H+  H42  1  0.51669708  0.13318258  0.83594226  1
  H+  H43  1  0.11046454  0.64521679  0.33656107  1
  H+  H44  1  0.84839167  0.62560723  0.33513653  1
  H+  H45  1  0.85449940  0.37635674  0.00641557  1
  H+  H46  1  0.52944538  0.63173665  0.48420829  1
  H+  H47  1  0.90559062  0.74946110  0.31411840  1
  H+  H48  1  0.10919642  0.73362666  0.33307808  1
  H+  H49  1  0.36532313  0.22802460  0.00208175  1
  H+  H50  1  0.38911437  0.36856318  1.00009378  1
  H+  H51  1  0.89125926  0.86990657  0.16937347  1
  H+  H52  1  0.61902960  0.88982714  0.49922673  1
  H+  H53  1  0.67629626  0.82171659  0.99283801  1
  H+  H54  1  0.86739592  0.13023601  0.15981459  1
  H+  H55  1  0.21800829  0.36413507  0.84057959  1
  H+  H56  1  0.97610181  0.36525050  0.52115119  1
  H+  H57  1  0.22720361  0.10516337  0.66464830  1
  H+  H58  1  0.48207515  0.62912818  0.17450749  1
  H+  H59  1  0.12120021  0.60957039  0.99434570  1
  H+  H60  1  0.11708013  0.22027362  0.82902647  1
  H+  H61  1  0.35585365  0.88023882  1.00557578  1
  H+  H62  1  0.99887620  0.36391305  0.82969861  1
  H+  H63  1  0.63977830  0.52372072  0.50733332  1
  H+  H64  1  0.36489949  0.22441016  0.33941461  1
  H+  H65  1  0.14090355  0.85584632  0.65955826  1
  H+  H66  1  0.14348926  0.36591216  0.99983505  1
  H+  H67  1  0.11334818  0.89269197  0.49529293  1
  H+  H68  1  0.39286294  0.60505657  0.49338633  1
  H+  H69  1  0.76670060  0.13955897  0.67874417  1
  H+  H70  1  0.81372017  0.80306856  0.67095479  1
  H+  H71  1  0.66036560  0.58404182  0.25424952  1
  H+  H72  1  0.36323990  -0.04634479  0.15952573  1
  H+  H73  1  0.63323754  0.85155619  0.30994021  1
  H+  H74  1  0.58648622  0.87243091  0.01691663  1
  H+  H75  1  0.77857595  0.88088969  0.53024946  1
  H+  H76  1  0.39617125  0.79355769  0.50744792  1
  H+  H77  1  0.73012130  0.11370398  0.50547473  1
  H+  H78  1  0.41056522  0.09192212  0.59847627  1
  H+  H79  1  0.86221579  0.64615269  0.82800958  1
  H+  H80  1  0.62188384  0.21046394  0.47143320  1
  H+  H81  1  0.07281880  0.39646399  0.74025086  1
  H+  H82  1  0.22252158  0.36211651  0.31980238  1
  H+  H83  1  0.12133447  0.13386617  0.82916101  1
  H+  H84  1  0.89345652  0.38275890  0.34390384  1
  H+  H85  1  0.14125492  0.02853398  0.50546783  1
  H+  H86  1  0.64493898  0.36623708  0.17735306  1
  H+  H87  1  0.36594341  0.98508339  0.67482788  1
  H+  H88  1  0.52210630  0.89541549  0.82298745  1
  H+  H89  1  0.36220981  0.47462046  0.67075349  1
  H+  H90  1  0.81162504  0.79391070  0.36114660  1
  H+  H91  1  0.61842799  -0.02505460  0.31158787  1
  H+  H92  1  0.84234016  0.45990458  0.83249453  1
  H+  H93  1  0.38878079  0.26969924  0.50439750  1
  H+  H94  1  0.47502365  0.11390972  0.50484109  1
  H+  H95  1  0.13867361  0.12193011  0.32807589  1
  H+  H96  1  0.84722997  0.84588039  0.30153899  1
  H+  H97  1  0.25886185  0.16093939  0.15338708  1
  H+  H98  1  0.38981607  0.36219376  0.32969951  1
  H+  H99  1  0.78005903  0.39410954  0.50840062  1
  H+  H100  1  0.52535326  0.38433236  0.01337268  1
  H+  H101  1  0.11816344  0.97588137  0.00232594  1
  H+  H102  1  0.38671277  0.55187797  0.17276194  1
  H+  H103  1  0.12380686  0.40592774  0.33609297  1
  H+  H104  1  0.95910497  0.59712288  0.85193345  1
  H+  H105  1  0.61026445  0.13003721  0.32887686  1
  H+  H106  1  0.08244810  0.90891514  0.76745049  1
  H+  H107  1  0.60821673  0.13264294  0.66147929  1
  H+  H108  1  0.22325055  0.36210956  0.50736603  1
  H+  H109  1  0.58998451  0.73746888  0.84901405  1
  H+  H110  1  0.37491010  0.26721434  0.66568030  1
  H+  H111  1  0.36227577  0.47269341  0.33788317  1
  H+  H112  1  0.63733867  0.51585094  0.99618467  1
  H+  H113  1  0.52306024  0.38563083  0.49864359  1
  H+  H114  1  0.49873497  0.40973979  0.84705499  1
  H+  H115  1  0.27912420  0.65277885  0.49686440  1
  H+  H116  1  0.62868040  0.63933080  0.82957572  1
  H+  H117  1  0.10976326  0.87831337  0.82727361  1
  H+  H118  1  0.61525853  0.12172051  0.48865990  1
  H+  H119  1  0.90910029  0.32408935  0.57391473  1
  H+  H120  1  0.60093323  0.61400154  0.01388052  1
  H+  H121  1  0.15776253  0.72900907  0.65859463  1
  H+  H122  1  0.86506258  0.38680986  0.50329958  1
  H+  H123  1  0.38003955  0.01738193  0.99938397  1
  H+  H124  1  0.57501948  0.14769093  0.39001882  1
  H+  H125  1  0.72047723  0.35542357  0.99772828  1
  H+  H126  1  1.02272773  0.63307415  0.16132458  1
  H+  H127  1  0.03713255  0.39718248  0.03870977  1
  H+  H128  1  0.51315033  0.37596328  0.67559365  1
  H+  H129  1  0.66247573  0.08122415  0.59771685  1
  H+  H130  1  0.22881083  0.86521462  0.32484137  1
  H+  H131  1  0.35973757  0.88531973  0.34502980  1
  H+  H132  1  0.13863169  0.01578140  0.84095188  1
  H+  H133  1  0.80594856  0.94291911  0.87045427  1
  H+  H134  1  0.22651222  0.11847640  0.32663656  1
  H+  H135  1  0.72786750  0.11389193  0.31587168  1
  H+  H136  1  -0.02942253  0.34855308  0.66340520  1
  H+  H137  1  0.86685464  -0.02155400  0.15780919  1
  H+  H138  1  0.85526723  0.73260568  0.15038083  1
  H+  H139  1  0.85971314  0.21495010  0.16880425  1
  H+  H140  1  0.65412939  0.81906147  0.57105054  1
  H+  H141  1  0.62664441  0.51342664  0.65976294  1
  H+  H142  1  0.26444778  0.69897930  0.79182109  1
  H+  H143  1  0.35999374  0.13254047  0.33496720  1
  H+  H144  1  0.96860037  0.61581408  0.32969548  1
  H+  H145  1  0.86036550  0.72148809  1.00280976  1
  H+  H146  1  0.89144508  0.10374021  0.50923049  1
  H+  H147  1  0.36230528  0.46516019  0.48919875  1
  H+  H148  1  0.57780535  0.16503119  0.06998129  1
  H+  H149  1  0.41055149  0.36393847  0.18252855  1
  H+  H150  1  0.10579326  0.72157332  0.00695703  1
  H+  H151  1  0.38018653  0.01895686  0.32617934  1
  H+  H152  1  0.30825129  0.30197671  0.13405430  1
  H+  H153  1  0.11767759  0.89211572  0.15679826  1
  H+  H154  1  0.61756972  0.34983220  0.67802579  1
  H+  H155  1  0.63859484  0.77034613  0.50687312  1
  H+  H156  1  0.34336631  0.60936418  0.84133234  1
  H+  H157  1  0.63420395  0.52258829  0.17732943  1
  H+  H158  1  0.23508718  0.86874939  0.65737417  1
  H+  H159  1  0.84516301  0.20710460  0.27459381  1
  H+  H160  1  0.07728317  0.66344937  0.06754815  1
  H+  H161  1  0.36000288  0.97332883  0.83038250  1
  H+  H162  1  0.62266033  0.47744877  0.82607641  1
  H+  H163  1  0.34957665  0.61012706  -0.00452069  1
  H+  H164  1  0.47506625  0.09171955  0.17060842  1
  H+  H165  1  0.86484104  0.63577231  0.48275844  1
  H+  H166  1  0.38326021  0.12204168  0.65900321  1
  H+  H167  1  0.17452479  0.60215945  0.23811264  1
  H+  H168  1  0.63319074  0.26790495  0.32974274  1
  H+  H169  1  0.89962932  0.04060598  0.33186721  1
  H+  H170  1  0.37014387  0.73204685  0.34683917  1
  H+  H171  1  0.73113389  0.10885059  0.16930669  1
  H+  H172  1  0.38809667  0.11966863  0.50259414  1
  H+  H173  1  0.05299061  0.15007387  0.00784802  1
  H+  H174  1  0.61300035  0.88404047  0.15980802  1
  H+  H175  1  0.11997036  -0.02930952  0.66938198  1
  H+  H176  1  0.32736661  0.90322502  0.06828061  1
  H+  H177  1  0.63014771  0.26745390  0.99757718  1
  H+  H178  1  0.35955590  -0.01617270  0.49494738  1
  H+  H179  1  0.14570748  0.63978603  0.48727077  1
  H+  H180  1  0.11881219  -0.01257364  0.33861868  1
  H+  H181  1  0.75962182  0.12997588  0.01221276  1
  H+  H182  1  0.60751963  0.71377296  0.67867711  1
  H+  H183  1  0.35014619  0.67029714  0.54507217  1
  H+  H184  1  0.36849408  0.64623621  0.65962028  1
  H+  H185  1  0.86176784  0.25174499  0.99358104  1
  H+  H186  1  0.60762131  0.13836118  0.83789523  1
  H+  H187  1  0.87699096  0.26504291  0.66560782  1
  H+  H188  1  0.14894159  0.27871403  0.99945268  1
  H+  H189  1  0.11534918  0.23663747  0.33926029  1
  H+  H190  1  0.90164575  0.29867158  0.33992150  1
  H+  H191  1  0.88572437  0.88855643  0.00451001  1
  H+  H192  1  0.10110625  0.43278294  0.12009931  1
  H+  H193  1  0.64267083  0.02068542  0.50460172  1
  H+  H194  1  0.03095458  0.88132604  0.66838989  1
  H+  H195  1  0.96581408  0.60616133  0.99849392  1
  H+  H196  1  0.60346263  0.71482185  0.32980459  1
  H+  H197  1  0.37824864  0.77705217  0.65656213  1
  H+  H198  1  0.09985243  0.61489095  0.81715625  1
  H+  H199  1  0.48416130  0.47524841  0.88499036  1
  H+  H200  1  0.14607639  0.87519337  0.32565013  1
  H+  H201  1  0.35944294  0.21285977  0.82823826  1
  H+  H202  1  0.11447181  0.48188049  0.49980845  1
  H+  H203  1  0.10796202  0.23504626  0.16470723  1
  H+  H204  1  0.36457693  0.51893455  0.99549831  1
  H+  H205  1  0.76891430  0.38739803  0.34944810  1
  H+  H206  1  0.13817805  0.76769454  0.83850252  1
  H+  H207  1  0.36050874  0.65903081  0.15319208  1
  H+  H208  1  0.99086941  0.12626967  0.32813741  1
  H+  H209  1  0.89197926  0.87863625  0.85022261  1
  H+  H210  1  0.11615903  0.48290960  0.01320317  1
  H+  H211  1  0.73234142  0.61511837  0.84308775  1
  H+  H212  1  0.64268432  0.61389978  0.50419414  1
  H+  H213  1  0.42189869  0.85042503  0.56697327  1
  H+  H214  1  0.10605514  0.49315674  0.84111185  1
  H+  H215  1  0.97579387  0.86902663  0.84115077  1
  H+  H216  1  0.38860180  0.61422567  0.33178184  1
  H+  H217  1  0.54007035  0.38965387  0.16499604  1
  H+  H218  1  0.64255109  0.38085107  0.52061631  1
  H+  H219  1  0.25368078  0.62989506  0.00189021  1
  H+  H220  1  0.85577015  0.14012655  0.67377437  1
  H+  H221  1  0.14463822  0.11915860  0.50814716  1
  H+  H222  1  0.87079229  0.39329864  0.67501862  1
  H+  H223  1  0.13878799  0.02964269  0.17159691  1
  H+  H224  1  0.86293124  0.73560381  0.83255947  1
  H+  H225  1  0.87099052  0.22901892  0.49922232  1
  H+  H226  1  0.02940655  0.13560947  0.49584119  1
  H+  H227  1  0.61269629  0.23816231  0.67055628  1
  H+  H228  1  0.38633161  0.77985092  0.83254145  1
  H+  H229  1  -0.01567039  0.86133877  -0.00571959  1
  H+  H230  1  0.40199487  0.27599406  0.17790454  1
  H+  H231  1  0.97841482  0.62118383  0.49887277  1
  H+  H232  1  0.89352874  1.01689624  0.52609107  1
  H+  H233  1  0.52291320  0.38547065  0.34578770  1
  H+  H234  1  0.89836502  0.94200568  0.70116421  1
  H+  H235  1  0.77441401  0.63402886  0.48727174  1
  H+  H236  1  0.22961223  0.10314239  0.83955559  1
  H+  H237  1  0.62994957  0.02243978  0.65799960  1
  H+  H238  1  0.14381307  0.53809076  0.33049588  1
  H+  H239  1  0.26996477  0.87005052  0.15903346  1
  H+  H240  1  0.35452872  0.52661880  0.83734296  1
  H+  H241  1  0.13044772  0.77187863  0.17055771  1
  H+  H242  1  0.61214732  0.47354735  0.34357502  1
  H+  H243  1  0.11113443  0.14370207  0.16220400  1
  H+  H244  1  0.59659390  0.87686831  0.82817462  1
  H+  H245  1  -0.00180683  1.00067501  0.71290545  1
  H+  H246  1  0.10908382  0.45477546  0.68032007  1
  H+  H247  1  0.86554771  0.88009715  0.51505489  1
  H+  H248  1  0.92320474  0.83580997  0.93506824  1
  H+  H249  1  0.37307333  0.76431556  0.98945876  1
  H+  H250  1  0.13895809  0.35417075  0.66588241  1
  H+  H251  1  0.51645123  0.13254499  0.01074683  1
  H+  H252  1  0.37976215  0.84342668  0.18205993  1
  H+  H253  1  0.22495599  0.86916911  0.50522222  1
  H+  H254  1  0.02979018  0.89420190  0.15272121  1
  H+  H255  1  0.13678357  0.14221039  0.67509396  1
  H+  H256  1  0.57497417  0.64929120  0.10284747  1
  H+  H257  1  0.95219605  0.33080990  0.97195062  1
  H+  H258  1  0.61898524  0.13847727  0.16011117  1
  H+  H259  1  0.60497605  0.38005063  0.82959728  1
  H+  H260  1  0.85638068  0.46650140  0.01146516  1
  H+  H261  1  0.75428905  0.65870333  0.67701225  1
  H+  H262  1  0.36800190  0.41421292  0.82983682  1
  H+  H263  1  0.86015406  0.33616129  0.18947535  1
  H+  H264  1  0.23017321  0.62858182  0.33309055  1
  H+  H265  1  0.51593449  0.62389655  0.33582148  1
  H+  H266  1  0.56883846  0.90499116  0.26254115  1
  H+  H267  1  0.62522651  0.10615190  1.00201821  1
  H+  H268  1  0.63977763  0.03171261  0.84412356  1
  H+  H269  1  0.38685942  0.87006212  0.66192136  1
  H+  H270  1  0.62165572  1.01527459  0.00382241  1
  H+  H271  1  0.49448422  0.63868098  0.65057463  1
  H+  H272  1  0.14384555  0.57131671  0.93449209  1
  H+  H273  1  0.46988518  0.10634809  0.32111858  1
  H+  H274  1  0.75377171  0.37268157  0.82779731  1
  H+  H275  1  0.77307317  0.37929350  0.16531069  1
  H+  H276  1  0.18244363  0.36115960  0.16062038  1
  H+  H277  1  0.27250596  0.38895409  0.00835717  1
  H+  H278  1  0.03957655  0.88998950  0.33690136  1
  H+  H279  1  0.19573102  0.58151552  0.83808527  1
  H+  H280  1  0.63657917  0.29367729  0.53907149  1
  H+  H281  1  0.11609290  0.64309579  0.16098930  1
  H+  H282  1  0.27716230  0.35457158  0.17258943  1
  H+  H283  1  0.72914122  0.86320006  0.16384682  1
  H+  H284  1  0.13907461  0.53304613  0.18430356  1
  H+  H285  1  0.97138002  0.86674594  0.47823474  1
  H+  H286  1  0.11389486  0.22859135  0.49706210  1
  H+  H287  1  0.98741477  0.77174542  0.27594205  1
  H+  H288  1  0.88731932  0.30762507  0.89130078  1
  H+  H289  1  0.32801047  0.91872024  0.40154822  1
  H+  H290  1  0.09043631  0.91948313  0.06287108  1
  H+  H291  1  0.09315682  0.92757866  0.43436745  1
  H+  H292  1  0.89851553  0.57235650  0.90855051  1
  H+  H293  1  0.17030110  0.33323024  0.56980365  1
  H+  H294  1  0.92497934  0.06539877  0.67430109  1
  H+  H295  1  0.65891249  0.57566112  0.60075736  1
  H+  H296  1  0.92629386  0.08221369  0.22865808  1
  H+  H297  1  0.17060734  0.07992180  0.93366047  1
  H+  H298  1  0.32284197  0.16820732  0.76065423  1
  H+  H299  1  0.27190873  0.38699925  0.67074681  1
  H+  H300  1  0.83080746  0.87338420  0.61772563  1
  H+  H301  1  0.41429990  0.32543126  0.56613607  1
  H+  H302  1  0.41631001  0.58958951  0.26943205  1
  H+  H303  1  0.62532036  0.61073741  0.17798044  1
  H+  H304  1  0.61928141  0.26307079  0.84306928  1
  H+  H305  1  0.91914537  0.57429510  0.23262274  1
  H+  H306  1  0.59044993  0.66196231  0.77036145  1
  H+  H307  1  0.84605671  0.96751914  0.40876493  1
  H+  H308  1  0.32811710  0.42170775  0.76645182  1
  H+  H309  1  0.83511737  0.41987758  0.73132585  1
  H+  H310  1  0.08793074  0.17680655  0.40034773  1
  H+  H311  1  0.81714086  0.69881632  0.73267413  1
  H+  H312  1  0.66607552  0.82444944  0.22143165  1
  H+  H313  1  0.72591670  0.61801896  0.32280300  1
  H+  H314  1  0.12386216  0.18012805  0.73953271  1
  H+  H315  1  0.63823613  0.02194091  0.17048377  1
  H+  H316  1  0.17381147  0.07474068  0.60062904  1
  H+  H317  1  0.79897022  0.95289196  0.40693527  1
  H+  H318  1  0.67818921  0.34304555  0.62785215  1
  H+  H319  1  0.92017094  0.09348981  0.60537123  1
  H+  H320  1  0.57373499  0.41122489  0.73568292  1
  H+  H321  1  0.16492338  0.83460517  0.22888973  1
  H+  H322  1  0.93367480  0.59892822  0.60663554  1
  H+  H323  1  0.42818675  0.33221465  0.27447848  1
  H+  H324  1  0.82749119  0.42031471  0.41025352  1
  H+  H325  1  0.16651384  0.83505362  0.56458139  1
  H+  H326  1  0.40955139  0.82798755  0.93181580  1
  H+  H327  1  0.66997277  0.57793654  0.90183273  1
  H+  H328  1  0.16476686  0.82449050  0.89973474  1
  H+  H329  1  0.36361232  0.89727390  0.49555710  1
  H+  H330  1  0.87609481  0.60520929  0.99917828  1
  H+  H331  1  0.51023908  0.74271494  0.87384666  1
  H+  H332  1  0.59116432  0.66561989  0.42730887  1
  H+  H333  1  0.66737744  0.08477898  0.25826817  1
  H+  H334  1  0.63301555  0.35730019  0.33357665  1
  H+  H335  1  0.84034005  0.91940722  0.09828416  1
  H+  H336  1  0.31496558  0.65857017  0.06382646  1
  H+  H337  1  0.10115781  0.17803236  0.07166079  1
  H+  H338  1  0.92781592  0.83002180  0.22062244  1
  H+  H339  1  0.56865391  0.91117841  0.10843629  1
  H+  H340  1  0.40640976  0.82676935  0.27597460  1
  H+  H341  1  0.38505555  0.86719475  0.83814676  1
  H+  H342  1  0.33700333  0.92376962  0.73397540  1
  H+  H343  1  0.84288199  0.13503100  0.77285140  1
  H+  H344  1  0.90812825  0.33292847  0.24908755  1
  H+  H345  1  0.86666156  0.34280907  0.83208352  1
  H+  H346  1  0.43107670  0.58931145  0.55233128  1
  H+  H347  1  0.31951455  0.18939251  0.09313563  1
  H+  H348  1  0.59588171  0.42233847  0.10372279  1
  H+  H349  1  0.38263160  0.10833525  0.99843720  1
  H+  H350  1  0.34418860  0.67006960  0.40423006  1
  H+  H351  1  0.65780493  0.08024074  0.90702783  1
  H+  H352  1  0.87455950  0.15096469  0.31247551  1
  H+  H353  1  0.03868324  0.63480936  0.77409389  1
  H+  H354  1  0.26718074  0.20417227  0.70763757  1
  H+  H355  1  0.84536589  0.17242339  0.43907514  1
  H+  H356  1  0.82217499  0.65994956  0.39423652  1
  H+  H357  1  0.33155927  0.41421477  0.06781050  1
  H+  H358  1  0.13637811  0.85917451  0.99191772  1
  H+  H359  1  0.17339181  0.60787621  0.54590460  1
  H+  H360  1  0.13813971  0.67103409  0.71587302  1
  H+  H361  1  0.15809394  0.33114453  0.26181906  1
  H+  H362  1  0.40410010  0.07338566  0.90297374  1
  H+  H363  1  0.33014623  0.40936801  0.39536207  1
  H+  H364  1  0.31210305  0.66598868  0.75002271  1
  H+  H365  1  0.14843305  0.11559452  0.99445038  1
  H+  H366  1  0.33292149  0.16436892  0.42979535  1
  H+  H367  1  0.48698858  0.70520188  0.60921401  1
  H+  H368  1  0.62982342  0.61634587  0.32341667  1
  H+  H369  1  0.65324948  0.32779758  0.90062750  1
  H+  H370  1  0.60283589  0.79135488  0.94248096  1
  H+  H371  1  0.04035031  0.41239017  0.34674987  1
  H+  H372  1  0.88066770  0.52496532  0.33424221  1
  H+  H373  1  0.42886821  0.35675423  0.94013624  1
  H+  H374  1  0.11882224  0.39998169  0.52348288  1
  H+  H375  1  0.81335672  0.91267069  -0.00850973  1
  H+  H376  1  0.16571666  0.08769738  0.23239502  1
  H+  H377  1  0.53471987  0.89792593  0.49700358  1
  H+  H378  1  0.82661433  0.16516003  0.06756444  1
  H+  H379  1  0.27221183  0.88254220  0.82719800  1
  H+  H380  1  0.58494875  0.41526697  0.44019055  1
  H+  H381  1  0.98293892  0.11427647  0.16774220  1
  H+  H382  1  0.41177119  0.06166803  0.22684783  1
  H+  H383  1  0.58490785  0.91820572  0.73192805  1
  O2-  O384  1  0.08067506  0.17216317  0.14462799  1
  O2-  O385  1  0.08945510  0.16958586  0.47964843  1
  O2-  O386  1  0.09758106  0.16558285  0.80733528  1
  O2-  O387  1  0.08743410  0.43159839  0.16344909  1
  O2-  O388  1  0.08927236  0.43444825  0.52929570  1
  O2-  O389  1  0.06208683  0.39837251  0.81766148  1
  O2-  O390  1  0.08283244  0.66941463  0.14396243  1
  O2-  O391  1  0.08593571  0.67800910  0.47130698  1
  O2-  O392  1  0.09178444  0.66106840  0.79764096  1
  O2-  O393  1  0.09145048  0.92599927  0.14049309  1
  O2-  O394  1  0.08662403  0.92612523  0.47946241  1
  O2-  O395  1  0.08046334  0.90958590  0.81264746  1
  O2-  O396  1  0.31109998  0.20918214  0.13388898  1
  O2-  O397  1  0.33604979  0.16666180  0.47542755  1
  O2-  O398  1  0.33049464  0.15670344  0.80879570  1
  O2-  O399  1  0.32201291  0.36272937  0.14330561  1
  O2-  O400  1  0.32797708  0.40455120  0.47549363  1
  O2-  O401  1  0.32506473  0.42710965  0.81148823  1
  O2-  O402  1  0.31710130  0.66408438  0.12929142  1
  O2-  O403  1  0.34402670  0.67633941  0.50147807  1
  O2-  O404  1  0.30100401  0.67314583  0.79412169  1
  O2-  O405  1  0.32973924  0.89233137  0.14416139  1
  O2-  O406  1  0.32943229  0.92327905  0.47989499  1
  O2-  O407  1  0.33266122  0.91346170  0.81200458  1
  O2-  O408  1  0.58451503  0.16518354  0.14713139  1
  O2-  O409  1  0.58152536  0.14897128  0.47083100  1
  O2-  O410  1  0.57699496  0.16871575  0.82283479  1
  O2-  O411  1  0.59985825  0.42700306  0.14952457  1
  O2-  O412  1  0.58495324  0.41730381  0.48558884  1
  O2-  O413  1  0.58159981  0.41707823  0.81274286  1
  O2-  O414  1  0.58006535  0.65964075  0.14928334  1
  O2-  O415  1  0.59117651  0.66571340  0.47261572  1
  O2-  O416  1  0.60586992  0.67590337  0.81366397  1
  O2-  O417  1  0.57923745  0.91391224  0.15353976  1
  O2-  O418  1  0.59508642  0.92526957  0.48316979  1
  O2-  O419  1  0.58215719  0.91773278  0.80890977  1
  O2-  O420  1  0.83367885  0.15837396  0.14755133  1
  O2-  O421  1  0.84061100  0.16794269  0.48322744  1
  O2-  O422  1  0.85732116  0.12265313  0.81338903  1
  O2-  O423  1  0.83369253  0.40306725  0.15163633  1
  O2-  O424  1  0.83651828  0.41884786  0.48782711  1
  O2-  O425  1  0.81518306  0.40194571  0.81428962  1
  O2-  O426  1  0.82060885  0.67302883  0.13492506  1
  O2-  O427  1  0.83062712  0.66183028  0.46548215  1
  O2-  O428  1  0.83168477  0.67645525  0.81495631  1
  O2-  O429  1  0.83490357  0.91694556  0.14339034  1
  O2-  O430  1  0.84026295  0.90800769  0.54152427  1
  O2-  O431  1  0.84109888  0.93856808  0.83863593  1
  O2-  O432  1  0.16481647  0.08978135  0.18707766  1
  O2-  O433  1  0.17558717  0.08873115  0.52166307  1
  O2-  O434  1  0.17066569  0.07510402  0.85772157  1
  O2-  O435  1  0.14562478  0.31993420  0.19095869  1
  O2-  O436  1  0.16408629  0.33543995  0.52448370  1
  O2-  O437  1  0.15879318  0.33113100  0.85717770  1
  O2-  O438  1  0.17086621  0.59681992  0.19277814  1
  O2-  O439  1  0.18050829  0.61220123  0.50157236  1
  O2-  O440  1  0.13702879  0.55677447  0.85398236  1
  O2-  O441  1  0.16286013  0.83381631  0.18356877  1
  O2-  O442  1  0.16382062  0.83748298  0.51904256  1
  O2-  O443  1  0.16659726  0.82715408  0.85395272  1
  O2-  O444  1  0.41458501  0.05323172  0.18261324  1
  O2-  O445  1  0.41633513  0.08886783  0.52183184  1
  O2-  O446  1  0.40439476  0.06976737  0.85761268  1
  O2-  O447  1  0.44054484  0.33334510  0.19689343  1
  O2-  O448  1  0.41790910  0.32987825  0.52059457  1
  O2-  O449  1  0.45332498  0.41581139  0.87088113  1
  O2-  O450  1  0.42242484  0.60795611  0.19134524  1
  O2-  O451  1  0.42283349  0.57506496  0.50814792  1
  O2-  O452  1  0.37438585  0.58271515  0.85901738  1
  O2-  O453  1  0.41496810  0.82432232  0.20527798  1
  O2-  O454  1  0.42423223  0.85391811  0.52144166  1
  O2-  O455  1  0.41630729  0.83648074  0.85241807  1
  O2-  O456  1  0.67024056  0.08310679  0.18435001  1
  O2-  O457  1  0.66900920  0.08346172  0.51868041  1
  O2-  O458  1  0.65883697  0.08829889  0.86239833  1
  O2-  O459  1  0.66874389  0.33020717  0.19263750  1
  O2-  O460  1  0.67545050  0.35540273  0.54066992  1
  O2-  O461  1  0.64995748  0.32713985  0.85550441  1
  O2-  O462  1  0.65712353  0.58195159  0.19633662  1
  O2-  O463  1  0.67265390  0.58463002  0.52157238  1
  O2-  O464  1  0.67087897  0.57826157  0.85623546  1
  O2-  O465  1  0.66713214  0.82980296  0.17617213  1
  O2-  O466  1  0.66388887  0.82796107  0.52619786  1
  O2-  O467  1  0.57275083  0.77648422  0.87288763  1
  O2-  O468  1  0.92160252  0.07933478  0.18368570  1
  O2-  O469  1  0.92802662  0.08126319  0.52459861  1
  O2-  O470  1  0.98107388  0.05932176  0.92218093  1
  O2-  O471  1  0.87475053  0.29806158  0.21380046  1
  O2-  O472  1  0.91318190  0.32827409  0.52761102  1
  O2-  O473  1  0.89800976  0.31355779  0.84689949  1
  O2-  O474  1  0.92746620  0.57337628  0.18840530  1
  O2-  O475  1  0.91794160  0.59279067  0.51320932  1
  O2-  O476  1  0.89884487  0.57327775  0.86254768  1
  O2-  O477  1  0.92315408  0.83819409  0.17662901  1
  O2-  O478  1  0.90887185  0.83919332  0.47000740  1
  O2-  O479  1  0.91724347  0.84129422  0.85948425  1
  O2-  O480  1  0.16556395  0.08876462  0.31203358  1
  O2-  O481  1  0.16858427  0.06496272  0.64546765  1
  O2-  O482  1  0.17426120  0.08118796  0.97939034  1
  O2-  O483  1  0.16107663  0.33386955  0.30850308  1
  O2-  O484  1  0.17728814  0.33548812  0.64638397  1
  O2-  O485  1  0.17530597  0.33903847  0.98225293  1
  O2-  O486  1  0.17098557  0.60082347  0.31685130  1
  O2-  O487  1  0.16138044  0.54688185  0.62753100  1
  O2-  O488  1  0.15125822  0.57788373  0.97941663  1
  O2-  O489  1  0.16867320  0.83876937  0.30865513  1
  O2-  O490  1  0.17584784  0.83297025  0.64083374  1
  O2-  O491  1  0.16362300  0.82544859  0.97735854  1
  O2-  O492  1  0.40855628  0.07818082  0.30846141  1
  O2-  O493  1  0.41224879  0.09155100  0.64429440  1
  O2-  O494  1  0.41166422  0.07713914  0.98275572  1
  O2-  O495  1  0.42341372  0.33267724  0.31977607  1
  O2-  O496  1  0.41356045  0.32609101  0.64487741  1
  O2-  O497  1  0.41972330  0.33952083  0.98371136  1
  O2-  O498  1  0.41623396  0.58218430  0.31449405  1
  O2-  O499  1  0.45239948  0.64518327  0.62177928  1
  O2-  O500  1  0.38075686  0.57629410  0.97573707  1
  O2-  O501  1  0.40905370  0.82990086  0.32265500  1
  O2-  O502  1  0.41479481  0.83812776  0.64484924  1
  O2-  O503  1  0.40608360  0.82580354  0.97712200  1
  O2-  O504  1  0.66598575  0.08140951  0.30437059  1
  O2-  O505  1  0.65614543  0.08281893  0.64281136  1
  O2-  O506  1  0.65532742  0.07501805  0.98828724  1
  O2-  O507  1  0.66571637  0.32996540  0.31804558  1
  O2-  O508  1  0.65131172  0.31980028  0.66758921  1
  O2-  O509  1  0.66004518  0.32845193  0.98271956  1
  O2-  O510  1  0.66352253  0.58703934  0.30672275  1
  O2-  O511  1  0.65160698  0.57403585  0.64582695  1
  O2-  O512  1  0.66204553  0.57535604  0.97948733  1
  O2-  O513  1  0.65350784  0.81032454  0.29935428  1
  O2-  O514  1  0.65133350  0.81428892  0.64972734  1
  O2-  O515  1  0.61479337  0.79790567  0.98805457  1
  O2-  O516  1  0.93042513  0.09488667  0.30991257  1
  O2-  O517  1  0.90777203  0.09943134  0.64817794  1
  O2-  O518  1  0.95307831  0.08397272  0.97220287  1
  O2-  O519  1  0.93130750  0.36017543  0.32961195  1
  O2-  O520  1  0.91155465  0.32481493  0.64711934  1
  O2-  O521  1  0.89148295  0.31263880  0.97296677  1
  O2-  O522  1  0.90720294  0.58394593  0.31621367  1
  O2-  O523  1  0.95003213  0.60032988  0.64936403  1
  O2-  O524  1  0.90498514  0.57297128  0.98433182  1
  O2-  O525  1  0.95440567  0.79738188  0.29144264  1
  O2-  O526  1  0.81493249  0.85863657  0.66141331  1
  O2-  O527  1  0.92261442  0.83242604  0.98084600  1
  O2-  O528  1  0.11119958  0.18149289  0.02599824  1
  O2-  O529  1  0.08627730  0.17527601  0.35480079  1
  O2-  O530  1  0.14840688  0.19522712  0.69633620  1
  O2-  O531  1  0.09897628  0.42572821  0.03274806  1
  O2-  O532  1  0.10305605  0.44257790  0.35465594  1
  O2-  O533  1  0.07791136  0.39477899  0.69494356  1
  O2-  O534  1  0.07416952  0.66070574  0.02164879  1
  O2-  O535  1  0.07664581  0.67354593  0.34920684  1
  O2-  O536  1  0.16163375  0.67940575  0.67467858  1
  O2-  O537  1  0.08756152  0.91499638  0.01735262  1
  O2-  O538  1  0.09619409  0.92776116  0.35538410  1
  O2-  O539  1  0.08781792  0.90938255  0.68677354  1
  O2-  O540  1  0.33578132  0.16932891  0.01997358  1
  O2-  O541  1  0.33063722  0.16302250  0.35227501  1
  O2-  O542  1  0.30758427  0.18301102  0.70043185  1
  O2-  O543  1  0.33412819  0.42405528  0.02330281  1
  O2-  O544  1  0.33356944  0.41106764  0.34997244  1
  O2-  O545  1  0.33355523  0.41681982  0.68751617  1
  O2-  O546  1  0.31520910  0.65722424  0.01571328  1
  O2-  O547  1  0.34168257  0.66953307  0.35991905  1
  O2-  O548  1  0.32560224  0.66146265  0.67486618  1
  O2-  O549  1  0.32562683  0.90927049  0.02268693  1
  O2-  O550  1  0.32860938  0.91662083  0.35608092  1
  O2-  O551  1  0.33850155  0.92425428  0.68836324  1
  O2-  O552  1  0.57766439  0.16460852  0.02435467  1
  O2-  O553  1  0.57807729  0.15782646  0.34546857  1
  O2-  O554  1  0.57794878  0.16489619  0.67605252  1
  O2-  O555  1  0.58610145  0.41364527  0.02765294  1
  O2-  O556  1  0.58430260  0.41526030  0.36083578  1
  O2-  O557  1  0.57439237  0.40727773  0.69017864  1
  O2-  O558  1  0.56293321  0.63271920  0.03353273  1
  O2-  O559  1  0.57909686  0.65518196  0.34750799  1
  O2-  O560  1  0.57080251  0.65151913  0.68994826  1
  O2-  O561  1  0.56213043  0.90809294  0.03162501  1
  O2-  O562  1  0.58383471  0.91070044  0.30571003  1
  O2-  O563  1  0.58529657  0.91651849  0.68617474  1
  O2-  O564  1  0.82174003  0.16555625  0.02266152  1
  O2-  O565  1  0.83995963  0.18047490  0.31482671  1
  O2-  O566  1  0.82650391  0.17027299  0.69318457  1
  O2-  O567  1  0.82616346  0.40576849  0.02603681  1
  O2-  O568  1  0.82897421  0.42280157  0.36473798  1
  O2-  O569  1  0.84705728  0.43023019  0.68734299  1
  O2-  O570  1  0.82655468  0.66108403  0.01721508  1
  O2-  O571  1  0.82005231  0.66026504  0.34749387  1
  O2-  O572  1  0.80707639  0.71055483  0.69057499  1
  O2-  O573  1  0.85970570  0.92508289  0.01978309  1
  O2-  O574  1  0.80706795  0.83487167  0.33455042  1
  O2-  O575  1  0.94321745  0.99733170  0.71909514  1
