# generated using pymatgen
data_H2O
_symmetry_space_group_name_H-M   'P 1'
_cell_length_a   17.98799191
_cell_length_b   17.99417411
_cell_length_c   21.98809225
_cell_angle_alpha   89.99278179
_cell_angle_beta   90.01193689
_cell_angle_gamma   120.01795456
_symmetry_Int_Tables_number   1
_chemical_formula_structural   H2O
_chemical_formula_sum   'H384 O192'
_cell_volume   6162.46084034
_cell_formula_units_Z   192
loop_
 _symmetry_equiv_pos_site_id
 _symmetry_equiv_pos_as_xyz
  1  'x, y, z'
loop_
 _atom_type_symbol
 _atom_type_oxidation_number
  H+  1.0
  O2-  -2.0
loop_
 _atom_site_type_symbol
 _atom_site_label
 _atom_site_symmetry_multiplicity
 _atom_site_fract_x
 _atom_site_fract_y
 _atom_site_fract_z
 _atom_site_occupancy
  H+  H0  1  0.03426881  0.88232346  0.00308412  1
  H+  H1  1  0.78590956  0.82954895  0.03312038  1
  H+  H2  1  0.77356840  0.38168170  1.00430855  1
  H+  H3  1  0.11118706  -0.02321193  0.67067447  1
  H+  H4  1  0.89295382  0.54416819  0.14374729  1
  H+  H5  1  0.12647788  0.26898553  0.16102667  1
  H+  H6  1  0.98096616  0.63010771  0.14552667  1
  H+  H7  1  0.66449351  0.20871986  0.29015328  1
  H+  H8  1  0.63446501  0.86193633  0.16497774  1
  H+  H9  1  0.23619888  0.37225814  0.83483708  1
  H+  H10  1  0.01220404  0.64984512  0.32983035  1
  H+  H11  1  0.13780002  0.27232606  0.65969411  1
  H+  H12  1  0.90910191  0.87418470  0.98500771  1
  H+  H13  1  0.63154546  0.27324653  0.65523374  1
  H+  H14  1  0.64365902  0.30984227  0.32731945  1
  H+  H15  1  0.52955348  0.88300595  0.82639999  1
  H+  H16  1  0.33162472  0.91939855  0.43723335  1
  H+  H17  1  0.11754620  0.52413823  0.32992734  1
  H+  H18  1  0.59417571  0.17506949  0.73547878  1
  H+  H19  1  0.12470067  0.10422633  0.50622852  1
  H+  H20  1  0.85397729  0.96675756  0.82963583  1
  H+  H21  1  0.36968451  0.63422257  0.66971119  1
  H+  H22  1  0.69167908  0.84715897  0.98678356  1
  H+  H23  1  0.14680983  0.14615776  0.17744250  1
  H+  H24  1  0.87993021  0.99565797  0.18054707  1
  H+  H25  1  0.54522395  0.88830253  0.66721402  1
  H+  H26  1  0.12707894  0.13721631  0.33953587  1
  H+  H27  1  0.48715954  0.61775972  0.50898290  1
  H+  H28  1  0.89641014  0.27298869  1.00421686  1
  H+  H29  1  0.72806589  0.37827203  0.84247344  1
  H+  H30  1  0.10988234  0.62244849  0.82863865  1
  H+  H31  1  0.31516561  0.82794677  0.64548101  1
  H+  H32  1  0.77157981  0.38888109  0.49021943  1
  H+  H33  1  0.15333516  0.36048461  0.49750287  1
  H+  H34  1  0.62179810  0.84075797  0.83486509  1
  H+  H35  1  0.23720672  0.13079909  0.32417320  1
  H+  H36  1  0.38946765  0.86749561  0.50515461  1
  H+  H37  1  0.29391244  0.42454874  0.14620400  1
  H+  H38  1  0.63669888  0.29417380  0.83731384  1
  H+  H39  1  0.28624551  0.64144702  0.67429176  1
  H+  H40  1  0.27946504  0.62528661  0.00938678  1
  H+  H41  1  0.91267339  0.22551016  0.69094929  1
  H+  H42  1  0.34780293  0.88123205  0.15848943  1
  H+  H43  1  0.98050169  0.60584171  0.84731164  1
  H+  H44  1  0.63256005  0.24147586  0.15637016  1
  H+  H45  1  0.88390674  0.01391491  0.65857035  1
  H+  H46  1  0.40743921  0.32349532  0.93024511  1
  H+  H47  1  0.53628158  0.91933579  -0.00597046  1
  H+  H48  1  0.61697142  0.73502716  0.48898275  1
  H+  H49  1  0.58067020  0.83447900  0.30713364  1
  H+  H50  1  0.76594103  0.87486552  0.82959135  1
  H+  H51  1  0.03341775  0.38221188  0.47496410  1
  H+  H52  1  0.26820246  0.38567517  0.34145574  1
  H+  H53  1  0.14128201  0.26353802  0.33932057  1
  H+  H54  1  0.36451489  0.13953353  0.51911841  1
  H+  H55  1  0.60585314  0.89283907  0.00239375  1
  H+  H56  1  0.63975116  0.86681779  0.50661267  1
  H+  H57  1  0.89573365  0.12122817  0.17987552  1
  H+  H58  1  0.54666841  0.64901741  0.76874455  1
  H+  H59  1  0.33256365  0.93592162  0.85546188  1
  H+  H60  1  0.13781977  0.28282026  0.98673241  1
  H+  H61  1  0.85343591  0.71880528  0.64712855  1
  H+  H62  1  0.39690403  0.64853264  0.48878653  1
  H+  H63  1  0.64687464  0.02693092  0.66687235  1
  H+  H64  1  0.89212760  0.36711112  0.32875895  1
  H+  H65  1  1.01382365  0.86980781  0.16293273  1
  H+  H66  1  0.74061641  0.87753083  0.30935980  1
  H+  H67  1  0.16149014  0.48598071  0.51162545  1
  H+  H68  1  0.68624221  0.22500434  0.32047116  1
  H+  H69  1  0.90967882  0.42987072  0.14956310  1
  H+  H70  1  0.13469646  0.77966688  0.32046410  1
  H+  H71  1  0.27481585  0.14048635  0.67047917  1
  H+  H72  1  0.76970321  0.87810634  0.67271021  1
  H+  H73  1  0.88748465  0.77629958  0.98648040  1
  H+  H74  1  0.84267423  0.16782568  0.42027936  1
  H+  H75  1  0.72549970  0.61639309  0.50247260  1
  H+  H76  1  0.21855830  0.11116851  0.51418707  1
  H+  H77  1  0.38087195  0.75792415  0.00554821  1
  H+  H78  1  0.11151276  0.47031738  0.82893655  1
  H+  H79  1  0.27254782  0.38502247  0.67318824  1
  H+  H80  1  0.23772231  0.11088525  0.99365983  1
  H+  H81  1  0.11164979  0.88988572  0.50238112  1
  H+  H82  1  0.36913810  0.02463446  0.17574583  1
  H+  H83  1  0.61495654  0.06656262  0.39299190  1
  H+  H84  1  0.60385237  0.76020961  0.99592554  1
  H+  H85  1  0.63658642  0.61504633  0.49623626  1
  H+  H86  1  0.22689393  0.86811889  0.32728542  1
  H+  H87  1  0.86129242  0.12976407  1.01613913  1
  H+  H88  1  0.51963760  0.38856657  -0.00117586  1
  H+  H89  1  0.38528843  0.02290509  0.51113580  1
  H+  H90  1  0.40279266  0.07047636  0.84012985  1
  H+  H91  1  0.76004035  0.64340054  -0.00486301  1
  H+  H92  1  0.87234097  0.13539362  0.48833238  1
  H+  H93  1  0.88340762  0.36879623  0.64328437  1
  H+  H94  1  0.63283797  0.02937075  0.50964849  1
  H+  H95  1  0.32916416  0.17345727  0.73544936  1
  H+  H96  1  0.15058528  0.60882223  0.99479137  1
  H+  H97  1  0.35969930  0.26546664  0.83638722  1
  H+  H98  1  -0.01302679  0.37382012  0.32820387  1
  H+  H99  1  0.10582559  0.88040488  0.34532882  1
  H+  H100  1  0.97890321  0.36148748  0.84437272  1
  H+  H101  1  0.52567900  0.89240861  0.48969683  1
  H+  H102  1  0.65561043  0.34324667  0.22957093  1
  H+  H103  1  0.47490001  0.11706321  0.66893246  1
  H+  H104  1  0.37452067  0.24167669  0.33429942  1
  H+  H105  1  0.13577511  0.35981931  0.66130677  1
  H+  H106  1  0.85041469  0.62926423  0.64819881  1
  H+  H107  1  0.88518109  0.10268628  0.66268963  1
  H+  H108  1  0.88680890  0.86252923  0.19253328  1
  H+  H109  1  0.78109877  0.40429869  0.33428165  1
  H+  H110  1  0.76057321  0.64225436  0.34429031  1
  H+  H111  1  0.88417187  0.01513065  0.98635923  1
  H+  H112  1  0.91967422  0.59621372  1.05375521  1
  H+  H113  1  0.63901333  0.37084085  0.50268015  1
  H+  H114  1  0.35591385  0.88634110  0.34169994  1
  H+  H115  1  -0.01714907  0.10760777  0.83865297  1
  H+  H116  1  0.23779493  0.11861245  0.82559202  1
  H+  H117  1  0.38573347  0.37655616  0.16819857  1
  H+  H118  1  0.97288632  0.85009909  0.33870578  1
  H+  H119  1  0.61144366  0.39432787  0.00348001  1
  H+  H120  1  0.04037939  0.38809762  0.01515176  1
  H+  H121  1  0.47208245  0.37232714  0.16839366  1
  H+  H122  1  0.41549687  0.76863580  0.65568091  1
  H+  H123  1  0.11594184  0.62189078  0.16118349  1
  H+  H124  1  0.13693850  0.62103888  0.53411011  1
  H+  H125  1  0.86561045  0.47871271  0.83879338  1
  H+  H126  1  0.99314847  0.13756397  0.18030833  1
  H+  H127  1  0.86040644  0.47846937  0.48939047  1
  H+  H128  1  0.87338453  0.76958796  0.17783646  1
  H+  H129  1  0.86373061  0.89385021  0.50319202  1
  H+  H130  1  1.03446612  0.63032923  1.00504616  1
  H+  H131  1  0.73270636  0.11886226  0.66402444  1
  H+  H132  1  0.50752799  0.88057032  0.33177362  1
  H+  H133  1  0.88874726  0.53673117  0.32743444  1
  H+  H134  1  0.09643506  0.57857894  0.52819154  1
  H+  H135  1  0.00296256  0.15020898  0.00913958  1
  H+  H136  1  0.36421753  0.52109384  0.31777458  1
  H+  H137  1  0.60960009  0.38837706  0.67250403  1
  H+  H138  1  0.90055276  0.12295380  0.32874905  1
  H+  H139  1  0.62454729  0.61350963  -0.01198335  1
  H+  H140  1  0.36525807  0.24030173  0.16128322  1
  H+  H141  1  0.88337516  0.51990027  1.00761694  1
  H+  H142  1  0.67580380  0.18438454  0.14393365  1
  H+  H143  1  0.39234173  0.61031965  0.97402936  1
  H+  H144  1  0.78464346  0.13805534  0.32625840  1
  H+  H145  1  0.49285398  0.62314654  0.33393222  1
  H+  H146  1  0.24763022  0.63370606  0.33875288  1
  H+  H147  1  0.60497428  0.47668549  0.15624527  1
  H+  H148  1  0.86452882  0.63304041  0.83645547  1
  H+  H149  1  0.47462318  0.60604883  0.66421204  1
  H+  H150  1  0.36260839  0.38580604  0.67273394  1
  H+  H151  1  0.12256497  -0.02186392  0.82396183  1
  H+  H152  1  1.02144580  0.38589458  0.66885840  1
  H+  H153  1  0.89612076  0.99422238  0.35133907  1
  H+  H154  1  0.88948894  0.36101891  0.84848590  1
  H+  H155  1  0.52195423  0.14191417  0.49846125  1
  H+  H156  1  0.12212819  0.71989437  0.00108813  1
  H+  H157  1  0.86247695  0.73133329  0.49608198  1
  H+  H158  1  0.84727122  0.64033471  0.00342394  1
  H+  H159  1  0.62282982  0.14958149  0.00315984  1
  H+  H160  1  0.46871482  0.09730772  0.32256219  1
  H+  H161  1  0.88797343  0.85973079  0.83340001  1
  H+  H162  1  0.62671160  0.53591978  0.32803421  1
  H+  H163  1  0.02289550  0.23372170  0.04346736  1
  H+  H164  1  0.66391496  0.33527596  0.59583273  1
  H+  H165  1  0.86391033  0.38062406  0.00536827  1
  H+  H166  1  0.65377961  0.59207668  0.26718960  1
  H+  H167  1  0.37453578  0.36062474  0.84389153  1
  H+  H168  1  0.83716142  0.32350328  0.19419416  1
  H+  H169  1  0.65294744  0.04163061  0.99334149  1
  H+  H170  1  0.10358289  0.70876929  0.82679279  1
  H+  H171  1  0.38968585  0.37887436  0.32400034  1
  H+  H172  1  0.60610833  0.95606476  0.31982611  1
  H+  H173  1  0.88827150  0.90048775  0.35270961  1
  H+  H174  1  0.38825392  0.36047495  0.99048195  1
  H+  H175  1  0.60582149  0.63144454  0.69320714  1
  H+  H176  1  0.34560257  0.00652169  0.69561170  1
  H+  H177  1  0.37297217  0.63584029  0.82889657  1
  H+  H178  1  0.11221219  0.47115203  0.67691230  1
  H+  H179  1  0.62351437  0.96588330  0.82964022  1
  H+  H180  1  0.86817867  0.23472376  0.33486518  1
  H+  H181  1  0.62125716  0.48703163  0.48836528  1
  H+  H182  1  0.64135402  0.39654272  0.32780913  1
  H+  H183  1  0.11044251  0.71971968  0.67421288  1
  H+  H184  1  0.62455674  0.52634021  0.67541132  1
  H+  H185  1  0.28130177  0.39095704  0.99579957  1
  H+  H186  1  0.14597398  0.10238988  0.99063503  1
  H+  H187  1  0.63766353  0.51992358  0.82959418  1
  H+  H188  1  0.87048233  0.22755004  0.83340515  1
  H+  H189  1  0.42438992  0.83453184  0.90183408  1
  H+  H190  1  0.38865321  0.61863042  0.22720518  1
  H+  H191  1  0.22793898  0.13405813  0.17243533  1
  H+  H192  1  0.51311809  0.62897076  -0.00488468  1
  H+  H193  1  0.12193541  0.61862085  0.32301645  1
  H+  H194  1  0.38642493  0.27689553  0.65908986  1
  H+  H195  1  0.12419769  0.96942533  0.00771982  1
  H+  H196  1  0.37545441  0.48443208  0.49125537  1
  H+  H197  1  0.14233341  0.36272456  0.83522943  1
  H+  H198  1  0.72349868  0.86758967  0.18239429  1
  H+  H199  1  0.20781899  0.83864527  0.83789843  1
  H+  H200  1  0.75592296  0.36882302  0.67187986  1
  H+  H201  1  0.64448047  0.86263860  0.66316359  1
  H+  H202  1  0.12553858  0.85066354  0.83620429  1
  H+  H203  1  0.28660630  0.39430781  0.49198671  1
  H+  H204  1  1.00412793  0.65180979  0.48613063  1
  H+  H205  1  0.22605662  0.60213164  0.84364771  1
  H+  H206  1  0.16644494  0.57230162  0.90131573  1
  H+  H207  1  0.86612275  0.72206711  0.82789699  1
  H+  H208  1  0.64747763  0.09880171  0.83954805  1
  H+  H209  1  0.22534307  0.87274370  0.17295863  1
  H+  H210  1  0.84702643  0.20858295  0.17305814  1
  H+  H211  1  0.63498244  0.27886792  0.50411547  1
  H+  H212  1  0.21221023  0.86545167  0.66985113  1
  H+  H213  1  0.34773512  0.43057170  0.08727753  1
  H+  H214  1  0.73917960  0.61787189  0.83986740  1
  H+  H215  1  0.13819829  0.85391820  -0.00667719  1
  H+  H216  1  0.16932004  0.51500135  0.18463616  1
  H+  H217  1  0.53232920  0.39716716  0.49122340  1
  H+  H218  1  0.97410386  0.86652669  0.50890856  1
  H+  H219  1  0.12100019  0.13432190  0.82501042  1
  H+  H220  1  0.36767346  0.14103941  0.00879482  1
  H+  H221  1  0.87609410  0.28029382  0.63345099  1
  H+  H222  1  0.61794215  0.35764568  0.16828517  1
  H+  H223  1  0.60180457  0.72109871  0.69094836  1
  H+  H224  1  0.12223496  0.85726458  0.66257338  1
  H+  H225  1  0.35749960  0.97632194  0.34148417  1
  H+  H226  1  0.36128080  0.15895133  0.81723549  1
  H+  H227  1  0.79496986  0.32653139  0.71370639  1
  H+  H228  1  0.13055302  0.78378703  0.50740155  1
  H+  H229  1  0.13657903  0.11045594  0.66049851  1
  H+  H230  1  0.74206231  0.12892141  0.99604774  1
  H+  H231  1  0.39655127  0.28733723  0.51277357  1
  H+  H232  1  0.24769117  0.57343228  0.51847618  1
  H+  H233  1  0.53960999  0.15037065  0.84601170  1
  H+  H234  1  0.89628590  0.11268055  0.83823211  1
  H+  H235  1  0.36486846  0.22872350  0.00365600  1
  H+  H236  1  1.02992915  0.89031866  0.82273501  1
  H+  H237  1  0.27140717  0.88541677  1.00098509  1
  H+  H238  1  0.15047839  0.51955777  0.99885632  1
  H+  H239  1  0.61914692  0.40769088  0.82600302  1
  H+  H240  1  0.03623339  0.13830368  0.34157838  1
  H+  H241  1  0.10903744  0.97696910  0.49802276  1
  H+  H242  1  0.85349561  0.72766889  0.34545985  1
  H+  H243  1  0.57531113  0.42197925  0.09417965  1
  H+  H244  1  0.02444174  0.13215729  0.67246382  1
  H+  H245  1  0.36307192  0.71757489  0.83688717  1
  H+  H246  1  0.01510809  0.11983617  0.48934963  1
  H+  H247  1  0.61825960  0.13803446  0.67799096  1
  H+  H248  1  0.60841199  0.59543682  0.16869018  1
  H+  H249  1  0.77364228  0.10814814  0.18035317  1
  H+  H250  1  0.87379864  1.02008491  0.50600187  1
  H+  H251  1  0.49000223  0.62757442  0.15365052  1
  H+  H252  1  0.12972987  0.39050744  1.00246213  1
  H+  H253  1  0.57632525  0.73613723  0.30961873  1
  H+  H254  1  0.57813463  0.12388926  0.41196787  1
  H+  H255  1  0.70721184  0.61615114  0.16892786  1
  H+  H256  1  0.10929414  0.41770007  0.31469185  1
  H+  H257  1  0.38629701  0.51683921  0.65846522  1
  H+  H258  1  0.38983332  0.12683266  0.66574169  1
  H+  H259  1  0.87686764  0.61561982  0.50402980  1
  H+  H260  1  0.46302999  0.86121554  0.17314684  1
  H+  H261  1  0.85121873  0.64574422  0.14674631  1
  H+  H262  1  0.27444271  0.88957066  0.49795012  1
  H+  H263  1  0.13520646  0.34615887  0.35406606  1
  H+  H264  1  0.33474491  0.87551472  0.64138094  1
  H+  H265  1  0.72863044  0.86693798  0.50774806  1
  H+  H266  1  0.35805484  0.88298346  0.00926819  1
  H+  H267  1  0.36852736  0.76875993  0.32445455  1
  H+  H268  1  0.37114415  0.47807518  0.98874111  1
  H+  H269  1  0.62796158  0.52578783  0.98733544  1
  H+  H270  1  0.39922701  0.78301336  0.49995973  1
  H+  H271  1  0.72581939  0.89800503  0.33234176  1
  H+  H272  1  0.64623095  0.08339970  0.28213849  1
  H+  H273  1  0.61024229  0.96314320  0.17756465  1
  H+  H274  1  0.33204942  0.17636533  0.56974602  1
  H+  H275  1  -0.02586151  0.86160988  0.66139895  1
  H+  H276  1  0.09263224  0.65622786  0.47904821  1
  H+  H277  1  0.58866458  0.63221996  0.33300523  1
  H+  H278  1  0.63265927  0.19267114  0.87402085  1
  H+  H279  1  0.37012403  0.15130997  0.33676109  1
  H+  H280  1  0.39738142  0.37661704  0.50386622  1
  H+  H281  1  0.89057662  0.52086986  0.65852166  1
  H+  H282  1  0.36023161  0.60853116  0.32245227  1
  H+  H283  1  0.48209932  0.11571066  0.99960893  1
  H+  H284  1  0.63571583  0.27923264  -0.00574824  1
  H+  H285  1  0.38936408  0.85549789  0.84195327  1
  H+  H286  1  0.28828282  0.62426523  0.17662019  1
  H+  H287  1  0.44448346  0.84035733  0.03988397  1
  H+  H288  1  0.91423277  0.07655127  0.92809004  1
  H+  H289  1  0.61751428  0.80281252  0.24366156  1
  H+  H290  1  0.87806441  0.61928295  0.33141975  1
  H+  H291  1  0.09232371  0.41919332  0.41601200  1
  H+  H292  1  0.84540094  0.42137868  0.09839526  1
  H+  H293  1  0.71134286  0.61549247  0.66144801  1
  H+  H294  1  0.92561260  0.58536332  0.90905339  1
  H+  H295  1  0.89984835  0.31847178  0.24245761  1
  H+  H296  1  0.17789478  0.56025607  0.60853153  1
  H+  H297  1  0.66029019  0.08433592  0.57054184  1
  H+  H298  1  0.07192623  0.68478653  0.38839324  1
  H+  H299  1  0.31893839  0.92395108  0.78323357  1
  H+  H300  1  0.68268349  0.08183261  0.90118107  1
  H+  H301  1  0.58419371  0.43239123  0.39873471  1
  H+  H302  1  0.17535289  0.33679965  0.92427134  1
  H+  H303  1  0.81303047  0.67782004  0.09659932  1
  H+  H304  1  0.33752673  0.17881315  0.10278920  1
  H+  H305  1  0.66566553  0.58685507  0.89544268  1
  H+  H306  1  1.12568743  0.86839271  0.17390941  1
  H+  H307  1  0.39159835  0.02566966  0.99599205  1
  H+  H308  1  0.59791334  0.91931250  0.73057536  1
  H+  H309  1  0.57244622  0.70402053  0.83552145  1
  H+  H310  1  0.08110592  0.65473612  0.73057741  1
  H+  H311  1  0.41659848  0.07890101  0.57262375  1
  H+  H312  1  0.91437003  0.83482911  0.56809017  1
  H+  H313  1  0.58977897  0.43503695  0.76417751  1
  H+  H314  1  0.44500884  0.83132822  0.59712139  1
  H+  H315  1  0.87399489  0.93460998  0.12813163  1
  H+  H316  1  0.84599887  0.17226780  0.74135566  1
  H+  H317  1  0.26375103  0.98913872  0.73284773  1
  H+  H318  1  0.38189593  0.49260755  0.82020144  1
  H+  H319  1  0.83251543  0.15731218  0.07807967  1
  H+  H320  1  0.40528605  0.07741158  0.26558038  1
  H+  H321  1  0.52435041  0.40509353  0.33758934  1
  H+  H322  1  0.37887110  0.76925549  0.17331996  1
  H+  H323  1  0.31924998  0.66346407  0.39345674  1
  H+  H324  1  0.61082492  0.14243782  0.50302382  1
  H+  H325  1  0.40042402  0.82937215  0.26541779  1
  H+  H326  1  0.17967239  0.08187272  0.88946749  1
  H+  H327  1  0.57674278  0.67405415  0.42963642  1
  H+  H328  1  0.83386211  0.42323632  0.77758513  1
  H+  H329  1  0.42101656  0.35223558  0.26390644  1
  H+  H330  1  0.98025703  0.60767613  0.65755480  1
  H+  H331  1  0.91303288  0.58378058  0.55988832  1
  H+  H332  1  0.93146227  0.09403488  0.27006683  1
  H+  H333  1  0.46028188  0.53579390  0.13238515  1
  H+  H334  1  0.91954511  0.33863865  0.54456651  1
  H+  H335  1  0.92540315  0.83531406  0.89079454  1
  H+  H336  1  0.51891383  0.38557111  0.67450618  1
  H+  H337  1  0.34344920  0.64987520  0.06701620  1
  H+  H338  1  0.17694615  0.57837471  0.23982276  1
  H+  H339  1  0.92592415  0.32936509  0.94326305  1
  H+  H340  1  0.88462423  0.36261297  0.48638238  1
  H+  H341  1  0.16970699  0.84744175  0.24009955  1
  H+  H342  1  0.82803678  0.91043968  0.73253134  1
  H+  H343  1  0.78233992  0.90626221  0.06102484  1
  H+  H344  1  0.58024271  0.93227836  0.10823111  1
  H+  H345  1  0.42135481  0.34203742  0.60089014  1
  H+  H346  1  0.16525962  0.83407714  0.57111457  1
  H+  H347  1  0.07515178  0.89885591  0.10267606  1
  H+  H348  1  0.09769520  0.65551278  0.10028088  1
  H+  H349  1  0.66425292  0.82203311  0.60552488  1
  H+  H350  1  0.84597049  0.92835798  0.44126010  1
  H+  H351  1  0.66489216  0.34239465  0.93603387  1
  H+  H352  1  0.87589953  0.23536764  0.48070635  1
  H+  H353  1  0.08344672  0.91841900  0.73153558  1
  H+  H354  1  0.12088231  0.22368361  0.82553507  1
  H+  H355  1  0.18290948  0.34336274  0.56157339  1
  H+  H356  1  0.08721199  0.19765238  0.10954604  1
  H+  H357  1  0.07692605  0.40967133  0.76957722  1
  H+  H358  1  0.16038283  0.82188784  0.93129697  1
  H+  H359  1  0.43404001  0.59205937  0.91307225  1
  H+  H360  1  0.58436068  0.91703483  0.43037440  1
  H+  H361  1  0.91444765  0.82415735  0.27792914  1
  H+  H362  1  0.88436397  0.86049437  0.66194098  1
  H+  H363  1  0.33969158  0.42547618  0.76555334  1
  H+  H364  1  0.33766169  0.42733771  0.39520570  1
  H+  H365  1  0.14034824  0.60298464  0.65668603  1
  H+  H366  1  0.63766651  0.80670883  0.89726485  1
  H+  H367  1  0.78372986  0.13444759  0.83051869  1
  H+  H368  1  0.42380291  0.58568432  0.56783094  1
  H+  H369  1  0.17505618  0.10236230  0.26558972  1
  H+  H370  1  0.55242124  0.64100100  0.06165924  1
  H+  H371  1  0.13008706  0.41265873  0.10510427  1
  H+  H372  1  0.08119683  0.15006227  0.43284489  1
  H+  H373  1  0.16044457  0.07801863  0.59951176  1
  H+  H374  1  0.07269807  0.90235046  0.40727279  1
  H+  H375  1  0.82908057  0.67128901  0.43604609  1
  H+  H376  1  0.83558768  0.42359957  0.39503134  1
  H+  H377  1  0.44037702  0.71876194  0.43855086  1
  H+  H378  1  0.37542537  0.11626096  0.17880947  1
  H+  H379  1  0.42918033  0.10313346  0.90921531  1
  H+  H380  1  0.90678304  0.08479519  0.56349564  1
  H+  H381  1  0.08406998  0.16315821  0.73213598  1
  H+  H382  1  0.32004963  0.91320022  0.09905112  1
  H+  H383  1  0.60097237  0.18068648  0.06515905  1
  O2-  O384  1  0.09263495  0.20400668  0.15399327  1
  O2-  O385  1  0.07555058  0.14257491  0.47835036  1
  O2-  O386  1  0.08723340  0.16265069  0.81205537  1
  O2-  O387  1  0.13733153  0.41502845  0.15018269  1
  O2-  O388  1  0.09362283  0.40864957  0.46171576  1
  O2-  O389  1  0.07847049  0.40870700  0.81502010  1
  O2-  O390  1  0.08780095  0.65237568  0.14461014  1
  O2-  O391  1  0.06444200  0.68916492  0.46925784  1
  O2-  O392  1  0.07503618  0.64786909  0.81257187  1
  O2-  O393  1  0.07396499  0.89651031  0.14772450  1
  O2-  O394  1  0.07750930  0.91476848  0.48556706  1
  O2-  O395  1  0.09098008  0.91639370  0.80903372  1
  O2-  O396  1  0.33640620  0.17890794  0.14787388  1
  O2-  O397  1  0.33498554  0.17385227  0.52552726  1
  O2-  O398  1  0.31917349  0.17075769  0.79859003  1
  O2-  O399  1  0.35373186  0.44061299  0.13216361  1
  O2-  O400  1  0.34748786  0.42510227  0.47449596  1
  O2-  O401  1  0.34084931  0.43063369  0.81093290  1
  O2-  O402  1  0.34771515  0.66158380  0.15546785  1
  O2-  O403  1  0.38753477  0.69008783  0.46226730  1
  O2-  O404  1  0.33021335  0.65474344  0.83447810  1
  O2-  O405  1  0.31750583  0.91192699  0.14434883  1
  O2-  O406  1  0.33501492  0.91973032  0.48282959  1
  O2-  O407  1  0.31996190  0.89503064  0.82256509  1
  O2-  O408  1  0.62474317  0.18801914  0.13482908  1
  O2-  O409  1  0.58234935  0.17280724  0.48350625  1
  O2-  O410  1  0.60255964  0.17493676  0.83506411  1
  O2-  O411  1  0.57255900  0.41730881  0.13947488  1
  O2-  O412  1  0.59139043  0.42436909  0.47358248  1
  O2-  O413  1  0.59558690  0.44336365  0.80969452  1
  O2-  O414  1  0.51278300  0.59378088  0.13360610  1
  O2-  O415  1  0.58369640  0.67397523  0.47432008  1
  O2-  O416  1  0.53922462  0.64248551  0.81854285  1
  O2-  O417  1  0.57173516  0.91185122  0.15057476  1
  O2-  O418  1  0.58699460  0.92094742  0.47517329  1
  O2-  O419  1  0.58974140  0.90765046  0.81136391  1
  O2-  O420  1  0.82695751  0.14938315  0.15593704  1
  O2-  O421  1  0.84840065  0.17238773  0.46686165  1
  O2-  O422  1  0.84423965  0.16833630  0.81526724  1
  O2-  O423  1  0.85934415  0.43594680  0.14225323  1
  O2-  O424  1  0.83187964  0.41788174  0.47421278  1
  O2-  O425  1  0.83243861  0.41838409  0.82227586  1
  O2-  O426  1  0.81442013  0.67265376  0.14143108  1
  O2-  O427  1  0.83302947  0.67039131  0.48169781  1
  O2-  O428  1  0.83167348  0.65927325  0.82025227  1
  O2-  O429  1  0.84611992  0.93326022  0.16639039  1
  O2-  O430  1  0.83341410  0.92395471  0.48717351  1
  O2-  O431  1  0.82560236  0.90662034  0.81420621  1
  O2-  O432  1  0.16848465  0.10723408  0.18844064  1
  O2-  O433  1  0.15725548  0.07580625  0.52536208  1
  O2-  O434  1  0.17359143  0.08058402  0.84481304  1
  O2-  O435  1  0.18778452  0.37327601  0.16221292  1
  O2-  O436  1  0.19199776  0.34370211  0.51728374  1
  O2-  O437  1  0.17539585  0.33492045  0.84921548  1
  O2-  O438  1  0.19163255  0.57633226  0.19590534  1
  O2-  O439  1  0.20309021  0.52703389  0.54218889  1
  O2-  O440  1  0.16345331  0.57244603  0.85593053  1
  O2-  O441  1  0.16612016  0.84571702  0.19278517  1
  O2-  O442  1  0.16976637  0.84101141  0.52599731  1
  O2-  O443  1  0.14796754  0.81330922  0.85285705  1
  O2-  O444  1  0.40024677  0.08155320  0.19504118  1
  O2-  O445  1  0.41623118  0.08305958  0.52749372  1
  O2-  O446  1  0.44154226  0.11989344  0.86454934  1
  O2-  O447  1  0.41288840  0.34467122  0.18624084  1
  O2-  O448  1  0.42961966  0.34952772  0.52256913  1
  O2-  O449  1  0.39068446  0.31972490  0.86094249  1
  O2-  O450  1  0.41487439  0.65489949  0.18986707  1
  O2-  O451  1  0.42538896  0.58856603  0.52189392  1
  O2-  O452  1  0.44749505  0.60142829  0.83799235  1
  O2-  O453  1  0.40146394  0.83023896  0.18578105  1
  O2-  O454  1  0.42552429  0.84182662  0.51716369  1
  O2-  O455  1  0.42763597  0.83470798  0.85737235  1
  O2-  O456  1  0.68783593  0.03865655  0.21684896  1
  O2-  O457  1  0.65723426  0.08830273  0.52587952  1
  O2-  O458  1  0.68040163  0.07267414  0.85564606  1
  O2-  O459  1  0.64704847  0.32820063  0.18603728  1
  O2-  O460  1  0.66789829  0.33953318  0.51971278  1
  O2-  O461  1  0.66624135  0.35229310  0.85502029  1
  O2-  O462  1  0.64923371  0.58003565  0.18724701  1
  O2-  O463  1  0.66281956  0.58137197  0.51067970  1
  O2-  O464  1  0.67398155  0.58801265  0.85004276  1
  O2-  O465  1  0.66074614  0.82921660  0.18241125  1
  O2-  O466  1  0.66713019  0.83399022  0.52170508  1
  O2-  O467  1  0.64239252  0.80228150  0.85236730  1
  O2-  O468  1  0.93273083  0.09716223  0.19442584  1
  O2-  O469  1  0.90255936  0.08383039  0.51818384  1
  O2-  O470  1  0.92159547  0.07782095  0.85341003  1
  O2-  O471  1  0.88022969  0.30590275  0.19867226  1
  O2-  O472  1  0.91575422  0.33184167  0.49968306  1
  O2-  O473  1  0.91886033  0.32956735  0.86179783  1
  O2-  O474  1  0.91986692  0.60628183  0.13243254  1
  O2-  O475  1  0.90994896  0.58508645  0.51471197  1
  O2-  O476  1  0.92035686  0.57919491  0.86477557  1
  O2-  O477  1  0.91334024  0.82618691  0.19719743  1
  O2-  O478  1  0.91252168  0.83661989  0.52253878  1
  O2-  O479  1  0.92343055  0.83373031  0.84565266  1
  O2-  O480  1  0.17596266  0.09972238  0.31101948  1
  O2-  O481  1  0.16567362  0.07901915  0.64551323  1
  O2-  O482  1  0.17701178  0.07390584  0.97710577  1
  O2-  O483  1  0.16717647  0.32702774  0.32893861  1
  O2-  O484  1  0.16915602  0.33330093  0.64599191  1
  O2-  O485  1  0.17699787  0.34078706  0.97017357  1
  O2-  O486  1  0.15327965  0.58726000  0.31354740  1
  O2-  O487  1  0.16979758  0.56917020  0.65243875  1
  O2-  O488  1  0.18178785  0.57874433  0.98091616  1
  O2-  O489  1  0.16869616  0.84208496  0.30776792  1
  O2-  O490  1  0.15586909  0.82811877  0.65086201  1
  O2-  O491  1  0.16878131  0.82459923  0.97637018  1
  O2-  O492  1  0.40846073  0.07526295  0.31229721  1
  O2-  O493  1  0.41458854  0.08856066  0.65445963  1
  O2-  O494  1  0.42244150  0.08683751  0.98227732  1
  O2-  O495  1  0.42568638  0.35427734  0.30935983  1
  O2-  O496  1  0.41864792  0.33885231  0.64649831  1
  O2-  O497  1  0.41679057  0.32791842  0.97661705  1
  O2-  O498  1  0.39212608  0.58251201  0.30289389  1
  O2-  O499  1  0.41847325  0.57722905  0.64253510  1
  O2-  O500  1  0.42459770  0.58271049  0.95880528  1
  O2-  O501  1  0.40336010  0.83016517  0.31088222  1
  O2-  O502  1  0.45883184  0.82716392  0.63993525  1
  O2-  O503  1  0.41206952  0.82310109  1.00179729  1
  O2-  O504  1  0.68083617  0.05496793  0.28313406  1
  O2-  O505  1  0.67151501  0.08915960  0.65358073  1
  O2-  O506  1  0.68433686  0.10070228  0.97569789  1
  O2-  O507  1  0.67423105  0.36824587  0.31160332  1
  O2-  O508  1  0.66403636  0.33431700  0.64193681  1
  O2-  O509  1  0.66766039  0.34107049  0.98114117  1
  O2-  O510  1  0.65267880  0.59668708  0.31235634  1
  O2-  O511  1  0.64862043  0.58897899  0.67087542  1
  O2-  O512  1  0.65765295  0.58667224  0.97147815  1
  O2-  O513  1  0.57866335  0.78470114  0.28225177  1
  O2-  O514  1  0.66665685  0.82341185  0.65077066  1
  O2-  O515  1  0.63024143  0.81905139  0.97622078  1
  O2-  O516  1  0.93138408  0.09300152  0.31565147  1
  O2-  O517  1  0.91477357  0.07500074  0.64353836  1
  O2-  O518  1  0.90893610  0.07504168  0.97413397  1
  O2-  O519  1  0.92091800  0.33460565  0.31590445  1
  O2-  O520  1  0.91449001  0.34134274  0.62502239  1
  O2-  O521  1  0.92766844  0.33294843  0.98853049  1
  O2-  O522  1  0.91411410  0.59714719  0.31363983  1
  O2-  O523  1  0.92072566  0.57742841  0.63978889  1
  O2-  O524  1  0.91325382  0.58438221  1.00857312  1
  O2-  O525  1  0.91087077  0.82418953  0.32289641  1
  O2-  O526  1  0.91468236  0.83168066  0.64466047  1
  O2-  O527  1  0.92967034  0.83604217  0.97137572  1
  O2-  O528  1  0.05026870  0.20155145  0.02975140  1
  O2-  O529  1  0.09487847  0.16601193  0.35934280  1
  O2-  O530  1  0.08501440  0.16482414  0.68664083  1
  O2-  O531  1  0.10206810  0.41775658  0.02660417  1
  O2-  O532  1  0.07746047  0.42971451  0.34540533  1
  O2-  O533  1  0.07683081  0.40878514  0.69015215  1
  O2-  O534  1  0.09630183  0.65906069  0.01520780  1
  O2-  O535  1  0.07526912  0.68040762  0.34360399  1
  O2-  O536  1  0.08232157  0.65763370  0.68526772  1
  O2-  O537  1  0.09211983  0.90846657  0.02196276  1
  O2-  O538  1  0.06447238  0.89552856  0.36254883  1
  O2-  O539  1  0.08029236  0.91573843  0.68599925  1
  O2-  O540  1  0.33370086  0.16839687  0.02091417  1
  O2-  O541  1  0.34209451  0.18303452  0.35144629  1
  O2-  O542  1  0.33520996  0.17325231  0.68545497  1
  O2-  O543  1  0.34239627  0.42130816  0.00963743  1
  O2-  O544  1  0.33187588  0.42557293  0.34990717  1
  O2-  O545  1  0.33330416  0.41698058  0.68812866  1
  O2-  O546  1  0.34192233  0.65657835  0.02241238  1
  O2-  O547  1  0.31189389  0.66418245  0.34902560  1
  O2-  O548  1  0.34823461  0.67278124  0.68330188  1
  O2-  O549  1  0.33084181  0.91795620  0.01871647  1
  O2-  O550  1  0.32652108  0.91628081  0.35882460  1
  O2-  O551  1  0.29684282  0.96172253  0.72148594  1
  O2-  O552  1  0.58930797  0.17548613  0.01922332  1
  O2-  O553  1  0.57929740  0.08879450  0.37721316  1
  O2-  O554  1  0.58834528  0.17017822  0.69123179  1
  O2-  O555  1  0.58011883  0.42502892  0.01467656  1
  O2-  O556  1  0.58557414  0.43729408  0.35289629  1
  O2-  O557  1  0.57937187  0.41640576  0.69053085  1
  O2-  O558  1  0.56933790  0.66030472  0.01863300  1
  O2-  O559  1  0.55434893  0.65963133  0.34762957  1
  O2-  O560  1  0.56982410  0.66135142  0.70710744  1
  O2-  O561  1  0.58994997  0.93650190  0.01594884  1
  O2-  O562  1  0.56957602  0.90118096  0.34207396  1
  O2-  O563  1  0.60564611  0.92663071  0.68582370  1
  O2-  O564  1  0.83842234  0.16557064  0.03262754  1
  O2-  O565  1  0.83869086  0.17218451  0.34917700  1
  O2-  O566  1  0.85358603  0.17860648  0.69537154  1
  O2-  O567  1  0.83429724  0.41200996  0.01905675  1
  O2-  O568  1  0.84046756  0.42602954  0.34980391  1
  O2-  O569  1  0.81165934  0.38108052  0.69356364  1
  O2-  O570  1  0.82085713  0.67647756  0.01104250  1
  O2-  O571  1  0.81963437  0.66598388  0.36059298  1
  O2-  O572  1  0.81479535  0.65602416  0.64352910  1
  O2-  O573  1  0.79738337  0.88743232  0.02359688  1
  O2-  O574  1  0.87300587  0.93962351  0.37424978  1
  O2-  O575  1  0.83094033  0.91269234  0.68738659  1
