# generated using pymatgen
data_H2O
_symmetry_space_group_name_H-M   'P 1'
_cell_length_a   17.98994521
_cell_length_b   17.98438697
_cell_length_c   21.99652373
_cell_angle_alpha   90.00426595
_cell_angle_beta   90.02170264
_cell_angle_gamma   119.99081183
_symmetry_Int_Tables_number   1
_chemical_formula_structural   H2O
_chemical_formula_sum   'H384 O192'
_cell_volume   6163.82519320
_cell_formula_units_Z   192
loop_
 _symmetry_equiv_pos_site_id
 _symmetry_equiv_pos_as_xyz
  1  'x, y, z'
loop_
 _atom_type_symbol
 _atom_type_oxidation_number
  H+  1.0
  O2-  -2.0
loop_
 _atom_site_type_symbol
 _atom_site_label
 _atom_site_symmetry_multiplicity
 _atom_site_fract_x
 _atom_site_fract_y
 _atom_site_fract_z
 _atom_site_occupancy
  H+  H0  1  0.15093733  0.79207972  0.26140730  1
  H+  H1  1  0.62875393  0.30207357  0.65248979  1
  H+  H2  1  0.11202538  0.88517620  0.66686894  1
  H+  H3  1  0.77881558  0.62595663  0.15511068  1
  H+  H4  1  0.27685466  0.13644532  0.83053820  1
  H+  H5  1  0.20927523  0.63272838  0.92593451  1
  H+  H6  1  0.73933115  0.36899325  0.17851540  1
  H+  H7  1  0.49246590  0.36970878  0.98654861  1
  H+  H8  1  0.39014539  0.77501294  0.65788944  1
  H+  H9  1  0.32632061  0.91506479  0.27982711  1
  H+  H10  1  0.62916793  0.23728430  0.83144780  1
  H+  H11  1  0.46896969  0.35552986  0.32380519  1
  H+  H12  1  0.65158597  0.12482518  0.83663322  1
  H+  H13  1  0.36129488  0.39407331  0.48495490  1
  H+  H14  1  0.00714995  0.34208207  0.35243106  1
  H+  H15  1  0.33460047  0.13378922  0.33723852  1
  H+  H16  1  0.37992361  0.52513546  0.50403258  1
  H+  H17  1  0.86760360  0.22729501  0.16240797  1
  H+  H18  1  0.15745115  0.49320725  0.33390211  1
  H+  H19  1  -0.01004023  0.39045970  -0.00056143  1
  H+  H20  1  0.39677252  0.36203407  0.83878380  1
  H+  H21  1  0.64731282  0.27597683  0.17769136  1
  H+  H22  1  0.36652425  0.89002179  0.81566809  1
  H+  H23  1  0.12642501  0.51082738  0.53821323  1
  H+  H24  1  0.20057992  0.10142792  0.32829040  1
  H+  H25  1  0.61560265  0.97621259  0.34312770  1
  H+  H26  1  0.13662319  0.77293166  0.65994799  1
  H+  H27  1  0.84346705  0.35835740  0.48205795  1
  H+  H28  1  0.29587269  0.38901171  0.81887788  1
  H+  H29  1  0.52442365  0.36240578  0.81548147  1
  H+  H30  1  0.39264997  0.61246075  0.32278391  1
  H+  H31  1  0.03544154  0.14091555  0.16634627  1
  H+  H32  1  0.86032269  0.62859174  0.48954855  1
  H+  H33  1  0.53748180  0.65408716  0.17633236  1
  H+  H34  1  0.15598244  0.50992402  0.36508304  1
  H+  H35  1  0.36920911  -0.01268369  0.19863736  1
  H+  H36  1  0.61413452  0.47565982  0.15766835  1
  H+  H37  1  0.36197244  0.22959278  0.66953022  1
  H+  H38  1  0.14157359  0.00128106  0.17256765  1
  H+  H39  1  0.12435257  0.98170338  0.82201132  1
  H+  H40  1  0.56719877  0.75142063  0.99943964  1
  H+  H41  1  0.11641166  0.22291283  0.34606002  1
  H+  H42  1  0.27483187  0.39383463  0.48839567  1
  H+  H43  1  0.90063184  0.06807562  0.66370512  1
  H+  H44  1  0.89554499  1.02793239  -0.00781206  1
  H+  H45  1  0.38715208  0.26610695  0.84280557  1
  H+  H46  1  0.73612424  0.36931357  0.99797949  1
  H+  H47  1  0.64297630  0.11362359  0.32224021  1
  H+  H48  1  0.10273123  0.12200035  0.49866714  1
  H+  H49  1  0.40020152  0.53593401  0.16906987  1
  H+  H50  1  0.09799490  0.08992254  0.98977021  1
  H+  H51  1  0.04463491  0.38728384  0.70818624  1
  H+  H52  1  0.38627300  0.29810879  0.99289901  1
  H+  H53  1  0.90366211  0.29850666  1.00406715  1
  H+  H54  1  0.66173303  0.87596921  0.23182906  1
  H+  H55  1  0.38197565  0.62715367  0.49961779  1
  H+  H56  1  0.88197705  0.75911777  0.66411486  1
  H+  H57  1  0.53615356  0.15019276  0.17041747  1
  H+  H58  1  0.87895650  0.27523606  0.32890884  1
  H+  H59  1  0.36579714  0.13510674  0.82819710  1
  H+  H60  1  0.63092829  0.09557189  0.66404331  1
  H+  H61  1  0.04111142  0.39866410  0.84913978  1
  H+  H62  1  0.90752560  0.03401185  0.18644291  1
  H+  H63  1  0.36690334  0.63693206  0.67065986  1
  H+  H64  1  0.37372949  0.83117690  -0.00799806  1
  H+  H65  1  0.86744802  0.14761532  0.33790215  1
  H+  H66  1  0.83693050  0.91687745  0.23150375  1
  H+  H67  1  0.52703140  0.88855844  0.34100454  1
  H+  H68  1  0.01831442  0.53764413  0.38014782  1
  H+  H69  1  0.88375686  0.89556180  0.18097416  1
  H+  H70  1  0.67348597  0.08152266  0.26485411  1
  H+  H71  1  0.97687134  0.10891451  0.50868176  1
  H+  H72  1  0.11987285  0.00649103  0.51042043  1
  H+  H73  1  0.88960933  0.31915568  0.55421284  1
  H+  H74  1  0.87803676  0.84403054  0.66173432  1
  H+  H75  1  0.39300580  -0.07933890  0.96391509  1
  H+  H76  1  0.86430851  0.97152562  0.49758864  1
  H+  H77  1  0.59669117  0.37410039  0.51587380  1
  H+  H78  1  0.07365539  0.62904641  0.42152737  1
  H+  H79  1  0.23739771  0.83783450  -0.02554799  1
  H+  H80  1  0.09919093  0.12678196  0.34590131  1
  H+  H81  1  0.74281999  0.36564460  0.84316569  1
  H+  H82  1  0.87419301  0.40996983  1.01441037  1
  H+  H83  1  0.11839106  0.87963492  0.15600523  1
  H+  H84  1  0.59369654  0.17743533  0.10952509  1
  H+  H85  1  0.62868351  0.59527276  0.32208549  1
  H+  H86  1  0.64131115  0.03088359  0.16874145  1
  H+  H87  1  0.14764290  0.77721406  0.16571971  1
  H+  H88  1  0.88194742  0.02424155  0.84319678  1
  H+  H89  1  0.39633794  0.12962901  0.17603515  1
  H+  H90  1  0.87417674  0.48067137  0.83717044  1
  H+  H91  1  0.09727439  0.87082240  0.48841079  1
  H+  H92  1  0.89954539  0.52476330  0.18177550  1
  H+  H93  1  0.87290674  0.75649403  0.83990230  1
  H+  H94  1  0.87312591  0.84016306  0.31359218  1
  H+  H95  1  0.16574274  0.58471029  0.61878843  1
  H+  H96  1  0.41528172  0.33354445  0.23014843  1
  H+  H97  1  0.59473299  0.65949040  0.38781909  1
  H+  H98  1  0.60854640  0.72407932  0.67053609  1
  H+  H99  1  0.14680705  0.25387433  0.51854015  1
  H+  H100  1  0.83024037  0.91742540  0.43666279  1
  H+  H101  1  0.35511380  0.10167573  0.49039588  1
  H+  H102  1  0.14662154  0.53346258  0.68210295  1
  H+  H103  1  0.60906457  -0.02271823  0.49156074  1
  H+  H104  1  0.47669486  0.86627491  0.50316190  1
  H+  H105  1  0.38802465  0.77722956  0.83708814  1
  H+  H106  1  0.64806946  0.61770946  0.17357796  1
  H+  H107  1  0.37867924  0.73139670  0.49046329  1
  H+  H108  1  0.27521271  0.17226510  0.00361635  1
  H+  H109  1  0.86127287  0.49261628  0.01870821  1
  H+  H110  1  0.40981937  0.08881247  0.37780452  1
  H+  H111  1  0.63630157  0.86697364  0.50603746  1
  H+  H112  1  0.52860017  0.62309667  0.33235642  1
  H+  H113  1  0.86652605  0.40155334  0.67840638  1
  H+  H114  1  0.47728449  0.36255284  0.17145836  1
  H+  H115  1  0.12287961  0.13811684  0.16488385  1
  H+  H116  1  0.24805015  0.12650116  0.49069857  1
  H+  H117  1  1.00739960  0.87033110  0.49424273  1
  H+  H118  1  0.36326691  0.26682505  0.49586290  1
  H+  H119  1  0.87515743  0.27971991  0.65068240  1
  H+  H120  1  0.10746980  0.71587249  0.49060412  1
  H+  H121  1  0.13847317  0.36781754  0.00277658  1
  H+  H122  1  0.62546892  0.64538978  0.48629919  1
  H+  H123  1  0.99385581  0.84778675  0.98775783  1
  H+  H124  1  0.14366162  0.87064251  0.83231908  1
  H+  H125  1  0.11001763  0.96015198  -0.00149580  1
  H+  H126  1  0.87207009  0.85421284  0.84551324  1
  H+  H127  1  0.34048579  0.22551104  0.33312416  1
  H+  H128  1  0.34240923  0.96355470  0.48026273  1
  H+  H129  1  0.85852527  0.71655028  0.48964597  1
  H+  H130  1  0.38683803  0.75147964  1.07751881  1
  H+  H131  1  0.42830026  0.33643323  0.91888209  1
  H+  H132  1  0.72540564  0.86661875  0.50735539  1
  H+  H133  1  0.39536409  0.52415251  0.83183761  1
  H+  H134  1  0.23147087  0.86662452  0.82963959  1
  H+  H135  1  0.62180475  0.73099654  0.48224926  1
  H+  H136  1  0.10529582  0.43030905  0.79332540  1
  H+  H137  1  0.71901852  0.59301392  0.32280585  1
  H+  H138  1  0.15258605  0.27996499  0.82901336  1
  H+  H139  1  0.40269960  0.62703517  0.16996711  1
  H+  H140  1  0.08127730  0.67265268  0.74058507  1
  H+  H141  1  0.41856399  0.83334714  0.59770599  1
  H+  H142  1  0.65451547  0.39603906  0.65435792  1
  H+  H143  1  0.38516011  0.73436343  0.33568300  1
  H+  H144  1  0.45510105  0.35255463  0.50592059  1
  H+  H145  1  0.61458654  0.47410462  0.32892120  1
  H+  H146  1  0.35857776  0.01277773  0.33264673  1
  H+  H147  1  0.84265835  0.17647104  0.06991801  1
  H+  H148  1  0.35511135  0.10123553  0.65137840  1
  H+  H149  1  0.02560633  0.14247176  0.01159762  1
  H+  H150  1  0.03468972  0.64339830  0.15815169  1
  H+  H151  1  0.51738334  0.38884072  0.66231397  1
  H+  H152  1  0.13488633  0.39485636  0.69539845  1
  H+  H153  1  0.78132384  0.40383739  0.68548744  1
  H+  H154  1  0.79573059  0.88812019  -0.00653387  1
  H+  H155  1  0.89138350  0.11667980  0.99645699  1
  H+  H156  1  0.23212841  0.86641342  0.18817551  1
  H+  H157  1  0.09895786  0.72570898  0.99881553  1
  H+  H158  1  0.38434046  0.36468330  0.32408482  1
  H+  H159  1  0.38331890  0.37957176  0.66933121  1
  H+  H160  1  0.63639445  0.52577900  0.51629094  1
  H+  H161  1  0.61679347  0.01752393  0.99932790  1
  H+  H162  1  0.98438648  0.85057729  0.16881354  1
  H+  H163  1  0.77330595  0.13771951  0.33738107  1
  H+  H164  1  0.76814827  0.88295464  0.83127828  1
  H+  H165  1  0.78114046  0.13651794  0.16038734  1
  H+  H166  1  0.36825086  0.64030446  0.82394324  1
  H+  H167  1  0.86324423  0.63837646  0.67786414  1
  H+  H168  1  0.89716672  0.36846320  0.84755512  1
  H+  H169  1  0.88237730  0.51502357  0.51672876  1
  H+  H170  1  -0.01895226  0.12688654  0.33347803  1
  H+  H171  1  0.63985543  0.27606184  0.32066874  1
  H+  H172  1  0.88389104  0.88821416  -0.00327582  1
  H+  H173  1  0.17743185  0.34041951  0.61881641  1
  H+  H174  1  0.47735192  0.61193362  0.65678969  1
  H+  H175  1  0.74447762  0.85776720  0.29697250  1
  H+  H176  1  0.37132661  0.39731765  0.15917484  1
  H+  H177  1  0.86725910  0.64072567  0.83509334  1
  H+  H178  1  0.15048376  0.27654491  0.17701215  1
  H+  H179  1  0.14996956  0.54024222  0.85014084  1
  H+  H180  1  0.97910820  0.62288773  0.85095727  1
  H+  H181  1  0.40453096  0.14448848  -0.00536058  1
  H+  H182  1  0.90743121  0.37706720  0.33041014  1
  H+  H183  1  0.77627534  0.14782817  0.67088186  1
  H+  H184  1  0.96257850  0.36503310  0.62996766  1
  H+  H185  1  0.72862841  0.60963793  0.50629641  1
  H+  H186  1  0.29272898  0.65647268  0.33444720  1
  H+  H187  1  0.92039709  0.52443772  0.35047792  1
  H+  H188  1  0.99874250  0.64650572  0.65795219  1
  H+  H189  1  0.55795682  0.40625616  0.56541317  1
  H+  H190  1  0.65006083  0.12273180  0.17631213  1
  H+  H191  1  0.22904238  0.35868781  0.32854307  1
  H+  H192  1  0.69939209  0.16641878  0.53353406  1
  H+  H193  1  0.36587618  0.23379174  0.15952489  1
  H+  H194  1  0.86870738  0.62823463  0.16204020  1
  H+  H195  1  0.36400882  0.47743292  0.33037874  1
  H+  H196  1  0.64166324  0.78067993  0.22557238  1
  H+  H197  1  0.65431884  0.32142994  0.56738382  1
  H+  H198  1  0.48669943  0.26382599  0.63293895  1
  H+  H199  1  0.09995373  0.72333736  0.31633508  1
  H+  H200  1  0.47312145  0.07565507  0.98417698  1
  H+  H201  1  0.39474385  0.02387834  0.82676338  1
  H+  H202  1  0.47935760  0.61731427  0.83582803  1
  H+  H203  1  0.64445216  0.36233014  0.99365858  1
  H+  H204  1  0.90516877  0.75915158  0.98882496  1
  H+  H205  1  0.11340450  0.64413354  0.83077905  1
  H+  H206  1  0.72289394  0.61674598  0.84113842  1
  H+  H207  1  0.35278567  0.97245516  0.66165323  1
  H+  H208  1  0.11697641  0.64129301  0.68479994  1
  H+  H209  1  0.19602667  0.70275508  0.29078491  1
  H+  H210  1  0.63391792  0.86686113  0.83721442  1
  H+  H211  1  0.56259491  0.04443475  0.95830431  1
  H+  H212  1  0.39417115  0.51927214  0.65708274  1
  H+  H213  1  0.84989168  0.94081145  0.67130430  1
  H+  H214  1  0.94102022  0.59186827  0.23656391  1
  H+  H215  1  0.23644658  0.62805730  0.83353647  1
  H+  H216  1  0.87299955  0.14248107  0.84239794  1
  H+  H217  1  0.33496621  0.91880063  0.75597830  1
  H+  H218  1  1.03550898  0.15499519  0.66941472  1
  H+  H219  1  0.92416536  0.34325990  0.91105604  1
  H+  H220  1  0.28433982  0.39907887  0.16334870  1
  H+  H221  1  0.52007292  0.89241842  0.82810195  1
  H+  H222  1  0.75607208  0.86249322  0.67458743  1
  H+  H223  1  0.13064304  0.33869953  0.33588075  1
  H+  H224  1  0.63396709  0.85942139  0.66012430  1
  H+  H225  1  0.85097413  0.70082379  0.33223982  1
  H+  H226  1  0.62312217  0.47073998  0.00616018  1
  H+  H227  1  0.86852599  0.38913563  0.16624460  1
  H+  H228  1  0.61537489  0.64520830  0.82876853  1
  H+  H229  1  0.86037132  1.00001908  0.34010691  1
  H+  H230  1  0.66727814  0.08279552  0.89595926  1
  H+  H231  1  0.11614733  0.13920879  0.67333377  1
  H+  H232  1  0.36884741  0.52979342  -0.01405041  1
  H+  H233  1  0.67176408  0.88640059  0.98972504  1
  H+  H234  1  0.44516183  0.10282729  0.49329372  1
  H+  H235  1  0.76942889  0.63133871  0.67988739  1
  H+  H236  1  0.59946684  0.18405797  0.77005356  1
  H+  H237  1  0.87814201  0.85212190  0.50643992  1
  H+  H238  1  0.11710792  0.37430918  0.16680443  1
  H+  H239  1  0.27771641  0.40234086  0.00751482  1
  H+  H240  1  0.37848209  0.90004015  0.19721875  1
  H+  H241  1  0.47149954  0.66976554  -0.00181318  1
  H+  H242  1  0.48366305  0.11502547  0.83086711  1
  H+  H243  1  0.87151444  0.16523778  0.66637392  1
  H+  H244  1  0.60510217  0.71635300  0.12891177  1
  H+  H245  1  0.14492878  0.49583692  0.00511140  1
  H+  H246  1  0.28982240  0.65214757  0.15578524  1
  H+  H247  1  0.37930354  0.10645678  1.01521250  1
  H+  H248  1  0.50674633  0.89249409  1.06608793  1
  H+  H249  1  -0.00818130  0.86971637  0.33636033  1
  H+  H250  1  0.97692151  0.35954931  0.17685102  1
  H+  H251  1  0.40193509  0.84240997  0.13997906  1
  H+  H252  1  0.62375387  0.23454703  1.01490758  1
  H+  H253  1  0.15105649  0.53278921  0.17022472  1
  H+  H254  1  0.11327599  0.73282168  0.82927264  1
  H+  H255  1  0.90218160  0.12038886  0.17378554  1
  H+  H256  1  0.61581531  0.38800082  0.16057358  1
  H+  H257  1  0.13256598  0.88292150  -0.00035138  1
  H+  H258  1  0.52999422  0.14146415  0.32650688  1
  H+  H259  1  0.77278942  0.12246607  0.48816351  1
  H+  H260  1  0.63720474  0.36693392  0.31977639  1
  H+  H261  1  0.87420260  0.25653364  0.49624429  1
  H+  H262  1  0.29712675  0.58820388  -0.02279619  1
  H+  H263  1  0.87843718  0.24342567  0.84738941  1
  H+  H264  1  0.38314691  0.85744394  0.50171544  1
  H+  H265  1  0.52054088  0.88267172  0.67097329  1
  H+  H266  1  1.01780366  0.62456805  0.49688919  1
  H+  H267  1  0.02145589  0.88138040  0.67025748  1
  H+  H268  1  0.12246954  0.64308950  0.14856027  1
  H+  H269  1  0.78826555  0.15772064  1.00915098  1
  H+  H270  1  0.63405842  0.77695531  0.83691402  1
  H+  H271  1  0.67467784  0.61272968  1.00237219  1
  H+  H272  1  0.37606330  0.73867564  0.17258522  1
  H+  H273  1  0.61449672  0.36631126  0.81375258  1
  H+  H274  1  0.28003699  0.64171849  0.67672596  1
  H+  H275  1  0.70858115  0.34726522  0.50656607  1
  H+  H276  1  0.02449475  0.13926528  0.82740006  1
  H+  H277  1  0.01166998  0.36801367  0.51821728  1
  H+  H278  1  0.13224474  0.60061552  0.52549889  1
  H+  H279  1  -0.03342190  0.63661899  0.00723816  1
  H+  H280  1  0.21155420  0.84775787  0.49797739  1
  H+  H281  1  0.14045073  0.11848164  0.83459132  1
  H+  H282  1  0.38865016  0.85801089  0.31735415  1
  H+  H283  1  0.77531812  0.34721724  0.43195400  1
  H+  H284  1  0.63537587  0.53034133  0.66087399  1
  H+  H285  1  0.58923919  0.21345998  0.48966464  1
  H+  H286  1  0.08723057  0.96955992  0.34318553  1
  H+  H287  1  0.61599136  0.14300275  0.01731296  1
  H+  H288  1  0.58527977  0.41063223  0.38808959  1
  H+  H289  1  0.40863188  0.32006480  0.60063325  1
  H+  H290  1  0.58158599  0.12202991  0.48555971  1
  H+  H291  1  0.15194430  0.61341879  0.31905537  1
  H+  H292  1  0.51361444  0.90564803  0.16070939  1
  H+  H293  1  0.66409566  0.08322325  0.57164521  1
  H+  H294  1  0.36151650  0.88684193  0.66387652  1
  H+  H295  1  0.91624942  0.08354630  0.90365709  1
  H+  H296  1  0.58035453  0.41411554  0.71947939  1
  H+  H297  1  0.09101668  0.91967682  0.76480824  1
  H+  H298  1  0.42706031  0.83699513  0.25968229  1
  H+  H299  1  0.25499574  0.86024618  0.32759705  1
  H+  H300  1  0.33240491  0.92927011  0.07563037  1
  H+  H301  1  0.32354981  0.20147084  0.06695088  1
  H+  H302  1  0.08200905  0.16645198  0.76687187  1
  H+  H303  1  0.66887783  0.57529286  0.22944952  1
  H+  H304  1  0.67413795  0.84130524  0.92854977  1
  H+  H305  1  0.10056943  0.36953494  0.52223379  1
  H+  H306  1  0.92998407  0.10276477  0.26950252  1
  H+  H307  1  0.57811124  0.91188820  0.73232709  1
  H+  H308  1  0.92171030  0.81796835  0.26147850  1
  H+  H309  1  0.08845018  0.16376623  0.06920000  1
  H+  H310  1  0.61271431  0.63767440  0.67301516  1
  H+  H311  1  0.15040964  0.28121985  0.67644929  1
  H+  H312  1  0.03637896  0.00896738  0.95096592  1
  H+  H313  1  0.58360447  0.40964982  0.06419292  1
  H+  H314  1  0.28042448  0.14041250  0.15718754  1
  H+  H315  1  0.85578465  0.64485538  0.06179522  1
  H+  H316  1  0.30062550  0.16128950  0.42760260  1
  H+  H317  1  0.91575474  0.59690983  0.90907831  1
  H+  H318  1  0.57821126  0.16802976  0.38978481  1
  H+  H319  1  0.82142976  0.64801748  0.39295884  1
  H+  H320  1  0.75301593  0.59844249  0.99197318  1
  H+  H321  1  0.32956202  0.16813113  0.72993238  1
  H+  H322  1  0.31929553  0.89864740  0.42509423  1
  H+  H323  1  0.15340283  0.06949348  0.56967390  1
  H+  H324  1  0.48163450  0.17386574  0.63152290  1
  H+  H325  1  0.58480155  0.67134030  0.76730424  1
  H+  H326  1  0.18320026  0.60675775  0.22107141  1
  H+  H327  1  0.21967746  0.03846783  0.21708946  1
  H+  H328  1  0.39537390  0.84034175  0.89208031  1
  H+  H329  1  0.07175267  0.38627691  0.40655196  1
  H+  H330  1  0.05863843  0.35422122  0.10992951  1
  H+  H331  1  0.37518541  0.06795212  0.58840942  1
  H+  H332  1  0.87736143  0.45484528  0.40469707  1
  H+  H333  1  0.67420264  0.33718341  0.25269652  1
  H+  H334  1  0.14087362  0.06171800  0.27071581  1
  H+  H335  1  0.82863242  0.90441457  0.77360935  1
  H+  H336  1  0.40910837  0.58288868  0.56767090  1
  H+  H337  1  0.17307195  0.33230686  0.23796413  1
  H+  H338  1  0.92465034  0.10234343  0.59537374  1
  H+  H339  1  0.39390711  0.58287108  0.92183606  1
  H+  H340  1  0.88626584  0.10592037  0.50410768  1
  H+  H341  1  0.91625986  0.33311061  0.23536668  1
  H+  H342  1  0.66473372  0.58318560  0.89872811  1
  H+  H343  1  0.38049073  0.95380724  0.07846894  1
  H+  H344  1  0.92330398  0.59154389  0.56625802  1
  H+  H345  1  0.42077162  0.58426711  0.26181164  1
  H+  H346  1  0.15363433  0.07735966  0.89411404  1
  H+  H347  1  0.34409668  0.67478523  0.76452519  1
  H+  H348  1  0.89345708  0.76281223  0.16813699  1
  H+  H349  1  0.91460826  0.82230658  0.90353585  1
  H+  H350  1  0.90569478  0.81862872  0.56581602  1
  H+  H351  1  0.09135720  0.90992179  0.09502657  1
  H+  H352  1  0.34333319  0.44249444  0.06198262  1
  H+  H353  1  0.08128905  0.16350777  0.44072870  1
  H+  H354  1  0.78054052  0.14710882  0.84044633  1
  H+  H355  1  0.84768943  0.42445758  0.77568753  1
  H+  H356  1  0.15627930  0.82071389  0.55950875  1
  H+  H357  1  0.05626289  0.90352780  0.40442193  1
  H+  H358  1  0.22389920  0.86113033  0.65180506  1
  H+  H359  1  0.44818173  0.05371288  0.91411613  1
  H+  H360  1  0.83090567  0.15680896  0.42755444  1
  H+  H361  1  0.66451459  0.83284631  0.59864460  1
  H+  H362  1  0.36347802  0.41902997  0.76439974  1
  H+  H363  1  0.58037533  0.91824272  0.43189356  1
  H+  H364  1  0.33563522  0.42357417  0.39251926  1
  H+  H365  1  0.07154581  0.67347744  0.06204406  1
  H+  H366  1  0.14083652  0.28052073  1.00282762  1
  H+  H367  1  0.83887066  0.42522331  0.10935407  1
  H+  H368  1  0.16324181  0.37162050  0.84340635  1
  H+  H369  1  0.22135716  0.11351495  0.66130494  1
  H+  H370  1  0.17421032  0.83003861  0.92247323  1
  H+  H371  1  0.63261796  0.00819524  0.66291453  1
  H+  H372  1  0.68006608  0.33459293  0.90138920  1
  H+  H373  1  0.23326755  0.29314033  0.55466518  1
  H+  H374  1  0.97484586  0.70409523  0.61911598  1
  H+  H375  1  0.35461529  0.67233668  0.42895952  1
  H+  H376  1  0.67491146  0.59452371  0.60431749  1
  H+  H377  1  0.13260230  1.02200305  0.66222202  1
  H+  H378  1  0.09955845  0.45584291  0.06688236  1
  H+  H379  1  0.46120702  0.76923323  1.03339682  1
  H+  H380  1  0.83510651  0.66612515  0.77304733  1
  H+  H381  1  0.61189435  0.97979005  0.82373549  1
  H+  H382  1  0.29673700  0.38564320  0.67767356  1
  H+  H383  1  0.42396064  0.11322295  0.24110883  1
  O2-  O384  1  0.09617991  0.16998920  0.14931934  1
  O2-  O385  1  0.07933016  0.16028772  0.48645628  1
  O2-  O386  1  0.08418388  0.16657181  0.81232841  1
  O2-  O387  1  0.07814110  0.39219763  0.14532158  1
  O2-  O388  1  0.07024358  0.39870965  0.53582477  1
  O2-  O389  1  0.10273807  0.43245602  0.83838511  1
  O2-  O390  1  0.09199537  0.67500476  0.13819145  1
  O2-  O391  1  0.07832452  0.65223601  0.48082527  1
  O2-  O392  1  0.07816492  0.67031627  0.81767557  1
  O2-  O393  1  0.08809423  0.91046772  0.14051631  1
  O2-  O394  1  0.06685666  0.90216000  0.47572786  1
  O2-  O395  1  0.09590478  0.92046216  0.80966529  1
  O2-  O396  1  0.33961677  0.17404392  0.14146145  1
  O2-  O397  1  0.30706941  0.15937877  0.47251899  1
  O2-  O398  1  0.33717042  0.16754106  0.81481035  1
  O2-  O399  1  0.34388132  0.43133069  0.14726979  1
  O2-  O400  1  0.33346506  0.42828110  0.47164750  1
  O2-  O401  1  0.35959594  0.41902622  0.80983328  1
  O2-  O402  1  0.35284417  0.68480405  0.14864343  1
  O2-  O403  1  0.35404299  0.67117820  0.47462488  1
  O2-  O404  1  0.34100211  0.67431748  0.80996813  1
  O2-  O405  1  0.33864328  0.92574786  0.20977501  1
  O2-  O406  1  0.31765590  0.90129253  0.46953578  1
  O2-  O407  1  0.33821292  0.92283656  0.80145663  1
  O2-  O408  1  0.59661021  0.17966570  0.15568356  1
  O2-  O409  1  0.55815103  0.15660071  0.46806242  1
  O2-  O410  1  0.59771212  0.17601338  0.81396412  1
  O2-  O411  1  0.58312570  0.41405788  0.14372292  1
  O2-  O412  1  0.56621439  0.40743662  0.52128874  1
  O2-  O413  1  0.57350906  0.37468263  0.78911967  1
  O2-  O414  1  0.60124100  0.69099440  0.16892900  1
  O2-  O415  1  0.59971888  0.67410953  0.46334354  1
  O2-  O416  1  0.58588989  0.67642442  0.81259424  1
  O2-  O417  1  0.57612487  0.93660794  0.13870724  1
  O2-  O418  1  0.57937729  0.91715214  0.47902737  1
  O2-  O419  1  0.57975919  0.91903429  0.81059531  1
  O2-  O420  1  0.84184146  0.16816866  0.14494934  1
  O2-  O421  1  0.83271590  0.15348862  0.47370980  1
  O2-  O422  1  0.84555205  0.17941042  0.83163375  1
  O2-  O423  1  0.83825660  0.42159166  0.15502695  1
  O2-  O424  1  0.80914890  0.38539125  0.46509196  1
  O2-  O425  1  0.84891976  0.42083019  0.82188261  1
  O2-  O426  1  0.83900656  0.65378441  0.13924345  1
  O2-  O427  1  0.82825722  0.65623973  0.47413434  1
  O2-  O428  1  0.83695460  0.67122548  0.81875987  1
  O2-  O429  1  0.85673813  0.93078920  0.18909329  1
  O2-  O430  1  0.83275761  0.91163346  0.48148996  1
  O2-  O431  1  0.83053127  0.90974286  0.81872852  1
  O2-  O432  1  0.18074145  0.05470244  0.19804846  1
  O2-  O433  1  0.14997737  0.06755778  0.52384825  1
  O2-  O434  1  0.17095769  0.08875101  0.85080411  1
  O2-  O435  1  0.17603170  0.33662550  0.19228036  1
  O2-  O436  1  0.19170030  0.30838574  0.53913351  1
  O2-  O437  1  0.19446851  0.34192076  0.83158629  1
  O2-  O438  1  0.17923713  0.59497312  0.17606267  1
  O2-  O439  1  0.15984406  0.57319393  0.54733051  1
  O2-  O440  1  0.17877658  0.60432337  0.85348541  1
  O2-  O441  1  0.16787033  0.83331236  0.18725320  1
  O2-  O442  1  0.15147043  0.81686152  0.51385888  1
  O2-  O443  1  0.17219048  0.83695688  0.84675814  1
  O2-  O444  1  0.42819454  0.10474395  0.19759095  1
  O2-  O445  1  0.38322789  0.06777629  0.50301883  1
  O2-  O446  1  0.42494852  0.08143472  0.84794963  1
  O2-  O447  1  0.41597377  0.33325385  0.18463827  1
  O2-  O448  1  0.39204158  0.32730869  0.51079735  1
  O2-  O449  1  0.42215247  0.32755716  0.85745898  1
  O2-  O450  1  0.43154877  0.59580312  0.18593839  1
  O2-  O451  1  0.40728615  0.58484537  0.52156895  1
  O2-  O452  1  0.41700854  0.58430949  0.84652048  1
  O2-  O453  1  0.42667948  0.85810931  0.18079258  1
  O2-  O454  1  0.41603060  0.83131553  0.51847104  1
  O2-  O455  1  0.41518320  0.83911244  0.84965729  1
  O2-  O456  1  0.67815760  0.08920599  0.18820470  1
  O2-  O457  1  0.66995906  0.10410641  0.52831959  1
  O2-  O458  1  0.68118503  0.09337671  0.85166838  1
  O2-  O459  1  0.67760340  0.33789008  0.19411304  1
  O2-  O460  1  0.64894688  0.31503196  0.52205188  1
  O2-  O461  1  0.68108970  0.33177704  0.85601494  1
  O2-  O462  1  0.67194584  0.57985456  0.18363430  1
  O2-  O463  1  0.67122421  0.58755565  0.52608027  1
  O2-  O464  1  0.66297159  0.59257838  0.85487963  1
  O2-  O465  1  0.66088194  0.82910170  0.25454087  1
  O2-  O466  1  0.66568194  0.83726665  0.52348516  1
  O2-  O467  1  0.66607724  0.83839524  0.85206784  1
  O2-  O468  1  0.93805926  0.09874318  0.19276165  1
  O2-  O469  1  0.91622107  0.07855713  0.52473290  1
  O2-  O470  1  0.91256483  0.08481077  0.85773369  1
  O2-  O471  1  0.91569897  0.33299056  0.18964116  1
  O2-  O472  1  0.89658883  0.31792198  0.50877650  1
  O2-  O473  1  0.92397643  0.33547386  0.86562774  1
  O2-  O474  1  0.93206997  0.58749652  0.19251638  1
  O2-  O475  1  0.91657857  0.57730225  0.52146393  1
  O2-  O476  1  0.91724175  0.59225912  0.86431452  1
  O2-  O477  1  0.92590069  0.82061585  0.18738252  1
  O2-  O478  1  0.90742003  0.82006693  0.52031174  1
  O2-  O479  1  0.90158737  0.82053567  0.85793804  1
  O2-  O480  1  0.13862292  0.06498465  0.31582968  1
  O2-  O481  1  0.16024020  0.08208940  0.64584713  1
  O2-  O482  1  0.09594582  0.04146200  0.96464001  1
  O2-  O483  1  0.16842943  0.32121472  0.31402397  1
  O2-  O484  1  0.18090577  0.34324734  0.66361865  1
  O2-  O485  1  0.17186405  0.34103094  0.98969519  1
  O2-  O486  1  0.20042603  0.64903022  0.29193361  1
  O2-  O487  1  0.17202168  0.59207109  0.66492022  1
  O2-  O488  1  0.23236851  0.65232003  0.96827235  1
  O2-  O489  1  0.15825441  0.77243706  0.30215528  1
  O2-  O490  1  0.16226423  0.82928183  0.63804813  1
  O2-  O491  1  0.17814744  0.82661427  0.96805604  1
  O2-  O492  1  0.39375870  0.07764632  0.33490348  1
  O2-  O493  1  0.38375969  0.07069770  0.63295080  1
  O2-  O494  1  0.46559106  0.03450516  0.95219243  1
  O2-  O495  1  0.40875728  0.32810068  0.30909388  1
  O2-  O496  1  0.42355638  0.32045618  0.64355700  1
  O2-  O497  1  0.43333884  0.34724817  0.96812037  1
  O2-  O498  1  0.41717776  0.57722680  0.30721403  1
  O2-  O499  1  0.41642082  0.57934144  0.64174100  1
  O2-  O500  1  0.38184394  0.58665133  0.96577986  1
  O2-  O501  1  0.42496814  0.83369322  0.30484151  1
  O2-  O502  1  0.41994801  0.83608140  0.64312472  1
  O2-  O503  1  0.42411136  0.79455737  1.04695070  1
  O2-  O504  1  0.67327734  0.08273345  0.31065259  1
  O2-  O505  1  0.66338444  0.07024735  0.64717376  1
  O2-  O506  1  0.62352824  0.06027157  0.96856848  1
  O2-  O507  1  0.66977300  0.33680505  0.30460311  1
  O2-  O508  1  0.68050878  0.35926525  0.64528181  1
  O2-  O509  1  0.67751085  0.33415490  0.98019309  1
  O2-  O510  1  0.65836374  0.56161474  0.30588264  1
  O2-  O511  1  0.67267831  0.59319475  0.64985905  1
  O2-  O512  1  0.69047259  0.57421765  0.98240782  1
  O2-  O513  1  0.80632364  0.88065321  0.31183020  1
  O2-  O514  1  0.66445760  0.82958039  0.64465544  1
  O2-  O515  1  0.68103305  0.84099807  0.97395712  1
  O2-  O516  1  0.92218803  0.10031696  0.31485376  1
  O2-  O517  1  0.93296012  0.12038473  0.64016374  1
  O2-  O518  1  0.92337356  0.08996703  0.97889741  1
  O2-  O519  1  0.91917797  0.33381172  0.31188498  1
  O2-  O520  1  0.90019654  0.33778432  0.62858930  1
  O2-  O521  1  0.92802718  0.35724148  0.98691460  1
  O2-  O522  1  1.01884107  0.63323805  0.33768948  1
  O2-  O523  1  0.95050253  0.64453642  0.63232334  1
  O2-  O524  1  0.89904426  0.59993474  0.99433656  1
  O2-  O525  1  0.91467083  0.81896574  0.30733736  1
  O2-  O526  1  0.91134889  0.81803924  0.64526352  1
  O2-  O527  1  0.93247744  0.81899718  0.97333909  1
  O2-  O528  1  0.08647903  0.16432398  0.02394804  1
  O2-  O529  1  0.07906073  0.16429182  0.36417403  1
  O2-  O530  1  0.09174731  0.17486193  0.68970518  1
  O2-  O531  1  0.09424745  0.44325884  0.02327378  1
  O2-  O532  1  0.05100262  0.33855417  0.37811158  1
  O2-  O533  1  0.10599710  0.42589928  0.71313173  1
  O2-  O534  1  0.05497275  0.67150934  0.01849408  1
  O2-  O535  1  0.06537887  0.59968073  0.37567903  1
  O2-  O536  1  0.08604998  0.67337892  0.69491046  1
  O2-  O537  1  0.09430835  0.90355557  0.01683865  1
  O2-  O538  1  0.05465910  0.90751574  0.35780120  1
  O2-  O539  1  0.08256213  0.91568263  0.68302873  1
  O2-  O540  1  0.31032337  0.22236817  0.02873656  1
  O2-  O541  1  0.30365985  0.16473306  0.34795204  1
  O2-  O542  1  0.32330504  0.16678401  0.68504165  1
  O2-  O543  1  0.33976377  0.44128024  0.01726496  1
  O2-  O544  1  0.33447839  0.41692238  0.34743057  1
  O2-  O545  1  0.35936204  0.41670000  0.68559342  1
  O2-  O546  1  0.23834749  0.57937470  -0.00911038  1
  O2-  O547  1  0.35017131  0.67446954  0.35190319  1
  O2-  O548  1  0.34309038  0.67286274  0.68632212  1
  O2-  O549  1  0.35519619  0.85764336  -0.03989239  1
  O2-  O550  1  0.31658498  0.90633727  0.32620641  1
  O2-  O551  1  0.32660573  0.91254928  0.67830097  1
  O2-  O552  1  0.59159641  0.17679009  0.03469244  1
  O2-  O553  1  0.58751174  0.17398553  0.34459506  1
  O2-  O554  1  0.52179384  0.23593309  0.62605925  1
  O2-  O555  1  0.58625128  0.40940215  0.01870686  1
  O2-  O556  1  0.58372050  0.40862514  0.34373158  1
  O2-  O557  1  0.58045520  0.42858976  0.67526311  1
  O2-  O558  1  0.51387691  0.72001683  0.02293522  1
  O2-  O559  1  0.58982057  0.64722417  0.34301493  1
  O2-  O560  1  0.57849135  0.66457326  0.68730174  1
  O2-  O561  1  0.55593948  0.95128037  0.07615789  1
  O2-  O562  1  0.58302438  0.91892600  0.36230254  1
  O2-  O563  1  0.58146471  0.91207956  0.68679209  1
  O2-  O564  1  0.84709688  0.18269682  0.02396774  1
  O2-  O565  1  0.83278968  0.17285250  0.35481074  1
  O2-  O566  1  0.83630407  0.18959189  0.68166822  1
  O2-  O567  1  0.83751911  0.43181509  0.03199352  1
  O2-  O568  1  0.91307824  0.46987866  0.36753147  1
  O2-  O569  1  0.84038113  0.42904495  0.70214028  1
  O2-  O570  1  0.85797703  0.64888646  0.01568965  1
  O2-  O571  1  0.81759447  0.64190580  0.34803125  1
  O2-  O572  1  0.82952745  0.66159390  0.69758775  1
  O2-  O573  1  0.85757955  0.92423838  0.00299852  1
  O2-  O574  1  0.81978023  0.94276578  0.35977755  1
  O2-  O575  1  0.81651179  0.88653586  0.69247795  1
