# generated using pymatgen
data_H2O
_symmetry_space_group_name_H-M   'P 1'
_cell_length_a   17.98265787
_cell_length_b   17.99137555
_cell_length_c   21.99090694
_cell_angle_alpha   90.03472172
_cell_angle_beta   89.98789095
_cell_angle_gamma   120.03831223
_symmetry_Int_Tables_number   1
_chemical_formula_structural   H2O
_chemical_formula_sum   'H384 O192'
_cell_volume   6159.19774917
_cell_formula_units_Z   192
loop_
 _symmetry_equiv_pos_site_id
 _symmetry_equiv_pos_as_xyz
  1  'x, y, z'
loop_
 _atom_type_symbol
 _atom_type_oxidation_number
  H+  1.0
  O2-  -2.0
loop_
 _atom_site_type_symbol
 _atom_site_label
 _atom_site_symmetry_multiplicity
 _atom_site_fract_x
 _atom_site_fract_y
 _atom_site_fract_z
 _atom_site_occupancy
  H+  H0  1  0.64387879  0.11726872  0.17478450  1
  H+  H1  1  0.89052222  0.27803969  0.50805516  1
  H+  H2  1  0.38908273  0.86171299  0.16866457  1
  H+  H3  1  0.33968953  0.41787850  0.10058740  1
  H+  H4  1  0.63244938  0.34301525  0.35562721  1
  H+  H5  1  0.85869515  0.40961703  0.69082501  1
  H+  H6  1  0.32226559  0.91881148  0.39135382  1
  H+  H7  1  0.76575182  0.64227196  0.81742096  1
  H+  H8  1  0.38994026  0.52441379  0.17234703  1
  H+  H9  1  0.04797084  0.65200256  0.34733123  1
  H+  H10  1  0.54118266  0.14323965  0.82002478  1
  H+  H11  1  0.36535403  0.70227927  0.69189508  1
  H+  H12  1  0.85468551  0.73904023  0.67028952  1
  H+  H13  1  0.61278232  0.23193848  0.00696439  1
  H+  H14  1  0.73283979  0.12698201  0.84008250  1
  H+  H15  1  0.61045711  0.64523824  0.82838722  1
  H+  H16  1  0.28801553  0.64184775  0.00586024  1
  H+  H17  1  0.37632784  0.40102051  0.49149914  1
  H+  H18  1  0.39623204  0.52799154  0.31947504  1
  H+  H19  1  0.74006036  0.38617074  0.85029431  1
  H+  H20  1  0.62637138  0.61180536  0.00920555  1
  H+  H21  1  0.85783449  0.49701516  0.68227082  1
  H+  H22  1  0.61304260  0.98906151  0.32275906  1
  H+  H23  1  0.50868049  0.11782621  0.32479392  1
  H+  H24  1  0.86721920  0.16113031  0.83292269  1
  H+  H25  1  0.23302782  0.36082670  0.31999699  1
  H+  H26  1  0.11393088  0.38960770  0.00172751  1
  H+  H27  1  0.48765389  0.84720320  0.66034755  1
  H+  H28  1  0.89982337  0.38589148  0.84207793  1
  H+  H29  1  0.39529972  0.77423361  -0.00582951  1
  H+  H30  1  0.14064540  0.87063514  0.17117256  1
  H+  H31  1  0.38288184  0.86252782  0.32501953  1
  H+  H32  1  0.72495569  0.10688354  0.65602213  1
  H+  H33  1  0.64211031  0.73549513  0.48143586  1
  H+  H34  1  0.26757299  0.89518300  0.48981562  1
  H+  H35  1  0.63730549  0.52064331  0.17501852  1
  H+  H36  1  0.63307936  0.53143100  0.66273638  1
  H+  H37  1  0.28131556  0.63773716  0.33146099  1
  H+  H38  1  0.38839140  0.85595122  0.84271218  1
  H+  H39  1  0.62605505  0.23154663  0.16274165  1
  H+  H40  1  0.52208019  0.14018286  1.01201170  1
  H+  H41  1  0.12233778  0.39079641  0.17358405  1
  H+  H42  1  0.37593558  0.64301445  0.15570598  1
  H+  H43  1  0.37734373  0.49751349  0.67739629  1
  H+  H44  1  0.61084599  0.86218122  0.66269978  1
  H+  H45  1  0.86901112  0.71658352  1.00892463  1
  H+  H46  1  0.52517599  0.63033845  0.15738799  1
  H+  H47  1  0.78835169  0.40354775  0.17660482  1
  H+  H48  1  0.27022324  0.96065033  0.78705413  1
  H+  H49  1  0.53616438  0.38358470  0.38524164  1
  H+  H50  1  0.14099243  0.27295686  0.32644164  1
  H+  H51  1  0.02073389  0.89016211  0.49777614  1
  H+  H52  1  0.39410166  0.02830253  0.83941234  1
  H+  H53  1  0.72543270  0.44999397  0.23566911  1
  H+  H54  1  0.10996880  0.88972740  0.49634437  1
  H+  H55  1  0.65459952  0.29595429  0.83908567  1
  H+  H56  1  0.37773784  0.36530059  0.84789824  1
  H+  H57  1  0.16806919  0.84821942  0.56887231  1
  H+  H58  1  0.62974196  0.85743695  0.16471403  1
  H+  H59  1  0.89177382  0.60241998  0.99538503  1
  H+  H60  1  0.12744925  0.65583623  0.15592162  1
  H+  H61  1  -0.00906357  0.62644311  0.17258470  1
  H+  H62  1  0.42777543  0.09297316  0.59559765  1
  H+  H63  1  0.86511172  0.23658660  0.16420602  1
  H+  H64  1  0.63262410  0.09854055  0.65251014  1
  H+  H65  1  0.39793748  0.26812528  0.65350544  1
  H+  H66  1  0.37110110  0.22856690  0.49652294  1
  H+  H67  1  0.89059600  0.11063945  0.31997435  1
  H+  H68  1  0.02585322  0.13541104  0.01292311  1
  H+  H69  1  0.78608056  0.49585193  0.32983839  1
  H+  H70  1  0.62981727  0.77403989  0.31893957  1
  H+  H71  1  0.14666590  0.61402676  0.85493964  1
  H+  H72  1  0.38200821  0.87715590  0.49465508  1
  H+  H73  1  0.61277397  -0.04352424  0.66029955  1
  H+  H74  1  0.61069142  0.39992409  0.69090786  1
  H+  H75  1  0.35384129  0.40665400  0.27126431  1
  H+  H76  1  0.11785865  0.47641894  0.33158110  1
  H+  H77  1  0.75401865  0.71190652  0.45616148  1
  H+  H78  1  0.76412757  0.88530701  0.50335908  1
  H+  H79  1  0.91678389  0.83848439  0.57308059  1
  H+  H80  1  0.13738706  0.11605895  0.50105897  1
  H+  H81  1  0.63018962  0.50017175  0.49679884  1
  H+  H82  1  0.75831892  0.86935434  0.16026778  1
  H+  H83  1  0.11568234  0.14048476  0.33676680  1
  H+  H84  1  0.22366184  0.87573841  0.66539100  1
  H+  H85  1  0.89696266  0.13882211  0.16157122  1
  H+  H86  1  0.61504533  0.39321095  0.17592324  1
  H+  H87  1  0.08188933  0.92383703  0.40247959  1
  H+  H88  1  0.74427069  0.63475051  0.32214740  1
  H+  H89  1  0.36947062  0.47712086  -0.00373508  1
  H+  H90  1  0.89580388  0.27404030  0.00703012  1
  H+  H91  1  0.37633663  0.12640004  0.19988590  1
  H+  H92  1  0.37139419  1.01942917  0.30918686  1
  H+  H93  1  0.62688257  0.84893158  0.50116308  1
  H+  H94  1  0.77617009  0.38236821  1.01643632  1
  H+  H95  1  0.85873475  0.61408653  0.65160194  1
  H+  H96  1  0.84688016  0.45982210  0.78396091  1
  H+  H97  1  0.61343401  0.22067913  0.48039802  1
  H+  H98  1  0.52350690  0.89027754  0.16345739  1
  H+  H99  1  0.36749841  0.48731628  0.84562133  1
  H+  H100  1  0.11836708  0.86334346  0.32782271  1
  H+  H101  1  0.02670435  0.64192562  0.50118516  1
  H+  H102  1  0.36527514  0.38723554  1.00576993  1
  H+  H103  1  1.00383198  0.39525367  0.68284218  1
  H+  H104  1  0.13605128  0.02178415  0.65283039  1
  H+  H105  1  0.94838540  0.57105932  0.83651474  1
  H+  H106  1  0.72640101  0.35615469  0.66360169  1
  H+  H107  1  0.09720885  0.70641951  0.82583871  1
  H+  H108  1  0.47501595  0.36565687  0.18882812  1
  H+  H109  1  0.86454711  0.74233427  0.33517423  1
  H+  H110  1  0.81932395  0.50087487  0.35273459  1
  H+  H111  1  0.11714769  0.22531728  0.83139766  1
  H+  H112  1  0.86828098  0.63251869  0.16290317  1
  H+  H113  1  0.10954532  0.96883321  0.00907412  1
  H+  H114  1  0.63119661  0.15129866  0.81618190  1
  H+  H115  1  0.98476029  0.12708701  0.66662068  1
  H+  H116  1  0.12243751  0.47843840  0.83386244  1
  H+  H117  1  0.37819113  0.61826743  0.51804806  1
  H+  H118  1  0.37985908  0.73460276  0.15479189  1
  H+  H119  1  0.91649436  0.32394523  0.27081680  1
  H+  H120  1  0.86592097  0.72368643  0.81935860  1
  H+  H121  1  0.61829772  0.03141934  0.98459146  1
  H+  H122  1  0.39913568  0.28016206  0.34955811  1
  H+  H123  1  0.12240245  0.84121265  0.84012979  1
  H+  H124  1  0.89442380  0.37028872  0.17927368  1
  H+  H125  1  0.05861886  0.59838944  0.67908914  1
  H+  H126  1  -0.02191878  0.35369586  0.32892943  1
  H+  H127  1  0.49934019  0.12891980  0.66113528  1
  H+  H128  1  0.35678338  0.73494319  0.48404068  1
  H+  H129  1  0.11815645  1.00601567  0.84708646  1
  H+  H130  1  0.59678267  0.20547250  0.33490162  1
  H+  H131  1  0.08710420  0.58305696  0.66555117  1
  H+  H132  1  0.13830799  0.78054552  0.51362670  1
  H+  H133  1  0.58793867  0.92888311  0.75799728  1
  H+  H134  1  0.13638543  0.36676888  0.48293238  1
  H+  H135  1  0.11117217  0.25051900  0.60404394  1
  H+  H136  1  0.23423772  0.36300527  0.17267861  1
  H+  H137  1  0.12157619  0.13503499  0.67382349  1
  H+  H138  1  0.58230191  0.16551370  0.72770574  1
  H+  H139  1  0.39078345  0.27573696  0.19718008  1
  H+  H140  1  0.42918429  0.12596882  0.85647487  1
  H+  H141  1  0.77105092  0.12800908  0.34250566  1
  H+  H142  1  0.36624478  0.86929307  0.67379341  1
  H+  H143  1  0.24693062  0.63315900  0.15897169  1
  H+  H144  1  0.36825643  0.63872723  0.84846744  1
  H+  H145  1  0.60689038  0.88311162  0.32335778  1
  H+  H146  1  0.53099188  0.63640796  0.33377356  1
  H+  H147  1  0.69781257  0.83104293  0.64352750  1
  H+  H148  1  0.90378173  0.05664625  0.14507885  1
  H+  H149  1  0.53274800  0.90445832  0.81927778  1
  H+  H150  1  0.64029180  0.03677139  0.83128919  1
  H+  H151  1  0.27892183  0.13973434  0.49897225  1
  H+  H152  1  0.88989320  0.85239746  -0.00503761  1
  H+  H153  1  0.38327282  0.53537587  0.52366629  1
  H+  H154  1  0.07115997  0.76857241  0.30263745  1
  H+  H155  1  0.62807647  0.61677537  0.65812949  1
  H+  H156  1  0.87989924  1.02367571  0.51271895  1
  H+  H157  1  0.28021056  0.15229544  0.34547695  1
  H+  H158  1  0.88790704  0.84336582  0.84566600  1
  H+  H159  1  0.86309703  0.24708669  0.82559419  1
  H+  H160  1  0.07912267  0.76329716  0.67978930  1
  H+  H161  1  0.15581085  0.12042828  0.16891319  1
  H+  H162  1  0.64374901  0.62836870  0.31964239  1
  H+  H163  1  0.62931124  0.63884329  0.47903045  1
  H+  H164  1  0.25407029  0.34985686  0.63972202  1
  H+  H165  1  0.28088428  0.88483540  0.16175983  1
  H+  H166  1  0.37839276  0.57931207  0.70570380  1
  H+  H167  1  0.86137261  0.21531259  0.34102401  1
  H+  H168  1  0.27912693  0.60918234  0.68473529  1
  H+  H169  1  0.02076077  0.13485862  0.49015383  1
  H+  H170  1  0.17606572  0.33603001  0.89544937  1
  H+  H171  1  -0.01897908  0.37292911  0.83739591  1
  H+  H172  1  0.61908958  0.09730809  0.32239539  1
  H+  H173  1  0.84677319  0.94233393  0.18476241  1
  H+  H174  1  0.82576555  0.16909124  0.73564399  1
  H+  H175  1  0.59630405  0.71884230  0.67034367  1
  H+  H176  1  0.64793661  0.54313637  0.84108717  1
  H+  H177  1  0.38605000  0.34862752  0.64743455  1
  H+  H178  1  0.87698428  0.78313070  0.51143023  1
  H+  H179  1  0.70926435  0.32186541  0.34684032  1
  H+  H180  1  0.87997255  0.84716630  0.17163625  1
  H+  H181  1  0.98008740  0.12657646  0.84517485  1
  H+  H182  1  0.37971296  0.39077806  0.33402123  1
  H+  H183  1  0.60418464  0.46136301  0.01766837  1
  H+  H184  1  0.33369604  0.90668607  0.10001043  1
  H+  H185  1  0.19352313  0.56420509  0.60254749  1
  H+  H186  1  0.63765866  0.81735043  0.99237601  1
  H+  H187  1  0.39193815  0.11711304  0.65909512  1
  H+  H188  1  0.14756813  0.61818922  0.00493109  1
  H+  H189  1  0.98226807  0.36644944  0.18082521  1
  H+  H190  1  0.87593373  0.14828122  0.01270065  1
  H+  H191  1  0.22087567  0.10622080  1.00216044  1
  H+  H192  1  0.35294876  0.26802970  0.84509149  1
  H+  H193  1  0.14536626  0.89582952  0.66797933  1
  H+  H194  1  0.77629821  0.87021399  0.84272910  1
  H+  H195  1  1.02633750  0.14105956  0.33192195  1
  H+  H196  1  0.76442384  0.87693322  0.34616467  1
  H+  H197  1  0.65491988  0.74058776  -0.00430611  1
  H+  H198  1  0.51320308  0.88408687  0.32782780  1
  H+  H199  1  0.38675514  0.01784138  1.00354867  1
  H+  H200  1  0.88329252  0.05152894  0.83928645  1
  H+  H201  1  0.11371126  0.09443919  0.84815611  1
  H+  H202  1  0.75543894  0.29964426  0.63270171  1
  H+  H203  1  0.13617503  0.76986392  0.99731100  1
  H+  H204  1  0.15564058  0.54730216  0.15654190  1
  H+  H205  1  0.13745090  0.72979088  0.35339175  1
  H+  H206  1  0.88722078  0.61470573  0.50141464  1
  H+  H207  1  0.13618479  0.27648050  0.48056450  1
  H+  H208  1  0.03240235  0.15421277  0.15292326  1
  H+  H209  1  0.89239177  0.36677575  0.01043924  1
  H+  H210  1  0.98350947  0.87427418  0.67010639  1
  H+  H211  1  0.62413748  0.12761726  -0.01433222  1
  H+  H212  1  0.10824315  0.45105841  0.21643154  1
  H+  H213  1  0.09281897  0.17641342  0.08642346  1
  H+  H214  1  0.74679350  0.59703359  -0.00615256  1
  H+  H215  1  0.15912399  0.07732887  0.94264688  1
  H+  H216  1  0.89795444  1.04001070  0.67314368  1
  H+  H217  1  0.36223522  0.88321365  1.00409247  1
  H+  H218  1  0.64546219  0.12578742  0.49717377  1
  H+  H219  1  0.83756943  0.32968488  0.35346783  1
  H+  H220  1  0.23886808  0.11140101  0.17494727  1
  H+  H221  1  0.78204491  0.87710613  0.00793440  1
  H+  H222  1  0.73106368  0.60793373  0.17099823  1
  H+  H223  1  0.62775780  0.76526058  0.16499667  1
  H+  H224  1  0.89514822  0.87575789  0.66907793  1
  H+  H225  1  0.61613549  0.63353429  0.16172099  1
  H+  H226  1  0.95173474  0.63404839  0.65880707  1
  H+  H227  1  0.86208712  0.14253000  0.67772283  1
  H+  H228  1  0.66058088  0.07530807  0.26275516  1
  H+  H229  1  0.11707236  0.13498797  1.01285992  1
  H+  H230  1  0.75519465  0.63767172  0.48656729  1
  H+  H231  1  0.62855582  0.41457074  0.83826999  1
  H+  H232  1  0.11979402  0.38862907  0.33650765  1
  H+  H233  1  0.90461532  0.53503768  0.18162715  1
  H+  H234  1  0.02044167  0.86595395  0.82929357  1
  H+  H235  1  0.37919755  0.26598388  0.00303718  1
  H+  H236  1  0.35667328  0.12454590  1.01685814  1
  H+  H237  1  0.63496588  0.35965899  1.00185756  1
  H+  H238  1  -0.02653411  0.85636367  0.17260693  1
  H+  H239  1  0.92295136  0.66519133  0.32408129  1
  H+  H240  1  0.48005236  0.62007571  0.86996719  1
  H+  H241  1  0.11188140  -0.02514461  0.15966671  1
  H+  H242  1  0.64656431  0.77346189  0.83794339  1
  H+  H243  1  0.14723994  0.61477605  0.32129197  1
  H+  H244  1  0.27177471  0.12816129  0.66135552  1
  H+  H245  1  0.64078922  1.02585207  0.17348518  1
  H+  H246  1  0.16062856  0.82318283  -0.06422829  1
  H+  H247  1  0.87206570  0.94434102  0.86670307  1
  H+  H248  1  0.32758945  0.13436077  0.82378292  1
  H+  H249  1  0.39855591  0.61814765  0.96768501  1
  H+  H250  1  0.23253487  0.36763337  0.83473988  1
  H+  H251  1  0.11627311  0.47943405  0.00960161  1
  H+  H252  1  0.51377521  0.37383032  0.01477407  1
  H+  H253  1  0.86269379  0.71826246  0.16164509  1
  H+  H254  1  0.52282175  0.88528426  0.48280402  1
  H+  H255  1  0.78927356  0.91316152  0.70451957  1
  H+  H256  1  0.23705797  0.12452702  0.82347487  1
  H+  H257  1  0.42030485  0.19356389  0.14568986  1
  H+  H258  1  0.89382753  1.02328149  -0.00020962  1
  H+  H259  1  0.67690203  0.35656099  0.26085355  1
  H+  H260  1  0.51318359  0.89778255  1.00470347  1
  H+  H261  1  0.11791188  0.38780388  0.82811699  1
  H+  H262  1  0.13993945  0.61410813  0.51545530  1
  H+  H263  1  0.47884830  0.11283638  0.50480721  1
  H+  H264  1  0.36641252  0.38530016  0.16149524  1
  H+  H265  1  0.17707553  0.58682101  0.94665345  1
  H+  H266  1  0.62172972  0.21868759  0.66398639  1
  H+  H267  1  0.76973429  0.38337237  0.49536742  1
  H+  H268  1  0.35725920  -0.01648444  0.48754899  1
  H+  H269  1  0.12124887  0.74191734  0.15938437  1
  H+  H270  1  0.67797072  0.59272476  0.25929906  1
  H+  H271  1  0.02294435  0.89854242  0.34262405  1
  H+  H272  1  0.26497434  0.88198139  0.33200396  1
  H+  H273  1  0.37895789  0.96288424  0.66822260  1
  H+  H274  1  0.75849836  0.64918718  0.66698588  1
  H+  H275  1  0.85469752  0.26561470  0.66089243  1
  H+  H276  1  0.99344221  0.37443063  1.00540212  1
  H+  H277  1  0.02297441  0.39120614  0.49127488  1
  H+  H278  1  0.20997601  0.84089637  0.83918338  1
  H+  H279  1  0.27076333  0.64315822  0.48731530  1
  H+  H280  1  0.48770649  0.35859323  0.49357761  1
  H+  H281  1  0.74683486  0.13121382  0.50045221  1
  H+  H282  1  0.51612472  0.62229630  0.68852061  1
  H+  H283  1  0.28912836  0.39953746  0.48140437  1
  H+  H284  1  0.88241220  0.86399405  0.33017195  1
  H+  H285  1  0.57264261  0.66924121  0.77190761  1
  H+  H286  1  0.23254429  0.36922148  -0.00872425  1
  H+  H287  1  0.27257880  0.88322198  0.00418764  1
  H+  H288  1  0.51964917  0.39012387  0.68019022  1
  H+  H289  1  0.59701691  0.17548377  0.10276537  1
  H+  H290  1  0.33698769  0.65611570  0.78333846  1
  H+  H291  1  0.16760691  0.32947523  0.56418816  1
  H+  H292  1  0.36615990  0.47427127  0.77551634  1
  H+  H293  1  0.33562771  0.17142682  0.40619004  1
  H+  H294  1  0.59617316  0.64808498  0.06501293  1
  H+  H295  1  0.13934358  0.52620901  0.50379369  1
  H+  H296  1  0.86602264  0.47060262  0.01499857  1
  H+  H297  1  0.40413033  0.32181003  0.94152111  1
  H+  H298  1  0.06903926  0.41406113  0.73676104  1
  H+  H299  1  0.14435227  0.28012742  0.99179769  1
  H+  H300  1  0.03679615  0.70318968  0.73755097  1
  H+  H301  1  0.39172523  0.11907818  0.50949494  1
  H+  H302  1  0.08343250  0.16131222  0.77473679  1
  H+  H303  1  0.83937816  0.65693524  0.06901200  1
  H+  H304  1  0.32542431  0.92348078  0.76099849  1
  H+  H305  1  0.67080881  0.33903046  0.94064925  1
  H+  H306  1  0.97817528  0.85190442  0.99513060  1
  H+  H307  1  0.91757999  0.83940086  0.26868041  1
  H+  H308  1  0.17310900  0.32754917  0.23325986  1
  H+  H309  1  0.08619477  0.67210713  0.06818015  1
  H+  H310  1  0.91760211  0.08831985  0.56957628  1
  H+  H311  1  0.61096886  0.91920303  0.00675508  1
  H+  H312  1  0.44970789  0.34336180  0.29540355  1
  H+  H313  1  0.14155182  0.03109766  0.33010311  1
  H+  H314  1  0.86524908  0.13710063  0.49693059  1
  H+  H315  1  0.65871983  0.31918267  0.55050309  1
  H+  H316  1  0.92678920  0.09859327  0.25720075  1
  H+  H317  1  0.91081969  0.55989203  0.93772171  1
  H+  H318  1  0.23766411  0.61749362  0.85242204  1
  H+  H319  1  0.17672737  0.59533031  0.25671330  1
  H+  H320  1  0.38582474  0.77358867  0.32620274  1
  H+  H321  1  0.85717245  0.89269988  0.50510282  1
  H+  H322  1  0.41908978  0.83381001  0.22962290  1
  H+  H323  1  0.16296644  0.83861995  0.23195230  1
  H+  H324  1  0.39535669  0.61740851  0.32640665  1
  H+  H325  1  0.07764498  0.42179267  0.42872910  1
  H+  H326  1  0.12929878  0.22594162  0.68473619  1
  H+  H327  1  0.16509926  0.08420204  0.59313225  1
  H+  H328  1  0.12906956  0.24266224  0.15666549  1
  H+  H329  1  0.13676541  0.02666300  0.50320645  1
  H+  H330  1  0.15051385  0.49907104  0.65881227  1
  H+  H331  1  0.92371148  0.08872318  0.94325297  1
  H+  H332  1  0.90677031  0.58778350  0.56567460  1
  H+  H333  1  0.69276151  0.52041991  0.94768025  1
  H+  H334  1  0.65124832  0.56019303  0.55790053  1
  H+  H335  1  0.88892659  0.32746641  0.60189820  1
  H+  H336  1  0.41615991  0.85395799  0.55409500  1
  H+  H337  1  0.58631277  0.43807603  0.78355889  1
  H+  H338  1  0.33441115  0.66993428  0.39407804  1
  H+  H339  1  0.63046443  0.35436720  0.48942743  1
  H+  H340  1  0.11362563  0.88122035  0.00738841  1
  H+  H341  1  0.82296867  0.67404473  0.74908701  1
  H+  H342  1  0.07996997  0.90264020  0.76906096  1
  H+  H343  1  0.85531872  0.93328436  0.75664009  1
  H+  H344  1  0.42106016  0.07774186  0.94553385  1
  H+  H345  1  0.88730835  0.36526218  0.50944613  1
  H+  H346  1  0.32068224  0.15752268  0.72436152  1
  H+  H347  1  0.07491652  0.97686801  0.71863747  1
  H+  H348  1  0.42290618  0.58729458  0.23068141  1
  H+  H349  1  0.57660585  0.40517171  0.11204074  1
  H+  H350  1  0.32685403  0.15033886  0.07725561  1
  H+  H351  1  0.29280406  0.36086974  0.70548303  1
  H+  H352  1  0.84029852  0.17664777  0.06930165  1
  H+  H353  1  0.95472660  0.63612826  0.26541283  1
  H+  H354  1  0.64390652  0.81225880  0.56422054  1
  H+  H355  1  0.58415066  0.90887065  0.42641653  1
  H+  H356  1  0.85908610  0.47409472  0.49483309  1
  H+  H357  1  0.17431689  0.08734950  0.26970556  1
  H+  H358  1  0.67674474  0.09460500  0.56229370  1
  H+  H359  1  0.08431380  0.63252030  0.77705701  1
  H+  H360  1  0.09273274  0.67071134  0.44568816  1
  H+  H361  1  0.81175600  0.36391993  0.41231157  1
  H+  H362  1  0.81936344  0.90146507  0.40790742  1
  H+  H363  1  0.08007789  0.91277511  0.10140014  1
  H+  H364  1  0.77722667  0.14314221  0.16466560  1
  H+  H365  1  0.42317508  0.83493427  0.93481071  1
  H+  H366  1  0.65605449  0.09280958  0.91882830  1
  H+  H367  1  0.68750028  0.61399496  0.89438567  1
  H+  H368  1  0.57653117  0.15003813  0.42597647  1
  H+  H369  1  0.91540286  0.80701427  0.90229919  1
  H+  H370  1  0.83770879  0.42063879  0.11223337  1
  H+  H371  1  0.83675761  0.16426104  0.43421507  1
  H+  H372  1  0.42165840  0.77292745  0.61562120  1
  H+  H373  1  0.02861211  0.63225839  0.00788777  1
  H+  H374  1  0.07626988  0.15979804  0.42804171  1
  H+  H375  1  0.43683601  0.33647783  0.55722827  1
  H+  H376  1  0.65916364  0.83209654  0.25928188  1
  H+  H377  1  0.39498585  0.77157216  0.84408024  1
  H+  H378  1  0.82379019  0.68112018  0.39357349  1
  H+  H379  1  0.68268695  0.81658860  0.90239007  1
  H+  H380  1  0.83882813  0.91211392  0.06755499  1
  H+  H381  1  0.35664213  0.67237041  0.05861115  1
  H+  H382  1  0.60516889  0.67467669  0.38790576  1
  H+  H383  1  0.57987747  0.92763170  0.10342391  1
  O2-  O384  1  0.09476792  0.18058754  0.13854577  1
  O2-  O385  1  0.08028518  0.16324023  0.47367540  1
  O2-  O386  1  0.08005564  0.16299172  0.81992366  1
  O2-  O387  1  0.09431572  0.42665063  0.17554298  1
  O2-  O388  1  0.08216885  0.42210439  0.47386230  1
  O2-  O389  1  0.08831699  0.41992398  0.81643362  1
  O2-  O390  1  0.09066219  0.68062605  0.14409398  1
  O2-  O391  1  0.08894780  0.67394288  0.49073343  1
  O2-  O392  1  0.05964366  0.64494393  0.81250991  1
  O2-  O393  1  0.07854474  0.91364458  0.14691546  1
  O2-  O394  1  0.08030218  0.92037282  0.48072985  1
  O2-  O395  1  0.08169024  0.89941943  0.81581719  1
  O2-  O396  1  0.36731408  0.16976754  0.16946063  1
  O2-  O397  1  0.34007261  0.16517215  0.48617648  1
  O2-  O398  1  0.29563063  0.15792019  0.80387947  1
  O2-  O399  1  0.33619861  0.41552330  0.14592245  1
  O2-  O400  1  0.35197291  0.43653783  0.47796535  1
  O2-  O401  1  0.34471342  0.44127249  0.81440855  1
  O2-  O402  1  0.34939223  0.67489207  0.13713848  1
  O2-  O403  1  0.32915936  0.67557217  0.46815649  1
  O2-  O404  1  0.33949900  0.66749525  0.82882618  1
  O2-  O405  1  0.33861533  0.90411384  0.14466430  1
  O2-  O406  1  0.32595293  0.92448473  0.47035182  1
  O2-  O407  1  0.30909717  0.94049667  0.80016947  1
  O2-  O408  1  0.60083041  0.17300710  0.14763658  1
  O2-  O409  1  0.58445083  0.15686545  0.47109227  1
  O2-  O410  1  0.59766911  0.17852577  0.80017930  1
  O2-  O411  1  0.57853910  0.41419381  0.15705332  1
  O2-  O412  1  0.58879647  0.40075100  0.46726785  1
  O2-  O413  1  0.60138140  0.44885101  0.82721303  1
  O2-  O414  1  0.58624508  0.66164382  0.14266837  1
  O2-  O415  1  0.64466088  0.69088574  0.45460851  1
  O2-  O416  1  0.57453979  0.67108959  0.81770387  1
  O2-  O417  1  0.58513135  0.92152675  0.14766469  1
  O2-  O418  1  0.58304688  0.90573056  0.47090762  1
  O2-  O419  1  0.58779569  0.94689525  0.80093505  1
  O2-  O420  1  0.83704807  0.17610088  0.14778171  1
  O2-  O421  1  0.83594502  0.16826114  0.47998011  1
  O2-  O422  1  0.83227621  0.18337797  0.81414606  1
  O2-  O423  1  0.84565997  0.42637476  0.15742578  1
  O2-  O424  1  0.83235496  0.41223169  0.48479139  1
  O2-  O425  1  0.84923892  0.45371398  0.82981236  1
  O2-  O426  1  0.83311612  0.65744850  0.14642417  1
  O2-  O427  1  0.79655233  0.69318139  0.46584132  1
  O2-  O428  1  0.82586068  0.66731892  0.79718877  1
  O2-  O429  1  0.82278448  0.90123830  0.15138043  1
  O2-  O430  1  0.82546681  0.92075178  0.48905940  1
  O2-  O431  1  0.84467422  0.90529913  0.83258909  1
  O2-  O432  1  0.17725534  0.08367422  0.18504378  1
  O2-  O433  1  0.16829417  0.08740659  0.51834790  1
  O2-  O434  1  0.14626650  0.06619280  0.86291732  1
  O2-  O435  1  0.17275360  0.32919446  0.18692977  1
  O2-  O436  1  0.17073860  0.33830314  0.49188494  1
  O2-  O437  1  0.17271763  0.33175972  0.85005491  1
  O2-  O438  1  0.18533377  0.60603693  0.17325850  1
  O2-  O439  1  0.17330627  0.58449390  0.52226844  1
  O2-  O440  1  0.17690866  0.58424083  0.86838287  1
  O2-  O441  1  0.17091067  0.84080268  0.18702231  1
  O2-  O442  1  0.16786032  0.84330974  0.52368111  1
  O2-  O443  1  0.15071445  0.80758745  0.85461139  1
  O2-  O444  1  0.39420508  0.06713743  0.22988595  1
  O2-  O445  1  0.42152014  0.08700049  0.52513170  1
  O2-  O446  1  0.44047072  0.07872447  0.86186373  1
  O2-  O447  1  0.41529424  0.33830232  0.20517649  1
  O2-  O448  1  0.42862961  0.33203953  0.51257104  1
  O2-  O449  1  0.38783477  0.32179089  0.86755422  1
  O2-  O450  1  0.42264863  0.58575306  0.18505392  1
  O2-  O451  1  0.39590904  0.58797508  0.54648413  1
  O2-  O452  1  0.41892931  0.58853067  0.88494042  1
  O2-  O453  1  0.42413046  0.83458277  0.18460181  1
  O2-  O454  1  0.41347807  0.84775542  0.50981252  1
  O2-  O455  1  0.42493229  0.83396171  0.85710205  1
  O2-  O456  1  0.67290541  0.08548249  0.19083735  1
  O2-  O457  1  0.68264213  0.10277585  0.51605002  1
  O2-  O458  1  0.66998474  0.09613132  0.85201496  1
  O2-  O459  1  0.69610391  0.39076432  0.22107940  1
  O2-  O460  1  0.66128865  0.32052789  0.50595585  1
  O2-  O461  1  0.67817421  0.35055151  0.86179382  1
  O2-  O462  1  0.67141480  0.58215316  0.18873683  1
  O2-  O463  1  0.65607698  0.56082501  0.51312608  1
  O2-  O464  1  0.68092921  0.60893250  0.84984181  1
  O2-  O465  1  0.65926689  0.82634385  0.18005605  1
  O2-  O466  1  0.65775964  0.82042141  0.51866759  1
  O2-  O467  1  0.68855561  0.82910142  0.85807988  1
  O2-  O468  1  0.93292202  0.10950579  0.16884783  1
  O2-  O469  1  0.91422602  0.08628996  0.52447925  1
  O2-  O470  1  0.92058187  0.10255012  0.86325559  1
  O2-  O471  1  0.92014159  0.33451973  0.19209471  1
  O2-  O472  1  0.91918762  0.33675709  0.52564473  1
  O2-  O473  1  0.91890572  0.34389945  0.84806900  1
  O2-  O474  1  0.93194808  0.59732581  0.19157072  1
  O2-  O475  1  0.91499566  0.58581349  0.52021845  1
  O2-  O476  1  0.88961347  0.54200526  0.85449439  1
  O2-  O477  1  0.91330181  0.82158993  0.18855471  1
  O2-  O478  1  0.91626093  0.84150385  0.52766378  1
  O2-  O479  1  0.91608653  0.80887031  0.85655824  1
  O2-  O480  1  0.17142908  0.09138702  0.31439922  1
  O2-  O481  1  0.16823802  0.08369397  0.63921754  1
  O2-  O482  1  0.15978678  0.07968314  0.98809723  1
  O2-  O483  1  0.17109437  0.33281287  0.30847421  1
  O2-  O484  1  0.15699993  0.30980649  0.60846281  1
  O2-  O485  1  0.17242542  0.33863196  0.97475157  1
  O2-  O486  1  0.17335231  0.58347502  0.30117050  1
  O2-  O487  1  0.20283928  0.55197142  0.64476171  1
  O2-  O488  1  0.17858790  0.58752201  0.99209514  1
  O2-  O489  1  0.12995564  0.81910341  0.30845304  1
  O2-  O490  1  0.16635461  0.85896793  0.64915103  1
  O2-  O491  1  0.16540918  0.83020640  0.98071973  1
  O2-  O492  1  0.40574263  0.07914071  0.29320445  1
  O2-  O493  1  0.43004732  0.09383441  0.64301080  1
  O2-  O494  1  0.41719061  0.08027109  0.99022361  1
  O2-  O495  1  0.44038372  0.34392264  0.33941776  1
  O2-  O496  1  0.42891993  0.32918857  0.64088129  1
  O2-  O497  1  0.41141450  0.32549591  0.98731266  1
  O2-  O498  1  0.42829902  0.59059343  0.30954425  1
  O2-  O499  1  0.40509927  0.54217865  0.70880159  1
  O2-  O500  1  0.42401366  0.58347969  0.95172794  1
  O2-  O501  1  0.41637891  0.83493463  0.31116952  1
  O2-  O502  1  0.42358311  0.81207814  0.64721438  1
  O2-  O503  1  0.42193694  0.83627865  0.98039305  1
  O2-  O504  1  0.65263412  0.06766763  0.30898983  1
  O2-  O505  1  0.66836177  0.07737500  0.63373954  1
  O2-  O506  1  0.64942795  0.09165057  0.96645796  1
  O2-  O507  1  0.65344197  0.31362989  0.32784819  1
  O2-  O508  1  0.70273705  0.30475490  0.63725283  1
  O2-  O509  1  0.66891696  0.33356280  0.98604317  1
  O2-  O510  1  0.68080435  0.60126135  0.30562099  1
  O2-  O511  1  0.66053471  0.58810145  0.64217048  1
  O2-  O512  1  0.68795805  0.56148190  0.97410751  1
  O2-  O513  1  0.65549924  0.83480789  0.30453771  1
  O2-  O514  1  0.63666850  0.80780142  0.63751385  1
  O2-  O515  1  0.68182119  0.80377961  0.98096742  1
  O2-  O516  1  0.92905272  0.09235728  0.30134832  1
  O2-  O517  1  0.92391075  0.09721924  0.65317614  1
  O2-  O518  1  0.92710390  0.08550505  0.98836956  1
  O2-  O519  1  0.91704505  0.31760432  0.31584108  1
  O2-  O520  1  0.86344118  0.32077794  0.64350434  1
  O2-  O521  1  0.92594526  0.33916692  0.99490266  1
  O2-  O522  1  0.97379678  0.66674593  0.30524604  1
  O2-  O523  1  0.89538219  0.58907977  0.64043526  1
  O2-  O524  1  0.91956747  0.56872910  0.98228492  1
  O2-  O525  1  0.91961985  0.84048524  0.31393706  1
  O2-  O526  1  0.92135329  0.84294303  0.65301876  1
  O2-  O527  1  0.91716156  0.81934800  0.98005551  1
  O2-  O528  1  0.08784128  0.16770592  0.02809732  1
  O2-  O529  1  0.08538885  0.17132440  0.35113123  1
  O2-  O530  1  0.09359663  0.16494588  0.69473859  1
  O2-  O531  1  0.08220880  0.41664457  0.01926736  1
  O2-  O532  1  0.08668682  0.41726386  0.34864862  1
  O2-  O533  1  0.06262680  0.40944254  0.69185108  1
  O2-  O534  1  0.08872407  0.66805009  0.02261491  1
  O2-  O535  1  0.10539287  0.66862037  0.36524146  1
  O2-  O536  1  0.02461288  0.71684761  0.69715655  1
  O2-  O537  1  0.07981704  0.90800530  0.02299274  1
  O2-  O538  1  0.08395122  0.92636152  0.35692114  1
  O2-  O539  1  0.07768607  0.93010635  0.69835984  1
  O2-  O540  1  0.32382110  0.15209967  0.03258532  1
  O2-  O541  1  0.33923031  0.18371570  0.36200619  1
  O2-  O542  1  0.33109895  0.15545520  0.68010570  1
  O2-  O543  1  0.33786036  0.42166054  0.01818342  1
  O2-  O544  1  0.34646954  0.41602559  0.31408459  1
  O2-  O545  1  0.30954794  0.37416013  0.66301389  1
  O2-  O546  1  0.35162245  0.67198704  0.01317477  1
  O2-  O547  1  0.34067019  0.67035455  0.34813185  1
  O2-  O548  1  0.33428557  0.64469340  0.71025656  1
  O2-  O549  1  0.33326774  0.91465878  0.01915701  1
  O2-  O550  1  0.32464199  0.91393340  0.34607222  1
  O2-  O551  1  0.34294602  0.90650178  0.68713868  1
  O2-  O552  1  0.58534918  0.17027998  0.02117831  1
  O2-  O553  1  0.56647750  0.14230204  0.34465088  1
  O2-  O554  1  0.57683250  0.16050964  0.68125235  1
  O2-  O555  1  0.57348796  0.40155479  0.03256130  1
  O2-  O556  1  0.59622574  0.40535878  0.39974189  1
  O2-  O557  1  0.57703624  0.42713315  0.70062728  1
  O2-  O558  1  0.60371605  0.64940276  0.02002227  1
  O2-  O559  1  0.59460133  0.66942378  0.34212814  1
  O2-  O560  1  0.57872274  0.66204677  0.69334171  1
  O2-  O561  1  0.57427304  0.94155575  0.02006875  1
  O2-  O562  1  0.57800917  0.91705827  0.33813795  1
  O2-  O563  1  0.58339824  0.90044434  0.68089798  1
  O2-  O564  1  0.84814387  0.18175350  0.02431320  1
  O2-  O565  1  0.83053654  0.15516155  0.35770031  1
  O2-  O566  1  0.82290481  0.16419979  0.69015447  1
  O2-  O567  1  0.83580394  0.41118515  0.03312145  1
  O2-  O568  1  0.78823633  0.32381485  0.37741837  1
  O2-  O569  1  0.83293114  0.44282988  0.70710862  1
  O2-  O570  1  0.84106778  0.65557050  0.02331787  1
  O2-  O571  1  0.83234604  0.67950816  0.34847222  1
  O2-  O572  1  0.81909359  0.67753974  0.68439474  1
  O2-  O573  1  0.84246619  0.91470842  0.02261559  1
  O2-  O574  1  0.81907155  0.88799215  0.36409135  1
  O2-  O575  1  0.85093122  0.93980883  0.71181862  1
