# generated using pymatgen
data_H2O
_symmetry_space_group_name_H-M   'P 1'
_cell_length_a   17.98604963
_cell_length_b   17.98661913
_cell_length_c   21.99193035
_cell_angle_alpha   90.01362972
_cell_angle_beta   89.98825041
_cell_angle_gamma   120.01090523
_symmetry_Int_Tables_number   1
_chemical_formula_structural   H2O
_chemical_formula_sum   'H384 O192'
_cell_volume   6160.72127017
_cell_formula_units_Z   192
loop_
 _symmetry_equiv_pos_site_id
 _symmetry_equiv_pos_as_xyz
  1  'x, y, z'
loop_
 _atom_type_symbol
 _atom_type_oxidation_number
  H+  1.0
  O2-  -2.0
loop_
 _atom_site_type_symbol
 _atom_site_label
 _atom_site_symmetry_multiplicity
 _atom_site_fract_x
 _atom_site_fract_y
 _atom_site_fract_z
 _atom_site_occupancy
  H+  H0  1  0.62323821  0.73628082  0.32667954  1
  H+  H1  1  0.85978611  0.88567822  0.33254565  1
  H+  H2  1  0.29581852  0.36901901  0.80778545  1
  H+  H3  1  0.63450362  0.28544478  0.31136280  1
  H+  H4  1  0.63453103  0.52454342  0.66894312  1
  H+  H5  1  0.86224523  0.33458936  0.66448835  1
  H+  H6  1  0.53001357  0.38426933  0.67434426  1
  H+  H7  1  0.49573118  0.35392066  0.84386758  1
  H+  H8  1  0.63148606  0.37289962  0.82167654  1
  H+  H9  1  0.65870613  0.31999236  0.59864758  1
  H+  H10  1  0.74049639  0.61312371  0.99360512  1
  H+  H11  1  0.34126505  0.16747726  0.11055632  1
  H+  H12  1  0.61135072  0.88790870  0.01857057  1
  H+  H13  1  0.89285387  0.52862082  0.99149415  1
  H+  H14  1  -0.02580919  0.13615675  0.66031567  1
  H+  H15  1  0.61847989  0.64442028  0.33086188  1
  H+  H16  1  0.12091806  0.24356217  0.67798442  1
  H+  H17  1  0.39912963  0.76872819  0.18174543  1
  H+  H18  1  0.88946557  1.03669115  0.84447844  1
  H+  H19  1  0.17018858  0.86762803  0.62191447  1
  H+  H20  1  0.96839722  0.36168181  0.83802857  1
  H+  H21  1  0.10707551  0.62759414  0.31660051  1
  H+  H22  1  0.84601946  0.36821267  0.32772967  1
  H+  H23  1  0.23040776  0.11927922  0.17612415  1
  H+  H24  1  0.85709232  0.22772920  0.83779073  1
  H+  H25  1  0.75826598  0.86597122  0.02385722  1
  H+  H26  1  0.39319080  0.02689007  0.49992526  1
  H+  H27  1  0.25277315  0.85205265  0.34293908  1
  H+  H28  1  0.14469728  0.28346234  0.32418864  1
  H+  H29  1  0.43648709  0.59391265  0.22802569  1
  H+  H30  1  0.29414219  0.02664947  0.31514907  1
  H+  H31  1  0.60765982  0.22197412  0.67726662  1
  H+  H32  1  0.61119590  0.88951283  0.67407062  1
  H+  H33  1  0.48080448  0.12288190  0.84669657  1
  H+  H34  1  0.46103718  0.45396314  0.53655957  1
  H+  H35  1  0.81846792  0.93228064  0.17236526  1
  H+  H36  1  0.49749421  0.62285790  0.16902426  1
  H+  H37  1  0.86430050  0.15464153  0.01213107  1
  H+  H38  1  0.62713901  0.66819224  0.48773648  1
  H+  H39  1  0.11106852  0.51001506  0.16044301  1
  H+  H40  1  0.56813813  0.36746204  0.08150429  1
  H+  H41  1  0.11231343  0.25468935  0.83851338  1
  H+  H42  1  0.95600198  0.59813514  0.51012313  1
  H+  H43  1  0.52929363  0.14676242  0.17299109  1
  H+  H44  1  0.09674431  0.61438962  0.67563117  1
  H+  H45  1  0.22879943  0.86562989  0.84520647  1
  H+  H46  1  0.62196632  0.10829632  0.65177746  1
  H+  H47  1  0.11704350  0.23130280  0.00968590  1
  H+  H48  1  -0.01908873  0.85424529  0.16757606  1
  H+  H49  1  0.62182744  0.76119640  0.83659923  1
  H+  H50  1  0.62265598  0.02082009  0.64931913  1
  H+  H51  1  0.85737199  0.62974678  0.33849978  1
  H+  H52  1  0.95883173  0.12397308  0.50441584  1
  H+  H53  1  0.61387611  0.55647346  0.52505084  1
  H+  H54  1  0.32812050  0.41430211  0.39418324  1
  H+  H55  1  0.88445426  0.28272828  0.99068734  1
  H+  H56  1  0.18497631  0.37403003  0.23852383  1
  H+  H57  1  0.85279570  0.76408804  0.65163884  1
  H+  H58  1  0.34577747  0.17359903  0.76035668  1
  H+  H59  1  0.50403201  0.33474566  1.02069959  1
  H+  H60  1  0.62550183  0.38250375  0.16513538  1
  H+  H61  1  0.92061135  0.58207160  0.92889928  1
  H+  H62  1  0.61499499  0.14205375  0.15922491  1
  H+  H63  1  0.42291026  0.83200892  0.60425376  1
  H+  H64  1  0.84998535  0.88389649  0.48817712  1
  H+  H65  1  0.58785095  0.90859443  0.38860457  1
  H+  H66  1  0.10596113  0.62602118  0.16284951  1
  H+  H67  1  0.39127391  0.87005622  0.84664959  1
  H+  H68  1  0.87566607  0.73320659  0.83168894  1
  H+  H69  1  0.13123972  0.79514200  0.48515611  1
  H+  H70  1  0.01826490  0.38344312  -0.00284790  1
  H+  H71  1  0.16121262  0.82108748  0.23945098  1
  H+  H72  1  0.64510750  0.04025835  0.17488440  1
  H+  H73  1  0.40410017  0.12056219  0.49985028  1
  H+  H74  1  0.87012249  0.35332988  0.49285343  1
  H+  H75  1  0.64325778  0.09126734  0.37702031  1
  H+  H76  1  -0.04458916  0.33971456  0.31543775  1
  H+  H77  1  0.38180673  0.38497741  0.83485315  1
  H+  H78  1  0.08634164  0.15383852  0.48803961  1
  H+  H79  1  0.98524729  0.90058395  0.71626548  1
  H+  H80  1  0.64632105  0.28911680  0.17362372  1
  H+  H81  1  0.84729809  0.13267222  0.49778472  1
  H+  H82  1  0.53313302  0.38659370  0.16436568  1
  H+  H83  1  0.49693965  0.14789368  0.01539858  1
  H+  H84  1  0.63469632  0.78570124  0.50404285  1
  H+  H85  1  0.33194544  -0.03481732  0.30967038  1
  H+  H86  1  0.39665571  0.26191476  0.66732602  1
  H+  H87  1  0.85082430  0.46265937  0.48583917  1
  H+  H88  1  0.27570263  0.65064051  0.28161572  1
  H+  H89  1  0.37919438  0.15810034  0.17549635  1
  H+  H90  1  0.10625275  0.38846363  0.15778147  1
  H+  H91  1  0.71655125  0.61534702  0.51147932  1
  H+  H92  1  0.35083947  0.64155176  0.47210929  1
  H+  H93  1  0.88275024  0.37289046  0.83955265  1
  H+  H94  1  0.38662975  0.35289343  -0.00591040  1
  H+  H95  1  0.35150375  0.73045165  0.66686023  1
  H+  H96  1  0.86491389  0.39600646  0.00211521  1
  H+  H97  1  0.38328310  0.60689886  0.66212777  1
  H+  H98  1  0.07234962  0.36250163  0.65661077  1
  H+  H99  1  0.00111163  0.90808880  0.68392076  1
  H+  H100  1  0.88908819  0.50844877  0.83676838  1
  H+  H101  1  -0.01632737  0.65101197  0.36834431  1
  H+  H102  1  0.96978733  0.86114827  1.00398247  1
  H+  H103  1  0.07440351  0.40702968  0.05764070  1
  H+  H104  1  0.20602548  0.02447245  0.52126832  1
  H+  H105  1  0.22896055  0.60864285  0.83385826  1
  H+  H106  1  0.53214046  0.40127391  0.48875634  1
  H+  H107  1  0.86723256  0.25347025  0.32248757  1
  H+  H108  1  0.08341791  0.91724014  0.79529687  1
  H+  H109  1  0.76493196  0.12477905  0.34355569  1
  H+  H110  1  0.49085992  0.86094445  0.51081796  1
  H+  H111  1  0.12154723  0.51023297  0.64595082  1
  H+  H112  1  0.62701551  0.34156562  0.49868530  1
  H+  H113  1  0.38665713  0.12401229  0.66501501  1
  H+  H114  1  0.63265563  0.46018930  0.47550580  1
  H+  H115  1  0.22755525  0.86132390  0.99992281  1
  H+  H116  1  0.41459935  0.08805198  0.93754282  1
  H+  H117  1  0.10402829  0.60433341  0.34599690  1
  H+  H118  1  0.78174160  0.18108401  0.16828306  1
  H+  H119  1  0.64218543  0.51807513  0.16335707  1
  H+  H120  1  0.58317515  0.92028198  0.76859800  1
  H+  H121  1  0.11906174  0.88861840  0.84998621  1
  H+  H122  1  0.25233385  0.36558973  0.65373148  1
  H+  H123  1  0.48318896  0.64357438  0.85853019  1
  H+  H124  1  0.77015388  0.13670587  0.84205098  1
  H+  H125  1  0.13440267  0.02342827  1.00086526  1
  H+  H126  1  0.96319412  0.59955163  0.66110722  1
  H+  H127  1  0.84249042  0.70959650  0.48932394  1
  H+  H128  1  0.90771380  0.09474518  0.56779149  1
  H+  H129  1  0.65781952  0.07655793  -0.05690598  1
  H+  H130  1  0.88395802  0.12484203  0.84494404  1
  H+  H131  1  0.77827652  0.63212656  0.15541690  1
  H+  H132  1  0.63362186  0.77026078  0.99680282  1
  H+  H133  1  0.75122958  0.37149895  0.83885246  1
  H+  H134  1  0.11301254  0.88644692  0.00746599  1
  H+  H135  1  0.14757930  0.74284032  0.67032737  1
  H+  H136  1  0.49313382  0.16560953  0.25921195  1
  H+  H137  1  0.23272138  0.12957959  0.32565189  1
  H+  H138  1  0.25289560  0.35459514  0.48858268  1
  H+  H139  1  0.36076549  0.95948479  0.17003167  1
  H+  H140  1  0.27184628  0.90635904  0.47731207  1
  H+  H141  1  0.39389219  0.37275073  0.50316919  1
  H+  H142  1  0.00529275  0.35034089  0.15257121  1
  H+  H143  1  0.47689384  0.86010090  1.00335584  1
  H+  H144  1  0.68190537  0.83598411  0.25160341  1
  H+  H145  1  0.40334305  0.26923394  0.84157100  1
  H+  H146  1  0.50173748  0.60016613  0.51755748  1
  H+  H147  1  0.28264846  0.14627705  0.82107645  1
  H+  H148  1  0.08681927  0.91658415  0.06798501  1
  H+  H149  1  0.06957192  0.69571478  0.54987498  1
  H+  H150  1  0.20306391  0.57604793  0.31697827  1
  H+  H151  1  0.89960673  0.13167353  0.32092447  1
  H+  H152  1  0.72303440  0.61019720  0.32005400  1
  H+  H153  1  0.11326544  0.15212890  0.67674600  1
  H+  H154  1  0.63556487  0.36000921  0.65647755  1
  H+  H155  1  0.63221166  0.46018083  0.82598985  1
  H+  H156  1  0.39824021  0.77683268  0.51079128  1
  H+  H157  1  0.37176084  0.46524332  0.66733792  1
  H+  H158  1  0.53832750  0.90442457  0.17376851  1
  H+  H159  1  0.12187377  -0.02263513  0.16446348  1
  H+  H160  1  0.63268157  0.52304917  0.31802894  1
  H+  H161  1  0.84085171  0.41763773  0.77506093  1
  H+  H162  1  0.47460702  0.60413553  0.00457315  1
  H+  H163  1  0.86150797  0.47841853  0.15268743  1
  H+  H164  1  0.47556597  0.37270237  0.32154228  1
  H+  H165  1  0.38947201  0.77988429  0.84537597  1
  H+  H166  1  0.49031217  0.62992960  0.32349126  1
  H+  H167  1  0.36938971  0.25002950  0.33558579  1
  H+  H168  1  0.87117210  0.63576780  0.00132576  1
  H+  H169  1  0.09312918  0.38111045  0.49434147  1
  H+  H170  1  0.84745385  0.86211706  0.03076801  1
  H+  H171  1  0.76432943  0.37169502  0.67187199  1
  H+  H172  1  0.97454482  0.86323021  0.31338824  1
  H+  H173  1  0.39385356  0.86899857  0.66298443  1
  H+  H174  1  0.37308973  1.10377820  -0.00178446  1
  H+  H175  1  0.86493643  0.25612316  0.49808307  1
  H+  H176  1  0.62838388  0.01216728  0.33576908  1
  H+  H177  1  0.61622328  0.63267903  1.00653859  1
  H+  H178  1  0.22447704  0.46516565  0.20962374  1
  H+  H179  1  0.88772000  0.77266531  0.32147171  1
  H+  H180  1  0.73241419  0.86536135  0.31564621  1
  H+  H181  1  0.88478703  0.76854177  1.00184538  1
  H+  H182  1  0.62857577  0.64213582  0.15481558  1
  H+  H183  1  0.64792428  0.58038727  0.83879581  1
  H+  H184  1  0.39160283  0.85274961  0.18852948  1
  H+  H185  1  0.63243296  0.11385668  0.84704451  1
  H+  H186  1  0.77060689  0.63315944  0.68140803  1
  H+  H187  1  0.13932825  0.03237946  0.85373019  1
  H+  H188  1  0.83957474  0.65995527  0.06389359  1
  H+  H189  1  0.40540586  0.08415728  0.24693440  1
  H+  H190  1  0.12375535  0.28584059  0.50932484  1
  H+  H191  1  0.52435434  0.89007516  0.82932257  1
  H+  H192  1  0.38799380  0.27980610  0.17647309  1
  H+  H193  1  0.66564484  0.51845578  0.98591972  1
  H+  H194  1  0.11580105  0.98945554  0.32459894  1
  H+  H195  1  0.11682389  0.63977604  -0.00688608  1
  H+  H196  1  0.89896288  0.60688999  0.83606480  1
  H+  H197  1  0.29362573  0.15554464  0.67851861  1
  H+  H198  1  0.51960426  0.88308920  0.67643378  1
  H+  H199  1  0.79410814  0.63945234  0.82940741  1
  H+  H200  1  0.39505927  0.54832983  0.32623113  1
  H+  H201  1  0.14816994  0.04448533  0.67424319  1
  H+  H202  1  0.14709335  0.12206200  0.52541325  1
  H+  H203  1  0.62289757  0.23254410  0.83290602  1
  H+  H204  1  0.37205426  0.98782774  0.67789728  1
  H+  H205  1  0.97802085  0.56624355  0.30588158  1
  H+  H206  1  0.20668393  0.96395320  0.59909758  1
  H+  H207  1  0.64565951  0.38229491  0.99159472  1
  H+  H208  1  0.01261235  0.63425501  0.16902939  1
  H+  H209  1  0.61025610  0.64137086  0.68696121  1
  H+  H210  1  0.22562844  0.36294820  0.98792764  1
  H+  H211  1  0.08343994  0.45090782  0.33755157  1
  H+  H212  1  0.13851769  0.60729048  0.83317958  1
  H+  H213  1  -0.05455575  0.84380488  0.49552406  1
  H+  H214  1  0.28496355  0.11567887  0.52737914  1
  H+  H215  1  0.10443270  0.37507302  0.33508251  1
  H+  H216  1  0.62227853  0.88973950  0.32625657  1
  H+  H217  1  0.36732066  0.88127653  0.01526271  1
  H+  H218  1  0.10625968  0.77427010  0.34004586  1
  H+  H219  1  0.26948464  0.28921266  0.45192242  1
  H+  H220  1  0.39566424  0.24604821  0.48782840  1
  H+  H221  1  0.86464190  0.89506011  0.83232203  1
  H+  H222  1  0.36772059  0.98437910  0.83575629  1
  H+  H223  1  0.39284791  0.37134553  0.17214969  1
  H+  H224  1  0.28969895  0.40799128  0.16070311  1
  H+  H225  1  0.62598834  0.10932612  0.49186492  1
  H+  H226  1  0.11499889  0.47212458  0.81764360  1
  H+  H227  1  0.11417681  0.14035106  0.01187993  1
  H+  H228  1  0.11103296  0.71914420  0.82993540  1
  H+  H229  1  0.72551163  0.87199612  0.50669444  1
  H+  H230  1  0.86232138  0.07293800  0.17090825  1
  H+  H231  1  0.13834532  0.77160249  0.99283493  1
  H+  H232  1  0.33391089  0.83959932  0.33738453  1
  H+  H233  1  0.56076619  0.16928401  0.37363441  1
  H+  H234  1  0.13524151  0.11870158  0.84793203  1
  H+  H235  1  0.64874072  0.08038090  0.55666336  1
  H+  H236  1  0.87646823  0.60291537  0.66125547  1
  H+  H237  1  0.88906760  0.61952060  0.16957376  1
  H+  H238  1  0.51714778  0.13599400  0.67987848  1
  H+  H239  1  -0.00300384  0.37701266  0.66869525  1
  H+  H240  1  0.36601147  0.40159017  0.33339603  1
  H+  H241  1  0.13279072  0.51768964  0.98656063  1
  H+  H242  1  0.12144652  0.88792447  0.16397881  1
  H+  H243  1  0.22140256  0.63622887  0.49368854  1
  H+  H244  1  0.37470354  0.37537476  0.66511218  1
  H+  H245  1  0.85407168  0.45843163  0.67016804  1
  H+  H246  1  0.89761148  0.15530679  0.65650033  1
  H+  H247  1  0.03400656  0.15924031  0.33161785  1
  H+  H248  1  0.06864683  0.96367494  0.47152913  1
  H+  H249  1  0.38343110  0.48672258  0.15472392  1
  H+  H250  1  0.97661451  0.13081286  0.99861633  1
  H+  H251  1  0.23185668  0.37689589  0.32758228  1
  H+  H252  1  0.75678054  0.13297755  0.49293851  1
  H+  H253  1  0.63566482  0.77880971  0.66309147  1
  H+  H254  1  0.27192479  0.62498665  -0.00177774  1
  H+  H255  1  0.29172423  0.89089414  0.68345250  1
  H+  H256  1  0.60981843  0.97662902  0.48388861  1
  H+  H257  1  0.38286189  0.60228190  0.00299973  1
  H+  H258  1  0.08755991  0.88598790  0.46556041  1
  H+  H259  1  0.39023860  0.11969305  0.84080482  1
  H+  H260  1  0.74611488  0.41980095  -0.01512928  1
  H+  H261  1  0.40742329  0.68664311  0.32835144  1
  H+  H262  1  0.22590496  0.84972222  0.18154003  1
  H+  H263  1  0.47549064  0.61682628  0.67445081  1
  H+  H264  1  0.61777903  0.89248170  0.48962503  1
  H+  H265  1  0.13370652  0.86832925  0.32187107  1
  H+  H266  1  0.76761081  0.90212101  0.67768501  1
  H+  H267  1  0.36220022  0.46659661  1.00464246  1
  H+  H268  1  0.76187787  0.38034996  0.32677716  1
  H+  H269  1  0.11187871  0.65296735  0.50741245  1
  H+  H270  1  0.37149121  0.64683317  0.84782532  1
  H+  H271  1  0.85727927  0.97725683  0.49250128  1
  H+  H272  1  0.76981308  0.39425424  0.15508339  1
  H+  H273  1  0.11012979  0.07744650  0.51783480  1
  H+  H274  1  -0.02394146  0.86771100  0.85861499  1
  H+  H275  1  0.60802572  0.21603731  0.47265737  1
  H+  H276  1  0.73394900  0.88360948  0.84714391  1
  H+  H277  1  0.71735623  0.34579881  0.49872969  1
  H+  H278  1  0.26852663  0.13295032  1.01897769  1
  H+  H279  1  0.88128877  0.49951675  0.32299297  1
  H+  H280  1  0.61679548  0.67264340  0.84612491  1
  H+  H281  1  0.07173938  0.19201042  0.16495378  1
  H+  H282  1  0.61203631  0.38791075  0.32335410  1
  H+  H283  1  0.18301281  0.39189389  0.66875155  1
  H+  H284  1  0.29200803  0.63884595  0.14456514  1
  H+  H285  1  0.59276374  0.14034180  0.31781028  1
  H+  H286  1  0.01019254  0.14073651  0.83056177  1
  H+  H287  1  0.51958121  0.12859535  0.47512848  1
  H+  H288  1  0.35958474  0.21867831  0.01317897  1
  H+  H289  1  0.66576844  0.59587835  0.61609285  1
  H+  H290  1  0.67133032  0.34786616  0.24940050  1
  H+  H291  1  0.91837834  0.10482618  0.93988127  1
  H+  H292  1  0.85454367  0.99208132  0.67719803  1
  H+  H293  1  0.11413985  0.72555330  0.17108784  1
  H+  H294  1  0.02917302  0.64191094  -0.00519148  1
  H+  H295  1  0.66456084  0.83744420  0.60243797  1
  H+  H296  1  0.42388760  0.32321706  0.93772487  1
  H+  H297  1  0.57892214  0.40950084  0.38509640  1
  H+  H298  1  0.37913464  0.63902679  0.16086393  1
  H+  H299  1  0.29069917  0.67081656  0.71925908  1
  H+  H300  1  0.38822053  0.78601165  0.26729813  1
  H+  H301  1  0.64380855  0.88418908  0.84621879  1
  H+  H302  1  0.42181072  0.59699987  0.91691984  1
  H+  H303  1  0.38031133  0.16796727  0.33457369  1
  H+  H304  1  0.66914608  0.57839512  0.22262977  1
  H+  H305  1  0.15647903  0.87363615  0.53034435  1
  H+  H306  1  0.58516834  0.68172456  0.74301807  1
  H+  H307  1  0.35092906  0.18779072  0.42940195  1
  H+  H308  1  0.07491093  0.65034323  0.73746090  1
  H+  H309  1  0.17237394  0.83365160  0.90622404  1
  H+  H310  1  0.13551009  0.10900244  0.17211132  1
  H+  H311  1  0.43225504  0.33138866  0.60701934  1
  H+  H312  1  0.59313118  0.66723153  0.06664842  1
  H+  H313  1  0.05683771  0.39126436  0.42993748  1
  H+  H314  1  0.14131412  0.90775148  0.72364021  1
  H+  H315  1  0.34481065  0.92720245  0.77570227  1
  H+  H316  1  0.79425612  0.87214993  0.10565974  1
  H+  H317  1  0.84242358  0.61947141  0.49389587  1
  H+  H318  1  0.12007514  0.15214343  0.34033012  1
  H+  H319  1  0.83621997  0.19485607  0.06751447  1
  H+  H320  1  0.16536889  0.95617458  0.72087150  1
  H+  H321  1  0.34984060  0.70003440  0.41980079  1
  H+  H322  1  0.82815497  0.91624377  0.39010162  1
  H+  H323  1  0.94767241  0.06980288  0.16591423  1
  H+  H324  1  0.16451345  0.57349251  0.92582367  1
  H+  H325  1  0.07133944  0.18747723  0.42580451  1
  H+  H326  1  0.58992490  0.68335054  0.42571788  1
  H+  H327  1  0.91510219  0.34042442  0.92950057  1
  H+  H328  1  0.16974453  0.34682345  0.56754562  1
  H+  H329  1  0.89597594  0.27663150  0.22467359  1
  H+  H330  1  0.59499241  0.41237329  0.73116064  1
  H+  H331  1  0.45032013  0.56581654  0.58055009  1
  H+  H332  1  0.55050218  0.25357353  0.03973904  1
  H+  H333  1  0.36740753  0.97043414  0.01577660  1
  H+  H334  1  0.86927450  0.72347784  0.15548134  1
  H+  H335  1  0.84238828  0.67177601  0.73341925  1
  H+  H336  1  0.67021221  0.84152892  0.94368454  1
  H+  H337  1  0.06912535  0.15399386  0.09950538  1
  H+  H338  1  0.82661583  0.15951668  0.40093604  1
  H+  H339  1  0.68544477  0.57361235  0.90331201  1
  H+  H340  1  0.90704018  0.83369867  0.91143096  1
  H+  H341  1  0.63273614  0.02519112  0.84391941  1
  H+  H342  1  0.63885212  0.73767029  0.15434014  1
  H+  H343  1  0.42011002  0.83432876  0.94272760  1
  H+  H344  1  0.36034756  0.71201279  0.00719063  1
  H+  H345  1  0.61070700  0.97681958  0.01376082  1
  H+  H346  1  0.91394256  0.58240932  0.23002351  1
  H+  H347  1  0.58344536  0.17011801  0.77509075  1
  H+  H348  1  0.41251183  0.34231158  0.26403863  1
  H+  H349  1  0.18871218  0.08873352  0.61235730  1
  H+  H350  1  0.67263584  0.10007835  0.23394554  1
  H+  H351  1  0.88119388  0.81481890  0.55486144  1
  H+  H352  1  0.33583340  0.90566989  0.10878102  1
  H+  H353  1  0.22338500  0.77811190  0.62176966  1
  H+  H354  1  0.82330273  0.65476556  0.39717872  1
  H+  H355  1  0.68702840  0.35846410  0.89530859  1
  H+  H356  1  0.58576893  0.93319123  0.10951174  1
  H+  H357  1  0.17125995  0.57469228  0.21302715  1
  H+  H358  1  0.15391136  0.32787237  0.90087965  1
  H+  H359  1  0.56156029  0.17752113  0.07981110  1
  H+  H360  1  0.34075734  0.91782630  0.42984844  1
  H+  H361  1  0.16861909  0.08958801  0.94464838  1
  H+  H362  1  0.03907151  0.69086621  0.42746617  1
  H+  H363  1  0.83423999  0.42414167  0.06310719  1
  H+  H364  1  -0.03502990  0.35079708  0.49473929  1
  H+  H365  1  0.89468339  0.56247901  0.56694866  1
  H+  H366  1  0.02246448  0.62671026  0.83035909  1
  H+  H367  1  0.71752083  0.11064049  1.00095846  1
  H+  H368  1  0.85217359  0.85331470  0.65009590  1
  H+  H369  1  0.91488703  0.82356577  0.22280324  1
  H+  H370  1  0.07642914  0.17465484  0.77095489  1
  H+  H371  1  0.21088371  0.60052312  0.64783174  1
  H+  H372  1  0.13518025  0.36349515  0.98910163  1
  H+  H373  1  0.92258717  0.08698067  0.26731159  1
  H+  H374  1  0.83540185  0.92707783  0.77273513  1
  H+  H375  1  0.41763910  0.08948523  0.60507853  1
  H+  H376  1  0.17282651  0.09875817  0.26615863  1
  H+  H377  1  0.16351802  0.59125057  0.55302361  1
  H+  H378  1  0.33109430  0.40733352  0.06235085  1
  H+  H379  1  0.12167223  0.35750082  0.83595473  1
  H+  H380  1  0.82316083  0.40572233  0.42353491  1
  H+  H381  1  0.36109630  0.66952037  0.78047692  1
  H+  H382  1  0.06997562  0.92246832  0.37823175  1
  H+  H383  1  0.07616451  0.40624542  0.76112640  1
  O2-  O384  1  0.05915232  0.13886600  0.14451492  1
  O2-  O385  1  0.06294461  0.18858232  0.47148979  1
  O2-  O386  1  0.07449687  0.17265369  0.81661785  1
  O2-  O387  1  0.06164982  0.39803279  0.13868922  1
  O2-  O388  1  0.05081070  0.39371605  0.47470868  1
  O2-  O389  1  0.08329250  0.40959908  0.80586353  1
  O2-  O390  1  0.07789350  0.66365368  0.15558191  1
  O2-  O391  1  0.07266462  0.68093330  0.50760727  1
  O2-  O392  1  0.08399512  0.65997424  0.81333788  1
  O2-  O393  1  0.09277858  0.91830668  0.14713805  1
  O2-  O394  1  0.04546475  0.90609890  0.45479986  1
  O2-  O395  1  0.08691779  0.92038218  0.83959296  1
  O2-  O396  1  0.33931509  0.17360117  0.15588620  1
  O2-  O397  1  0.35664397  0.18728606  0.47475661  1
  O2-  O398  1  0.34281841  0.17067208  0.80801655  1
  O2-  O399  1  0.34634863  0.42488879  0.14229961  1
  O2-  O400  1  0.29809122  0.34911076  0.46482084  1
  O2-  O401  1  0.35065224  0.41478449  0.82259246  1
  O2-  O402  1  0.35223954  0.67527383  0.15540321  1
  O2-  O403  1  0.32909442  0.67995134  0.46207569  1
  O2-  O404  1  0.33950443  0.67145909  0.82077419  1
  O2-  O405  1  0.33176834  0.90070783  0.15479190  1
  O2-  O406  1  0.33433636  0.93075629  0.47257337  1
  O2-  O407  1  0.33840742  0.92346253  0.82094558  1
  O2-  O408  1  0.57977748  0.16810168  0.14551339  1
  O2-  O409  1  0.57614678  0.15857231  0.45249503  1
  O2-  O410  1  0.58407285  0.17120542  0.82058458  1
  O2-  O411  1  0.58956204  0.41082718  0.14406039  1
  O2-  O412  1  0.58331131  0.40386284  0.46700917  1
  O2-  O413  1  0.59804459  0.40242332  0.80795836  1
  O2-  O414  1  0.60031940  0.67500423  0.14116493  1
  O2-  O415  1  0.58755550  0.68636356  0.47117699  1
  O2-  O416  1  0.58944576  0.69825937  0.82279579  1
  O2-  O417  1  0.59199167  0.94672933  0.15390959  1
  O2-  O418  1  0.58366728  0.91593202  0.46965999  1
  O2-  O419  1  0.58499514  0.92107822  0.81427554  1
  O2-  O420  1  0.83186541  0.23048166  0.14743282  1
  O2-  O421  1  0.81948736  0.16425475  0.47932602  1
  O2-  O422  1  0.83094242  0.16543734  0.82813343  1
  O2-  O423  1  0.82874413  0.42006292  0.13616784  1
  O2-  O424  1  0.82305947  0.40287061  0.46918229  1
  O2-  O425  1  0.84283131  0.42133735  0.81962532  1
  O2-  O426  1  0.83948686  0.66077628  0.14113734  1
  O2-  O427  1  0.81129243  0.64724822  0.47619776  1
  O2-  O428  1  0.85258772  0.67564527  0.81227891  1
  O2-  O429  1  0.78695018  0.87045065  0.15873483  1
  O2-  O430  1  0.82426611  0.91904107  0.47439996  1
  O2-  O431  1  0.83596349  0.92714431  0.81824976  1
  O2-  O432  1  0.16992909  0.08573134  0.19110115  1
  O2-  O433  1  0.24206048  0.06614895  0.55177165  1
  O2-  O434  1  0.17002018  0.09461011  0.86429580  1
  O2-  O435  1  0.19882721  0.40472694  0.19812252  1
  O2-  O436  1  0.16421953  0.34622067  0.52216402  1
  O2-  O437  1  0.14599152  0.32137108  0.85440923  1
  O2-  O438  1  0.14822859  0.57169438  0.17119602  1
  O2-  O439  1  0.16224999  0.60789999  0.51014389  1
  O2-  O440  1  0.16686929  0.57341352  0.84464201  1
  O2-  O441  1  0.16409787  0.82096251  0.19376522  1
  O2-  O442  1  0.15630076  0.85821994  0.48566026  1
  O2-  O443  1  0.16833415  0.83416314  0.86036834  1
  O2-  O444  1  0.45157707  0.13668416  0.22595196  1
  O2-  O445  1  0.42996053  0.08756458  0.51600386  1
  O2-  O446  1  0.41944779  0.09090372  0.86105854  1
  O2-  O447  1  0.42010660  0.34024991  0.19155449  1
  O2-  O448  1  0.44906106  0.39428739  0.52545672  1
  O2-  O449  1  0.43709609  0.32640962  0.86206821  1
  O2-  O450  1  0.43617960  0.58834161  0.18289124  1
  O2-  O451  1  0.46796511  0.54847152  0.54279336  1
  O2-  O452  1  0.42371553  0.61552669  0.87362100  1
  O2-  O453  1  0.42302105  0.82504588  0.20510929  1
  O2-  O454  1  0.43754388  0.82679436  0.53538556  1
  O2-  O455  1  0.42242717  0.84008454  0.86063565  1
  O2-  O456  1  0.67714687  0.10339404  0.18964390  1
  O2-  O457  1  0.65673795  0.08176036  0.51038606  1
  O2-  O458  1  0.66154814  0.08305729  0.86315703  1
  O2-  O459  1  0.67324774  0.34869994  0.18791288  1
  O2-  O460  1  0.65718012  0.31181971  0.51392536  1
  O2-  O461  1  0.68641662  0.33800946  0.85310277  1
  O2-  O462  1  0.67302490  0.57965395  0.17734394  1
  O2-  O463  1  0.66573685  0.61033523  0.53456698  1
  O2-  O464  1  0.69049295  0.56947317  0.85746915  1
  O2-  O465  1  0.69576779  0.83687846  0.17512706  1
  O2-  O466  1  0.66590496  0.84329828  0.52414381  1
  O2-  O467  1  0.67386313  0.85425004  0.86359729  1
  O2-  O468  1  0.88924291  0.04031543  0.18449179  1
  O2-  O469  1  0.90128681  0.08654252  0.52243193  1
  O2-  O470  1  0.92148141  0.09794673  0.85710664  1
  O2-  O471  1  0.90740510  0.25382793  0.18614551  1
  O2-  O472  1  0.89937027  0.32130368  0.50934650  1
  O2-  O473  1  0.91070367  0.33643452  0.85588241  1
  O2-  O474  1  0.92321132  0.59164010  0.18563101  1
  O2-  O475  1  0.89457469  0.56297793  0.52103522  1
  O2-  O476  1  0.92620835  0.57503020  0.85226061  1
  O2-  O477  1  0.91933326  0.81894422  0.17804696  1
  O2-  O478  1  0.88477536  0.81203799  0.50885183  1
  O2-  O479  1  0.91301429  0.83663621  0.86602672  1
  O2-  O480  1  0.17203172  0.09926450  0.31205232  1
  O2-  O481  1  0.17069302  0.09895249  0.65274452  1
  O2-  O482  1  0.16590107  0.08613645  0.99003694  1
  O2-  O483  1  0.17144972  0.34549234  0.31115202  1
  O2-  O484  1  0.18534541  0.34668623  0.64567922  1
  O2-  O485  1  0.16484037  0.33266071  0.97244068  1
  O2-  O486  1  0.23058140  0.58857140  0.27734163  1
  O2-  O487  1  0.15023074  0.57162166  0.63329702  1
  O2-  O488  1  0.16533158  0.57775870  0.97093381  1
  O2-  O489  1  0.15134941  0.82390520  0.31640263  1
  O2-  O490  1  0.19653962  0.79737507  0.65156747  1
  O2-  O491  1  0.16933727  0.83587349  0.98179859  1
  O2-  O492  1  0.32602478  0.01082854  0.28740040  1
  O2-  O493  1  0.41297863  0.08633552  0.64982663  1
  O2-  O494  1  0.41202960  0.08272744  0.98342507  1
  O2-  O495  1  0.41271458  0.34415920  0.31037002  1
  O2-  O496  1  0.43051176  0.32878427  0.65157338  1
  O2-  O497  1  0.41497557  0.31895543  0.98318049  1
  O2-  O498  1  0.42933307  0.60637742  0.30838631  1
  O2-  O499  1  0.41865730  0.58043350  0.65418330  1
  O2-  O500  1  0.41439309  0.57100000  0.98966625  1
  O2-  O501  1  0.34912041  0.75268032  0.30504476  1
  O2-  O502  1  0.41351951  0.82830895  0.65034381  1
  O2-  O503  1  0.41606689  0.82973850  0.98784989  1
  O2-  O504  1  0.65391091  0.07926072  0.33555923  1
  O2-  O505  1  0.64406484  0.07639615  0.62807729  1
  O2-  O506  1  0.65702129  0.07339118  0.98830351  1
  O2-  O507  1  0.66892669  0.34710427  0.30038549  1
  O2-  O508  1  0.66175827  0.32452365  0.64355983  1
  O2-  O509  1  0.69509337  0.41757740  0.96467566  1
  O2-  O510  1  0.66391835  0.58354338  0.30291751  1
  O2-  O511  1  0.66316328  0.58819860  0.66083743  1
  O2-  O512  1  0.67960005  0.57774350  0.97728059  1
  O2-  O513  1  0.67281101  0.83360015  0.29715910  1
  O2-  O514  1  0.66503179  0.83908917  0.64800401  1
  O2-  O515  1  0.66656933  0.83340022  0.98862650  1
  O2-  O516  1  0.94760859  0.13086888  0.29934421  1
  O2-  O517  1  0.91474330  0.11190690  0.64484319  1
  O2-  O518  1  0.91683913  0.10814204  0.98481920  1
  O2-  O519  1  0.89535667  0.31026534  0.30033186  1
  O2-  O520  1  0.89528672  0.30751531  0.64584988  1
  O2-  O521  1  0.91881302  0.34335266  0.97559938  1
  O2-  O522  1  0.92202492  0.56224856  0.31014150  1
  O2-  O523  1  0.90403921  0.57061927  0.64419806  1
  O2-  O524  1  0.92149499  0.58886375  0.97435012  1
  O2-  O525  1  0.91253912  0.83017044  0.30266112  1
  O2-  O526  1  0.85576698  0.80984040  0.62491714  1
  O2-  O527  1  0.90823214  0.83083634  0.99132590  1
  O2-  O528  1  0.08541301  0.17220362  0.02712984  1
  O2-  O529  1  0.09220705  0.18569660  0.35331528  1
  O2-  O530  1  0.08488160  0.18334138  0.69279695  1
  O2-  O531  1  0.07977337  0.41054002  0.01263812  1
  O2-  O532  1  0.06087367  0.39136938  0.34976661  1
  O2-  O533  1  0.06057182  0.40434780  0.67618879  1
  O2-  O534  1  0.09055061  0.67367047  0.00766572  1
  O2-  O535  1  0.02418736  0.70556748  0.38807191  1
  O2-  O536  1  0.07284421  0.65020431  0.69145341  1
  O2-  O537  1  0.08256436  0.91670866  0.02267411  1
  O2-  O538  1  0.08398302  0.92668142  0.33408794  1
  O2-  O539  1  0.15680371  0.90586138  0.59705468  1
  O2-  O540  1  0.32992447  0.16009361  0.03251019  1
  O2-  O541  1  0.34357447  0.18825724  0.35184646  1
  O2-  O542  1  0.35337678  0.17875440  0.69122272  1
  O2-  O543  1  0.32883914  0.40421245  0.01708258  1
  O2-  O544  1  0.33509028  0.43044537  0.35063300  1
  O2-  O545  1  0.33743003  0.40210363  0.67103341  1
  O2-  O546  1  0.32998267  0.65000288  0.01673043  1
  O2-  O547  1  0.40164697  0.73472882  0.34761912  1
  O2-  O548  1  0.31373592  0.66737387  0.67986575  1
  O2-  O549  1  0.33737313  0.91152832  0.03274502  1
  O2-  O550  1  0.31594912  0.88077069  0.35091298  1
  O2-  O551  1  0.35162109  0.92902838  0.69627026  1
  O2-  O552  1  0.55138480  0.19490163  0.03692585  1
  O2-  O553  1  0.56430180  0.17348895  0.32821890  1
  O2-  O554  1  0.57766710  0.16305169  0.69494187  1
  O2-  O555  1  0.55459534  0.33508460  0.04030590  1
  O2-  O556  1  0.57821077  0.41519905  0.34035931  1
  O2-  O557  1  0.59298620  0.41866905  0.68584159  1
  O2-  O558  1  0.58660827  0.66314574  0.02080131  1
  O2-  O559  1  0.59127367  0.67730445  0.34645905  1
  O2-  O560  1  0.58096795  0.67434873  0.69808756  1
  O2-  O561  1  0.57871234  0.91623671  0.03147104  1
  O2-  O562  1  0.59153377  0.91798421  0.34389408  1
  O2-  O563  1  0.58021039  0.91833851  0.69065843  1
  O2-  O564  1  0.83047407  0.18361842  0.02338935  1
  O2-  O565  1  0.82679921  0.15818438  0.35548405  1
  O2-  O566  1  0.88269596  0.23996014  0.68251573  1
  O2-  O567  1  0.83831841  0.42987193  0.01701084  1
  O2-  O568  1  0.82257012  0.40395159  0.34477719  1
  O2-  O569  1  0.82558190  0.39853896  0.68543955  1
  O2-  O570  1  0.83865465  0.66389701  0.01838787  1
  O2-  O571  1  0.82765164  0.65998184  0.35178399  1
  O2-  O572  1  0.83406797  0.66437948  0.68835016  1
  O2-  O573  1  0.81104358  0.88393785  0.04973027  1
  O2-  O574  1  0.82853260  0.91553184  0.34517200  1
  O2-  O575  1  0.82827641  0.93264913  0.69278296  1
