# generated using pymatgen
data_H2O
_symmetry_space_group_name_H-M   'P 1'
_cell_length_a   17.99336467
_cell_length_b   17.99828319
_cell_length_c   22.01183504
_cell_angle_alpha   90.00766751
_cell_angle_beta   89.98591395
_cell_angle_gamma   120.01477649
_symmetry_Int_Tables_number   1
_chemical_formula_structural   H2O
_chemical_formula_sum   'H384 O192'
_cell_volume   6172.56463233
_cell_formula_units_Z   192
loop_
 _symmetry_equiv_pos_site_id
 _symmetry_equiv_pos_as_xyz
  1  'x, y, z'
loop_
 _atom_type_symbol
 _atom_type_oxidation_number
  H+  1.0
  O2-  -2.0
loop_
 _atom_site_type_symbol
 _atom_site_label
 _atom_site_symmetry_multiplicity
 _atom_site_fract_x
 _atom_site_fract_y
 _atom_site_fract_z
 _atom_site_occupancy
  H+  H0  1  0.84157631  0.41181427  0.73384487  1
  H+  H1  1  0.16771398  0.07881495  0.56680469  1
  H+  H2  1  0.61295406  0.86474817  0.67972043  1
  H+  H3  1  0.63321417  0.53443799  0.82332682  1
  H+  H4  1  0.86739650  0.70841360  0.83530618  1
  H+  H5  1  0.88509322  1.02401169  0.49879623  1
  H+  H6  1  0.12928636  0.35182927  0.32641523  1
  H+  H7  1  0.73940691  0.86696470  0.49479323  1
  H+  H8  1  0.87549956  0.23543804  0.51116973  1
  H+  H9  1  0.88298598  0.36123499  0.16799806  1
  H+  H10  1  0.12285146  0.64077709  0.66993953  1
  H+  H11  1  0.38435476  0.85826035  0.16740412  1
  H+  H12  1  0.46330197  0.09171780  0.85036237  1
  H+  H13  1  0.62911593  0.26604978  0.17067378  1
  H+  H14  1  0.89479863  0.51320960  0.66113063  1
  H+  H15  1  0.38701263  0.86308887  0.32516066  1
  H+  H16  1  0.36741094  0.63966381  0.15975601  1
  H+  H17  1  0.89559362  0.60274930  0.66252050  1
  H+  H18  1  0.64489252  0.76552735  -0.00239617  1
  H+  H19  1  0.60530437  0.47625445  0.15858706  1
  H+  H20  1  0.02424253  0.62976183  0.66493160  1
  H+  H21  1  0.91187486  0.31141555  0.89547616  1
  H+  H22  1  0.12705640  0.89531844  0.00791595  1
  H+  H23  1  0.94309871  0.71701667  0.70797363  1
  H+  H24  1  0.49026011  0.37071336  0.33005008  1
  H+  H25  1  0.86128106  0.90778339  0.68810623  1
  H+  H26  1  0.38201606  0.63098691  0.50579723  1
  H+  H27  1  0.61391989  0.40662249  0.82888210  1
  H+  H28  1  0.10108593  0.59754609  0.51709920  1
  H+  H29  1  0.63608299  0.02452199  0.16256158  1
  H+  H30  1  0.87559838  0.64142673  0.48752805  1
  H+  H31  1  0.12148031  0.36407116  0.16704626  1
  H+  H32  1  0.48978286  0.62473896  -0.00739505  1
  H+  H33  1  0.07594942  0.40908779  0.43831951  1
  H+  H34  1  0.63851425  0.87195339  0.85072517  1
  H+  H35  1  0.39732616  0.53799729  -0.01332899  1
  H+  H36  1  0.14297640  0.37208730  0.66020865  1
  H+  H37  1  0.28687814  0.32884843  0.10252872  1
  H+  H38  1  0.62430597  0.63555550  0.33675531  1
  H+  H39  1  0.89268556  0.80041270  0.18364695  1
  H+  H40  1  1.02953848  0.89070014  0.47957041  1
  H+  H41  1  0.38173669  0.60296049  0.66495412  1
  H+  H42  1  0.86484187  0.89479801  0.47278259  1
  H+  H43  1  0.69097291  0.62992321  0.19766292  1
  H+  H44  1  0.77605240  0.12232926  0.16543684  1
  H+  H45  1  0.11857204  0.47485458  0.67870818  1
  H+  H46  1  0.83458366  0.12475606  0.34322730  1
  H+  H47  1  0.01810082  0.36998813  0.34528408  1
  H+  H48  1  0.88959307  0.09066154  0.25684246  1
  H+  H49  1  0.37039356  0.96645180  0.49292605  1
  H+  H50  1  0.52537516  0.13033549  0.15312539  1
  H+  H51  1  0.85671372  0.38493945  0.33678703  1
  H+  H52  1  0.60390607  0.97397169  0.67732634  1
  H+  H53  1  0.60810031  0.47773287  -0.00349842  1
  H+  H54  1  0.03877677  0.63953531  0.15987675  1
  H+  H55  1  0.04066025  0.37028328  -0.02137780  1
  H+  H56  1  0.51930097  0.38855708  0.15473052  1
  H+  H57  1  0.38027592  0.36134411  0.17121422  1
  H+  H58  1  1.04168146  0.88746787  0.82774725  1
  H+  H59  1  0.06912383  0.15389432  0.38827687  1
  H+  H60  1  0.38062178  0.10880824  0.15696859  1
  H+  H61  1  0.13243016  0.51582193  0.83873093  1
  H+  H62  1  0.61353828  0.64792759  0.81857604  1
  H+  H63  1  0.85897929  0.94575755  0.82151625  1
  H+  H64  1  0.38943780  0.11673226  0.00458780  1
  H+  H65  1  0.12476417  0.35972308  -0.07836691  1
  H+  H66  1  0.61528104  0.38231249  0.34244138  1
  H+  H67  1  0.61103121  0.87454915  0.50851115  1
  H+  H68  1  0.00806592  0.37797208  0.81893189  1
  H+  H69  1  0.88189180  0.78547805  0.69293755  1
  H+  H70  1  0.85992911  -0.01670736  0.32588872  1
  H+  H71  1  0.39319607  0.32856172  0.52017436  1
  H+  H72  1  0.36561278  0.01862190  0.85572823  1
  H+  H73  1  0.87248135  0.73625318  0.33403096  1
  H+  H74  1  0.13283002  0.37275666  0.51290521  1
  H+  H75  1  0.03893532  0.52465480  0.56116958  1
  H+  H76  1  0.46512377  0.62002543  0.15437381  1
  H+  H77  1  0.97658603  0.33631031  0.50862666  1
  H+  H78  1  0.35685845  0.88463302  0.65610826  1
  H+  H79  1  0.61689416  0.21884487  0.68193770  1
  H+  H80  1  0.59498127  0.64928909  0.47296257  1
  H+  H81  1  0.09197511  0.91520465  0.73378464  1
  H+  H82  1  0.33408166  0.90652700  0.09758944  1
  H+  H83  1  0.13791711  0.60436367  0.99162413  1
  H+  H84  1  0.02265291  0.64084319  0.48848979  1
  H+  H85  1  0.61918355  0.10845729  0.31524041  1
  H+  H86  1  0.11948971  0.89889682  0.15868842  1
  H+  H87  1  0.76804262  0.38416108  0.33196677  1
  H+  H88  1  0.82885961  0.67107832  0.23295210  1
  H+  H89  1  0.87789254  0.34668099  0.84107079  1
  H+  H90  1  0.08699278  0.46374726  0.50081682  1
  H+  H91  1  0.36723497  0.64305223  0.34808053  1
  H+  H92  1  0.73168706  0.86928303  0.31477490  1
  H+  H93  1  0.41435080  0.27984577  0.31109318  1
  H+  H94  1  0.52836187  0.14102103  0.36806226  1
  H+  H95  1  0.12196704  0.22902619  0.67609833  1
  H+  H96  1  0.51185580  0.88970505  0.67961715  1
  H+  H97  1  0.62042754  0.89879134  0.33039588  1
  H+  H98  1  0.25102021  0.87917460  0.84415761  1
  H+  H99  1  0.36312307  0.96915147  0.15432104  1
  H+  H100  1  0.25313069  0.12774360  0.33577410  1
  H+  H101  1  0.22814754  0.86692665  0.16837404  1
  H+  H102  1  0.83482474  0.21688240  0.81951270  1
  H+  H103  1  0.88542539  0.52668035  0.49944480  1
  H+  H104  1  0.26772540  0.14474575  0.15712856  1
  H+  H105  1  0.73242744  0.35555832  0.66710031  1
  H+  H106  1  0.36121420  0.72915006  0.33800013  1
  H+  H107  1  0.62479736  0.45438506  0.49963199  1
  H+  H108  1  0.97452378  0.11225244  0.49992688  1
  H+  H109  1  0.37081896  0.20293140  0.49795710  1
  H+  H110  1  0.82943207  0.16144879  0.72548416  1
  H+  H111  1  0.36484491  0.40033887  0.99606946  1
  H+  H112  1  0.13606592  0.01992551  0.66219924  1
  H+  H113  1  0.77848732  0.39262899  0.49356278  1
  H+  H114  1  0.53397288  0.90562101  0.84679982  1
  H+  H115  1  0.38840213  0.61103539  0.84129698  1
  H+  H116  1  0.92479411  0.57974148  0.93047061  1
  H+  H117  1  0.14825259  0.62564587  0.16967730  1
  H+  H118  1  0.46917063  0.36206549  -0.00949240  1
  H+  H119  1  0.36899219  -0.02305667  1.01163729  1
  H+  H120  1  0.27110710  0.12963066  0.67564764  1
  H+  H121  1  0.38774531  0.77227191  -0.00674779  1
  H+  H122  1  0.85658764  0.46237011  0.15760148  1
  H+  H123  1  0.01833766  0.13100474  0.01258242  1
  H+  H124  1  -0.07241524  0.12358358  0.16010146  1
  H+  H125  1  0.22860567  0.60829855  0.99034324  1
  H+  H126  1  0.42311319  0.34511609  0.23044444  1
  H+  H127  1  0.39806238  0.09900852  0.50720599  1
  H+  H128  1  0.36095398  0.77861624  0.60812035  1
  H+  H129  1  0.60724656  0.88978241  0.15858923  1
  H+  H130  1  0.62153173  0.35324163  0.98524077  1
  H+  H131  1  0.10736828  0.14239046  0.16255629  1
  H+  H132  1  0.02562068  0.63322804  0.33512937  1
  H+  H133  1  0.75994471  0.91378647  0.82335515  1
  H+  H134  1  0.38684926  0.02295932  0.66115015  1
  H+  H135  1  0.35971104  0.37915617  0.33596664  1
  H+  H136  1  0.37787222  0.11983805  0.31692606  1
  H+  H137  1  0.13514596  0.77352570  0.50335581  1
  H+  H138  1  0.62801827  0.21807852  0.50694393  1
  H+  H139  1  0.90784529  0.60270807  0.16681774  1
  H+  H140  1  0.11607843  0.73858008  0.65837173  1
  H+  H141  1  0.14466081  1.01592922  -0.00257746  1
  H+  H142  1  0.42507549  0.30811479  0.58007188  1
  H+  H143  1  0.41845822  0.97256553  0.79286897  1
  H+  H144  1  0.37419436  0.53140339  0.15141439  1
  H+  H145  1  0.63551047  0.27373973  0.33004621  1
  H+  H146  1  0.08276563  0.40821683  0.73431242  1
  H+  H147  1  0.64647782  0.51564084  0.34136521  1
  H+  H148  1  0.87384342  0.10390804  1.00096220  1
  H+  H149  1  0.87023759  0.88813607  0.99889364  1
  H+  H150  1  0.62764707  0.35487812  0.17020894  1
  H+  H151  1  0.52854624  0.37980282  0.67429777  1
  H+  H152  1  0.23596780  0.35906648  0.84918321  1
  H+  H153  1  0.38630751  0.35174427  0.66399433  1
  H+  H154  1  0.64023674  0.10304198  0.50982997  1
  H+  H155  1  0.77718138  0.88226253  0.00089259  1
  H+  H156  1  0.90480009  0.35740398  0.99059404  1
  H+  H157  1  0.13968081  0.11104878  0.66427384  1
  H+  H158  1  0.61462832  0.96631194  0.00946760  1
  H+  H159  1  0.88737987  0.59399965  0.83922001  1
  H+  H160  1  0.36314751  0.97589059  0.33823410  1
  H+  H161  1  0.23036889  0.86449150  0.32312323  1
  H+  H162  1  0.88395901  0.06847777  0.84613690  1
  H+  H163  1  0.38522399  0.26223491  0.66963273  1
  H+  H164  1  0.53663718  0.12897653  0.50272346  1
  H+  H165  1  0.95250944  0.27492104  0.28189391  1
  H+  H166  1  0.92533764  0.08775717  0.59574401  1
  H+  H167  1  0.14115706  0.77606749  0.32130292  1
  H+  H168  1  0.46716495  0.62712006  0.50083281  1
  H+  H169  1  0.86946691  0.63313580  -0.01208671  1
  H+  H170  1  0.30022508  0.69394041  0.49369051  1
  H+  H171  1  0.64240762  0.35433728  0.66735105  1
  H+  H172  1  0.14168410  0.11162112  0.84621996  1
  H+  H173  1  0.10082346  0.21640318  0.33080319  1
  H+  H174  1  0.10938414  0.13661499  1.01370932  1
  H+  H175  1  0.27664198  0.64677314  0.16231247  1
  H+  H176  1  0.77135489  0.62871600  0.82303975  1
  H+  H177  1  0.37354890  0.71914508  0.68831595  1
  H+  H178  1  0.47651563  0.61152324  0.32884791  1
  H+  H179  1  0.59955950  0.74350936  0.67901793  1
  H+  H180  1  0.59212630  0.65400139  0.14738311  1
  H+  H181  1  0.33226183  0.16389131  0.76919980  1
  H+  H182  1  0.12819132  0.45840397  -0.02207075  1
  H+  H183  1  0.87848470  0.00846474  0.66845860  1
  H+  H184  1  0.11445268  0.63500955  0.33652914  1
  H+  H185  1  0.77023804  0.11917495  0.01024928  1
  H+  H186  1  0.33340382  0.65802071  0.74535518  1
  H+  H187  1  0.35707792  0.23208297  0.00305496  1
  H+  H188  1  0.98377959  0.61994947  0.99023100  1
  H+  H189  1  0.77744934  0.89478482  0.15515696  1
  H+  H190  1  0.63622277  1.01092127  0.51058188  1
  H+  H191  1  0.51177585  0.63902869  0.67447367  1
  H+  H192  1  0.11908341  0.89002586  0.33290814  1
  H+  H193  1  0.88169620  0.25000006  0.33151626  1
  H+  H194  1  0.21028149  0.52160370  0.28574319  1
  H+  H195  1  0.23946430  0.60102151  0.32770380  1
  H+  H196  1  0.57291251  0.90854030  0.09698088  1
  H+  H197  1  0.10761603  0.46130746  0.34547789  1
  H+  H198  1  0.12275892  0.21824525  0.83664362  1
  H+  H199  1  0.35485776  0.50200146  0.48727691  1
  H+  H200  1  0.47763744  0.11039268  0.66595692  1
  H+  H201  1  0.23510916  0.37006736  0.65850479  1
  H+  H202  1  0.60341627  0.16926114  0.84790915  1
  H+  H203  1  0.74566871  0.59954050  0.50302008  1
  H+  H204  1  0.08368835  0.16348781  0.77599335  1
  H+  H205  1  0.88730311  0.77241739  0.48340727  1
  H+  H206  1  0.36535624  0.13904047  0.82978801  1
  H+  H207  1  0.61706235  0.13391954  0.15568581  1
  H+  H208  1  0.03381320  0.14200336  0.67351504  1
  H+  H209  1  0.98579244  0.13077699  0.85340846  1
  H+  H210  1  0.65475999  0.58419664  0.52386254  1
  H+  H211  1  0.88085296  0.01149331  0.99125098  1
  H+  H212  1  0.66893894  0.07354107  0.60139646  1
  H+  H213  1  0.36181752  0.46718778  0.67352838  1
  H+  H214  1  0.36886044  0.88704157  0.00592218  1
  H+  H215  1  0.13237213  0.03288901  0.16489502  1
  H+  H216  1  0.59677775  0.62205616  0.03927690  1
  H+  H217  1  0.27646605  0.88604863  0.49081701  1
  H+  H218  1  0.63823241  0.10616059  0.99541513  1
  H+  H219  1  0.10681333  0.23951490  0.16095357  1
  H+  H220  1  0.64372051  0.10803252  0.66092912  1
  H+  H221  1  0.23126105  0.86712494  0.00250570  1
  H+  H222  1  0.61587613  0.87743301  0.00815778  1
  H+  H223  1  0.77270001  0.38351750  0.82494225  1
  H+  H224  1  0.89782761  0.12238907  0.65567081  1
  H+  H225  1  0.45683623  0.81575287  0.49063999  1
  H+  H226  1  0.77972937  0.13080666  0.66370418  1
  H+  H227  1  0.39390429  0.85795233  0.83995857  1
  H+  H228  1  0.86685975  0.46416280  0.82767891  1
  H+  H229  1  0.37198420  0.64104787  0.00167569  1
  H+  H230  1  0.32063005  0.21699522  0.36311830  1
  H+  H231  1  0.98597268  0.86408716  0.99356809  1
  H+  H232  1  0.16643463  0.88642438  0.84276050  1
  H+  H233  1  -0.01393640  0.35959777  0.66142793  1
  H+  H234  1  0.37568394  0.74770040  0.16414223  1
  H+  H235  1  0.40948897  0.33052560  0.93145464  1
  H+  H236  1  0.86887678  0.89803605  0.33240483  1
  H+  H237  1  0.41445245  0.08471192  0.94545890  1
  H+  H238  1  0.88476233  0.47460095  0.00366071  1
  H+  H239  1  0.11666774  0.21641033  0.48673753  1
  H+  H240  1  0.72685593  0.61750478  -0.02785256  1
  H+  H241  1  0.95937533  0.11424226  0.31059969  1
  H+  H242  1  0.64045562  0.78514930  0.83674818  1
  H+  H243  1  0.60813954  0.74118253  0.47735478  1
  H+  H244  1  0.24911889  0.36426489  0.15066279  1
  H+  H245  1  0.22970181  0.10433786  0.50889360  1
  H+  H246  1  0.82837299  0.42692233  0.43034736  1
  H+  H247  1  0.27021952  0.62970133  0.83339690  1
  H+  H248  1  0.85779565  0.12560448  0.49737109  1
  H+  H249  1  0.11937482  0.72856865  0.00486814  1
  H+  H250  1  0.47273760  0.36537606  0.83745003  1
  H+  H251  1  0.60688303  0.01450362  0.31059526  1
  H+  H252  1  0.11677024  0.47688933  0.16015290  1
  H+  H253  1  0.52969565  0.88953672  0.33929854  1
  H+  H254  1  0.35576937  0.41554482  0.48253727  1
  H+  H255  1  0.89566412  0.26957596  0.66259400  1
  H+  H256  1  0.62824357  0.30043229  0.82856236  1
  H+  H257  1  0.12309914  0.84931252  0.65704770  1
  H+  H258  1  0.36677125  0.47780386  0.82716799  1
  H+  H259  1  0.23276186  0.61677187  0.66876017  1
  H+  H260  1  0.74560505  0.59841808  0.67113780  1
  H+  H261  1  0.64510217  0.77863061  0.31217415  1
  H+  H262  1  0.89774757  0.26553042  0.99485723  1
  H+  H263  1  1.02323188  0.39134733  0.16268542  1
  H+  H264  1  0.76363336  0.37793994  0.15627826  1
  H+  H265  1  0.12373972  0.10638638  0.31876375  1
  H+  H266  1  0.53216632  0.36767280  0.50249163  1
  H+  H267  1  0.89763202  0.84041552  0.83934328  1
  H+  H268  1  0.26719294  0.88148942  0.66390962  1
  H+  H269  1  0.58652011  0.07806989  0.83271740  1
  H+  H270  1  0.52973837  0.13462465  0.00785601  1
  H+  H271  1  0.38539890  0.27349760  0.83802942  1
  H+  H272  1  0.02234255  0.88829024  0.68128398  1
  H+  H273  1  0.13078190  0.02008898  0.31905091  1
  H+  H274  1  0.12465588  0.98171683  0.82681846  1
  H+  H275  1  0.11311741  0.62518464  0.82934559  1
  H+  H276  1  0.89661727  0.77348307  0.98918646  1
  H+  H277  1  0.89510217  0.61664382  0.32079229  1
  H+  H278  1  0.33425066  0.91641664  0.39804133  1
  H+  H279  1  0.63005513  0.78812375  0.16270846  1
  H+  H280  1  0.62210239  0.46697782  0.67404981  1
  H+  H281  1  0.44818210  0.85424701  0.58972328  1
  H+  H282  1  0.24070035  0.11924763  0.99729497  1
  H+  H283  1  0.69162384  0.05340036  0.83614057  1
  H+  H284  1  0.97890999  0.59745157  0.83765279  1
  H+  H285  1  0.22839816  0.38442944  0.50922068  1
  H+  H286  1  0.36136230  0.71991637  0.83425521  1
  H+  H287  1  0.98205676  0.87038524  0.32862893  1
  H+  H288  1  0.76539966  0.12435865  0.50197687  1
  H+  H289  1  0.16491539  0.57311714  0.89990917  1
  H+  H290  1  0.58603646  0.40517797  0.40594437  1
  H+  H291  1  0.16397572  0.58156723  0.61181760  1
  H+  H292  1  0.60287007  0.17516110  0.41398926  1
  H+  H293  1  0.33645758  0.66681979  0.06040438  1
  H+  H294  1  0.03051875  0.90065075  0.15865811  1
  H+  H295  1  0.87176157  0.38306679  0.67354636  1
  H+  H296  1  0.82584987  0.95528925  0.73568053  1
  H+  H297  1  0.08771872  0.66635262  0.43229344  1
  H+  H298  1  0.36171829  0.13101298  0.67651209  1
  H+  H299  1  0.34041615  0.68784932  0.43056162  1
  H+  H300  1  0.52197183  0.64399977  0.82682088  1
  H+  H301  1  0.32676403  0.17485044  0.06559871  1
  H+  H302  1  0.81664630  0.65824783  0.16213708  1
  H+  H303  1  0.57110212  0.67409550  0.74023271  1
  H+  H304  1  0.69752724  0.80131408  0.54916082  1
  H+  H305  1  0.64113471  0.62381042  0.97172812  1
  H+  H306  1  0.17537659  0.08174272  0.93339558  1
  H+  H307  1  0.67142924  0.82625409  0.93817558  1
  H+  H308  1  0.84681226  0.41012346  0.05882662  1
  H+  H309  1  0.11222283  0.12650578  0.48974966  1
  H+  H310  1  0.65213618  0.07856627  0.22298095  1
  H+  H311  1  0.38649428  0.52417670  0.33099636  1
  H+  H312  1  0.65862948  0.33819682  0.89648774  1
  H+  H313  1  0.23371266  0.11573366  0.84444148  1
  H+  H314  1  0.88921323  0.83318231  0.63327605  1
  H+  H315  1  0.32030543  0.41039959  0.38898622  1
  H+  H316  1  0.58767240  0.67817761  0.38211114  1
  H+  H317  1  0.91943014  0.58403820  0.56061937  1
  H+  H318  1  0.11896341  0.97812540  0.49028758  1
  H+  H319  1  0.66790054  0.56390112  0.27858680  1
  H+  H320  1  0.70075435  0.56828591  0.60745555  1
  H+  H321  1  0.84332309  0.66515271  0.42570742  1
  H+  H322  1  0.59934432  0.60152470  0.22780934  1
  H+  H323  1  0.65786856  0.84653159  0.62366458  1
  H+  H324  1  0.82471740  0.65291592  0.04255444  1
  H+  H325  1  0.47904829  0.85921395  0.99431115  1
  H+  H326  1  0.33047176  0.43344196  0.04959349  1
  H+  H327  1  0.08917169  0.66264342  0.77217262  1
  H+  H328  1  0.08981550  0.66844795  0.06278421  1
  H+  H329  1  0.42741832  0.07786252  0.56964493  1
  H+  H330  1  0.07549736  0.16871187  0.09878237  1
  H+  H331  1  0.21690500  0.35023198  0.31800366  1
  H+  H332  1  0.91294505  0.33575942  0.22871176  1
  H+  H333  1  0.92864122  0.57780942  0.23149082  1
  H+  H334  1  0.83848451  0.91846657  0.09776528  1
  H+  H335  1  0.47741123  0.86068060  0.16592985  1
  H+  H336  1  0.92274015  0.31112148  0.57476712  1
  H+  H337  1  0.09492256  0.92840021  0.06617276  1
  H+  H338  1  0.91862447  0.83911020  0.53669744  1
  H+  H339  1  0.40223511  0.07591928  0.21669580  1
  H+  H340  1  0.92698969  0.85166123  0.26830792  1
  H+  H341  1  0.83133462  0.92866024  0.41826845  1
  H+  H342  1  0.16905824  0.84041483  0.22785628  1
  H+  H343  1  0.78455513  0.64182762  0.33769409  1
  H+  H344  1  0.66644255  0.59365389  0.88170564  1
  H+  H345  1  0.36433954  0.38751735  0.82600224  1
  H+  H346  1  0.66707368  0.84454995  0.22362831  1
  H+  H347  1  0.67697248  0.32312469  0.57414211  1
  H+  H348  1  0.58203281  0.15121631  0.73760751  1
  H+  H349  1  0.58017373  0.42008576  0.76551253  1
  H+  H350  1  0.33989983  0.91038767  0.75456189  1
  H+  H351  1  0.89697868  0.88870252  0.17340409  1
  H+  H352  1  0.58139123  0.42418430  0.05880350  1
  H+  H353  1  0.12082039  0.73536651  0.15806890  1
  H+  H354  1  0.91807562  0.09057828  0.93214573  1
  H+  H355  1  0.88692006  0.52310688  0.32213481  1
  H+  H356  1  0.56919185  0.68302798  0.08506613  1
  H+  H357  1  0.41314468  0.58352971  0.60177673  1
  H+  H358  1  0.17493702  0.58905490  0.22802258  1
  H+  H359  1  0.41749076  0.83288983  0.26676232  1
  H+  H360  1  0.13694193  0.86412757  0.50393717  1
  H+  H361  1  0.85894445  0.67041931  0.74813809  1
  H+  H362  1  0.64199863  0.34414514  0.51323317  1
  H+  H363  1  0.33188897  0.14546420  0.43781485  1
  H+  H364  1  0.09445004  0.92242656  0.39350415  1
  H+  H365  1  0.75060469  0.18842592  0.78323417  1
  H+  H366  1  0.15241407  0.32750852  0.22580146  1
  H+  H367  1  0.82987637  0.14411439  0.07092220  1
  H+  H368  1  0.65706959  0.32560933  0.26578363  1
  H+  H369  1  0.17407958  0.34923727  0.58602916  1
  H+  H370  1  0.32752177  0.41002031  0.73400046  1
  H+  H371  1  0.93200566  0.82529323  0.90143887  1
  H+  H372  1  0.41911154  0.83214187  0.90386209  1
  H+  H373  1  0.46834732  0.13690041  0.29403268  1
  H+  H374  1  0.63020401  0.26841537  0.98465677  1
  H+  H375  1  0.15328517  0.82260825  0.59286594  1
  H+  H376  1  0.15878651  0.08806544  0.22613174  1
  H+  H377  1  0.59380729  0.16746744  0.06358878  1
  H+  H378  1  0.17964390  0.84794905  0.94140482  1
  H+  H379  1  0.82500145  0.16325345  0.40572776  1
  H+  H380  1  0.09604175  0.38120835  0.82809709  1
  H+  H381  1  0.36041771  0.23025277  0.15991783  1
  H+  H382  1  0.42730387  0.59001604  0.89951422  1
  H+  H383  1  0.65784891  0.05924466  0.94041000  1
  O2-  O384  1  0.07640503  0.17335905  0.14632914  1
  O2-  O385  1  0.08196207  0.15652231  0.47354633  1
  O2-  O386  1  0.08318200  0.15869626  0.82089953  1
  O2-  O387  1  0.08506644  0.41540813  0.14970455  1
  O2-  O388  1  0.07343342  0.40639398  0.48443579  1
  O2-  O389  1  0.06940441  0.41060281  0.80502873  1
  O2-  O390  1  0.09793447  0.67485722  0.14347788  1
  O2-  O391  1  0.08522136  0.66797179  0.47757377  1
  O2-  O392  1  0.07837955  0.65150762  0.81552764  1
  O2-  O393  1  0.09053748  0.92992897  0.14189557  1
  O2-  O394  1  0.09224093  0.91938324  0.47161093  1
  O2-  O395  1  0.09906318  0.92282632  0.80891844  1
  O2-  O396  1  0.32774815  0.17190161  0.14129950  1
  O2-  O397  1  0.33506998  0.14312779  0.48256893  1
  O2-  O398  1  0.33342212  0.16729914  0.81481962  1
  O2-  O399  1  0.30464366  0.37709876  0.13040729  1
  O2-  O400  1  0.32017402  0.44028795  0.47175254  1
  O2-  O401  1  0.33402244  0.41800583  0.81058918  1
  O2-  O402  1  0.33918521  0.67787107  0.14777605  1
  O2-  O403  1  0.35184594  0.69824059  0.47587353  1
  O2-  O404  1  0.33118363  0.66040054  0.81753318  1
  O2-  O405  1  0.33339451  0.90682302  0.14355734  1
  O2-  O406  1  0.33407140  0.91046207  0.47260253  1
  O2-  O407  1  0.36055959  0.92366055  0.79773776  1
  O2-  O408  1  0.58654927  0.16506403  0.14116562  1
  O2-  O409  1  0.59800350  0.15884953  0.48853487  1
  O2-  O410  1  0.56589581  0.11954013  0.82291673  1
  O2-  O411  1  0.58029666  0.41871215  0.14059107  1
  O2-  O412  1  0.58969208  0.39534299  0.48280326  1
  O2-  O413  1  0.57824096  0.42907906  0.81049085  1
  O2-  O414  1  0.56294961  0.68445286  0.13318532  1
  O2-  O415  1  0.56830156  0.68254325  0.46065457  1
  O2-  O416  1  0.58116680  0.67831601  0.80758702  1
  O2-  O417  1  0.57062472  0.91359233  0.14235737  1
  O2-  O418  1  0.57892622  0.90259530  0.49391074  1
  O2-  O419  1  0.59636423  0.93563114  0.83381226  1
  O2-  O420  1  0.83691042  0.14922262  0.14898523  1
  O2-  O421  1  0.82813161  0.15919248  0.48744925  1
  O2-  O422  1  0.78815430  0.16664066  0.79595670  1
  O2-  O423  1  0.82321433  0.40440461  0.14004708  1
  O2-  O424  1  0.83459947  0.43379804  0.47494786  1
  O2-  O425  1  0.83253336  0.40434279  0.81059735  1
  O2-  O426  1  0.80498152  0.68420168  0.19715204  1
  O2-  O427  1  0.84136698  0.66772696  0.47101332  1
  O2-  O428  1  0.83471558  0.65117553  0.81537782  1
  O2-  O429  1  0.83835538  0.91954433  0.14254022  1
  O2-  O430  1  0.83282920  0.92559880  0.46453755  1
  O2-  O431  1  0.81715793  0.95995263  0.80515178  1
  O2-  O432  1  0.15865299  0.09359297  0.18070049  1
  O2-  O433  1  0.16827060  0.07884104  0.52134160  1
  O2-  O434  1  0.17377925  0.08315419  0.86199954  1
  O2-  O435  1  0.15024462  0.32639873  0.18035209  1
  O2-  O436  1  0.17025461  0.34923840  0.52923983  1
  O2-  O437  1  0.18872348  0.31069707  0.87285887  1
  O2-  O438  1  0.17931890  0.59469826  0.18326764  1
  O2-  O439  1  0.09688563  0.55003283  0.54428266  1
  O2-  O440  1  0.16711598  0.57565452  0.85403312  1
  O2-  O441  1  0.16713535  0.84088425  0.18236925  1
  O2-  O442  1  0.16303551  0.83160741  0.52278881  1
  O2-  O443  1  0.20376464  0.87416692  0.86892021  1
  O2-  O444  1  0.40908009  0.07715220  0.17205696  1
  O2-  O445  1  0.43217206  0.07446508  0.52464709  1
  O2-  O446  1  0.40597496  0.07878331  0.86610274  1
  O2-  O447  1  0.41675977  0.33759194  0.18558997  1
  O2-  O448  1  0.42781551  0.30411363  0.53395971  1
  O2-  O449  1  0.41270569  0.33374264  0.85345820  1
  O2-  O450  1  0.40437206  0.58734951  0.17118894  1
  O2-  O451  1  0.40868976  0.59590942  0.51900480  1
  O2-  O452  1  0.42377687  0.58493415  0.85354803  1
  O2-  O453  1  0.41474970  0.82656553  0.18172432  1
  O2-  O454  1  0.49544941  0.85180398  0.52362492  1
  O2-  O455  1  0.42518079  0.83129636  0.85821939  1
  O2-  O456  1  0.67016006  0.08426782  0.17829923  1
  O2-  O457  1  0.67077353  0.07181308  0.52470441  1
  O2-  O458  1  0.63572036  0.02424441  0.85799067  1
  O2-  O459  1  0.65720203  0.32582877  0.18787426  1
  O2-  O460  1  0.67782324  0.32025374  0.52876866  1
  O2-  O461  1  0.66780993  0.35267700  0.85014518  1
  O2-  O462  1  0.62948280  0.58430021  0.19907499  1
  O2-  O463  1  0.69164950  0.55900813  0.52588932  1
  O2-  O464  1  0.66873106  0.59647990  0.83611206  1
  O2-  O465  1  0.66617461  0.84794250  0.17795017  1
  O2-  O466  1  0.68295898  0.82933489  0.51713620  1
  O2-  O467  1  0.67347998  0.84312901  0.85587547  1
  O2-  O468  1  0.86949201  0.09672008  0.17737535  1
  O2-  O469  1  0.91566586  0.08265936  0.51796930  1
  O2-  O470  1  0.92823705  0.11355880  0.87200723  1
  O2-  O471  1  0.92351713  0.34412440  0.18491146  1
  O2-  O472  1  0.91835651  0.30219537  0.52868077  1
  O2-  O473  1  0.90559910  0.31160591  0.84998534  1
  O2-  O474  1  0.93413576  0.57290845  0.18612015  1
  O2-  O475  1  0.92110925  0.58860977  0.51579012  1
  O2-  O476  1  0.91809773  0.56468537  0.85414714  1
  O2-  O477  1  0.93115533  0.86193269  0.19103075  1
  O2-  O478  1  0.91657182  0.83623257  0.49251441  1
  O2-  O479  1  0.93239564  0.81746247  0.85572313  1
  O2-  O480  1  0.15928481  0.08122638  0.30389051  1
  O2-  O481  1  0.16783349  0.07996093  0.64689329  1
  O2-  O482  1  0.17600784  0.08081297  0.98050052  1
  O2-  O483  1  0.15550967  0.32190721  0.30470234  1
  O2-  O484  1  0.17432996  0.34380973  0.63989067  1
  O2-  O485  1  0.12099797  0.33251514  0.87858135  1
  O2-  O486  1  0.18705572  0.55449934  0.30527030  1
  O2-  O487  1  0.17066058  0.58838242  0.65663775  1
  O2-  O488  1  0.16844178  0.57554057  0.97510159  1
  O2-  O489  1  0.17027934  0.83615900  0.30648380  1
  O2-  O490  1  0.15065101  0.81672922  0.63985613  1
  O2-  O491  1  0.17113753  0.84046937  0.98662635  1
  O2-  O492  1  0.40864709  0.09185167  0.29965981  1
  O2-  O493  1  0.41826060  0.08448031  0.64897380  1
  O2-  O494  1  0.41838255  0.08522314  0.99060582  1
  O2-  O495  1  0.43126979  0.34061253  0.31037993  1
  O2-  O496  1  0.41808390  0.32203433  0.65204278  1
  O2-  O497  1  0.40781246  0.33002468  0.97707995  1
  O2-  O498  1  0.41374721  0.58707862  0.33128945  1
  O2-  O499  1  0.41471116  0.57719000  0.64673454  1
  O2-  O500  1  0.42979694  0.60049382  0.97440309  1
  O2-  O501  1  0.41460395  0.82959733  0.31159375  1
  O2-  O502  1  0.40763017  0.83176591  0.62501958  1
  O2-  O503  1  0.41848440  0.83367722  0.97931159  1
  O2-  O504  1  0.60726245  0.06233309  0.28643437  1
  O2-  O505  1  0.67301338  0.07653146  0.64703248  1
  O2-  O506  1  0.66657222  0.07165781  0.98439254  1
  O2-  O507  1  0.66270521  0.33211547  0.31125955  1
  O2-  O508  1  0.67145773  0.32209004  0.65347750  1
  O2-  O509  1  0.64762859  0.32366164  0.96378860  1
  O2-  O510  1  0.67751004  0.57485664  0.32252133  1
  O2-  O511  1  0.68964077  0.56889199  0.65141868  1
  O2-  O512  1  0.66601492  0.58813325  0.95808579  1
  O2-  O513  1  0.67162489  0.83926442  0.29891248  1
  O2-  O514  1  0.64459239  0.83255645  0.66651506  1
  O2-  O515  1  0.67460158  0.82723660  0.98323535  1
  O2-  O516  1  0.89712593  0.08425747  0.30092950  1
  O2-  O517  1  0.92832613  0.09061246  0.64149738  1
  O2-  O518  1  0.91010556  0.07679958  0.98114752  1
  O2-  O519  1  0.92886809  0.30222917  0.30772928  1
  O2-  O520  1  0.92587170  0.32913662  0.64514790  1
  O2-  O521  1  0.92734395  0.32043841  0.97287269  1
  O2-  O522  1  0.92264110  0.58325153  0.30653599  1
  O2-  O523  1  0.92607890  0.57472197  0.64517216  1
  O2-  O524  1  0.92294476  0.58870856  0.97532399  1
  O2-  O525  1  0.92139865  0.84164631  0.31340189  1
  O2-  O526  1  0.90139308  0.84462648  0.67650970  1
  O2-  O527  1  0.92746135  0.83479457  0.97539840  1
  O2-  O528  1  0.07586956  0.16044323  0.03178420  1
  O2-  O529  1  0.06754703  0.15469068  0.34328390  1
  O2-  O530  1  0.09229741  0.16963451  0.69153528  1
  O2-  O531  1  0.10415163  0.39553738  -0.02303183  1
  O2-  O532  1  0.07722951  0.40317842  0.36404748  1
  O2-  O533  1  0.09039504  0.41250907  0.68786979  1
  O2-  O534  1  0.08802190  0.66711153  0.01754692  1
  O2-  O535  1  0.08569542  0.66513836  0.35172413  1
  O2-  O536  1  0.08710378  0.67001804  0.67754260  1
  O2-  O537  1  0.09787065  0.92949292  0.02017771  1
  O2-  O538  1  0.08941670  0.92097928  0.34817305  1
  O2-  O539  1  0.08397396  0.90931414  0.68810100  1
  O2-  O540  1  0.32586074  0.17088088  0.01980744  1
  O2-  O541  1  0.31315814  0.16034640  0.35456906  1
  O2-  O542  1  0.33096410  0.16066581  0.69230716  1
  O2-  O543  1  0.34003510  0.43736638  0.00563882  1
  O2-  O544  1  0.32170489  0.40312357  0.34457598  1
  O2-  O545  1  0.32670890  0.40683016  0.68791712  1
  O2-  O546  1  0.33623966  0.66719427  0.01569313  1
  O2-  O547  1  0.33138322  0.67043411  0.35759182  1
  O2-  O548  1  0.33577268  0.65863331  0.69870387  1
  O2-  O549  1  0.33750278  0.91511836  0.02355085  1
  O2-  O550  1  0.33301738  0.91579289  0.35181319  1
  O2-  O551  1  0.32755232  0.91162142  0.67769802  1
  O2-  O552  1  0.59198570  0.16371646  0.01799898  1
  O2-  O553  1  0.59060195  0.17760382  0.36944662  1
  O2-  O554  1  0.58431733  0.15622497  0.69290872  1
  O2-  O555  1  0.57624237  0.41914869  0.01375779  1
  O2-  O556  1  0.58687592  0.41338761  0.36072737  1
  O2-  O557  1  0.58824354  0.40677389  0.69025631  1
  O2-  O558  1  0.58432235  0.66460155  0.02210417  1
  O2-  O559  1  0.59391043  0.66890085  0.33833863  1
  O2-  O560  1  0.57079726  0.67742084  0.69266016  1
  O2-  O561  1  0.58186465  0.90455831  0.02159051  1
  O2-  O562  1  0.59125747  0.92803002  0.34783085  1
  O2-  O563  1  0.56978929  0.91620501  0.69647588  1
  O2-  O564  1  0.83095436  0.14470280  0.02517425  1
  O2-  O565  1  0.81762798  0.16444100  0.36128962  1
  O2-  O566  1  0.84001292  0.16213062  0.68066640  1
  O2-  O567  1  0.86302505  0.41446227  0.01554781  1
  O2-  O568  1  0.82896182  0.41811011  0.34711742  1
  O2-  O569  1  0.84316511  0.41497656  0.68800609  1
  O2-  O570  1  0.83475469  0.66307198  -0.00097771  1
  O2-  O571  1  0.84777618  0.67393136  0.34537831  1
  O2-  O572  1  0.88073838  0.68960260  0.70416988  1
  O2-  O573  1  0.84005525  0.91900281  0.01228639  1
  O2-  O574  1  0.83409578  0.92477174  0.34487032  1
  O2-  O575  1  0.83792841  0.94834015  0.69075453  1
