# generated using pymatgen
data_H2O
_symmetry_space_group_name_H-M   'P 1'
_cell_length_a   17.98836668
_cell_length_b   17.98715144
_cell_length_c   22.00566428
_cell_angle_alpha   89.99223060
_cell_angle_beta   89.98085066
_cell_angle_gamma   119.99099504
_symmetry_Int_Tables_number   1
_chemical_formula_structural   H2O
_chemical_formula_sum   'H384 O192'
_cell_volume   6166.78187796
_cell_formula_units_Z   192
loop_
 _symmetry_equiv_pos_site_id
 _symmetry_equiv_pos_as_xyz
  1  'x, y, z'
loop_
 _atom_type_symbol
 _atom_type_oxidation_number
  H+  1.0
  O2-  -2.0
loop_
 _atom_site_type_symbol
 _atom_site_label
 _atom_site_symmetry_multiplicity
 _atom_site_fract_x
 _atom_site_fract_y
 _atom_site_fract_z
 _atom_site_occupancy
  H+  H0  1  0.62129028  0.72928502  0.16640138  1
  H+  H1  1  0.95990464  0.15570946  0.19010787  1
  H+  H2  1  0.88197867  0.77882138  0.00109810  1
  H+  H3  1  0.38261031  0.12073687  0.83515799  1
  H+  H4  1  0.21349660  0.35899794  0.99383837  1
  H+  H5  1  0.22882990  0.54295366  0.86299859  1
  H+  H6  1  0.26747073  0.89154976  0.00733342  1
  H+  H7  1  0.62929437  0.26880352  0.16813311  1
  H+  H8  1  0.16905697  0.80931304  0.32701269  1
  H+  H9  1  0.34041181  0.14274668  0.33683095  1
  H+  H10  1  0.32155414  0.16999415  0.43505524  1
  H+  H11  1  0.39329920  0.61086857  0.19319511  1
  H+  H12  1  0.35514899  0.13859646  0.49201072  1
  H+  H13  1  0.15432821  0.78088237  0.65944712  1
  H+  H14  1  0.16145112  0.36396495  0.49228885  1
  H+  H15  1  0.14975800  0.88567863  0.31905616  1
  H+  H16  1  0.02432298  0.89500292  0.48373950  1
  H+  H17  1  0.31668153  0.10546526  0.68974444  1
  H+  H18  1  0.06584323  0.46992175  0.40783712  1
  H+  H19  1  0.45305988  0.96349811  0.38037485  1
  H+  H20  1  0.88442386  0.52880766  0.49608047  1
  H+  H21  1  0.74782883  0.36924248  0.15443191  1
  H+  H22  1  0.39427350  0.87762109  0.51295206  1
  H+  H23  1  0.46480126  0.38596959  0.99772248  1
  H+  H24  1  0.51783027  0.49962796  0.05822070  1
  H+  H25  1  0.26702221  0.13917313  0.83213702  1
  H+  H26  1  0.38836122  0.78749005  0.50848262  1
  H+  H27  1  0.89571226  0.27546612  0.64375962  1
  H+  H28  1  0.34692457  0.38240708  0.00110043  1
  H+  H29  1  0.09246540  0.16300942  0.09473409  1
  H+  H30  1  0.17737673  0.84977020  0.56651190  1
  H+  H31  1  0.64445784  0.29134067  0.50466269  1
  H+  H32  1  0.40246420  0.25223235  1.01979920  1
  H+  H33  1  0.02582578  0.64184886  0.66786569  1
  H+  H34  1  0.03158097  0.88636503  0.33470693  1
  H+  H35  1  0.10339859  0.63456999  0.69154664  1
  H+  H36  1  0.10694376  0.63387232  0.84362414  1
  H+  H37  1  0.88014773  0.11622680  0.33168831  1
  H+  H38  1  0.09428058  0.67545371  0.08817123  1
  H+  H39  1  -0.00000401  0.68163734  0.83717884  1
  H+  H40  1  0.09091651  0.12250324  1.00185723  1
  H+  H41  1  0.13520140  0.78881210  0.51028792  1
  H+  H42  1  0.85958093  0.46842966  0.00180210  1
  H+  H43  1  0.71429376  0.86208334  1.00544214  1
  H+  H44  1  0.27042254  0.65938671  0.48990732  1
  H+  H45  1  0.73570535  0.87178721  0.17558904  1
  H+  H46  1  0.11110174  0.65996115  0.34818173  1
  H+  H47  1  0.62702713  0.60926006  0.49614612  1
  H+  H48  1  0.65193477  0.40752052  0.04776358  1
  H+  H49  1  0.63528729  0.85506791  0.50019254  1
  H+  H50  1  0.61984068  0.22091677  0.66573406  1
  H+  H51  1  0.33461917  0.67697102  0.43410281  1
  H+  H52  1  0.97241725  0.35917524  0.99991095  1
  H+  H53  1  0.47847615  0.85124433  0.17954062  1
  H+  H54  1  0.13161061  0.26987387  0.17017783  1
  H+  H55  1  0.64528746  0.86892484  0.17340387  1
  H+  H56  1  0.02970251  0.88187145  0.82330816  1
  H+  H57  1  0.35228456  0.50901364  0.65307262  1
  H+  H58  1  0.02204430  0.64207491  0.15812565  1
  H+  H59  1  0.12354458  0.33879774  0.83991278  1
  H+  H60  1  0.46528640  0.37032896  0.18315443  1
  H+  H61  1  0.10016048  0.44047847  0.83143885  1
  H+  H62  1  0.73415148  0.35174463  0.97746301  1
  H+  H63  1  0.13617039  0.85851757  0.99897952  1
  H+  H64  1  0.38850311  0.86981701  0.99604520  1
  H+  H65  1  0.95919165  0.61032604  0.32347438  1
  H+  H66  1  0.12832095  0.25554084  0.32398761  1
  H+  H67  1  0.85093113  0.61485062  0.67969235  1
  H+  H68  1  0.89173694  0.28837535  0.49875463  1
  H+  H69  1  0.83271029  0.17247469  0.40249599  1
  H+  H70  1  1.03633115  0.38009854  0.66679593  1
  H+  H71  1  0.53251622  0.88728047  0.67619656  1
  H+  H72  1  0.63746602  0.10285209  0.65828488  1
  H+  H73  1  0.65451562  0.27602881  0.31651044  1
  H+  H74  1  0.87835600  0.97305959  0.64542522  1
  H+  H75  1  0.63253794  0.83967206  0.84775873  1
  H+  H76  1  0.92689795  0.09122650  0.55661124  1
  H+  H77  1  0.17117156  0.83485146  0.93805740  1
  H+  H78  1  0.50893170  0.63403789  0.65429696  1
  H+  H79  1  0.89636538  0.86647014  0.17912829  1
  H+  H80  1  0.51950698  0.14411102  0.81280748  1
  H+  H81  1  0.39150230  0.02530242  0.33362378  1
  H+  H82  1  0.64321789  0.52901279  0.32756586  1
  H+  H83  1  0.60690748  0.39231367  0.15972865  1
  H+  H84  1  0.52817144  0.13461265  -0.00050768  1
  H+  H85  1  0.88191899  0.51491629  0.32063319  1
  H+  H86  1  0.84641962  0.22656766  0.15692763  1
  H+  H87  1  0.36079520  0.98302470  0.49472910  1
  H+  H88  1  0.12680012  0.98038363  0.16455076  1
  H+  H89  1  0.39489542  0.03418762  0.97920759  1
  H+  H90  1  0.76676592  0.12542355  0.65233027  1
  H+  H91  1  0.63148170  0.39624538  0.34046205  1
  H+  H92  1  0.36809445  0.11560411  0.16070383  1
  H+  H93  1  0.85802950  0.73041724  0.48708429  1
  H+  H94  1  0.77346985  0.38167603  0.81907834  1
  H+  H95  1  0.88104164  0.71301536  0.69238195  1
  H+  H96  1  0.22820939  0.85415966  0.17428696  1
  H+  H97  1  0.11201060  0.13761066  0.48771246  1
  H+  H98  1  0.88848885  0.10659073  0.64879347  1
  H+  H99  1  0.88516854  0.84565708  0.84837779  1
  H+  H100  1  0.60397232  0.72999930  0.01636849  1
  H+  H101  1  0.88025067  0.61725511  0.49920725  1
  H+  H102  1  0.88463616  0.01614899  0.16637646  1
  H+  H103  1  0.36265868  0.92939864  0.41038761  1
  H+  H104  1  0.66845110  0.33513799  0.60252201  1
  H+  H105  1  0.82246742  0.92986963  0.07760638  1
  H+  H106  1  0.64953190  0.62237495  0.17469666  1
  H+  H107  1  0.77775451  0.64939697  -0.00648770  1
  H+  H108  1  0.63584216  0.10556135  0.99742486  1
  H+  H109  1  0.86371769  0.13016833  0.16869789  1
  H+  H110  1  0.38733377  0.28062268  0.50909084  1
  H+  H111  1  0.76346068  0.13536448  0.01410600  1
  H+  H112  1  0.36918847  0.27058593  0.65532028  1
  H+  H113  1  0.72200757  0.84685014  0.65114255  1
  H+  H114  1  0.16399990  0.50441342  0.65306207  1
  H+  H115  1  0.13476081  0.79554308  0.84107457  1
  H+  H116  1  0.87853820  0.26151786  0.31919289  1
  H+  H117  1  0.51917266  0.12948130  0.15755735  1
  H+  H118  1  0.96009528  0.36398284  0.16720240  1
  H+  H119  1  0.02261062  0.87668668  0.02306487  1
  H+  H120  1  0.13414812  0.02353983  0.31894658  1
  H+  H121  1  0.88125224  0.02207424  1.00005765  1
  H+  H122  1  0.50389427  0.37728764  0.67096093  1
  H+  H123  1  0.59594431  0.41990706  0.39971684  1
  H+  H124  1  0.64543127  0.12242837  0.50932941  1
  H+  H125  1  0.13383939  0.02664741  0.50479337  1
  H+  H126  1  0.28227533  0.13079894  0.15753690  1
  H+  H127  1  0.59298689  0.37589751  0.67213283  1
  H+  H128  1  0.52005146  0.88897813  0.01389921  1
  H+  H129  1  0.63059595  0.10825247  0.17527273  1
  H+  H130  1  0.38506579  0.50258804  0.50941661  1
  H+  H131  1  0.60648252  0.88409874  0.01389629  1
  H+  H132  1  0.62776423  0.96186310  0.83417272  1
  H+  H133  1  0.71755652  0.61031319  0.49752806  1
  H+  H134  1  0.89709623  0.36285428  0.65714976  1
  H+  H135  1  0.47109964  0.59776095  0.51181794  1
  H+  H136  1  0.84846272  0.37504737  0.15587621  1
  H+  H137  1  0.86804133  0.55833254  0.58500875  1
  H+  H138  1  0.61040423  0.97207152  0.16691548  1
  H+  H139  1  0.83549867  0.70412174  0.82716912  1
  H+  H140  1  0.67274336  0.58949740  0.26766288  1
  H+  H141  1  0.13648437  0.02325911  0.83779422  1
  H+  H142  1  0.93126147  0.97808651  0.12801464  1
  H+  H143  1  0.98178394  0.11611944  0.65482570  1
  H+  H144  1  0.38787391  0.84061701  0.33335451  1
  H+  H145  1  0.01628065  0.64782251  0.50095980  1
  H+  H146  1  0.90377439  0.64017027  0.93996128  1
  H+  H147  1  0.87917205  0.35018357  0.84457939  1
  H+  H148  1  0.90046798  0.08858826  0.26824883  1
  H+  H149  1  0.37679451  0.90096154  0.83057083  1
  H+  H150  1  0.28897985  0.64790976  0.67786287  1
  H+  H151  1  0.17106401  0.37049243  0.66734245  1
  H+  H152  1  0.12119767  0.23026923  0.67739048  1
  H+  H153  1  0.11802452  0.73214791  0.16264449  1
  H+  H154  1  0.82734918  0.58291787  0.85432351  1
  H+  H155  1  0.12845134  1.02793040  0.65988032  1
  H+  H156  1  0.63894000  1.01298719  0.66025974  1
  H+  H157  1  0.48563434  0.62135523  0.19724943  1
  H+  H158  1  0.57315601  0.41933002  0.76356115  1
  H+  H159  1  0.77042990  0.89167791  0.49235320  1
  H+  H160  1  0.76601950  0.63775640  0.33885811  1
  H+  H161  1  0.38509971  0.74891658  0.33045362  1
  H+  H162  1  0.06395237  0.59281026  0.84449696  1
  H+  H163  1  0.55098805  0.13876030  0.30985307  1
  H+  H164  1  0.36306683  0.29370948  0.33077149  1
  H+  H165  1  0.62765774  0.12900257  0.33383550  1
  H+  H166  1  0.23700871  0.10010622  0.02949508  1
  H+  H167  1  0.85435511  0.97898441  0.33726694  1
  H+  H168  1  0.12581829  0.64132169  1.01811671  1
  H+  H169  1  0.74160092  0.36582060  0.31769058  1
  H+  H170  1  0.10950390  0.13764645  0.67150343  1
  H+  H171  1  0.62064644  0.21755043  0.99919126  1
  H+  H172  1  0.38517538  0.61424565  -0.00264306  1
  H+  H173  1  0.51744041  0.63793503  0.01321786  1
  H+  H174  1  0.10862815  0.22198621  1.00783337  1
  H+  H175  1  0.27858111  0.61276218  0.33961087  1
  H+  H176  1  0.65605914  0.60031960  0.93322691  1
  H+  H177  1  0.64041698  0.37203162  0.82668880  1
  H+  H178  1  0.72184728  0.35386921  0.66414472  1
  H+  H179  1  0.13369617  0.60813848  0.17843481  1
  H+  H180  1  0.84736018  0.88514096  1.02626343  1
  H+  H181  1  0.62676451  0.76197904  0.65164409  1
  H+  H182  1  0.36104697  0.71430362  0.16505376  1
  H+  H183  1  0.59484801  0.62912195  0.65571067  1
  H+  H184  1  0.72871545  0.87019631  0.32985574  1
  H+  H185  1  0.88092100  0.26078470  0.85235051  1
  H+  H186  1  0.10697163  0.21486872  0.82921346  1
  H+  H187  1  0.69691421  0.61966459  0.83446680  1
  H+  H188  1  0.63793450  0.01814047  1.00432000  1
  H+  H189  1  0.67250697  0.08561089  0.56485907  1
  H+  H190  1  1.03844581  0.33969665  0.39210265  1
  H+  H191  1  0.25315547  0.10931535  0.99730580  1
  H+  H192  1  0.13699880  0.63368391  0.52234892  1
  H+  H193  1  0.62751285  0.69908589  0.84732784  1
  H+  H194  1  0.86600979  0.38193827  0.00426357  1
  H+  H195  1  0.47488605  0.36374188  0.84071547  1
  H+  H196  1  0.61621453  0.51661390  0.65007553  1
  H+  H197  1  0.04095426  0.12205438  0.15629516  1
  H+  H198  1  0.92944219  0.82225835  0.26618234  1
  H+  H199  1  0.89403774  0.84334580  0.64406218  1
  H+  H200  1  0.23030372  0.61284190  1.00869404  1
  H+  H201  1  0.13759832  0.55628158  0.35070815  1
  H+  H202  1  0.12319815  0.23147996  0.48135753  1
  H+  H203  1  0.61839645  0.88128813  0.67319692  1
  H+  H204  1  0.86809483  0.96641615  0.85152314  1
  H+  H205  1  0.23588442  0.87144059  0.84416640  1
  H+  H206  1  0.25579222  0.54925292  0.62276157  1
  H+  H207  1  0.24412439  0.86830986  0.65939532  1
  H+  H208  1  0.44374910  0.12657728  0.33489430  1
  H+  H209  1  0.30480042  0.66940213  0.82274549  1
  H+  H210  1  0.89674700  0.62270435  0.16137105  1
  H+  H211  1  -0.01588489  0.86556738  0.17175230  1
  H+  H212  1  0.12123509  0.88788769  0.16546390  1
  H+  H213  1  0.63998393  0.63572185  0.99554851  1
  H+  H214  1  0.39778391  0.78603629  0.66255661  1
  H+  H215  1  0.47122968  0.12535423  0.49362936  1
  H+  H216  1  0.61719970  0.64307823  0.34164745  1
  H+  H217  1  0.01136424  0.12585578  0.33648660  1
  H+  H218  1  0.22201210  0.11669702  0.50756628  1
  H+  H219  1  0.85837219  0.46673053  0.83283090  1
  H+  H220  1  0.37585534  0.36588631  0.17432129  1
  H+  H221  1  0.60902262  0.23085229  0.80834811  1
  H+  H222  1  0.87274075  0.14946625  0.49055429  1
  H+  H223  1  0.12511070  0.10814754  0.31747587  1
  H+  H224  1  0.97940611  0.09511719  0.84774004  1
  H+  H225  1  0.61601037  0.88337301  0.33614968  1
  H+  H226  1  0.27137777  0.62634572  0.16315843  1
  H+  H227  1  0.86901627  0.72799504  0.14762157  1
  H+  H228  1  0.87109119  0.38362476  0.33552054  1
  H+  H229  1  0.36756546  0.86728548  0.16915720  1
  H+  H230  1  0.09249377  0.92707330  0.39363774  1
  H+  H231  1  0.59392741  0.51387506  0.01585619  1
  H+  H232  1  0.73642633  0.09160349  0.85035970  1
  H+  H233  1  0.88164864  0.87602936  0.48958180  1
  H+  H234  1  0.42671924  0.84565368  0.60310929  1
  H+  H235  1  0.42166420  0.14274752  0.64718434  1
  H+  H236  1  0.38650147  1.00330128  0.17516895  1
  H+  H237  1  0.61835332  0.73206272  0.34387840  1
  H+  H238  1  0.12439873  0.89723322  0.83005486  1
  H+  H239  1  0.26516781  0.38715891  0.15944087  1
  H+  H240  1  0.36611752  0.41992694  0.32924210  1
  H+  H241  1  0.40770850  0.62238740  0.83931787  1
  H+  H242  1  0.60812756  0.36821327  1.04401279  1
  H+  H243  1  0.09785540  0.00275720  0.98788223  1
  H+  H244  1  -0.02785250  0.10948980  0.00098240  1
  H+  H245  1  0.51895479  0.38312867  0.49717097  1
  H+  H246  1  0.11419823  0.89615688  0.49278606  1
  H+  H247  1  0.52555105  0.88004614  0.49310996  1
  H+  H248  1  0.49780947  0.12239837  0.65297719  1
  H+  H249  1  0.86063200  -0.01551978  0.48964253  1
  H+  H250  1  0.27143792  0.89332505  0.49307456  1
  H+  H251  1  0.15199851  0.49218916  0.31530719  1
  H+  H252  1  0.36511847  0.61136207  0.35059751  1
  H+  H253  1  0.35086433  0.47344744  0.00300269  1
  H+  H254  1  0.76886775  0.13198577  0.34436687  1
  H+  H255  1  0.84903122  0.62716931  0.33809399  1
  H+  H256  1  0.78357589  0.15026667  0.49465776  1
  H+  H257  1  0.40919707  0.16564192  0.01410501  1
  H+  H258  1  0.38767427  0.03320616  0.83614764  1
  H+  H259  1  0.24953989  0.36094742  0.49531663  1
  H+  H260  1  0.49479077  0.87648387  0.84628660  1
  H+  H261  1  0.11899311  0.35228120  0.17374257  1
  H+  H262  1  0.59969199  0.48161039  0.82140401  1
  H+  H263  1  0.16444271  0.57748599  0.84963027  1
  H+  H264  1  0.77601857  0.51306171  0.61517389  1
  H+  H265  1  0.63289303  1.01065600  0.32789473  1
  H+  H266  1  0.06831878  0.40808337  0.10379612  1
  H+  H267  1  0.03686211  0.89118764  0.67355984  1
  H+  H268  1  0.72179016  0.84404635  0.86092091  1
  H+  H269  1  0.09814801  0.46751681  0.16346025  1
  H+  H270  1  0.87825091  0.12187853  0.84999114  1
  H+  H271  1  0.85269840  0.22831927  0.01458427  1
  H+  H272  1  -0.01679680  0.12170556  0.49573103  1
  H+  H273  1  0.10606276  0.35293038  0.33944512  1
  H+  H274  1  0.84656048  0.45844506  0.66779301  1
  H+  H275  1  0.19799277  0.71390656  0.38032283  1
  H+  H276  1  0.40946995  0.55395658  0.28780129  1
  H+  H277  1  0.37759875  -0.01124873  0.67396738  1
  H+  H278  1  0.00687246  0.36043457  0.82705154  1
  H+  H279  1  0.86771009  0.39583786  0.48825343  1
  H+  H280  1  0.25395274  0.14209943  0.33952776  1
  H+  H281  1  0.71985358  0.11051465  0.17313192  1
  H+  H282  1  0.63986058  0.37580648  0.51007180  1
  H+  H283  1  0.12677176  0.73398615  1.01398862  1
  H+  H284  1  0.15910363  0.11929978  0.16608671  1
  H+  H285  1  0.89732025  0.76715283  0.32709428  1
  H+  H286  1  0.24979187  0.13297271  0.67168456  1
  H+  H287  1  0.35397003  0.38141346  0.84032936  1
  H+  H288  1  0.92159738  0.86339961  0.54831616  1
  H+  H289  1  0.58390452  0.16174428  0.72552700  1
  H+  H290  1  0.91175576  0.32715983  0.94018380  1
  H+  H291  1  0.58060866  0.66397172  0.43181843  1
  H+  H292  1  0.41557687  0.33619951  0.93624131  1
  H+  H293  1  0.21799192  0.34943423  0.84781576  1
  H+  H294  1  0.13253203  0.11009825  0.83699015  1
  H+  H295  1  0.38548945  0.27433471  0.84302796  1
  H+  H296  1  0.83951115  0.41205394  0.73196527  1
  H+  H297  1  0.33551528  0.66623041  0.07170229  1
  H+  H298  1  0.66940310  0.33291364  0.22642334  1
  H+  H299  1  0.82729288  0.17242765  0.70686580  1
  H+  H300  1  0.38673821  0.37266342  0.50513513  1
  H+  H301  1  0.40364128  0.33361412  0.59731821  1
  H+  H302  1  0.07608276  0.15967131  0.76727094  1
  H+  H303  1  0.61182822  0.71993523  0.49276661  1
  H+  H304  1  0.32472868  0.96985039  0.05067687  1
  H+  H305  1  0.92391898  0.78423183  0.60803883  1
  H+  H306  1  0.92509621  0.34990991  0.55581250  1
  H+  H307  1  0.16780715  0.57194820  0.95227186  1
  H+  H308  1  0.82885363  0.66776110  0.42954276  1
  H+  H309  1  0.92121202  0.79530047  0.88785340  1
  H+  H310  1  0.84080669  0.41680663  0.39455704  1
  H+  H311  1  0.77844766  0.39745145  0.48831764  1
  H+  H312  1  0.57948934  0.90119563  0.43140261  1
  H+  H313  1  0.42584513  0.09870493  0.92275151  1
  H+  H314  1  0.41828959  0.58614840  0.93822605  1
  H+  H315  1  0.33796982  0.89307434  0.10775910  1
  H+  H316  1  0.66916919  0.83540561  0.26999018  1
  H+  H317  1  0.35133095  0.46804902  0.84084499  1
  H+  H318  1  0.41096303  0.06814760  0.23208642  1
  H+  H319  1  0.92455764  0.87024497  0.96470217  1
  H+  H320  1  0.04432062  0.69407472  0.77211643  1
  H+  H321  1  0.39680375  0.34389680  0.26814225  1
  H+  H322  1  0.09323037  0.91528427  0.07430980  1
  H+  H323  1  0.57221177  0.43423150  0.11078734  1
  H+  H324  1  0.41623648  0.81544067  0.23826692  1
  H+  H325  1  0.07625108  0.15571663  0.39422662  1
  H+  H326  1  0.39267025  0.56596861  0.58997106  1
  H+  H327  1  0.17169432  0.58015156  0.56106501  1
  H+  H328  1  0.32052545  0.36517208  0.66407261  1
  H+  H329  1  0.92449425  0.07048666  0.91313042  1
  H+  H330  1  0.42169905  0.84179264  0.93802949  1
  H+  H331  1  0.31877554  0.41091856  0.09851480  1
  H+  H332  1  0.08429848  0.40133920  0.73036859  1
  H+  H333  1  0.66886728  0.33075607  0.88002628  1
  H+  H334  1  0.64713020  0.53268533  0.17627620  1
  H+  H335  1  0.34455315  0.92631287  0.77017544  1
  H+  H336  1  0.17010385  0.83705929  0.23372800  1
  H+  H337  1  0.57986048  0.16281863  0.09837259  1
  H+  H338  1  0.52236926  0.87383979  0.33544726  1
  H+  H339  1  0.82632202  0.92103432  0.39655641  1
  H+  H340  1  0.66639229  0.07350481  0.26890035  1
  H+  H341  1  0.18160900  0.09022282  0.22914666  1
  H+  H342  1  0.10426922  0.37869467  0.00939810  1
  H+  H343  1  0.64838322  0.57333662  0.58989427  1
  H+  H344  1  0.12184560  0.05954700  0.92695293  1
  H+  H345  1  0.58074793  0.91265793  0.10757361  1
  H+  H346  1  0.97082184  0.34363859  0.31219530  1
  H+  H347  1  0.58180081  0.66702695  0.10969805  1
  H+  H348  1  0.82028284  0.90172621  0.79742576  1
  H+  H349  1  0.35944115  0.68459283  0.76329579  1
  H+  H350  1  0.89868583  0.32842412  0.22571839  1
  H+  H351  1  0.60751610  0.47286463  0.49134931  1
  H+  H352  1  0.10845431  0.47028747  1.01547520  1
  H+  H353  1  0.59298467  0.90466020  0.77316607  1
  H+  H354  1  0.67267475  0.06339297  0.90615445  1
  H+  H355  1  0.92100540  0.58968784  0.22170759  1
  H+  H356  1  0.36626854  0.17603278  0.09954033  1
  H+  H357  1  0.66616056  0.82846034  0.56081937  1
  H+  H358  1  0.37187423  0.64408949  0.67231890  1
  H+  H359  1  0.84007684  0.66805994  0.04956458  1
  H+  H360  1  0.32029706  0.17141163  0.77034002  1
  H+  H361  1  0.81739380  0.40441498  0.09172942  1
  H+  H362  1  0.35014770  0.42093499  0.44025734  1
  H+  H363  1  0.16018241  0.57119331  0.23579634  1
  H+  H364  1  0.08941999  0.68452716  0.44927332  1
  H+  H365  1  0.38062173  0.90148362  0.67564088  1
  H+  H366  1  0.85730172  0.91256189  0.70063735  1
  H+  H367  1  0.78122010  0.63972306  0.15001198  1
  H+  H368  1  0.15098982  0.32177611  0.93622376  1
  H+  H369  1  0.40675618  0.79210514  0.84264467  1
  H+  H370  1  0.81344959  0.64159683  0.77231043  1
  H+  H371  1  0.86292518  0.15560932  0.78923995  1
  H+  H372  1  0.48310955  0.60038234  0.84678255  1
  H+  H373  1  0.57518346  0.18774411  0.41203357  1
  H+  H374  1  0.42672217  0.09366598  0.55921996  1
  H+  H375  1  0.15778479  0.08707165  0.59802384  1
  H+  H376  1  0.64423378  0.34460332  0.97489018  1
  H+  H377  1  0.36217164  0.72814013  0.01223413  1
  H+  H378  1  0.15750556  0.32134547  0.26795600  1
  H+  H379  1  0.54030102  0.24560528  0.43854601  1
  H+  H380  1  0.10981211  0.54687645  0.45418430  1
  H+  H381  1  0.09292360  0.93117748  0.73308839  1
  H+  H382  1  0.65595741  0.82524140  0.94484961  1
  H+  H383  1  0.82075241  0.16835216  0.09274852  1
  O2-  O384  1  0.09821490  0.16260840  0.14156918  1
  O2-  O385  1  0.08426635  0.16838352  0.46920776  1
  O2-  O386  1  0.07552585  0.15459222  0.81260675  1
  O2-  O387  1  0.06301232  0.40681726  0.14921940  1
  O2-  O388  1  0.07987004  0.52957967  0.41412858  1
  O2-  O389  1  0.06629823  0.38567383  0.80968957  1
  O2-  O390  1  0.08710377  0.67174320  0.14423926  1
  O2-  O391  1  0.07971901  0.68270599  0.49353771  1
  O2-  O392  1  0.04246488  0.72388188  0.80900119  1
  O2-  O393  1  0.09184514  0.91947260  0.15066182  1
  O2-  O394  1  0.08639048  0.92661925  0.47321709  1
  O2-  O395  1  0.09016851  0.92176195  0.81218848  1
  O2-  O396  1  0.34505500  0.15334868  0.14509212  1
  O2-  O397  1  0.32415375  0.16925527  0.48047261  1
  O2-  O398  1  0.32720259  0.17111500  0.81519080  1
  O2-  O399  1  0.32420382  0.41381697  0.14324058  1
  O2-  O400  1  0.34353284  0.41222296  0.48418856  1
  O2-  O401  1  0.31720033  0.40659993  0.83060467  1
  O2-  O402  1  0.33084001  0.65552511  0.14692454  1
  O2-  O403  1  0.32804617  0.69957808  0.47344309  1
  O2-  O404  1  0.36291803  0.68667181  0.80978389  1
  O2-  O405  1  0.33734814  0.89814719  0.15224550  1
  O2-  O406  1  0.33339877  0.92242607  0.48002424  1
  O2-  O407  1  0.34184496  0.92628697  0.81570879  1
  O2-  O408  1  0.57988961  0.16478303  0.14393496  1
  O2-  O409  1  0.55929634  0.20547979  0.45072336  1
  O2-  O410  1  0.57757776  0.17033818  0.79444006  1
  O2-  O411  1  0.58097409  0.42901283  0.15471507  1
  O2-  O412  1  0.58022052  0.40982366  0.48150787  1
  O2-  O413  1  0.57898703  0.42155353  0.80909905  1
  O2-  O414  1  0.58924993  0.66766880  0.15458196  1
  O2-  O415  1  0.57967508  0.65952073  0.47809750  1
  O2-  O416  1  0.59733466  0.64011947  0.82905199  1
  O2-  O417  1  0.58322881  0.91093536  0.15319353  1
  O2-  O418  1  0.58333640  0.89891970  0.47614124  1
  O2-  O419  1  0.59201584  0.90042455  0.81843861  1
  O2-  O420  1  0.81743320  0.16581313  0.14296669  1
  O2-  O421  1  0.84270173  0.18053630  0.47629356  1
  O2-  O422  1  0.85182609  0.15593564  0.83242689  1
  O2-  O423  1  0.81244385  0.40057585  0.13770195  1
  O2-  O424  1  0.83746034  0.42655632  0.47077540  1
  O2-  O425  1  0.83748907  0.41083069  0.81216512  1
  O2-  O426  1  0.83985217  0.66858394  0.13081477  1
  O2-  O427  1  0.83034240  0.66907452  0.47558435  1
  O2-  O428  1  0.79520750  0.64335899  0.81610005  1
  O2-  O429  1  0.87708081  0.96034913  0.14889956  1
  O2-  O430  1  0.83109982  0.92352425  0.47555869  1
  O2-  O431  1  0.83241613  0.90191474  0.84054654  1
  O2-  O432  1  0.18849014  0.08921691  0.18328907  1
  O2-  O433  1  0.16100484  0.08596004  0.52237240  1
  O2-  O434  1  0.16460532  0.08287556  0.85495312  1
  O2-  O435  1  0.15397470  0.32729905  0.18866806  1
  O2-  O436  1  0.18287061  0.32589050  0.50343163  1
  O2-  O437  1  0.15495998  0.31304559  0.85994756  1
  O2-  O438  1  0.15972704  0.57320300  0.19052335  1
  O2-  O439  1  0.16550123  0.59862002  0.51969242  1
  O2-  O440  1  0.17357963  0.53720454  0.87404619  1
  O2-  O441  1  0.16716344  0.82852775  0.18708221  1
  O2-  O442  1  0.17051983  0.85098970  0.52091229  1
  O2-  O443  1  0.17803768  0.84882432  0.86306714  1
  O2-  O444  1  0.41395888  0.06550683  0.18697853  1
  O2-  O445  1  0.41552579  0.08929833  0.51444557  1
  O2-  O446  1  0.41757865  0.09470743  0.84941496  1
  O2-  O447  1  0.40413313  0.33599226  0.19382797  1
  O2-  O448  1  0.41993108  0.34012334  0.52466257  1
  O2-  O449  1  0.41680777  0.33392384  0.85986652  1
  O2-  O450  1  0.43308275  0.60532052  0.22092501  1
  O2-  O451  1  0.41147513  0.56420595  0.52701065  1
  O2-  O452  1  0.42411240  0.58391924  0.86023431  1
  O2-  O453  1  0.41684433  0.81922936  0.19262069  1
  O2-  O454  1  0.42322769  0.84634159  0.52768445  1
  O2-  O455  1  0.43330348  0.85051501  0.86047127  1
  O2-  O456  1  0.66044007  0.07825883  0.19117313  1
  O2-  O457  1  0.68364555  0.10125713  0.52098875  1
  O2-  O458  1  0.67551297  0.05635581  0.86160303  1
  O2-  O459  1  0.66402173  0.33087016  0.18048412  1
  O2-  O460  1  0.67510474  0.34839414  0.52385239  1
  O2-  O461  1  0.66983421  0.33846231  0.83527693  1
  O2-  O462  1  0.68362072  0.59467148  0.18743604  1
  O2-  O463  1  0.65675553  0.57639067  0.51043824  1
  O2-  O464  1  0.63839079  0.59372009  0.85514042  1
  O2-  O465  1  0.67582732  0.83818729  0.18805860  1
  O2-  O466  1  0.67129351  0.82958261  0.51568555  1
  O2-  O467  1  0.65928780  0.80909612  0.86912977  1
  O2-  O468  1  0.90181510  0.10663436  0.19055654  1
  O2-  O469  1  0.92235006  0.09234371  0.51156441  1
  O2-  O470  1  0.92032213  0.06357856  0.86605651  1
  O2-  O471  1  0.89768134  0.33411787  0.18007317  1
  O2-  O472  1  0.91846803  0.34976020  0.51111595  1
  O2-  O473  1  0.91041714  0.32285283  0.86340184  1
  O2-  O474  1  0.93152369  0.59753614  0.17737371  1
  O2-  O475  1  0.90937380  0.58644942  0.51678611  1
  O2-  O476  1  0.84856106  0.55009828  0.87961033  1
  O2-  O477  1  0.92231245  0.83000281  0.18357794  1
  O2-  O478  1  0.91460662  0.84690246  0.50568768  1
  O2-  O479  1  0.91455338  0.81067097  0.84660098  1
  O2-  O480  1  0.16169635  0.08402561  0.30226719  1
  O2-  O481  1  0.15755424  0.08964661  0.64382550  1
  O2-  O482  1  0.08734075  0.04394419  0.96520708  1
  O2-  O483  1  0.15603355  0.31765879  0.31304385  1
  O2-  O484  1  0.20134780  0.33917569  0.65473129  1
  O2-  O485  1  0.15111539  0.32564695  0.98184598  1
  O2-  O486  1  0.16914384  0.55323810  0.31358413  1
  O2-  O487  1  0.20715089  0.55842645  0.63208973  1
  O2-  O488  1  0.16745998  0.58141911  0.99645120  1
  O2-  O489  1  0.18370280  0.85991021  0.30175531  1
  O2-  O490  1  0.18822815  0.83572131  0.63826039  1
  O2-  O491  1  0.17028270  0.83143147  0.98404729  1
  O2-  O492  1  0.40109151  0.07835185  0.31108657  1
  O2-  O493  1  0.43588511  0.09846822  0.63711305  1
  O2-  O494  1  0.42924861  0.09547984  0.96877081  1
  O2-  O495  1  0.39318706  0.35160339  0.31326577  1
  O2-  O496  1  0.39671563  0.33140185  0.64366181  1
  O2-  O497  1  0.41003717  0.33780050  0.98172517  1
  O2-  O498  1  0.40445816  0.54501230  0.33327224  1
  O2-  O499  1  0.37627887  0.56751965  0.63644633  1
  O2-  O500  1  0.41535066  0.58328872  0.98367926  1
  O2-  O501  1  0.41348087  0.80934843  0.31383232  1
  O2-  O502  1  0.42870599  0.84704548  0.64909126  1
  O2-  O503  1  0.41619121  0.83703937  0.98361260  1
  O2-  O504  1  0.66658389  0.07325927  0.31446420  1
  O2-  O505  1  0.66738009  0.07251879  0.64210091  1
  O2-  O506  1  0.66930499  0.07703067  0.98602499  1
  O2-  O507  1  0.68151240  0.33576184  0.30122466  1
  O2-  O508  1  0.66242798  0.32783346  0.64765246  1
  O2-  O509  1  0.67559242  0.31721792  0.95929358  1
  O2-  O510  1  0.67066228  0.59018734  0.31288887  1
  O2-  O511  1  0.64774504  0.57629295  0.63509670  1
  O2-  O512  1  0.66774535  0.60391801  0.97778559  1
  O2-  O513  1  0.66617181  0.83750964  0.31479451  1
  O2-  O514  1  0.66184131  0.82587347  0.64024037  1
  O2-  O515  1  0.65375247  0.83039312  0.99021622  1
  O2-  O516  1  0.90811566  0.08561436  0.31263951  1
  O2-  O517  1  0.92341016  0.08035921  0.63606939  1
  O2-  O518  1  0.91597320  0.07811910  0.97979521  1
  O2-  O519  1  0.90981972  0.32031447  0.29974776  1
  O2-  O520  1  0.93075412  0.33842341  0.63820004  1
  O2-  O521  1  0.91102738  0.33135980  0.98571817  1
  O2-  O522  1  0.90358068  0.57484520  0.30440172  1
  O2-  O523  1  0.83662862  0.53747977  0.62529864  1
  O2-  O524  1  0.92729721  0.62041598  0.90690577  1
  O2-  O525  1  0.93881713  0.82448423  0.31041422  1
  O2-  O526  1  0.92711012  0.81233752  0.64654747  1
  O2-  O527  1  0.91319545  0.84454328  1.00502833  1
  O2-  O528  1  0.07859719  0.16316499  0.02637553  1
  O2-  O529  1  0.07309307  0.15208555  0.34840528  1
  O2-  O530  1  0.08096342  0.16957448  0.68854215  1
  O2-  O531  1  0.07351547  0.40839678  0.02623316  1
  O2-  O532  1  0.06586744  0.37590537  0.35682051  1
  O2-  O533  1  0.09453822  0.40636452  0.68571838  1
  O2-  O534  1  0.09909314  0.67542129  0.03402558  1
  O2-  O535  1  0.14336612  0.71156947  0.37268393  1
  O2-  O536  1  0.07542566  0.66910978  0.69464128  1
  O2-  O537  1  0.08572466  0.90669656  0.02909230  1
  O2-  O538  1  0.09328961  0.92690952  0.34830777  1
  O2-  O539  1  0.09254627  0.93729918  0.68824417  1
  O2-  O540  1  0.40718620  0.20680292  0.04324714  1
  O2-  O541  1  0.31387997  0.17239153  0.35681844  1
  O2-  O542  1  0.31000969  0.15602979  0.69012630  1
  O2-  O543  1  0.31586555  0.41218412  0.01563244  1
  O2-  O544  1  0.33869606  0.45597807  0.34291832  1
  O2-  O545  1  0.28801480  0.39314630  0.68024604  1
  O2-  O546  1  0.33282591  0.66713037  0.02575827  1
  O2-  O547  1  0.33743442  0.64776792  0.35618466  1
  O2-  O548  1  0.34965863  0.68071730  0.69158522  1
  O2-  O549  1  0.32827657  0.92826798  0.02409017  1
  O2-  O550  1  0.39309570  0.94182579  0.36930507  1
  O2-  O551  1  0.34927029  0.93055418  0.69189996  1
  O2-  O552  1  0.58600639  0.16098095  0.01950777  1
  O2-  O553  1  0.59723552  0.16433911  0.33971559  1
  O2-  O554  1  0.58923918  0.15932072  0.67888977  1
  O2-  O555  1  0.54500486  0.46926586  0.04076909  1
  O2-  O556  1  0.60680372  0.43064975  0.35557652  1
  O2-  O557  1  0.56420732  0.40716314  0.68676247  1
  O2-  O558  1  0.57750434  0.66836730  0.02969970  1
  O2-  O559  1  0.58874215  0.67266922  0.36002796  1
  O2-  O560  1  0.56844414  0.66432032  0.66876276  1
  O2-  O561  1  0.57933834  0.91678279  0.03101103  1
  O2-  O562  1  0.58196973  0.91203858  0.35003283  1
  O2-  O563  1  0.59286814  0.91455945  0.69174351  1
  O2-  O564  1  0.82278457  0.16969956  0.03225397  1
  O2-  O565  1  0.83024466  0.16840566  0.35644685  1
  O2-  O566  1  0.83053128  0.16077416  0.66408873  1
  O2-  O567  1  0.83000420  0.40962580  0.01728330  1
  O2-  O568  1  0.84229640  0.41610363  0.34872226  1
  O2-  O569  1  0.83299089  0.40305189  0.68702347  1
  O2-  O570  1  0.83991820  0.67732634  0.00465041  1
  O2-  O571  1  0.82707857  0.66336575  0.35521591  1
  O2-  O572  1  0.86617544  0.65821140  0.71216365  1
  O2-  O573  1  0.81529173  0.91632369  0.03356086  1
  O2-  O574  1  0.82248866  0.91862516  0.35150171  1
  O2-  O575  1  0.85103598  0.91021424  0.65667512  1
