# generated using pymatgen
data_H2O
_symmetry_space_group_name_H-M   'P 1'
_cell_length_a   17.98239859
_cell_length_b   17.95623540
_cell_length_c   21.96373333
_cell_angle_alpha   90.00160459
_cell_angle_beta   90.01125113
_cell_angle_gamma   119.98138372
_symmetry_Int_Tables_number   1
_chemical_formula_structural   H2O
_chemical_formula_sum   'H384 O192'
_cell_volume   6143.00868765
_cell_formula_units_Z   192
loop_
 _symmetry_equiv_pos_site_id
 _symmetry_equiv_pos_as_xyz
  1  'x, y, z'
loop_
 _atom_type_symbol
 _atom_type_oxidation_number
  H+  1.0
  O2-  -2.0
loop_
 _atom_site_type_symbol
 _atom_site_label
 _atom_site_symmetry_multiplicity
 _atom_site_fract_x
 _atom_site_fract_y
 _atom_site_fract_z
 _atom_site_occupancy
  H+  H0  1  0.58977156  0.04689377  0.91097751  1
  H+  H1  1  0.87255776  0.97485528  0.00982110  1
  H+  H2  1  0.50065332  0.12846970  0.17147621  1
  H+  H3  1  0.26601810  0.62505538  0.99929232  1
  H+  H4  1  0.77311942  0.36174645  0.63467656  1
  H+  H5  1  0.95359970  0.61242347  0.16614387  1
  H+  H6  1  0.61757167  0.38593770  0.16671787  1
  H+  H7  1  0.35144660  0.38086145  0.66396414  1
  H+  H8  1  0.86355356  0.73414209  0.49037897  1
  H+  H9  1  0.54956644  0.28892897  0.66104115  1
  H+  H10  1  0.96610814  0.36415600  0.34915031  1
  H+  H11  1  0.86967566  0.64725994  0.34373637  1
  H+  H12  1  1.02432406  0.89888135  0.82852432  1
  H+  H13  1  0.37206666  0.47405133  1.00165035  1
  H+  H14  1  0.91668009  0.84919059  0.90649379  1
  H+  H15  1  0.76252302  0.12226937  0.82355179  1
  H+  H16  1  0.50203493  0.13238101  0.34388941  1
  H+  H17  1  0.38649281  0.61784344  0.32546547  1
  H+  H18  1  0.61790138  0.86403628  0.16984823  1
  H+  H19  1  0.22037570  0.35718556  0.65952415  1
  H+  H20  1  0.90981069  0.41941322  0.70216319  1
  H+  H21  1  0.13974589  0.36164024  0.50064644  1
  H+  H22  1  0.38745848  0.86581643  0.17098966  1
  H+  H23  1  1.00091786  0.64225788  0.67359605  1
  H+  H24  1  0.47774812  0.61993209  0.31823171  1
  H+  H25  1  0.65904511  0.28519302  0.84113141  1
  H+  H26  1  0.63136502  0.84977889  0.85165393  1
  H+  H27  1  0.85145405  0.63932856  0.84848148  1
  H+  H28  1  0.86454086  0.12005973  0.15064907  1
  H+  H29  1  0.43686443  0.11050244  0.82221533  1
  H+  H30  1  0.88715973  0.26399629  0.83441192  1
  H+  H31  1  0.52253106  0.88111206  0.84119459  1
  H+  H32  1  0.13141482  0.85833950  0.50360346  1
  H+  H33  1  0.23686509  0.11367378  0.16898891  1
  H+  H34  1  0.36110805  0.88973311  0.82440710  1
  H+  H35  1  0.36332900  0.38992364  0.48273134  1
  H+  H36  1  0.64561640  0.14687513  0.85033399  1
  H+  H37  1  0.11416300  0.97526449  0.48735523  1
  H+  H38  1  0.37582207  0.23500458  0.15798455  1
  H+  H39  1  0.64084045  0.61160947  0.65736545  1
  H+  H40  1  0.84397797  0.10491295  0.50818311  1
  H+  H41  1  0.38372372  0.52532012  0.65852791  1
  H+  H42  1  0.37767463  0.98503021  0.16492543  1
  H+  H43  1  0.96102605  0.10273517  0.65553049  1
  H+  H44  1  0.65248682  0.11928284  0.66649285  1
  H+  H45  1  0.61308026  -0.03680048  0.66751940  1
  H+  H46  1  0.62874934  0.60883027  1.00434509  1
  H+  H47  1  0.35509002  0.72212549  0.49236279  1
  H+  H48  1  0.39306160  1.03187346  -0.00693574  1
  H+  H49  1  0.72317857  0.10433279  0.51255490  1
  H+  H50  1  0.12288592  0.50464302  0.98691228  1
  H+  H51  1  0.40057931  0.36549417  0.99606381  1
  H+  H52  1  0.88283982  0.21084722  0.98047029  1
  H+  H53  1  1.12838606  0.65995124  0.69108333  1
  H+  H54  1  0.13230178  0.52264153  0.50318251  1
  H+  H55  1  0.77779444  0.69253635  0.81372645  1
  H+  H56  1  0.61160457  0.87566416  0.00935171  1
  H+  H57  1  0.73941451  0.41095122  0.49943073  1
  H+  H58  1  0.63727857  0.36276856  0.83899660  1
  H+  H59  1  0.13650286  0.23659758  0.14114246  1
  H+  H60  1  0.02513077  0.66159610  -0.01424680  1
  H+  H61  1  0.76103150  0.39426673  0.34039545  1
  H+  H62  1  0.60152255  0.48428685  0.67272368  1
  H+  H63  1  0.88307911  0.86338828  0.50351056  1
  H+  H64  1  0.38711319  0.24242749  1.00859546  1
  H+  H65  1  0.61924086  0.23461631  1.00634432  1
  H+  H66  1  0.23501580  0.62005921  0.68957579  1
  H+  H67  1  0.13992105  0.27280425  0.50255939  1
  H+  H68  1  0.34830918  0.41880117  0.06286487  1
  H+  H69  1  0.12614004  0.02887147  0.84228366  1
  H+  H70  1  0.37638264  0.85981741  0.49957457  1
  H+  H71  1  0.36370052  0.48448691  0.33218193  1
  H+  H72  1  0.86135282  0.41720695  0.14021179  1
  H+  H73  1  0.37316924  0.15326791  0.33923984  1
  H+  H74  1  0.40617187  0.08503241  0.55412468  1
  H+  H75  1  0.87913419  0.86474972  0.00180635  1
  H+  H76  1  0.11175493  0.88871211  0.33075649  1
  H+  H77  1  0.62115105  0.85029659  0.50623437  1
  H+  H78  1  0.87380563  0.40114335  -0.05355962  1
  H+  H79  1  0.47424610  0.86471991  0.65467499  1
  H+  H80  1  0.72640061  0.85935983  1.00184597  1
  H+  H81  1  0.38492923  0.61396567  0.50981610  1
  H+  H82  1  0.23021975  0.11468834  0.31683148  1
  H+  H83  1  0.88627957  0.86363247  0.65683791  1
  H+  H84  1  0.13371869  0.10564390  0.49023599  1
  H+  H85  1  0.88758720  0.88238526  0.84605623  1
  H+  H86  1  0.10567666  0.22060540  0.66753692  1
  H+  H87  1  0.21107640  0.12031740  0.84082118  1
  H+  H88  1  0.03024329  0.64324885  0.49666834  1
  H+  H89  1  0.34694291  0.67227695  0.76785214  1
  H+  H90  1  0.60463486  0.20347644  0.67987239  1
  H+  H91  1  0.88214481  0.63711083  1.00525857  1
  H+  H92  1  0.48252354  0.60800013  0.83956494  1
  H+  H93  1  0.91915828  0.83739421  0.59663384  1
  H+  H94  1  0.49102300  0.36565327  0.99615680  1
  H+  H95  1  0.14810398  0.80370228  0.02188598  1
  H+  H96  1  0.65082450  0.11765830  0.32786830  1
  H+  H97  1  0.63369152  0.76002722  0.66063185  1
  H+  H98  1  0.36277858  0.14207757  0.48323490  1
  H+  H99  1  0.16824011  0.58482646  0.74261584  1
  H+  H100  1  0.27789588  0.38763133  0.81705900  1
  H+  H101  1  0.36366085  0.23721678  0.33228224  1
  H+  H102  1  0.11610618  0.63692999  0.49068965  1
  H+  H103  1  -0.01030277  0.12729116  0.33718215  1
  H+  H104  1  0.28784323  0.90655426  0.02162136  1
  H+  H105  1  0.01507793  0.13723889  0.81688381  1
  H+  H106  1  0.77423639  0.63901590  0.48900508  1
  H+  H107  1  -0.01653184  0.87393991  0.33346928  1
  H+  H108  1  0.11664827  0.82372135  0.22525929  1
  H+  H109  1  0.83657172  0.33989140  0.54210789  1
  H+  H110  1  0.22550418  0.11413446  0.49294317  1
  H+  H111  1  0.37431822  0.63898233  0.82717637  1
  H+  H112  1  0.08525674  0.40896078  0.43127005  1
  H+  H113  1  0.72961620  0.61037051  0.65778628  1
  H+  H114  1  0.08100169  0.41093705  0.76614191  1
  H+  H115  1  0.96080379  0.40898652  0.09800749  1
  H+  H116  1  0.12436444  0.59535275  0.98507016  1
  H+  H117  1  0.87932517  0.10827519  0.83886486  1
  H+  H118  1  0.47451777  0.35567978  0.84091617  1
  H+  H119  1  0.58049861  0.42401873  0.42099802  1
  H+  H120  1  0.87929214  0.38172910  0.54176448  1
  H+  H121  1  0.68508094  0.08273573  0.93163206  1
  H+  H122  1  0.33533571  0.13096746  0.82576409  1
  H+  H123  1  0.38575093  0.85715176  0.33536941  1
  H+  H124  1  0.11330652  0.89718484  0.82705225  1
  H+  H125  1  0.60490422  0.72339880  0.16785742  1
  H+  H126  1  0.51666082  0.39214519  0.32851352  1
  H+  H127  1  0.14567923  0.36559031  0.82784168  1
  H+  H128  1  0.48058288  0.36631800  0.17203331  1
  H+  H129  1  0.12069136  1.01606252  0.66893289  1
  H+  H130  1  0.10397103  0.92936395  0.03302001  1
  H+  H131  1  -0.02538436  0.86505053  0.49972988  1
  H+  H132  1  0.60861817  0.96620699  0.49953056  1
  H+  H133  1  1.01794425  0.63913860  0.34292209  1
  H+  H134  1  0.63967525  0.52144777  0.50001877  1
  H+  H135  1  0.09757239  0.89921753  0.12511046  1
  H+  H136  1  0.38894259  0.52843189  0.50709896  1
  H+  H137  1  0.35713721  0.62866539  0.00011544  1
  H+  H138  1  0.86508576  0.61344915  0.17619042  1
  H+  H139  1  0.59744305  0.38293163  0.48114673  1
  H+  H140  1  0.26129510  0.87990569  0.48755937  1
  H+  H141  1  0.60750431  0.47600277  0.31795724  1
  H+  H142  1  0.82834481  0.51388958  0.82164603  1
  H+  H143  1  1.00487867  0.88793869  1.03646437  1
  H+  H144  1  0.39154600  1.04351992  0.65346287  1
  H+  H145  1  0.87820072  0.36640094  0.35353447  1
  H+  H146  1  0.38318637  0.77224725  0.99398315  1
  H+  H147  1  0.35127153  0.22690216  0.82747440  1
  H+  H148  1  0.76084465  0.87458455  0.49643324  1
  H+  H149  1  0.12513887  0.64956307  0.83586848  1
  H+  H150  1  0.98780004  0.82193270  0.19578118  1
  H+  H151  1  0.86431428  0.22155974  0.67661557  1
  H+  H152  1  0.62990969  0.39234628  0.01103254  1
  H+  H153  1  0.36657465  1.01403344  0.83547774  1
  H+  H154  1  0.85095249  0.48671928  0.18372828  1
  H+  H155  1  0.61474432  0.47381653  0.17026557  1
  H+  H156  1  0.62026618  0.26753836  0.49959610  1
  H+  H157  1  0.41828211  0.32993984  0.90114479  1
  H+  H158  1  0.11820125  0.47679106  0.68081940  1
  H+  H159  1  0.26957205  0.63543980  0.15122966  1
  H+  H160  1  0.12976738  0.61687806  0.33132042  1
  H+  H161  1  0.85486680  0.97663204  0.82147339  1
  H+  H162  1  0.87110198  0.98387879  0.35234759  1
  H+  H163  1  0.02024558  0.34840720  -0.00332681  1
  H+  H164  1  0.62230758  0.60968506  0.19036829  1
  H+  H165  1  0.98081890  0.36369348  0.67102375  1
  H+  H166  1  0.88414137  0.56107799  0.51859813  1
  H+  H167  1  0.47704354  0.86200692  0.34297867  1
  H+  H168  1  0.90269231  0.62416308  0.67213221  1
  H+  H169  1  0.76386413  0.64046793  0.01686672  1
  H+  H170  1  -0.01080118  0.09789135  0.42204038  1
  H+  H171  1  0.37161330  0.89801866  1.00625302  1
  H+  H172  1  0.39169280  0.52098011  0.83644550  1
  H+  H173  1  0.72786742  0.10208048  0.16860512  1
  H+  H174  1  0.02577498  0.52147189  0.21794652  1
  H+  H175  1  0.11000326  0.70746981  -0.05205526  1
  H+  H176  1  0.15149878  0.11791940  0.16479750  1
  H+  H177  1  0.40865635  0.83622897  0.59839200  1
  H+  H178  1  0.11509869  0.38536659  0.66896401  1
  H+  H179  1  0.81683583  0.12226365  0.09079002  1
  H+  H180  1  0.41990519  0.58075402  0.93285387  1
  H+  H181  1  0.21257637  0.85675011  0.31029091  1
  H+  H182  1  0.86244473  0.12814289  0.66929631  1
  H+  H183  1  0.62412951  0.73422325  0.31789626  1
  H+  H184  1  0.61087387  0.46987276  0.83475748  1
  H+  H185  1  0.47400701  0.61122654  0.99553508  1
  H+  H186  1  0.22269591  0.87696948  0.83705992  1
  H+  H187  1  0.14532564  0.36855759  0.15697317  1
  H+  H188  1  0.85911059  0.22483570  0.36049785  1
  H+  H189  1  0.13205836  0.14610398  0.31986294  1
  H+  H190  1  0.92668150  0.82773077  0.24614410  1
  H+  H191  1  0.34177741  0.22440313  0.66767794  1
  H+  H192  1  0.34777307  -0.02951604  0.48530784  1
  H+  H193  1  0.38460378  0.77485700  0.84013390  1
  H+  H194  1  0.74262150  0.11410985  0.65668270  1
  H+  H195  1  0.77843467  0.13165674  0.34619725  1
  H+  H196  1  0.97786484  0.35084164  0.84031905  1
  H+  H197  1  0.35317817  -0.03202837  0.33272516  1
  H+  H198  1  0.23843406  0.61284556  0.83757142  1
  H+  H199  1  0.07741446  0.72412309  0.15172161  1
  H+  H200  1  1.03125655  0.36841694  0.49363834  1
  H+  H201  1  0.14640342  0.87778418  0.65795234  1
  H+  H202  1  0.13702656  0.78898373  0.84581133  1
  H+  H203  1  0.01413018  0.35321028  0.16418476  1
  H+  H204  1  0.17343453  0.86662985  0.07854611  1
  H+  H205  1  0.61310802  0.96329290  0.85380456  1
  H+  H206  1  0.90755070  0.88911568  0.16391347  1
  H+  H207  1  0.62073454  0.63155966  0.83144020  1
  H+  H208  1  0.90187091  0.12496705  0.36010883  1
  H+  H209  1  0.87448608  0.74213929  0.34588623  1
  H+  H210  1  0.22051723  0.61008542  0.50388880  1
  H+  H211  1  0.92472564  0.03682845  0.16860110  1
  H+  H212  1  0.61089360  0.72112974  0.01490016  1
  H+  H213  1  0.11399535  0.47297087  0.82421449  1
  H+  H214  1  0.11010169  0.17158186  0.08454674  1
  H+  H215  1  0.70150678  0.86086357  0.15349883  1
  H+  H216  1  0.58342034  0.13654837  0.41689782  1
  H+  H217  1  0.52976152  0.14760854  1.00706936  1
  H+  H218  1  0.11705613  0.11329174  0.66674796  1
  H+  H219  1  0.85475107  0.72404110  0.17526577  1
  H+  H220  1  0.88003430  0.77695202  0.00010885  1
  H+  H221  1  0.14643843  0.28609883  0.30880502  1
  H+  H222  1  0.63319554  0.02155502  0.17397301  1
  H+  H223  1  0.13506829  0.77056783  0.50585354  1
  H+  H224  1  0.87598961  0.52980894  0.32993829  1
  H+  H225  1  0.43181959  0.08700552  0.39147125  1
  H+  H226  1  0.10276088  0.13491912  0.82015258  1
  H+  H227  1  0.89853073  0.23885715  0.52068368  1
  H+  H228  1  0.08131889  0.59275924  0.17112425  1
  H+  H229  1  0.46470070  0.09289811  0.49548927  1
  H+  H230  1  0.36180797  0.72296003  0.34600732  1
  H+  H231  1  0.61881389  0.89177156  0.34095055  1
  H+  H232  1  0.62076218  -0.01857550  0.34110012  1
  H+  H233  1  0.12426246  0.76946963  0.31988574  1
  H+  H234  1  0.70562789  0.73004911  0.44101351  1
  H+  H235  1  0.76808545  0.87543910  0.67044323  1
  H+  H236  1  0.51091231  0.88239342  0.16139922  1
  H+  H237  1  0.62747950  -0.03006528  1.01334046  1
  H+  H238  1  0.60565478  0.66867987  0.37126448  1
  H+  H239  1  0.21328606  0.11351848  0.66708910  1
  H+  H240  1  0.86679725  0.72862746  0.66425005  1
  H+  H241  1  0.92094433  0.28225044  0.92501134  1
  H+  H242  1  0.31460403  0.90826003  0.39044751  1
  H+  H243  1  0.11197439  0.39127529  0.33179582  1
  H+  H244  1  0.63293322  0.61553834  0.28545085  1
  H+  H245  1  0.86524168  0.32130783  -0.01915543  1
  H+  H246  1  0.62282651  0.35808564  0.32272318  1
  H+  H247  1  0.27478862  0.38881869  0.48556652  1
  H+  H248  1  0.75252932  0.37756289  0.65701599  1
  H+  H249  1  0.89166433  0.55418216  1.00003315  1
  H+  H250  1  0.23911342  0.35686817  0.99601369  1
  H+  H251  1  0.00986963  0.09375072  -0.02513151  1
  H+  H252  1  0.38250127  0.37120853  0.32097405  1
  H+  H253  1  0.11035289  0.47896189  0.34070841  1
  H+  H254  1  0.37058726  0.64511562  0.67051677  1
  H+  H255  1  0.60500685  0.87156305  0.66605110  1
  H+  H256  1  0.46556118  0.85959980  0.50274281  1
  H+  H257  1  -0.05969165  0.08409831  0.51568826  1
  H+  H258  1  0.62749246  0.14110945  0.15763451  1
  H+  H259  1  0.38550632  0.27665851  0.49496624  1
  H+  H260  1  0.14631743  0.35137844  -0.00594126  1
  H+  H261  1  0.83119677  0.90166050  0.18159471  1
  H+  H262  1  1.00020270  0.12975436  0.15910020  1
  H+  H263  1  0.72865683  0.57267611  0.86906948  1
  H+  H264  1  0.23016288  0.37770315  0.31245202  1
  H+  H265  1  0.63658593  0.52247650  1.00451201  1
  H+  H266  1  0.52110087  0.62716100  0.67370151  1
  H+  H267  1  0.73391415  0.87327467  0.32233281  1
  H+  H268  1  0.45902745  0.35749721  0.64866272  1
  H+  H269  1  0.32544942  0.65823581  0.09070396  1
  H+  H270  1  0.38524855  0.77573706  0.16506435  1
  H+  H271  1  0.62514750  0.09239841  0.50739917  1
  H+  H272  1  0.76388163  0.41229853  0.81368553  1
  H+  H273  1  0.92672785  0.52014720  0.69596430  1
  H+  H274  1  0.84503839  -0.03303016  0.50341284  1
  H+  H275  1  0.28393947  0.39414225  0.15167926  1
  H+  H276  1  0.64575994  0.64473423  0.47487868  1
  H+  H277  1  0.28715230  0.90804554  0.66920647  1
  H+  H278  1  0.97301067  0.00597256  0.94153889  1
  H+  H279  1  0.27130608  0.63459526  0.33847818  1
  H+  H280  1  0.66143731  0.32398704  0.23586341  1
  H+  H281  1  0.72253635  0.85553334  0.84395750  1
  H+  H282  1  0.36485751  0.11603595  0.65111889  1
  H+  H283  1  0.56396001  0.15096932  0.83565199  1
  H+  H284  1  0.74044208  0.35236706  0.98660063  1
  H+  H285  1  0.07280193  0.45536368  0.16025267  1
  H+  H286  1  0.87301957  0.76816249  0.82551265  1
  H+  H287  1  0.11838177  -0.01813220  0.33121689  1
  H+  H288  1  0.16427555  0.32852315  0.59848677  1
  H+  H289  1  0.37446052  0.90584857  0.66905256  1
  H+  H290  1  0.35244307  0.93217865  0.10435403  1
  H+  H291  1  0.37227041  0.48311331  0.15680995  1
  H+  H292  1  0.40411574  0.32707540  0.58705398  1
  H+  H293  1  0.92039621  0.26122669  0.20228021  1
  H+  H294  1  0.90887188  0.59095656  0.27066734  1
  H+  H295  1  0.60518316  0.29709245  0.56348798  1
  H+  H296  1  0.51766643  0.45786839  0.70906158  1
  H+  H297  1  0.52484115  0.03491191  0.44759584  1
  H+  H298  1  0.83762987  0.67734351  0.41481735  1
  H+  H299  1  0.11590516  0.18405901  0.37969627  1
  H+  H300  1  0.38424886  0.14925149  0.15897430  1
  H+  H301  1  0.93692606  0.59904613  0.57980338  1
  H+  H302  1  0.63172126  0.76686572  0.49920524  1
  H+  H303  1  0.67521983  0.08505179  0.26612101  1
  H+  H304  1  0.85346604  0.96814395  0.67162755  1
  H+  H305  1  0.13754364  0.22979710  0.99076621  1
  H+  H306  1  0.89282777  0.06607282  0.59585387  1
  H+  H307  1  0.40761003  0.83300040  0.89998843  1
  H+  H308  1  0.57956356  0.41829697  0.77162820  1
  H+  H309  1  0.84748146  0.92445279  0.07391216  1
  H+  H310  1  0.67504461  0.84868547  0.26145420  1
  H+  H311  1  0.47287293  0.36870687  0.49489999  1
  H+  H312  1  0.36639465  0.38650078  0.82291957  1
  H+  H313  1  0.83169616  0.42567048  0.49920878  1
  H+  H314  1  0.17294681  0.08438142  0.25515145  1
  H+  H315  1  0.81978223  0.15037261  0.76309257  1
  H+  H316  1  0.33889787  0.92566227  0.76320634  1
  H+  H317  1  0.07295107  0.39319340  0.05644385  1
  H+  H318  1  0.67892588  0.34369496  0.93285521  1
  H+  H319  1  0.07991110  0.92071314  0.73354448  1
  H+  H320  1  0.82524388  0.90951803  0.76584950  1
  H+  H321  1  0.59410877  0.41595683  0.07105389  1
  H+  H322  1  0.82764099  0.91445288  0.40422861  1
  H+  H323  1  0.82095866  0.67298971  0.07793127  1
  H+  H324  1  0.33162746  0.41269260  0.72747858  1
  H+  H325  1  0.36774132  0.73420139  0.67131019  1
  H+  H326  1  0.86738228  0.59699089  0.90905107  1
  H+  H327  1  0.15271514  0.12017873  0.93660078  1
  H+  H328  1  0.80858474  0.43597990  0.40288990  1
  H+  H329  1  0.66040328  0.57299675  0.91250550  1
  H+  H330  1  0.82259123  0.14842068  0.44774573  1
  H+  H331  1  0.89539784  0.40863191  0.04846027  1
  H+  H332  1  0.58290158  0.65556971  0.73324979  1
  H+  H333  1  0.97607471  0.26581355  0.56511639  1
  H+  H334  1  0.31608228  0.16993181  0.73104782  1
  H+  H335  1  0.39215372  0.36863185  0.16733238  1
  H+  H336  1  0.09098735  0.68467261  0.78420999  1
  H+  H337  1  0.14751818  0.58135768  0.27046255  1
  H+  H338  1  0.33295470  0.17571858  0.42530500  1
  H+  H339  1  0.17311196  0.84338635  0.59921654  1
  H+  H340  1  0.63237509  0.27270725  0.33207780  1
  H+  H341  1  0.51639079  0.63360210  0.16791629  1
  H+  H342  1  0.57524465  0.91246465  0.10271954  1
  H+  H343  1  0.41314003  0.33927927  0.26203734  1
  H+  H344  1  0.08142840  0.67091548  0.40102435  1
  H+  H345  1  0.49822115  0.19325550  0.63493182  1
  H+  H346  1  0.41088729  0.58541911  0.23160384  1
  H+  H347  1  0.89148160  0.87196549  0.33443678  1
  H+  H348  1  0.35680575  0.17842193  0.07373735  1
  H+  H349  1  0.02210641  0.89015814  0.67164227  1
  H+  H350  1  0.47418266  0.85920628  0.99421286  1
  H+  H351  1  0.07278772  0.16180785  0.72876769  1
  H+  H352  1  0.67038812  0.08292493  0.59508614  1
  H+  H353  1  0.41224728  0.08870204  0.93185210  1
  H+  H354  1  0.14348637  0.27652298  0.82294628  1
  H+  H355  1  0.65840083  0.81713202  0.60004859  1
  H+  H356  1  0.44234524  0.10212930  0.23116744  1
  H+  H357  1  0.91189611  0.33865740  0.61938718  1
  H+  H358  1  0.32779415  0.65952581  0.43461981  1
  H+  H359  1  0.76213094  0.38184900  0.18084072  1
  H+  H360  1  0.61958447  0.72026082  0.83146702  1
  H+  H361  1  0.07079330  0.67132331  0.09158831  1
  H+  H362  1  0.38159799  0.14419105  1.00619812  1
  H+  H363  1  0.92594856  0.29532998  0.22501687  1
  H+  H364  1  0.58311392  0.91565749  0.43560662  1
  H+  H365  1  0.57665360  0.66111189  0.07437924  1
  H+  H366  1  0.41805417  0.58566190  0.59927430  1
  H+  H367  1  0.62705936  0.17281153  0.74459522  1
  H+  H368  1  0.08362951  0.91550044  0.42846133  1
  H+  H369  1  0.92202229  0.07448706  0.89017424  1
  H+  H370  1  0.67871607  0.21877640  0.38690229  1
  H+  H371  1  0.66930896  0.82397901  0.94104784  1
  H+  H372  1  0.17436241  0.34298075  0.21814045  1
  H+  H373  1  0.75931832  0.63897378  0.17580736  1
  H+  H374  1  0.67055291  0.57952784  0.56138360  1
  H+  H375  1  0.32996027  0.42209660  0.39045930  1
  H+  H376  1  0.00973424  0.03556468  0.45700146  1
  H+  H377  1  0.64523319  0.27080215  0.17178202  1
  H+  H378  1  0.38258048  0.61241680  0.16907579  1
  H+  H379  1  0.86545077  0.46238382  0.75878012  1
  H+  H380  1  0.83872750  0.68357417  0.72778842  1
  H+  H381  1  0.13253015  0.75096706  0.67971590  1
  H+  H382  1  0.59690281  0.17446130  0.09837145  1
  H+  H383  1  0.17096583  0.57582452  0.89280898  1
  O2-  O384  1  0.10762226  0.17498080  0.12951514  1
  O2-  O385  1  0.02749559  0.09648081  0.45538153  1
  O2-  O386  1  0.07480473  0.16525889  0.80012116  1
  O2-  O387  1  0.05852146  0.39999779  0.13950604  1
  O2-  O388  1  0.08948325  0.40736248  0.47678795  1
  O2-  O389  1  0.08105906  0.41156905  0.81151931  1
  O2-  O390  1  0.05910264  0.66490875  0.13530774  1
  O2-  O391  1  0.08798979  0.67103717  0.47626970  1
  O2-  O392  1  0.09311249  0.68042345  0.82908038  1
  O2-  O393  1  0.13965425  0.88901975  0.14926043  1
  O2-  O394  1  0.07960722  0.91327416  0.47383913  1
  O2-  O395  1  0.08273493  0.92785364  0.81007032  1
  O2-  O396  1  0.35161038  0.17542188  0.14049678  1
  O2-  O397  1  0.33403238  0.17510375  0.47096960  1
  O2-  O398  1  0.31396294  0.16831222  0.80909806  1
  O2-  O399  1  0.34607139  0.42323469  0.13996536  1
  O2-  O400  1  0.33333362  0.42061628  0.46780910  1
  O2-  O401  1  0.34134096  0.41951692  0.80440576  1
  O2-  O402  1  0.32837018  0.66053032  0.13670854  1
  O2-  O403  1  0.32709376  0.66054810  0.48011609  1
  O2-  O404  1  0.34297035  0.66894851  0.81336608  1
  O2-  O405  1  0.34546668  0.92585945  0.14914805  1
  O2-  O406  1  0.32067450  0.91078442  0.46912688  1
  O2-  O407  1  0.33359214  0.92268428  0.80868943  1
  O2-  O408  1  0.59918028  0.17492610  0.14459853  1
  O2-  O409  1  0.54970408  0.09480149  0.46076730  1
  O2-  O410  1  0.62435639  0.17891419  0.82424738  1
  O2-  O411  1  0.58780617  0.41617466  0.15068906  1
  O2-  O412  1  0.57767293  0.42243155  0.46655877  1
  O2-  O413  1  0.58113270  0.41071947  0.81624447  1
  O2-  O414  1  0.57906868  0.66160177  0.15628656  1
  O2-  O415  1  0.64499121  0.69025939  0.44873426  1
  O2-  O416  1  0.59086417  0.66012379  0.81406446  1
  O2-  O417  1  0.57486401  0.91384124  0.14806458  1
  O2-  O418  1  0.57489818  0.90819811  0.48104132  1
  O2-  O419  1  0.58535313  0.90586671  0.83536522  1
  O2-  O420  1  0.82205040  0.13557038  0.13453582  1
  O2-  O421  1  0.81903902  0.14495142  0.49320934  1
  O2-  O422  1  0.82147216  0.15316644  0.80872822  1
  O2-  O423  1  0.83013871  0.42196784  0.17874951  1
  O2-  O424  1  0.79701376  0.44882575  0.48200162  1
  O2-  O425  1  0.80941679  0.46468378  0.79206768  1
  O2-  O426  1  0.81742498  0.66573605  0.15660081  1
  O2-  O427  1  0.83316015  0.67506185  0.47096181  1
  O2-  O428  1  0.83744566  0.70981305  0.80462958  1
  O2-  O429  1  0.87620129  0.91954727  0.15106106  1
  O2-  O430  1  0.82169421  0.90742310  0.48232967  1
  O2-  O431  1  0.82536048  0.91371595  0.81140956  1
  O2-  O432  1  0.17755932  0.08643675  0.18449913  1
  O2-  O433  1  0.16495279  0.07856637  0.50675757  1
  O2-  O434  1  0.15108908  0.08982936  0.85675142  1
  O2-  O435  1  0.17872132  0.34270556  0.17234593  1
  O2-  O436  1  0.17007696  0.33120608  0.51866038  1
  O2-  O437  1  0.18057263  0.33753587  0.83433577  1
  O2-  O438  1  0.07995022  0.54504211  0.19567981  1
  O2-  O439  1  0.15913688  0.58303016  0.51653114  1
  O2-  O440  1  0.17548342  0.58208182  0.84763095  1
  O2-  O441  1  0.08367672  0.81156814  0.18553246  1
  O2-  O442  1  0.16442239  0.83205606  0.52081030  1
  O2-  O443  1  0.16406920  0.85187870  0.85388142  1
  O2-  O444  1  0.43941032  0.10234642  0.18691401  1
  O2-  O445  1  0.40606420  0.08049843  0.50880444  1
  O2-  O446  1  0.39027892  0.07646700  0.85039046  1
  O2-  O447  1  0.41896064  0.33563938  0.18476945  1
  O2-  O448  1  0.41343795  0.33684810  0.51186237  1
  O2-  O449  1  0.41405813  0.32739309  0.85583079  1
  O2-  O450  1  0.41365514  0.58388330  0.18571042  1
  O2-  O451  1  0.41629757  0.58573669  0.52654140  1
  O2-  O452  1  0.42197271  0.58063462  0.85412180  1
  O2-  O453  1  0.41820845  0.83390817  0.18222459  1
  O2-  O454  1  0.40535196  0.83029244  0.51808339  1
  O2-  O455  1  0.40995137  0.83555022  0.85454856  1
  O2-  O456  1  0.66947808  0.08259125  0.18732636  1
  O2-  O457  1  0.66191993  0.07417147  0.53038889  1
  O2-  O458  1  0.64745882  0.07335643  0.89349734  1
  O2-  O459  1  0.67102192  0.33093610  0.19034020  1
  O2-  O460  1  0.63001194  0.31837417  0.52226327  1
  O2-  O461  1  0.67910715  0.34535642  0.85413698  1
  O2-  O462  1  0.65470141  0.57871637  0.20345193  1
  O2-  O463  1  0.67419067  0.58153434  0.51595278  1
  O2-  O464  1  0.67140096  0.56897149  0.86792343  1
  O2-  O465  1  0.65347979  0.83495393  0.18185927  1
  O2-  O466  1  0.65306624  0.82154530  0.52163794  1
  O2-  O467  1  0.66459456  0.81958183  0.86246615  1
  O2-  O468  1  0.94209149  0.09700628  0.17740199  1
  O2-  O469  1  0.88209789  0.05685009  0.53274331  1
  O2-  O470  1  0.91361629  0.07933824  0.84578624  1
  O2-  O471  1  0.92254716  0.43188487  0.08930442  1
  O2-  O472  1  0.94812915  0.29038877  0.54096633  1
  O2-  O473  1  0.91945525  0.31707120  0.85865990  1
  O2-  O474  1  0.89876033  0.58451708  0.18948720  1
  O2-  O475  1  0.93820135  0.60720578  0.53509773  1
  O2-  O476  1  0.83301274  0.58445403  0.87103115  1
  O2-  O477  1  0.93189819  0.81951554  0.20124777  1
  O2-  O478  1  0.91476845  0.83310157  0.51666419  1
  O2-  O479  1  0.92200308  0.85569574  0.86111545  1
  O2-  O480  1  0.16980699  0.08415984  0.30203364  1
  O2-  O481  1  0.15006180  0.07998712  0.65441678  1
  O2-  O482  1  0.16601271  0.13398829  0.98063179  1
  O2-  O483  1  0.17054441  0.34695766  0.29499406  1
  O2-  O484  1  0.15955758  0.32587989  0.64380586  1
  O2-  O485  1  0.17802755  0.32128849  0.98338556  1
  O2-  O486  1  0.15832447  0.58512272  0.31456423  1
  O2-  O487  1  0.17116502  0.58801610  0.69816463  1
  O2-  O488  1  0.15571135  0.56570910  0.97287759  1
  O2-  O489  1  0.15049106  0.82683618  0.29897906  1
  O2-  O490  1  0.17975563  0.85024404  0.64462924  1
  O2-  O491  1  0.18236634  0.86433818  1.03396762  1
  O2-  O492  1  0.43891812  0.10035051  0.34792212  1
  O2-  O493  1  0.40575077  0.09949252  0.63348572  1
  O2-  O494  1  0.41933155  0.09306120  0.97674532  1
  O2-  O495  1  0.41343166  0.34004906  0.30773306  1
  O2-  O496  1  0.39975333  0.32300171  0.63299876  1
  O2-  O497  1  0.43010210  0.33312220  0.98147585  1
  O2-  O498  1  0.41598391  0.58777499  0.30688568  1
  O2-  O499  1  0.41915197  0.58642085  0.64592799  1
  O2-  O500  1  0.41460692  0.57979134  0.97836562  1
  O2-  O501  1  0.41494316  0.82316936  0.33609134  1
  O2-  O502  1  0.41141107  0.83915966  0.64380374  1
  O2-  O503  1  0.41371206  0.83295545  0.97973485  1
  O2-  O504  1  0.67616031  0.08300707  0.31184143  1
  O2-  O505  1  0.67840684  0.08458084  0.64332630  1
  O2-  O506  1  0.71886567  0.08049408  0.99542159  1
  O2-  O507  1  0.65619656  0.32934553  0.31054874  1
  O2-  O508  1  0.55602958  0.24796431  0.63555596  1
  O2-  O509  1  0.68176207  0.34193503  0.97825703  1
  O2-  O510  1  0.65428729  0.57603391  0.27084784  1
  O2-  O511  1  0.66935463  0.57931475  0.64180879  1
  O2-  O512  1  0.66334748  0.58287713  0.98866495  1
  O2-  O513  1  0.67369660  0.84284125  0.30657990  1
  O2-  O514  1  0.66367311  0.82044608  0.64537344  1
  O2-  O515  1  0.66641597  0.82416207  0.98672794  1
  O2-  O516  1  0.93543394  0.09378990  0.36015943  1
  O2-  O517  1  0.89909607  0.07307041  0.64544295  1
  O2-  O518  1  0.95489182  0.04536123  0.95704895  1
  O2-  O519  1  0.90280216  0.32898289  0.34602088  1
  O2-  O520  1  0.91691721  0.33759373  0.66395859  1
  O2-  O521  1  0.91877787  0.27316179  0.97102695  1
  O2-  O522  1  0.91074936  0.59139083  0.31592838  1
  O2-  O523  1  0.94013122  0.59985283  0.66058401  1
  O2-  O524  1  0.91406337  0.61159182  0.98286138  1
  O2-  O525  1  0.92098371  0.83983149  0.32073907  1
  O2-  O526  1  0.92012538  0.83635800  0.64213157  1
  O2-  O527  1  0.91207906  0.83749610  0.98534912  1
  O2-  O528  1  0.10575318  0.16242939  0.00067328  1
  O2-  O529  1  0.10824587  0.18346827  0.33562378  1
  O2-  O530  1  0.07401648  0.15939504  0.68214364  1
  O2-  O531  1  0.07726564  0.39517266  0.01168252  1
  O2-  O532  1  0.08254295  0.41765527  0.35410711  1
  O2-  O533  1  0.08351891  0.41324740  0.68650524  1
  O2-  O534  1  0.08862612  0.68545881  -0.01112588  1
  O2-  O535  1  0.07960736  0.67013935  0.35482634  1
  O2-  O536  1  0.09904723  0.69327187  0.69965804  1
  O2-  O537  1  0.05803242  0.92187221  0.06065925  1
  O2-  O538  1  0.08634816  0.92227833  0.34885471  1
  O2-  O539  1  0.08262241  0.92364615  0.68754478  1
  O2-  O540  1  0.35757089  0.18034485  0.02574260  1
  O2-  O541  1  0.33458748  0.17633627  0.34790897  1
  O2-  O542  1  0.31123550  0.16493202  0.68537297  1
  O2-  O543  1  0.34755863  0.41388155  0.01732358  1
  O2-  O544  1  0.33052490  0.42244278  0.34465286  1
  O2-  O545  1  0.32442560  0.41247775  0.68194721  1
  O2-  O546  1  0.32572948  0.65824079  0.01516306  1
  O2-  O547  1  0.33012319  0.65870945  0.35509358  1
  O2-  O548  1  0.34176927  0.67497739  0.68925912  1
  O2-  O549  1  0.35238658  0.93740774  0.02254196  1
  O2-  O550  1  0.31623077  0.90785658  0.34474734  1
  O2-  O551  1  0.34777369  0.94009433  0.68427928  1
  O2-  O552  1  0.58850672  0.17589406  0.02391298  1
  O2-  O553  1  0.62095452  0.18211486  0.37052385  1
  O2-  O554  1  0.62571038  0.16769999  0.69958629  1
  O2-  O555  1  0.59475867  0.41778384  0.02558327  1
  O2-  O556  1  0.57898497  0.42130879  0.34107208  1
  O2-  O557  1  0.55217252  0.43344186  0.69412623  1
  O2-  O558  1  0.57670799  0.65989809  0.02896168  1
  O2-  O559  1  0.59495691  0.67090790  0.32707115  1
  O2-  O560  1  0.58250147  0.65374054  0.68786006  1
  O2-  O561  1  0.58366400  0.90948318  0.02215145  1
  O2-  O562  1  0.59069429  0.92221083  0.35927713  1
  O2-  O563  1  0.57377392  0.90252456  0.67655682  1
  O2-  O564  1  0.80060158  0.10395843  0.00426278  1
  O2-  O565  1  0.83355464  0.16164690  0.36942873  1
  O2-  O566  1  0.83025252  0.15874835  0.68553736  1
  O2-  O567  1  0.84703121  0.36696995  -0.01708738  1
  O2-  O568  1  0.81895724  0.42982554  0.35912418  1
  O2-  O569  1  0.91896611  0.47160072  0.72521237  1
  O2-  O570  1  0.82460897  0.67379760  0.03248900  1
  O2-  O571  1  0.84233093  0.68037132  0.36103575  1
  O2-  O572  1  0.83757586  0.67022563  0.68369494  1
  O2-  O573  1  0.83292640  0.91916984  0.02990005  1
  O2-  O574  1  0.83541329  0.92034202  0.35872695  1
  O2-  O575  1  0.82842312  0.90744108  0.68658703  1
