# generated using pymatgen
data_H2O
_symmetry_space_group_name_H-M   'P 1'
_cell_length_a   17.99141769
_cell_length_b   17.99748005
_cell_length_c   22.00249443
_cell_angle_alpha   90.02201621
_cell_angle_beta   89.98334476
_cell_angle_gamma   120.01342005
_symmetry_Int_Tables_number   1
_chemical_formula_structural   H2O
_chemical_formula_sum   'H384 O192'
_cell_volume   6169.08648090
_cell_formula_units_Z   192
loop_
 _symmetry_equiv_pos_site_id
 _symmetry_equiv_pos_as_xyz
  1  'x, y, z'
loop_
 _atom_type_symbol
 _atom_type_oxidation_number
  H+  1.0
  O2-  -2.0
loop_
 _atom_site_type_symbol
 _atom_site_label
 _atom_site_symmetry_multiplicity
 _atom_site_fract_x
 _atom_site_fract_y
 _atom_site_fract_z
 _atom_site_occupancy
  H+  H0  1  0.21996444  0.35702244  0.65939891  1
  H+  H1  1  0.88091228  0.27609106  0.64610040  1
  H+  H2  1  0.90097868  0.54319580  0.55767783  1
  H+  H3  1  0.87923272  1.00629393  0.00112389  1
  H+  H4  1  0.91549873  0.09158157  0.60352574  1
  H+  H5  1  0.89722249  0.60711411  0.84474404  1
  H+  H6  1  0.19993732  0.83111038  0.16341217  1
  H+  H7  1  0.11299247  0.38607919  0.16321908  1
  H+  H8  1  0.22208787  0.34845507  0.84689409  1
  H+  H9  1  0.12764733  0.51353630  0.17721636  1
  H+  H10  1  0.22204267  0.36024233  0.17470983  1
  H+  H11  1  0.65806273  0.36291613  -0.01229390  1
  H+  H12  1  0.03366362  0.61672942  0.33631549  1
  H+  H13  1  0.67399298  0.09399388  0.43248906  1
  H+  H14  1  0.27696942  0.60004396  0.21135924  1
  H+  H15  1  0.39218190  0.12765936  0.50637919  1
  H+  H16  1  -0.01831170  0.10204849  0.00500658  1
  H+  H17  1  0.78959311  0.38614790  0.01297316  1
  H+  H18  1  -0.00184844  0.88280546  0.32057513  1
  H+  H19  1  0.78485575  0.38736706  0.82605148  1
  H+  H20  1  0.13438213  0.61478065  0.33175050  1
  H+  H21  1  0.11449281  0.71649805  0.33665432  1
  H+  H22  1  0.64518929  0.62471409  0.83925500  1
  H+  H23  1  0.90090355  0.28599876  0.17663412  1
  H+  H24  1  0.70045345  0.10715661  0.63830137  1
  H+  H25  1  0.63454399  0.77461228  0.98999449  1
  H+  H26  1  0.11706747  0.72899507  0.00087756  1
  H+  H27  1  0.12171108  0.12317406  0.84801438  1
  H+  H28  1  0.13986344  0.52479912  0.67357650  1
  H+  H29  1  0.02664320  0.88897942  0.15524753  1
  H+  H30  1  0.13431225  0.02348741  0.99321656  1
  H+  H31  1  0.65240028  0.53091091  0.16067943  1
  H+  H32  1  0.53984514  0.42054508  0.49774606  1
  H+  H33  1  0.88094924  0.39301282  0.01337442  1
  H+  H34  1  0.89608846  0.13440461  0.50556119  1
  H+  H35  1  0.84306082  0.59606668  0.49635649  1
  H+  H36  1  0.61190773  0.63560707  0.66723132  1
  H+  H37  1  0.94634268  0.21824642  0.12257858  1
  H+  H38  1  0.52585732  0.14785258  1.01375599  1
  H+  H39  1  0.11798837  0.22788330  0.48961775  1
  H+  H40  1  0.88023770  0.64130071  0.15540708  1
  H+  H41  1  1.02480399  0.62264093  0.82812823  1
  H+  H42  1  0.69938798  0.59094849  0.37563417  1
  H+  H43  1  0.47386007  0.61276653  0.99449870  1
  H+  H44  1  0.72149143  0.60410201  0.64662935  1
  H+  H45  1  0.63987879  0.53251108  0.84390170  1
  H+  H46  1  0.65846568  0.27387950  0.83713940  1
  H+  H47  1  0.11314580  0.97464650  0.49969387  1
  H+  H48  1  0.37867330  -0.00839241  0.15885144  1
  H+  H49  1  0.38896130  0.86423788  0.82082004  1
  H+  H50  1  0.73713082  0.12836197  0.34023806  1
  H+  H51  1  0.12485511  0.85293464  0.16496038  1
  H+  H52  1  0.96684643  0.12231970  0.66661922  1
  H+  H53  1  0.13245382  0.76608465  0.66131787  1
  H+  H54  1  0.38602458  0.77623413  0.82970292  1
  H+  H55  1  0.25606983  0.34454443  0.82959520  1
  H+  H56  1  0.11183109  -0.11896762  0.67337744  1
  H+  H57  1  0.86755574  0.97019634  0.83490252  1
  H+  H58  1  0.40275711  0.29056903  0.49670584  1
  H+  H59  1  0.61174354  0.35587544  0.66799499  1
  H+  H60  1  0.88583067  0.36207139  0.83631599  1
  H+  H61  1  0.02582652  0.38863556  0.49297727  1
  H+  H62  1  0.08336294  0.14876444  0.40536100  1
  H+  H63  1  0.38851829  0.87472848  0.97764627  1
  H+  H64  1  0.27273016  0.63364356  0.67390860  1
  H+  H65  1  0.12944733  0.84161474  0.32584923  1
  H+  H66  1  0.89596501  0.37978176  0.50136699  1
  H+  H67  1  0.38097830  0.85742357  0.65242575  1
  H+  H68  1  0.10444799  0.15372140  0.70352320  1
  H+  H69  1  0.36439681  0.47701167  0.49241909  1
  H+  H70  1  0.83469461  0.67139134  0.07101924  1
  H+  H71  1  0.53910991  0.49049744  0.29480479  1
  H+  H72  1  0.34623662  0.13966667  0.67156650  1
  H+  H73  1  0.02929740  0.89761411  0.82405111  1
  H+  H74  1  0.11767288  0.64162115  0.99588532  1
  H+  H75  1  1.02611874  0.14125134  0.49380376  1
  H+  H76  1  0.88716751  0.85899548  0.84224418  1
  H+  H77  1  0.62328779  0.88529743  0.33650514  1
  H+  H78  1  0.36636043  -0.03587375  0.81797627  1
  H+  H79  1  0.37772960  0.52956506  0.99309499  1
  H+  H80  1  0.38921100  0.88273628  0.50094146  1
  H+  H81  1  0.64069549  0.84999446  0.83184740  1
  H+  H82  1  0.34264824  0.37030577  -0.00066548  1
  H+  H83  1  0.59708763  0.47651991  0.67438573  1
  H+  H84  1  0.15724118  0.31392728  0.34867037  1
  H+  H85  1  0.11424022  0.88794616  0.00024798  1
  H+  H86  1  0.39343939  0.80236999  0.47765462  1
  H+  H87  1  0.09823803  0.12300208  1.01030990  1
  H+  H88  1  0.34749335  0.50249981  0.82425180  1
  H+  H89  1  0.82260023  0.43329217  0.40316772  1
  H+  H90  1  0.13641889  1.02451122  0.16481015  1
  H+  H91  1  0.54393071  0.38596308  -0.01729815  1
  H+  H92  1  0.88555072  0.27163271  0.84280491  1
  H+  H93  1  0.36136439  0.46723123  0.15941145  1
  H+  H94  1  0.09414489  0.18444764  0.33702476  1
  H+  H95  1  0.41224395  0.83104160  0.59355365  1
  H+  H96  1  0.65067995  0.53278987  -0.01426549  1
  H+  H97  1  0.85965678  0.88087383  0.16038356  1
  H+  H98  1  0.38622604  0.99260447  0.34644461  1
  H+  H99  1  0.87857206  0.09793206  0.85851358  1
  H+  H100  1  0.37002814  0.65849749  0.82875182  1
  H+  H101  1  0.40619481  0.12938655  0.32611636  1
  H+  H102  1  0.76407331  0.15166476  1.01525729  1
  H+  H103  1  0.63085899  0.88322347  0.16445971  1
  H+  H104  1  0.73169908  0.86504944  0.17154815  1
  H+  H105  1  0.38371325  0.13372219  -0.00259930  1
  H+  H106  1  1.01495739  0.38166541  0.82241146  1
  H+  H107  1  0.53756405  0.39755129  0.84004582  1
  H+  H108  1  0.22724682  0.36117603  0.50160580  1
  H+  H109  1  0.38712653  0.11766505  0.17320581  1
  H+  H110  1  0.86673009  0.61828677  0.34301826  1
  H+  H111  1  0.76904359  0.64281163  0.00667104  1
  H+  H112  1  0.50861332  0.65235255  0.34519081  1
  H+  H113  1  0.26289388  0.62522626  0.51783934  1
  H+  H114  1  0.61855890  0.22851272  0.16780313  1
  H+  H115  1  0.65588358  0.11977242  0.83549077  1
  H+  H116  1  0.45971276  0.11566251  0.66572930  1
  H+  H117  1  0.13703907  0.85462219  0.50897528  1
  H+  H118  1  0.10427959  0.22312182  0.16264354  1
  H+  H119  1  -0.03839594  0.09724515  0.35442507  1
  H+  H120  1  0.41763313  0.34068930  0.22545091  1
  H+  H121  1  0.06510658  0.69476083  0.16482926  1
  H+  H122  1  0.38148463  0.27281429  0.17147433  1
  H+  H123  1  0.15185274  0.57325121  0.26568779  1
  H+  H124  1  0.65065816  0.29819043  0.51141011  1
  H+  H125  1  0.73602694  0.86359199  0.84049630  1
  H+  H126  1  0.87382342  0.39960184  0.16824900  1
  H+  H127  1  0.60370585  0.61560283  0.48193573  1
  H+  H128  1  0.11661086  0.59628347  0.18142854  1
  H+  H129  1  0.35851910  0.47677255  0.66319683  1
  H+  H130  1  0.63310775  1.02224273  0.48209212  1
  H+  H131  1  0.35911956  0.73349493  -0.02297434  1
  H+  H132  1  0.85160284  0.15267218  0.34604317  1
  H+  H133  1  0.49383655  0.65606805  0.84173263  1
  H+  H134  1  0.13144878  0.60366950  0.51095272  1
  H+  H135  1  0.85070516  0.58356235  0.36660270  1
  H+  H136  1  0.42259522  0.84752084  0.91843483  1
  H+  H137  1  0.13350037  0.51540706  0.51034056  1
  H+  H138  1  0.62077835  0.72920186  0.15441360  1
  H+  H139  1  0.54940527  0.12986725  0.82766493  1
  H+  H140  1  0.60993626  0.88402226  1.00731918  1
  H+  H141  1  0.14798088  0.52121148  0.97620142  1
  H+  H142  1  0.69184605  0.54937124  0.36238170  1
  H+  H143  1  0.39067752  0.61075361  0.51308917  1
  H+  H144  1  0.50632822  0.38813266  0.67188033  1
  H+  H145  1  0.92480001  0.33906656  0.93216255  1
  H+  H146  1  0.87969053  0.06266376  0.39518715  1
  H+  H147  1  0.36243760  0.64543580  -0.01740135  1
  H+  H148  1  0.53778262  0.63450234  0.15388609  1
  H+  H149  1  0.10242042  0.31683488  0.93323166  1
  H+  H150  1  0.29418239  0.15295545  0.33055400  1
  H+  H151  1  0.68149507  0.59835950  0.92957279  1
  H+  H152  1  0.91284020  0.82917189  0.93800093  1
  H+  H153  1  0.35396575  0.69135164  0.22139718  1
  H+  H154  1  0.75729864  0.40521632  0.34733813  1
  H+  H155  1  0.39239861  0.78970134  0.15777057  1
  H+  H156  1  0.82139750  0.92513109  0.42009220  1
  H+  H157  1  0.87865583  0.36392940  0.33116342  1
  H+  H158  1  0.58678196  0.16975181  0.07235818  1
  H+  H159  1  0.66287728  0.76280228  0.51454698  1
  H+  H160  1  0.66378432  0.22843945  0.36125243  1
  H+  H161  1  0.85953154  0.71935649  0.66477008  1
  H+  H162  1  0.22356592  0.86965016  -0.01182833  1
  H+  H163  1  0.36821778  0.49495711  0.34460202  1
  H+  H164  1  0.98459126  0.61504641  0.99287713  1
  H+  H165  1  0.76539986  0.87979148  1.00719647  1
  H+  H166  1  0.70074342  0.56531329  0.49807055  1
  H+  H167  1  0.91097098  0.80401292  0.33965889  1
  H+  H168  1  0.81599269  0.76794147  0.41218741  1
  H+  H169  1  0.59286282  0.91515453  0.10269197  1
  H+  H170  1  0.90356941  0.50306614  0.31673095  1
  H+  H171  1  0.78978218  0.42405551  0.50801886  1
  H+  H172  1  0.86453049  0.74052802  1.00897431  1
  H+  H173  1  0.36096980  0.99272819  0.00014089  1
  H+  H174  1  0.23326936  0.61703243  0.83160962  1
  H+  H175  1  0.78371346  0.15110571  0.48898852  1
  H+  H176  1  0.34118165  0.15434083  0.81605192  1
  H+  H177  1  0.60758518  0.29685975  0.33332235  1
  H+  H178  1  0.11008563  0.63105169  0.67230181  1
  H+  H179  1  0.77195305  0.12546520  0.83891511  1
  H+  H180  1  0.62927205  0.09902048  0.18165171  1
  H+  H181  1  0.88073342  0.39574375  0.67032838  1
  H+  H182  1  0.48087996  0.61236618  0.50430907  1
  H+  H183  1  0.02712293  0.88463974  0.51097089  1
  H+  H184  1  0.24115921  0.40772719  0.01252294  1
  H+  H185  1  0.57367627  0.62568291  0.32444012  1
  H+  H186  1  0.42726757  0.37440465  1.01963750  1
  H+  H187  1  0.01466970  0.61582778  0.48766160  1
  H+  H188  1  0.37768065  0.36579140  0.64638081  1
  H+  H189  1  0.51801877  0.85698614  0.79955446  1
  H+  H190  1  0.91331270  0.06845514  0.93945928  1
  H+  H191  1  0.85868098  0.97046238  0.16083704  1
  H+  H192  1  0.12062322  0.51368527  0.32960560  1
  H+  H193  1  0.02057097  0.62855501  0.66519551  1
  H+  H194  1  0.38810559  0.61422927  0.66014810  1
  H+  H195  1  0.27864560  0.89650033  0.49525370  1
  H+  H196  1  0.13774759  0.76647554  0.50558868  1
  H+  H197  1  0.42426557  0.41016620  0.80891227  1
  H+  H198  1  0.22577500  0.84820080  0.83692063  1
  H+  H199  1  -0.01101234  0.36307560  -0.01160610  1
  H+  H200  1  0.85253018  0.24248765  1.01196140  1
  H+  H201  1  0.72696038  0.86374850  0.66856454  1
  H+  H202  1  0.37241560  0.74123981  0.37185734  1
  H+  H203  1  0.61594736  0.64063982  -0.00003301  1
  H+  H204  1  0.52712938  0.14332057  0.16465417  1
  H+  H205  1  0.13798427  0.11163696  0.50060895  1
  H+  H206  1  0.85298033  0.18890431  0.09977887  1
  H+  H207  1  0.37507534  0.27566704  0.64916485  1
  H+  H208  1  0.38224662  0.24283114  0.33566092  1
  H+  H209  1  0.10820856  0.13644017  0.15827573  1
  H+  H210  1  0.63839754  0.77486375  0.66526848  1
  H+  H211  1  0.36075088  0.72318315  0.66938738  1
  H+  H212  1  0.02590230  0.39008191  0.16255221  1
  H+  H213  1  0.08329652  0.33712880  0.86538400  1
  H+  H214  1  0.07443071  0.22063431  0.85543528  1
  H+  H215  1  0.49513220  0.13104213  0.32461241  1
  H+  H216  1  0.89404233  0.77408900  0.17009230  1
  H+  H217  1  0.36720804  0.39035661  0.48850739  1
  H+  H218  1  0.65168789  0.27221766  0.99843413  1
  H+  H219  1  0.07740419  0.65114384  0.76411370  1
  H+  H220  1  0.35501124  -0.02150770  0.66693209  1
  H+  H221  1  0.62028152  -0.02254667  0.16846006  1
  H+  H222  1  0.39003482  0.03771663  0.50999240  1
  H+  H223  1  0.87601370  0.47647507  0.83065307  1
  H+  H224  1  0.16049711  0.57367998  0.60855911  1
  H+  H225  1  0.10850022  -0.00775298  0.82160675  1
  H+  H226  1  0.78640626  0.63492714  0.16088824  1
  H+  H227  1  0.58585254  0.42611433  0.77703295  1
  H+  H228  1  0.52977003  0.89711871  0.49209556  1
  H+  H229  1  0.49152481  0.86675924  0.33669025  1
  H+  H230  1  0.27240097  0.13595237  0.15751638  1
  H+  H231  1  0.41229893  0.59311501  0.20233533  1
  H+  H232  1  0.89791233  0.52493862  0.99516743  1
  H+  H233  1  0.38371193  0.90305891  0.35262182  1
  H+  H234  1  0.13503537  0.60979611  0.83046866  1
  H+  H235  1  0.02506981  0.88774347  0.00547012  1
  H+  H236  1  0.65268901  0.62012786  0.16022461  1
  H+  H237  1  0.34953669  0.70682382  0.54027465  1
  H+  H238  1  0.40819840  0.11751246  0.84907345  1
  H+  H239  1  0.86700239  0.89116931  0.67895328  1
  H+  H240  1  0.40108552  0.38071922  0.32624024  1
  H+  H241  1  0.52684248  0.15277927  0.50173055  1
  H+  H242  1  0.31095128  0.50458577  0.83907670  1
  H+  H243  1  0.62000289  0.88284344  0.70534143  1
  H+  H244  1  -0.11040082  0.88220508  0.50795051  1
  H+  H245  1  0.13983237  0.09942663  0.32530407  1
  H+  H246  1  0.96659563  0.09562579  0.17656436  1
  H+  H247  1  0.62581848  0.97641571  0.34323176  1
  H+  H248  1  0.65071095  0.38684640  0.51264367  1
  H+  H249  1  0.12420272  0.00478598  0.65454593  1
  H+  H250  1  0.88544747  0.59926690  0.63875133  1
  H+  H251  1  0.50357505  -0.00603485  0.85825445  1
  H+  H252  1  0.87095425  0.89007895  0.32465238  1
  H+  H253  1  0.97553762  0.86023526  0.66303750  1
  H+  H254  1  0.84433655  0.13191139  0.66282398  1
  H+  H255  1  0.96995791  0.10378339  0.85347732  1
  H+  H256  1  0.14078844  0.75745076  0.84068832  1
  H+  H257  1  0.63108918  0.76711678  0.32049512  1
  H+  H258  1  0.63428204  0.10687046  0.33554658  1
  H+  H259  1  0.87289952  0.27141578  0.33487046  1
  H+  H260  1  0.28144251  0.14809386  0.48666263  1
  H+  H261  1  0.76231802  0.61347500  0.81746448  1
  H+  H262  1  0.89482633  0.77436422  0.84310177  1
  H+  H263  1  0.62802395  0.73092277  0.82429594  1
  H+  H264  1  0.01022039  0.38601194  0.33998350  1
  H+  H265  1  0.59013395  0.37372279  0.31844313  1
  H+  H266  1  0.86363111  0.97927802  0.67698655  1
  H+  H267  1  0.89141200  0.51276116  0.65241015  1
  H+  H268  1  0.77315901  0.90370585  0.48419314  1
  H+  H269  1  0.52260842  0.88708226  0.00765610  1
  H+  H270  1  0.73114567  0.36880210  0.18770379  1
  H+  H271  1  0.59017706  0.13116731  0.66648343  1
  H+  H272  1  0.61302952  0.14769216  0.49031308  1
  H+  H273  1  0.13752231  0.35991680  0.50208293  1
  H+  H274  1  0.24515322  0.39298160  0.33099929  1
  H+  H275  1  0.78780620  0.55232952  0.78552878  1
  H+  H276  1  0.63376721  1.02228116  -0.00355699  1
  H+  H277  1  0.26940869  0.88528259  0.66731418  1
  H+  H278  1  0.38437828  0.28578870  0.84881143  1
  H+  H279  1  0.92597330  0.83505346  0.22852939  1
  H+  H280  1  0.21325471  0.13077579  0.83985374  1
  H+  H281  1  0.37548527  0.62756294  0.35881467  1
  H+  H282  1  0.88901844  0.28628787  0.49767781  1
  H+  H283  1  0.36424233  0.07698844  0.84915925  1
  H+  H284  1  0.88138320  0.86054762  -0.00302117  1
  H+  H285  1  0.63335234  0.39147823  0.15073876  1
  H+  H286  1  0.10853838  0.46474137  0.81940468  1
  H+  H287  1  0.85579911  0.43031274  0.73044434  1
  H+  H288  1  0.59038611  0.91212218  0.43569164  1
  H+  H289  1  0.31866739  0.64965385  0.10280896  1
  H+  H290  1  0.35296561  0.83844714  0.18895517  1
  H+  H291  1  0.08412352  0.42000937  0.43396397  1
  H+  H292  1  0.35037005  0.37539365  0.15594969  1
  H+  H293  1  0.69147290  0.32713415  0.89866575  1
  H+  H294  1  0.58367610  0.66346904  0.42905924  1
  H+  H295  1  0.62972157  0.07101786  0.58784880  1
  H+  H296  1  0.92337746  0.34422093  0.59450790  1
  H+  H297  1  0.16123589  0.32199464  0.60054589  1
  H+  H298  1  0.83271681  0.67033543  0.52624988  1
  H+  H299  1  0.35570142  0.41962131  0.71758496  1
  H+  H300  1  0.30866544  0.42278152  0.06720798  1
  H+  H301  1  0.10265615  0.41887586  0.06008071  1
  H+  H302  1  0.42206789  0.58575858  0.60143035  1
  H+  H303  1  0.80672145  0.81799869  0.53969326  1
  H+  H304  1  0.16343745  0.82433955  0.60141143  1
  H+  H305  1  0.65185334  0.56124780  0.59302191  1
  H+  H306  1  0.16885519  0.08798869  0.22228303  1
  H+  H307  1  0.16045595  0.96238326  0.37520650  1
  H+  H308  1  0.69481380  0.46084845  0.10645215  1
  H+  H309  1  0.10607017  0.39589653  0.33714679  1
  H+  H310  1  0.83705014  0.18436429  0.42752545  1
  H+  H311  1  0.32991782  0.66760366  0.76422501  1
  H+  H312  1  0.85419391  0.71145160  0.43195676  1
  H+  H313  1  0.23450534  0.61740046  0.97042433  1
  H+  H314  1  0.25665172  0.13775961  0.66684324  1
  H+  H315  1  0.48259000  0.44713341  0.75162171  1
  H+  H316  1  0.63058832  0.10951237  0.99603661  1
  H+  H317  1  0.10551431  0.23811814  0.67984513  1
  H+  H318  1  0.34354135  0.93557628  0.43724538  1
  H+  H319  1  0.58869433  0.67015636  0.06011780  1
  H+  H320  1  0.40656408  0.09246966  0.60397467  1
  H+  H321  1  0.84345399  0.14487223  0.78695274  1
  H+  H322  1  0.65841566  0.34440854  0.23944804  1
  H+  H323  1  0.42165436  0.94523934  0.12782303  1
  H+  H324  1  0.58825650  0.16543175  0.76184530  1
  H+  H325  1  0.91674373  0.53637440  0.16582974  1
  H+  H326  1  0.59305623  0.41412363  0.04746332  1
  H+  H327  1  0.41861596  0.82621581  0.28558367  1
  H+  H328  1  0.14733754  0.81053621  0.26269759  1
  H+  H329  1  0.59127982  0.22100845  0.67397596  1
  H+  H330  1  0.82371428  0.90593355  0.06875173  1
  H+  H331  1  0.37847109  0.60531015  0.29119919  1
  H+  H332  1  0.42013535  0.11405144  0.93828479  1
  H+  H333  1  0.92799235  0.58167253  0.90733804  1
  H+  H334  1  0.68818670  0.82391494  0.57384069  1
  H+  H335  1  0.34346015  0.23484501  1.01003252  1
  H+  H336  1  0.84569764  0.42563142  0.10698920  1
  H+  H337  1  0.43439087  0.62668522  0.90091497  1
  H+  H338  1  0.33359744  0.16892207  0.10008787  1
  H+  H339  1  0.88780587  0.04274378  0.50306059  1
  H+  H340  1  0.16045649  0.08843985  0.93616686  1
  H+  H341  1  0.91831659  0.33902024  0.23920274  1
  H+  H342  1  0.42232345  0.09150863  0.23282417  1
  H+  H343  1  0.08435298  0.92075570  0.73078472  1
  H+  H344  1  0.85534591  -0.03009207  0.33269064  1
  H+  H345  1  0.33895442  0.68092410  0.43252676  1
  H+  H346  1  0.59171292  0.66978753  0.76524501  1
  H+  H347  1  0.31477950  0.18779199  0.75915109  1
  H+  H348  1  0.47301292  0.55520582  0.22527791  1
  H+  H349  1  0.06604834  0.15390185  0.06978185  1
  H+  H350  1  0.26330406  0.13939483  0.00716843  1
  H+  H351  1  0.33024651  0.91457603  0.75429556  1
  H+  H352  1  0.65465027  0.33732849  0.61142537  1
  H+  H353  1  0.07995343  0.90225232  0.41126797  1
  H+  H354  1  0.34059100  0.42658474  0.39863475  1
  H+  H355  1  0.15330711  0.02336942  0.30480423  1
  H+  H356  1  0.66867395  0.83741082  0.93249416  1
  H+  H357  1  0.65803128  0.06908663  0.24182500  1
  H+  H358  1  0.16479434  0.83002365  0.92921572  1
  H+  H359  1  0.82506344  0.64685997  0.71560131  1
  H+  H360  1  0.79781685  0.16884303  0.70578206  1
  H+  H361  1  0.16847178  0.57922599  0.89882908  1
  H+  H362  1  0.08176033  0.65532241  0.43357899  1
  H+  H363  1  0.28746399  0.66546154  0.10025535  1
  H+  H364  1  0.88346133  0.10099177  0.17300863  1
  H+  H365  1  0.34370783  0.17892462  0.42878229  1
  H+  H366  1  0.40640716  0.34189062  0.91012374  1
  H+  H367  1  0.16657215  0.33568805  0.23572627  1
  H+  H368  1  0.47350741  0.02292131  0.91446097  1
  H+  H369  1  0.67181450  0.08607073  0.89935371  1
  H+  H370  1  0.33670968  0.92979094  0.05621559  1
  H+  H371  1  0.52431059  0.63724631  0.67233120  1
  H+  H372  1  0.42300418  0.34371060  0.55801494  1
  H+  H373  1  0.84098792  0.91756678  0.77136580  1
  H+  H374  1  0.94988920  0.56307849  0.25874487  1
  H+  H375  1  0.16915251  0.08016047  0.55796787  1
  H+  H376  1  0.60244675  0.56341950  0.24675807  1
  H+  H377  1  0.59207180  0.19070690  0.41231277  1
  H+  H378  1  0.72568741  0.85234450  0.31731922  1
  H+  H379  1  0.90694169  0.83732442  0.60807804  1
  H+  H380  1  0.66690094  0.83178707  0.23073340  1
  H+  H381  1  0.08728049  0.91804835  0.09595992  1
  H+  H382  1  0.09913220  0.07493183  0.63680567  1
  H+  H383  1  0.06434076  0.18131768  0.78627895  1
  O2-  O384  1  0.07326664  0.16325944  0.14643995  1
  O2-  O385  1  0.08560970  0.16529680  0.47654755  1
  O2-  O386  1  0.06323295  0.16737255  0.82994126  1
  O2-  O387  1  0.08594805  0.41845406  0.14611964  1
  O2-  O388  1  0.08742532  0.41692056  0.47894833  1
  O2-  O389  1  0.07685411  0.40243249  0.81252765  1
  O2-  O390  1  0.03688781  0.63174623  0.15705828  1
  O2-  O391  1  0.07654700  0.65319252  0.47903743  1
  O2-  O392  1  0.08402799  0.64961006  0.80928602  1
  O2-  O393  1  0.08801557  0.91830289  0.14171051  1
  O2-  O394  1  0.08230847  0.91111752  0.49001495  1
  O2-  O395  1  0.08292114  0.93496456  0.80204319  1
  O2-  O396  1  0.33430910  0.16553401  0.14533689  1
  O2-  O397  1  0.34265790  0.18023636  0.47411619  1
  O2-  O398  1  0.31594927  0.18972006  0.80498598  1
  O2-  O399  1  0.32069555  0.40872030  0.14387133  1
  O2-  O400  1  0.33315030  0.41769970  0.47487140  1
  O2-  O401  1  0.43214145  0.44360771  0.77141633  1
  O2-  O402  1  0.33754364  0.63039170  0.22378478  1
  O2-  O403  1  0.32760321  0.66002556  0.51072809  1
  O2-  O404  1  0.32545930  0.67100406  0.80967631  1
  O2-  O405  1  0.36469538  0.93542905  0.13831657  1
  O2-  O406  1  0.33981838  0.93407617  0.48378710  1
  O2-  O407  1  0.32968088  0.90736925  0.80010577  1
  O2-  O408  1  0.58815312  0.16911299  0.15102527  1
  O2-  O409  1  0.58720738  0.18539775  0.48569327  1
  O2-  O410  1  0.60287703  0.16967450  0.80652425  1
  O2-  O411  1  0.63540199  0.43461453  0.12040180  1
  O2-  O412  1  0.60285700  0.45042839  0.48681386  1
  O2-  O413  1  0.59387792  0.43585866  0.82133920  1
  O2-  O414  1  0.59711368  0.67082562  0.13664403  1
  O2-  O415  1  0.58626898  0.65885018  0.47433796  1
  O2-  O416  1  0.59381342  0.66986697  0.81065690  1
  O2-  O417  1  0.59775293  0.91591270  0.14870556  1
  O2-  O418  1  0.59088724  0.92380419  0.47995874  1
  O2-  O419  1  0.56600916  0.84952695  0.78374593  1
  O2-  O420  1  0.88814264  0.19526666  0.13822375  1
  O2-  O421  1  0.84411430  0.18379523  0.47523512  1
  O2-  O422  1  0.83773544  0.15520191  0.82960195  1
  O2-  O423  1  0.84651975  0.43264478  0.15253591  1
  O2-  O424  1  0.84897493  0.45173551  0.48849135  1
  O2-  O425  1  0.84630217  0.41965065  0.80992419  1
  O2-  O426  1  0.84541038  0.66725404  0.14200317  1
  O2-  O427  1  0.81265065  0.63008580  0.49220909  1
  O2-  O428  1  0.81086778  0.61323717  0.79417109  1
  O2-  O429  1  0.82660878  0.90814408  0.14526658  1
  O2-  O430  1  0.82515632  0.94694701  0.46207464  1
  O2-  O431  1  0.84019364  0.91112194  0.81678240  1
  O2-  O432  1  0.16590016  0.08650917  0.17717204  1
  O2-  O433  1  0.16947893  0.08101341  0.51259612  1
  O2-  O434  1  0.15608569  0.09482263  0.85898312  1
  O2-  O435  1  0.16142668  0.33009686  0.19101888  1
  O2-  O436  1  0.16604827  0.32694538  0.51505639  1
  O2-  O437  1  0.07477505  0.28988982  0.89317481  1
  O2-  O438  1  0.15165258  0.57202914  0.19707059  1
  O2-  O439  1  0.16134127  0.57459204  0.52867253  1
  O2-  O440  1  0.17013105  0.58216056  0.84703272  1
  O2-  O441  1  0.14271243  0.81122398  0.17996094  1
  O2-  O442  1  0.16977142  0.82619064  0.52146217  1
  O2-  O443  1  0.16983014  0.81610183  0.85781976  1
  O2-  O444  1  0.41963418  0.08873663  0.18730160  1
  O2-  O445  1  0.42118202  0.09834519  0.52530791  1
  O2-  O446  1  0.47643218  0.02710416  0.87031285  1
  O2-  O447  1  0.40698581  0.33467292  0.18118630  1
  O2-  O448  1  0.43066736  0.35038511  0.51264864  1
  O2-  O449  1  0.42587950  0.34096097  0.86821583  1
  O2-  O450  1  0.44527777  0.56538399  0.18927302  1
  O2-  O451  1  0.42202464  0.57958154  0.52220392  1
  O2-  O452  1  0.44748354  0.66024965  0.86288075  1
  O2-  O453  1  0.37482933  0.79906008  0.19770608  1
  O2-  O454  1  0.41756400  0.84681970  0.50884858  1
  O2-  O455  1  0.42307401  0.83915334  0.83879521  1
  O2-  O456  1  0.64938193  0.06032024  0.19715118  1
  O2-  O457  1  0.66344204  0.08825719  0.47638200  1
  O2-  O458  1  0.67868514  0.08484726  0.85452709  1
  O2-  O459  1  0.66830987  0.33768722  0.19525216  1
  O2-  O460  1  0.68270071  0.35830063  0.52652706  1
  O2-  O461  1  0.69186641  0.33269533  0.85400248  1
  O2-  O462  1  0.67998742  0.58895628  0.17912352  1
  O2-  O463  1  0.63867127  0.53892958  0.51035433  1
  O2-  O464  1  0.67602121  0.59523783  0.85669692  1
  O2-  O465  1  0.66870914  0.83599042  0.18443755  1
  O2-  O466  1  0.70911105  0.81564049  0.53364652  1
  O2-  O467  1  0.67585059  0.83199930  0.85642579  1
  O2-  O468  1  0.90492349  0.06316824  0.18795946  1
  O2-  O469  1  0.92322249  0.10080196  0.52115753  1
  O2-  O470  1  0.90933453  0.06624269  0.87041721  1
  O2-  O471  1  0.92370449  0.34494514  0.19385050  1
  O2-  O472  1  0.92402075  0.34692126  0.51315833  1
  O2-  O473  1  0.91672320  0.33304054  0.85421795  1
  O2-  O474  1  0.94917530  0.59813699  0.18189066  1
  O2-  O475  1  0.89600643  0.54235474  0.50967679  1
  O2-  O476  1  0.93005745  0.58080134  0.86009008  1
  O2-  O477  1  0.92205418  0.83512954  0.18329485  1
  O2-  O478  1  0.86813151  0.83273017  0.53527679  1
  O2-  O479  1  0.91879353  0.83125824  0.86114673  1
  O2-  O480  1  0.17931759  0.08568700  0.30204567  1
  O2-  O481  1  0.14775346  0.06514843  0.63606012  1
  O2-  O482  1  0.16183868  0.08569370  0.98180597  1
  O2-  O483  1  0.18105586  0.36123227  0.31984772  1
  O2-  O484  1  0.15960212  0.32112348  0.64539886  1
  O2-  O485  1  0.14385405  0.36861296  0.99828956  1
  O2-  O486  1  0.15714809  0.57516864  0.31274756  1
  O2-  O487  1  0.16613915  0.58313822  0.65335935  1
  O2-  O488  1  0.16980667  0.57918346  0.95754829  1
  O2-  O489  1  0.15268889  0.80785703  0.30731879  1
  O2-  O490  1  0.16240073  0.82711065  0.64669864  1
  O2-  O491  1  0.16279360  0.83728170  0.97503642  1
  O2-  O492  1  0.43538188  0.09840181  0.31027745  1
  O2-  O493  1  0.39920669  0.08779250  0.64915401  1
  O2-  O494  1  0.41681024  0.10538320  0.98228369  1
  O2-  O495  1  0.43016325  0.34982837  0.30974695  1
  O2-  O496  1  0.40988506  0.33545656  0.63373671  1
  O2-  O497  1  0.38008516  0.34256860  0.99134968  1
  O2-  O498  1  0.39940254  0.59855691  0.33123228  1
  O2-  O499  1  0.41985066  0.58439043  0.64673706  1
  O2-  O500  1  0.41546475  0.58852221  0.97676707  1
  O2-  O501  1  0.42753226  0.83718697  0.32934718  1
  O2-  O502  1  0.40346542  0.82048400  0.63750184  1
  O2-  O503  1  0.42253487  0.84823317  0.96403730  1
  O2-  O504  1  0.67092611  0.08251744  0.32590629  1
  O2-  O505  1  0.63798993  0.08130446  0.63132400  1
  O2-  O506  1  0.66116056  0.08089164  0.97890389  1
  O2-  O507  1  0.63393964  0.35375033  0.31402939  1
  O2-  O508  1  0.63625189  0.32076161  0.65376755  1
  O2-  O509  1  0.68867808  0.33087506  0.98124425  1
  O2-  O510  1  0.55226889  0.54811747  0.27291067  1
  O2-  O511  1  0.65867169  0.57404909  0.63706418  1
  O2-  O512  1  0.68080362  0.59516452  0.97605718  1
  O2-  O513  1  0.66472791  0.82705798  0.30327697  1
  O2-  O514  1  0.66763748  0.83621894  0.65180257  1
  O2-  O515  1  0.66565508  0.83676852  0.97824611  1
  O2-  O516  1  0.89902381  0.07582302  0.35300080  1
  O2-  O517  1  0.90826908  0.08757463  0.64858360  1
  O2-  O518  1  0.91358475  0.06802177  0.98650252  1
  O2-  O519  1  0.90947858  0.33425157  0.31808228  1
  O2-  O520  1  0.91909413  0.33785309  0.63925186  1
  O2-  O521  1  0.92804946  0.34046521  0.97770108  1
  O2-  O522  1  0.95965903  0.54198750  0.29769597  1
  O2-  O523  1  0.91662992  0.56959400  0.62578947  1
  O2-  O524  1  0.92441313  0.58280574  0.97651253  1
  O2-  O525  1  0.93834347  0.84846560  0.30694535  1
  O2-  O526  1  0.91292697  0.83190227  0.65269980  1
  O2-  O527  1  0.91205467  0.82926975  0.98376070  1
  O2-  O528  1  0.05980807  0.14491112  0.02462776  1
  O2-  O529  1  0.07510367  0.13194033  0.36024593  1
  O2-  O530  1  0.06841327  0.17985871  0.70226064  1
  O2-  O531  1  0.10539635  0.42212968  0.01481993  1
  O2-  O532  1  0.07259902  0.42164081  0.35363287  1
  O2-  O533  1  0.10126661  0.43156608  0.70830608  1
  O2-  O534  1  0.08797417  0.66862260  0.01536477  1
  O2-  O535  1  0.09140692  0.65719624  0.35610871  1
  O2-  O536  1  0.07744910  0.66028242  0.68570212  1
  O2-  O537  1  0.08600107  0.91954746  0.01849536  1
  O2-  O538  1  0.10107640  0.91740738  0.36841959  1
  O2-  O539  1  0.08215002  0.91369785  0.68459416  1
  O2-  O540  1  0.32473351  0.17437348  0.02148010  1
  O2-  O541  1  0.35178212  0.18152777  0.34942698  1
  O2-  O542  1  0.31567415  0.17185042  0.68302191  1
  O2-  O543  1  0.30464196  0.42680235  0.02207463  1
  O2-  O544  1  0.34198402  0.43175202  0.35296931  1
  O2-  O545  1  0.32987389  0.41524508  0.67641340  1
  O2-  O546  1  0.32501735  0.67148207  -0.01352820  1
  O2-  O547  1  0.33849219  0.68170924  0.38764685  1
  O2-  O548  1  0.33419513  0.66381076  0.68732717  1
  O2-  O549  1  0.33514872  0.93116948  0.01125034  1
  O2-  O550  1  0.35621577  0.93600299  0.36662937  1
  O2-  O551  1  0.33075358  0.91775974  0.68073962  1
  O2-  O552  1  0.58588518  0.16918790  0.02672601  1
  O2-  O553  1  0.60165801  0.19385094  0.36637332  1
  O2-  O554  1  0.56203343  0.15932402  0.68857802  1
  O2-  O555  1  0.59929183  0.42144047  0.00233034  1
  O2-  O556  1  0.52116275  0.40953186  0.32567610  1
  O2-  O557  1  0.56100365  0.42068582  0.69565468  1
  O2-  O558  1  0.58424925  0.66921534  0.01463651  1
  O2-  O559  1  0.57053670  0.66993449  0.35089165  1
  O2-  O560  1  0.58588929  0.66754866  0.68581281  1
  O2-  O561  1  0.58022045  0.91241025  0.02722165  1
  O2-  O562  1  0.59393482  0.91435000  0.35532032  1
  O2-  O563  1  0.60554944  0.91452535  0.73622156  1
  O2-  O564  1  0.81293666  0.19517496  0.03921599  1
  O2-  O565  1  0.82102397  0.18179023  0.36046696  1
  O2-  O566  1  0.80860104  0.16058978  0.66371552  1
  O2-  O567  1  0.84845345  0.41985093  0.03063010  1
  O2-  O568  1  0.81570629  0.41920284  0.35936667  1
  O2-  O569  1  0.85714960  0.43270469  0.68529173  1
  O2-  O570  1  0.83023867  0.67740108  0.02500299  1
  O2-  O571  1  0.86746589  0.76335750  0.40817824  1
  O2-  O572  1  0.82811332  0.65577737  0.67083157  1
  O2-  O573  1  0.82624891  0.90719545  0.02295400  1
  O2-  O574  1  0.82884135  0.90670180  0.33929610  1
  O2-  O575  1  0.83589284  0.92038000  0.69453242  1
