# generated using pymatgen
data_H2O
_symmetry_space_group_name_H-M   'P 1'
_cell_length_a   17.99117984
_cell_length_b   17.99158945
_cell_length_c   21.99919294
_cell_angle_alpha   89.99143431
_cell_angle_beta   90.00901293
_cell_angle_gamma   120.01111410
_symmetry_Int_Tables_number   1
_chemical_formula_structural   H2O
_chemical_formula_sum   'H384 O192'
_cell_volume   6166.20418897
_cell_formula_units_Z   192
loop_
 _symmetry_equiv_pos_site_id
 _symmetry_equiv_pos_as_xyz
  1  'x, y, z'
loop_
 _atom_type_symbol
 _atom_type_oxidation_number
  H+  1.0
  O2-  -2.0
loop_
 _atom_site_type_symbol
 _atom_site_label
 _atom_site_symmetry_multiplicity
 _atom_site_fract_x
 _atom_site_fract_y
 _atom_site_fract_z
 _atom_site_occupancy
  H+  H0  1  0.48827163  0.88039333  0.66343184  1
  H+  H1  1  0.36036053  0.67444785  0.07376328  1
  H+  H2  1  0.60487667  0.72255246  0.82208685  1
  H+  H3  1  0.29211107  0.89497603  0.36344760  1
  H+  H4  1  0.36743416  0.39190015  0.53514627  1
  H+  H5  1  0.22288955  0.62343404  0.32644385  1
  H+  H6  1  0.61936998  0.63886553  0.00568529  1
  H+  H7  1  0.20870692  0.90662346  1.03585293  1
  H+  H8  1  0.78164788  0.96839636  0.79884966  1
  H+  H9  1  0.10204543  0.13027499  0.33365408  1
  H+  H10  1  0.95367539  0.62938347  0.15516954  1
  H+  H11  1  0.87254692  0.85244129  0.32761378  1
  H+  H12  1  0.04679576  0.05718325  0.67303012  1
  H+  H13  1  0.36942695  0.89184650  0.67272535  1
  H+  H14  1  0.42578853  0.32193929  0.22521043  1
  H+  H15  1  0.77437860  0.13399867  0.15937657  1
  H+  H16  1  0.22373257  0.85796918  0.83539863  1
  H+  H17  1  0.63873076  0.10034786  0.17740451  1
  H+  H18  1  0.97364241  0.36831799  0.66064829  1
  H+  H19  1  0.52143117  0.88502639  0.16048507  1
  H+  H20  1  0.86358415  -0.01878040  1.01261872  1
  H+  H21  1  0.64672006  0.25293974  0.53047830  1
  H+  H22  1  0.66562543  0.61935297  0.16668277  1
  H+  H23  1  0.63548874  0.77355330  0.99691254  1
  H+  H24  1  0.90356736  0.77674564  0.51154770  1
  H+  H25  1  0.38651357  0.52560346  0.83500356  1
  H+  H26  1  0.88301158  0.11520347  0.00065884  1
  H+  H27  1  0.76800931  0.61777443  0.52246707  1
  H+  H28  1  0.13959260  0.76969880  0.66150940  1
  H+  H29  1  0.66835732  0.29129009  0.62840292  1
  H+  H30  1  0.11256877  0.38969539  0.82964038  1
  H+  H31  1  0.96523892  0.60787196  1.00128159  1
  H+  H32  1  0.95113748  0.36705727  0.16923328  1
  H+  H33  1  0.12679289  0.13853192  0.85738321  1
  H+  H34  1  0.51709515  0.63493177  0.81862016  1
  H+  H35  1  0.11154750  -0.02650170  0.49414917  1
  H+  H36  1  0.14732506  0.61840174  0.99171731  1
  H+  H37  1  0.13917256  0.98785518  0.03081525  1
  H+  H38  1  0.23138408  0.61508360  0.84399584  1
  H+  H39  1  0.87909664  0.61539650  0.31813910  1
  H+  H40  1  0.64326369  0.27364618  0.18441023  1
  H+  H41  1  0.37667032  0.32586499  0.31505600  1
  H+  H42  1  0.72907628  0.12455159  0.66187132  1
  H+  H43  1  0.28103550  0.64480277  0.16436109  1
  H+  H44  1  0.36251650  0.65673325  0.34412668  1
  H+  H45  1  0.84511055  0.66899482  0.77937051  1
  H+  H46  1  0.32716329  0.68012488  0.40285047  1
  H+  H47  1  0.47117311  0.86128619  0.51010740  1
  H+  H48  1  0.58115219  0.91507007  0.10041643  1
  H+  H49  1  0.26877995  0.88578702  0.50526037  1
  H+  H50  1  0.87860537  0.60960133  -0.00287227  1
  H+  H51  1  0.96764058  0.36088884  0.98141040  1
  H+  H52  1  0.35093932  0.60092928  0.67272171  1
  H+  H53  1  0.36041986  -0.02723285  0.81808944  1
  H+  H54  1  0.39197084  0.11744708  0.83348877  1
  H+  H55  1  0.36467269  0.22537341  -0.00010828  1
  H+  H56  1  0.35725641  0.64215692  0.49397555  1
  H+  H57  1  0.38461326  0.86217806  0.17233121  1
  H+  H58  1  0.37490706  0.49855701  0.65967032  1
  H+  H59  1  0.37777788  0.89339909  0.34876124  1
  H+  H60  1  0.40203170  0.33065134  0.47010078  1
  H+  H61  1  0.02354634  0.86554940  0.09281908  1
  H+  H62  1  0.52319786  0.89117817  0.34178436  1
  H+  H63  1  0.38346324  0.78225346  0.32920370  1
  H+  H64  1  0.36743081  0.39873673  0.66504244  1
  H+  H65  1  0.84996201  0.96542534  0.34288229  1
  H+  H66  1  0.86495920  -0.01651389  0.17781730  1
  H+  H67  1  0.20189227  0.86189423  0.29812937  1
  H+  H68  1  0.13581014  0.10965870  0.50787686  1
  H+  H69  1  0.27024514  0.54702908  0.71777409  1
  H+  H70  1  0.16811052  0.06663524  0.22812617  1
  H+  H71  1  0.38490423  0.24414925  0.32606145  1
  H+  H72  1  0.86085907  0.88972557  1.01602480  1
  H+  H73  1  0.49078240  0.62930482  0.34221920  1
  H+  H74  1  0.11178775  0.48180907  0.33428851  1
  H+  H75  1  0.03107493  0.15438829  0.63184172  1
  H+  H76  1  0.63628247  0.52032083  0.31845754  1
  H+  H77  1  0.62282716  0.77808931  0.51135874  1
  H+  H78  1  0.84505870  0.48576746  0.15109615  1
  H+  H79  1  0.21879648  0.10056081  0.32259406  1
  H+  H80  1  0.32946119  0.42365332  0.58580855  1
  H+  H81  1  0.44663731  0.72263714  0.03911030  1
  H+  H82  1  0.60148674  0.88595117  0.00539091  1
  H+  H83  1  0.22929468  0.11280198  -0.00060870  1
  H+  H84  1  0.57953610  0.18561621  0.72052863  1
  H+  H85  1  0.85436177  0.47087502  0.00345668  1
  H+  H86  1  0.33241971  0.42132564  0.75987844  1
  H+  H87  1  0.08833520  0.40538467  0.15309124  1
  H+  H88  1  0.64968083  0.89119466  0.66031071  1
  H+  H89  1  0.14105976  0.52588023  0.84266024  1
  H+  H90  1  0.16774931  0.57898790  0.93321486  1
  H+  H91  1  0.13736558  0.27374413  0.99949380  1
  H+  H92  1  0.86922102  0.49028020  0.32380824  1
  H+  H93  1  0.11156169  0.39085401  0.48581069  1
  H+  H94  1  0.58672655  0.42523360  0.08799397  1
  H+  H95  1  0.83570236  0.65956694  0.06990245  1
  H+  H96  1  0.16593208  0.76507115  0.01489583  1
  H+  H97  1  0.38172512  0.85915109  0.51818760  1
  H+  H98  1  0.38537306  1.01521352  0.17234428  1
  H+  H99  1  0.38227597  0.78681654  0.00633146  1
  H+  H100  1  0.63343679  0.52184271  0.99084985  1
  H+  H101  1  0.87925607  0.36217716  0.98844997  1
  H+  H102  1  0.51580658  0.89472938  1.01215416  1
  H+  H103  1  0.95368948  0.89563842  0.15921138  1
  H+  H104  1  0.46307507  0.34149534  0.65425435  1
  H+  H105  1  0.11824914  0.64191626  0.67908294  1
  H+  H106  1  0.72005206  0.86558462  1.00030237  1
  H+  H107  1  0.83265751  0.90841412  0.40281377  1
  H+  H108  1  0.13470396  0.85587932  0.65891632  1
  H+  H109  1  0.65121996  0.52420264  0.16268577  1
  H+  H110  1  0.65582138  0.78725221  0.17663603  1
  H+  H111  1  0.52523042  0.12759651  0.50155609  1
  H+  H112  1  0.09739453  0.71221173  -0.03358899  1
  H+  H113  1  0.88490272  0.86050997  0.66599785  1
  H+  H114  1  0.30499264  0.11634438  0.65808734  1
  H+  H115  1  0.35813839  0.73151916  0.49550502  1
  H+  H116  1  0.09950699  0.72462967  0.33152740  1
  H+  H117  1  0.63358422  0.86335939  0.17694816  1
  H+  H118  1  0.52877468  0.63427338  0.00486964  1
  H+  H119  1  0.12362265  0.88579284  0.82256620  1
  H+  H120  1  0.33057618  0.91516105  0.75762869  1
  H+  H121  1  0.76596860  0.39022402  0.16300207  1
  H+  H122  1  0.22045035  0.36311913  0.51360162  1
  H+  H123  1  0.88545147  0.10813294  0.50749381  1
  H+  H124  1  0.67314861  0.57998168  0.25951174  1
  H+  H125  1  0.38555789  0.10414802  0.17297044  1
  H+  H126  1  0.38093389  0.10864700  0.98660312  1
  H+  H127  1  0.10166378  0.21812818  0.33512928  1
  H+  H128  1  0.12691799  0.01608588  0.32461411  1
  H+  H129  1  0.13401383  0.77114220  0.83755444  1
  H+  H130  1  0.63001396  0.26674716  -0.01590837  1
  H+  H131  1  0.61124877  0.38398243  -0.00562634  1
  H+  H132  1  0.61926921  0.72714533  0.34254721  1
  H+  H133  1  0.47706010  0.32418018  0.50278368  1
  H+  H134  1  0.90331727  0.07580020  0.60184626  1
  H+  H135  1  0.02367165  0.13678356  0.00603197  1
  H+  H136  1  0.15593313  0.54428890  0.17051847  1
  H+  H137  1  0.88814506  0.26855907  0.50696730  1
  H+  H138  1  0.38659794  1.01306282  0.52300381  1
  H+  H139  1  0.98857327  0.63324421  0.66612216  1
  H+  H140  1  0.42356053  0.83649574  0.60886488  1
  H+  H141  1  0.13145874  0.61816493  0.32400934  1
  H+  H142  1  0.07957113  0.16340646  0.43562648  1
  H+  H143  1  0.87282822  0.10599222  0.32463291  1
  H+  H144  1  0.27815786  0.88638160  0.66902154  1
  H+  H145  1  0.98406944  0.11558623  0.85943153  1
  H+  H146  1  0.52709287  0.14452501  0.81527773  1
  H+  H147  1  0.62397960  0.60809821  0.83654401  1
  H+  H148  1  0.63651183  0.01845166  0.51053826  1
  H+  H149  1  0.12989552  0.36265260  0.32115332  1
  H+  H150  1  0.14668482  0.28147766  0.85624817  1
  H+  H151  1  0.01377717  0.63503314  0.33292028  1
  H+  H152  1  0.60143903  0.88442864  0.50001715  1
  H+  H153  1  0.88445973  0.27791932  0.83184204  1
  H+  H154  1  0.60998705  0.88688973  0.34593977  1
  H+  H155  1  0.11880328  0.96415218  0.66944955  1
  H+  H156  1  0.88178824  0.75907747  0.85449665  1
  H+  H157  1  0.36752064  0.63756467  0.16691375  1
  H+  H158  1  0.28845794  0.38060998  0.16155328  1
  H+  H159  1  0.11775009  0.76378321  0.15883883  1
  H+  H160  1  0.08030557  0.42700582  0.73457780  1
  H+  H161  1  0.46517184  0.09971555  0.98691798  1
  H+  H162  1  0.62202690  0.64404779  0.55406603  1
  H+  H163  1  0.39743103  0.60697986  0.99284816  1
  H+  H164  1  0.75547888  0.64426295  0.50315437  1
  H+  H165  1  0.77302178  0.13036470  0.49782665  1
  H+  H166  1  0.08824074  0.67042172  0.74045210  1
  H+  H167  1  0.63893467  0.50776103  0.47589179  1
  H+  H168  1  0.62469679  0.99893438  0.67322979  1
  H+  H169  1  0.85114152  0.46291882  0.50806872  1
  H+  H170  1  0.10223064  0.63763676  0.14905457  1
  H+  H171  1  0.16306333  0.82785424  0.56957887  1
  H+  H172  1  0.95731055  0.09880817  0.31619003  1
  H+  H173  1  0.77175510  0.13898211  0.34217022  1
  H+  H174  1  0.38105433  0.53483259  0.51843766  1
  H+  H175  1  0.02237090  0.38903014  0.82725630  1
  H+  H176  1  0.41256797  0.10333855  0.61927037  1
  H+  H177  1  0.02313899  0.88507667  0.50032382  1
  H+  H178  1  0.97155838  0.85539988  0.66655163  1
  H+  H179  1  0.93381040  0.80019360  0.16947235  1
  H+  H180  1  0.84448670  0.37900536  0.66952651  1
  H+  H181  1  0.35806794  0.20217349  0.49231500  1
  H+  H182  1  0.89286166  0.96069253  0.09694864  1
  H+  H183  1  0.86934484  0.37671109  0.17337688  1
  H+  H184  1  0.61034760  0.38813579  0.82578079  1
  H+  H185  1  0.60289762  0.42396335  0.67139492  1
  H+  H186  1  0.48327053  0.36558467  0.83662187  1
  H+  H187  1  0.60503767  0.12859737  0.99759138  1
  H+  H188  1  0.84345173  0.71023609  0.67910891  1
  H+  H189  1  0.36127395  0.11936838  0.33790063  1
  H+  H190  1  -0.01818684  0.60177661  0.51069614  1
  H+  H191  1  0.85370726  0.22387575  0.00175555  1
  H+  H192  1  0.97466746  0.36042241  0.50219848  1
  H+  H193  1  0.17748870  0.11428982  0.65607380  1
  H+  H194  1  0.96059914  0.85027921  1.00296190  1
  H+  H195  1  0.72336940  0.60949243  0.99605908  1
  H+  H196  1  0.35637628  0.42321252  0.33850685  1
  H+  H197  1  0.10945524  0.22182354  0.49547072  1
  H+  H198  1  0.54859960  0.64679528  0.15903581  1
  H+  H199  1  0.23630409  0.11809723  0.84788824  1
  H+  H200  1  0.11525707  0.11536713  0.15459865  1
  H+  H201  1  0.63629283  0.02414257  0.33509196  1
  H+  H202  1  0.28275046  0.13166522  0.15645639  1
  H+  H203  1  0.11576195  0.72953521  0.49312797  1
  H+  H204  1  0.64077394  0.10871429  0.50911842  1
  H+  H205  1  0.15999240  0.34865102  0.16603908  1
  H+  H206  1  0.86377874  0.63433254  0.67886499  1
  H+  H207  1  0.86170979  0.72753932  0.33085511  1
  H+  H208  1  0.41126071  0.58515522  0.38485362  1
  H+  H209  1  0.88836806  0.64022009  0.83187654  1
  H+  H210  1  0.82253632  0.41111265  0.06193268  1
  H+  H211  1  0.72027895  0.11205506  0.98912256  1
  H+  H212  1  -0.03675113  0.85820164  0.32882640  1
  H+  H213  1  0.60765992  0.88964427  0.82842117  1
  H+  H214  1  0.09620373  0.88269479  0.33899743  1
  H+  H215  1  0.66942457  0.08927892  0.60401084  1
  H+  H216  1  0.36995315  0.47161507  1.00481767  1
  H+  H217  1  0.27860018  0.38563755  1.01035922  1
  H+  H218  1  0.39577723  0.35871324  0.16960894  1
  H+  H219  1  0.53292882  0.14440494  0.34254490  1
  H+  H220  1  0.96620875  0.73270756  0.44540489  1
  H+  H221  1  0.57846040  0.32618408  0.67814623  1
  H+  H222  1  0.77279834  0.89097150  0.67222088  1
  H+  H223  1  0.10569911  0.48693140  0.67410998  1
  H+  H224  1  0.22114731  0.37014320  0.31128055  1
  H+  H225  1  -0.02505492  0.03734791  0.13523806  1
  H+  H226  1  0.09224152  0.17066861  0.80382692  1
  H+  H227  1  0.63437136  0.12023932  0.82959645  1
  H+  H228  1  0.89372613  0.03045878  0.84604298  1
  H+  H229  1  0.51062418  0.14296334  0.15432342  1
  H+  H230  1  0.60627089  0.47590824  0.83164658  1
  H+  H231  1  0.11522945  0.24368739  0.63138061  1
  H+  H232  1  0.09989003  0.19406387  0.15942068  1
  H+  H233  1  0.64906216  0.59938778  0.60781147  1
  H+  H234  1  0.76939602  0.13790087  0.82655732  1
  H+  H235  1  0.90201254  0.61178001  0.50501846  1
  H+  H236  1  0.86650135  0.23320905  0.67213095  1
  H+  H237  1  0.13561332  0.61411513  0.50407996  1
  H+  H238  1  0.03663445  0.02772512  0.69987497  1
  H+  H239  1  0.85563496  0.72325158  0.01346226  1
  H+  H240  1  0.64991919  0.27803680  0.34179613  1
  H+  H241  1  0.87907515  0.88879695  0.49283812  1
  H+  H242  1  0.52020738  0.37323126  0.33832630  1
  H+  H243  1  0.87490820  0.97568348  0.49085615  1
  H+  H244  1  0.39165995  0.36440044  0.83299683  1
  H+  H245  1  0.86143514  0.83686198  0.85553295  1
  H+  H246  1  0.72092332  0.85962932  0.33678565  1
  H+  H247  1  0.60869521  0.33572458  0.51484527  1
  H+  H248  1  0.22585668  0.38538224  0.65413745  1
  H+  H249  1  0.59362011  0.49927436  0.47305136  1
  H+  H250  1  0.26492333  0.87943347  0.16340757  1
  H+  H251  1  -0.02223913  0.37239342  0.32567016  1
  H+  H252  1  0.63229024  0.54563692  0.70224291  1
  H+  H253  1  0.01264072  0.62647400  0.82830346  1
  H+  H254  1  0.86858704  0.49297320  0.82343801  1
  H+  H255  1  0.22441356  0.61485435  0.50417729  1
  H+  H256  1  0.38685782  0.20714244  0.65922040  1
  H+  H257  1  0.11078695  0.47951356  0.48821242  1
  H+  H258  1  0.22111012  0.60165874  0.66110693  1
  H+  H259  1  0.53380588  0.39479736  0.14978167  1
  H+  H260  1  0.72976436  0.37195838  0.83006222  1
  H+  H261  1  0.97513402  0.10969310  0.51154951  1
  H+  H262  1  0.13584909  0.86190939  0.50955233  1
  H+  H263  1  0.72928823  0.34750759  0.53270805  1
  H+  H264  1  0.77861218  0.39348338  0.33853241  1
  H+  H265  1  0.13524716  0.36155135  1.00259746  1
  H+  H266  1  0.15018285  0.01407334  0.16520728  1
  H+  H267  1  0.61979561  0.14133909  0.34534575  1
  H+  H268  1  0.11409567  0.49068664  0.00344068  1
  H+  H269  1  0.37066987  0.23466791  0.82288958  1
  H+  H270  1  0.27729462  0.39116655  0.82174149  1
  H+  H271  1  0.46604429  0.85980146  0.83053531  1
  H+  H272  1  0.12786973  0.97666328  0.82155053  1
  H+  H273  1  0.61676335  0.23395438  0.81423975  1
  H+  H274  1  0.36017227  0.50055844  0.30826310  1
  H+  H275  1  0.40191116  0.02612297  0.33088935  1
  H+  H276  1  0.51089130  0.63983712  0.49793945  1
  H+  H277  1  0.88090899  0.11324505  0.66124962  1
  H+  H278  1  0.83212364  0.16179218  0.43813546  1
  H+  H279  1  0.86316023  0.97808624  0.67372965  1
  H+  H280  1  0.79657217  0.62249143  0.16779489  1
  H+  H281  1  0.64635586  0.36605625  0.33747289  1
  H+  H282  1  0.84761069  0.23050778  0.15727786  1
  H+  H283  1  0.60987704  -0.01957671  0.82614404  1
  H+  H284  1  0.85895825  0.39827951  0.81871330  1
  H+  H285  1  0.85343637  0.37675808  0.50374895  1
  H+  H286  1  0.52169901  0.38302366  -0.00582180  1
  H+  H287  1  0.13512483  0.38469118  0.65949119  1
  H+  H288  1  0.89706886  0.82156246  0.94399866  1
  H+  H289  1  0.65838614  0.82828660  0.90215945  1
  H+  H290  1  0.41560939  0.84187138  0.26896089  1
  H+  H291  1  0.57490670  0.91793868  0.44011329  1
  H+  H292  1  0.08347937  0.67076020  0.43263342  1
  H+  H293  1  0.57322499  0.16165648  0.05483505  1
  H+  H294  1  0.38573305  0.61477972  0.84053196  1
  H+  H295  1  0.82473020  0.16941668  0.06378631  1
  H+  H296  1  0.91225262  0.34103285  0.26817222  1
  H+  H297  1  0.82346572  0.92598278  0.76033949  1
  H+  H298  1  0.40083284  0.31458402  0.59739843  1
  H+  H299  1  0.37027246  0.86639531  0.99020437  1
  H+  H300  1  0.90973847  0.33622407  0.89044876  1
  H+  H301  1  0.63532993  0.01093106  0.17604451  1
  H+  H302  1  0.42039356  0.57658385  0.93051665  1
  H+  H303  1  0.41941709  0.08318457  0.89045082  1
  H+  H304  1  0.38666867  0.35700554  0.98753946  1
  H+  H305  1  0.32771414  0.14295238  0.39836857  1
  H+  H306  1  0.18026192  0.35201001  0.90636264  1
  H+  H307  1  0.06592084  0.17208285  0.73099842  1
  H+  H308  1  0.56346793  0.29943347  0.45260699  1
  H+  H309  1  0.92754139  0.59649348  0.60749864  1
  H+  H310  1  0.63138727  0.02277953  0.98899497  1
  H+  H311  1  0.66040017  0.84446770  0.56671731  1
  H+  H312  1  0.22208639  0.10293272  0.50217998  1
  H+  H313  1  0.08204266  0.42195354  0.39381842  1
  H+  H314  1  0.72526131  0.57896471  0.67749187  1
  H+  H315  1  0.91769008  0.82840989  0.57524481  1
  H+  H316  1  0.35601959  0.11394586  0.50066427  1
  H+  H317  1  0.58126612  0.68020623  0.72149716  1
  H+  H318  1  0.34461932  0.41542422  0.10084586  1
  H+  H319  1  0.65905295  0.08956784  0.89199456  1
  H+  H320  1  0.71419318  0.85571916  0.84143245  1
  H+  H321  1  0.32893800  0.65640094  0.77174237  1
  H+  H322  1  0.59330386  0.93282629  0.73090635  1
  H+  H323  1  0.09040308  0.91150285  0.73203500  1
  H+  H324  1  0.07506084  0.91416323  0.40210397  1
  H+  H325  1  0.87562320  0.39635678  0.33112667  1
  H+  H326  1  0.65634388  0.58405810  0.89714860  1
  H+  H327  1  0.16515735  0.58623599  0.59951626  1
  H+  H328  1  0.87290306  0.68320447  0.41904179  1
  H+  H329  1  0.10982716  0.63548440  0.83033821  1
  H+  H330  1  0.37667830  0.85731280  0.82822747  1
  H+  H331  1  0.63767687  0.79695390  0.66058570  1
  H+  H332  1  0.13055748  0.82135924  0.25024642  1
  H+  H333  1  0.41056991  0.59817774  0.57421240  1
  H+  H334  1  0.76240713  0.92743390  0.20778449  1
  H+  H335  1  0.34044454  0.16699371  0.06083584  1
  H+  H336  1  0.85992050  0.13969083  0.83184089  1
  H+  H337  1  0.14119992  0.44254761  0.09446200  1
  H+  H338  1  0.77408394  0.63470377  0.33530415  1
  H+  H339  1  0.07867961  0.66935724  0.08789881  1
  H+  H340  1  0.31298026  0.90361116  0.10216120  1
  H+  H341  1  0.66046106  0.83134116  0.27724365  1
  H+  H342  1  0.54316412  0.23041344  0.12075161  1
  H+  H343  1  0.15127867  0.34013265  0.56201817  1
  H+  H344  1  0.08438126  0.15824162  0.06344978  1
  H+  H345  1  0.66788990  0.33277589  0.88833460  1
  H+  H346  1  0.03885966  0.42709770  0.05112631  1
  H+  H347  1  0.33309240  0.96909343  -0.01849508  1
  H+  H348  1  0.60293551  0.67757857  0.09894034  1
  H+  H349  1  0.16492239  0.31288384  0.23010334  1
  H+  H350  1  0.67964640  0.32845368  0.24627029  1
  H+  H351  1  0.61732103  0.63615649  0.33550348  1
  H+  H352  1  0.81308650  0.41332914  0.72296667  1
  H+  H353  1  0.86159702  0.22715612  0.34184618  1
  H+  H354  1  0.18345670  0.07480279  0.59496224  1
  H+  H355  1  0.91740760  0.33361582  0.59979851  1
  H+  H356  1  0.16780816  0.59942513  0.23007626  1
  H+  H357  1  0.34038059  0.92130581  0.45138135  1
  H+  H358  1  0.09029937  0.22043231  0.73485227  1
  H+  H359  1  0.13658046  0.10662990  0.99795239  1
  H+  H360  1  0.66573810  0.07933196  0.27399247  1
  H+  H361  1  0.83513488  0.17322061  0.73181638  1
  H+  H362  1  0.12102594  0.85270974  0.15383462  1
  H+  H363  1  0.42389971  0.07849651  0.26755743  1
  H+  H364  1  0.58375178  0.16182200  0.44107397  1
  H+  H365  1  0.90697103  0.59026200  0.25575879  1
  H+  H366  1  0.37150937  0.22175133  0.15613628  1
  H+  H367  1  0.17805830  0.07787367  0.90850419  1
  H+  H368  1  0.36288516  0.72964797  0.82545900  1
  H+  H369  1  0.60481972  0.67363500  0.64990523  1
  H+  H370  1  0.46574717  0.62339949  0.65567257  1
  H+  H371  1  0.41414378  0.32800465  0.92569686  1
  H+  H372  1  0.39022092  0.77638531  0.17658165  1
  H+  H373  1  0.39957427  0.52403636  0.17063956  1
  H+  H374  1  0.84373574  0.01323778  0.24799947  1
  H+  H375  1  0.57934114  0.66166327  0.44342447  1
  H+  H376  1  0.35846611  0.37546305  0.41242926  1
  H+  H377  1  0.34272027  0.16950703  0.76598361  1
  H+  H378  1  0.43480123  0.58560832  0.22767999  1
  H+  H379  1  0.71988448  0.35508011  0.98793659  1
  H+  H380  1  0.92344608  0.57802402  0.89052738  1
  H+  H381  1  0.91286443  0.08359102  0.94257757  1
  H+  H382  1  0.57867277  0.41809455  0.39637516  1
  H+  H383  1  0.32893838  0.39012245  0.42574145  1
  O2-  O384  1  0.07637192  0.13650778  0.14041647  1
  O2-  O385  1  0.08273037  0.16159812  0.48049504  1
  O2-  O386  1  0.09360062  0.16995097  0.84837820  1
  O2-  O387  1  0.14724874  0.44261767  0.13955264  1
  O2-  O388  1  0.08091772  0.42048636  0.46986076  1
  O2-  O389  1  0.08411209  0.42091866  0.81379152  1
  O2-  O390  1  0.06868680  0.66348921  0.13224242  1
  O2-  O391  1  0.08626447  0.66886618  0.47751982  1
  O2-  O392  1  0.07898880  0.66322345  0.81336106  1
  O2-  O393  1  0.05239173  0.86749099  0.05285484  1
  O2-  O394  1  0.08105738  0.91230084  0.47970118  1
  O2-  O395  1  0.09946314  0.91979012  0.80244039  1
  O2-  O396  1  0.34308049  0.16058176  0.14151281  1
  O2-  O397  1  0.32728615  0.14117721  0.47854953  1
  O2-  O398  1  0.33806743  0.17180516  0.81038345  1
  O2-  O399  1  0.34804850  0.41745426  0.14659608  1
  O2-  O400  1  0.33171478  0.41820097  0.54098002  1
  O2-  O401  1  0.33663910  0.42078685  0.80481941  1
  O2-  O402  1  0.34203081  0.67163270  0.15084999  1
  O2-  O403  1  0.32716688  0.67200242  0.47650697  1
  O2-  O404  1  0.33349837  0.66475860  0.81667569  1
  O2-  O405  1  0.32404903  0.90823520  0.14662692  1
  O2-  O406  1  0.33257456  0.91791215  0.49599373  1
  O2-  O407  1  0.32844705  0.91245950  0.80427876  1
  O2-  O408  1  0.56223472  0.19047681  0.13307678  1
  O2-  O409  1  0.58522680  0.15875841  0.48613447  1
  O2-  O410  1  0.58651114  0.17337844  0.79797269  1
  O2-  O411  1  0.59205770  0.43079531  0.13309415  1
  O2-  O412  1  0.56994607  0.34163690  0.48299899  1
  O2-  O413  1  0.57424496  0.41442826  0.81727369  1
  O2-  O414  1  0.60853704  0.68011292  0.14444551  1
  O2-  O415  1  0.57340952  0.66624108  0.48755276  1
  O2-  O416  1  0.57702754  0.66518006  0.80238309  1
  O2-  O417  1  0.58241516  0.91281735  0.14620086  1
  O2-  O418  1  0.57144436  0.91732405  0.48511454  1
  O2-  O419  1  0.58067848  0.92060538  0.80993197  1
  O2-  O420  1  0.82961356  0.17370907  0.13958754  1
  O2-  O421  1  0.83454520  0.16206928  0.48314836  1
  O2-  O422  1  0.83103649  0.16846666  0.81306785  1
  O2-  O423  1  0.82360999  0.42477215  0.14132815  1
  O2-  O424  1  0.81618508  0.40190071  0.49565242  1
  O2-  O425  1  0.82865847  0.42930846  0.80800265  1
  O2-  O426  1  0.85872905  0.65488420  0.15344132  1
  O2-  O427  1  0.90646165  0.69946273  0.45799602  1
  O2-  O428  1  0.86186153  0.67814827  0.82255142  1
  O2-  O429  1  0.92272888  0.97939457  0.13845501  1
  O2-  O430  1  0.85525839  0.91976101  0.47020487  1
  O2-  O431  1  0.81287227  0.93757676  0.80466640  1
  O2-  O432  1  0.17553924  0.07171779  0.18248307  1
  O2-  O433  1  0.16344912  0.07542052  0.52013757  1
  O2-  O434  1  0.17642876  0.08685533  0.86388972  1
  O2-  O435  1  0.17392561  0.30793108  0.18562515  1
  O2-  O436  1  0.15720652  0.33515715  0.51700038  1
  O2-  O437  1  0.17617577  0.34507070  0.86140412  1
  O2-  O438  1  0.17157954  0.60256318  0.18439829  1
  O2-  O439  1  0.16362872  0.58161618  0.51909786  1
  O2-  O440  1  0.17117284  0.58458773  0.86065197  1
  O2-  O441  1  0.14656389  0.82390052  0.17592515  1
  O2-  O442  1  0.16591611  0.83071515  0.52291200  1
  O2-  O443  1  0.16495239  0.83123980  0.85314088  1
  O2-  O444  1  0.41706190  0.07495037  0.18872655  1
  O2-  O445  1  0.42006747  0.07717361  0.53266137  1
  O2-  O446  1  0.42362076  0.08740133  0.84541465  1
  O2-  O447  1  0.42433229  0.32479641  0.18040266  1
  O2-  O448  1  0.41503905  0.31097830  0.50798515  1
  O2-  O449  1  0.41828621  0.33205157  0.84981802  1
  O2-  O450  1  0.42933443  0.58600842  0.18363919  1
  O2-  O451  1  0.40943604  0.59724253  0.52553064  1
  O2-  O452  1  0.41702153  0.58389386  0.85372501  1
  O2-  O453  1  0.41850197  0.83758683  0.19045058  1
  O2-  O454  1  0.41085377  0.82558990  0.52622168  1
  O2-  O455  1  0.40567860  0.82586579  0.84396558  1
  O2-  O456  1  0.66704138  0.07068580  0.19405319  1
  O2-  O457  1  0.67292364  0.08013086  0.52320110  1
  O2-  O458  1  0.66315256  0.08906071  0.84687454  1
  O2-  O459  1  0.68530651  0.32970307  0.20152789  1
  O2-  O460  1  0.66951719  0.30938890  0.55096687  1
  O2-  O461  1  0.66759649  0.33407969  0.84333275  1
  O2-  O462  1  0.68892592  0.58318009  0.18202914  1
  O2-  O463  1  0.65004280  0.65209874  0.59391942  1
  O2-  O464  1  0.65050078  0.57541815  0.85275604  1
  O2-  O465  1  0.67035473  0.84279203  0.19677613  1
  O2-  O466  1  0.64924698  0.83950998  0.52213792  1
  O2-  O467  1  0.65450008  0.82608735  0.85686562  1
  O2-  O468  1  0.81768290  -0.01431648  0.20703937  1
  O2-  O469  1  0.91381332  0.07672600  0.52408108  1
  O2-  O470  1  0.92059516  0.08766843  0.86583330  1
  O2-  O471  1  0.89650603  0.34320126  0.19039508  1
  O2-  O472  1  0.91667120  0.32955054  0.52097687  1
  O2-  O473  1  0.91680377  0.33887862  0.84561082  1
  O2-  O474  1  0.89515912  0.60094447  0.17379649  1
  O2-  O475  1  0.92157396  0.57544985  0.52513232  1
  O2-  O476  1  0.92578326  0.58142302  0.84623788  1
  O2-  O477  1  0.97988574  0.85868256  0.16050141  1
  O2-  O478  1  0.92506771  0.83417140  0.52962377  1
  O2-  O479  1  0.89416696  0.81532722  0.87660777  1
  O2-  O480  1  0.16023683  0.07405884  0.30476876  1
  O2-  O481  1  0.19630955  0.07592396  0.63951431  1
  O2-  O482  1  0.16707936  0.07443504  0.98827316  1
  O2-  O483  1  0.15838270  0.33022430  0.30699303  1
  O2-  O484  1  0.16608953  0.35853453  0.63842386  1
  O2-  O485  1  0.16950210  0.33624810  0.98827428  1
  O2-  O486  1  0.16422483  0.59075455  0.30815645  1
  O2-  O487  1  0.16258690  0.58553681  0.64478871  1
  O2-  O488  1  0.16316542  0.57551485  0.97938305  1
  O2-  O489  1  0.13972037  0.82635674  0.29571334  1
  O2-  O490  1  0.16604149  0.82779706  0.64113201  1
  O2-  O491  1  0.24373971  0.87705623  1.03488103  1
  O2-  O492  1  0.42729762  0.08468666  0.31290862  1
  O2-  O493  1  0.44256577  0.07714927  0.59654581  1
  O2-  O494  1  0.40489624  0.07249568  0.97142872  1
  O2-  O495  1  0.41679500  0.30497837  0.30915943  1
  O2-  O496  1  0.40064630  0.31927704  0.64168202  1
  O2-  O497  1  0.41488515  0.32534885  0.97161317  1
  O2-  O498  1  0.42497404  0.60308305  0.34243502  1
  O2-  O499  1  0.40716938  0.58469163  0.63986412  1
  O2-  O500  1  0.42281246  0.57319606  0.97618137  1
  O2-  O501  1  0.41709525  0.84342348  0.31455773  1
  O2-  O502  1  0.42618459  0.84539796  0.65327252  1
  O2-  O503  1  0.40909124  0.84945066  1.00961488  1
  O2-  O504  1  0.66677426  0.08484393  0.31910485  1
  O2-  O505  1  0.66802594  0.09257771  0.64894708  1
  O2-  O506  1  0.66028339  0.08269180  0.97267587  1
  O2-  O507  1  0.68156596  0.33923140  0.32669873  1
  O2-  O508  1  0.65794464  0.28172809  0.67358054  1
  O2-  O509  1  0.66063308  0.32792121  0.97097728  1
  O2-  O510  1  0.66791640  0.58093301  0.30500123  1
  O2-  O511  1  0.66204831  0.53729710  0.66824253  1
  O2-  O512  1  0.66364996  0.58454709  0.98062210  1
  O2-  O513  1  0.65881983  0.82959603  0.32239624  1
  O2-  O514  1  0.67720417  0.85702546  0.64568918  1
  O2-  O515  1  0.66169772  0.83465982  0.98256286  1
  O2-  O516  1  0.89467609  0.06876276  0.30731967  1
  O2-  O517  1  0.90809759  0.07931726  0.64717565  1
  O2-  O518  1  0.91487911  0.08512763  0.98812111  1
  O2-  O519  1  0.91501537  0.34317604  0.31353891  1
  O2-  O520  1  0.91402485  0.33270574  0.64508353  1
  O2-  O521  1  0.90631135  0.32946284  0.97092184  1
  O2-  O522  1  0.90878199  0.58398674  0.30046033  1
  O2-  O523  1  0.92911346  0.61088691  0.65086392  1
  O2-  O524  1  0.90727573  0.57610283  0.98502232  1
  O2-  O525  1  0.90430012  0.82389970  0.31224865  1
  O2-  O526  1  0.91130720  0.82673134  0.65090221  1
  O2-  O527  1  0.89984723  0.82596825  0.99141934  1
  O2-  O528  1  0.08561993  0.16537032  0.01829630  1
  O2-  O529  1  0.06928626  0.15741048  0.34882688  1
  O2-  O530  1  0.09231310  0.18270586  0.62064716  1
  O2-  O531  1  0.08154657  0.42761939  0.02355066  1
  O2-  O532  1  0.08018098  0.42063519  0.34779789  1
  O2-  O533  1  0.07808008  0.42597303  0.68921822  1
  O2-  O534  1  0.11779897  0.70604096  0.00627646  1
  O2-  O535  1  0.07356981  0.66597448  0.34900442  1
  O2-  O536  1  0.09154247  0.67513054  0.69426518  1
  O2-  O537  1  0.13795634  0.94409951  0.06075990  1
  O2-  O538  1  0.07186709  0.91656752  0.35647752  1
  O2-  O539  1  0.08259740  0.90546566  0.68559591  1
  O2-  O540  1  0.33404062  0.16459905  0.01577619  1
  O2-  O541  1  0.32802621  0.14694638  0.35302654  1
  O2-  O542  1  0.36693684  0.14650809  0.66922009  1
  O2-  O543  1  0.33990072  0.41234104  0.02294954  1
  O2-  O544  1  0.33469354  0.43765600  0.30232703  1
  O2-  O545  1  0.33687989  0.43110866  0.67197144  1
  O2-  O546  1  0.38532776  0.68570223  0.03184060  1
  O2-  O547  1  0.32731881  0.68242551  0.35645725  1
  O2-  O548  1  0.30179056  0.60441303  0.70031251  1
  O2-  O549  1  0.29299336  0.90470676  -0.02216682  1
  O2-  O550  1  0.35386176  0.92785086  0.36972339  1
  O2-  O551  1  0.33601837  0.91972379  0.68694199  1
  O2-  O552  1  0.57167805  0.15750291  0.00997016  1
  O2-  O553  1  0.59158963  0.17380414  0.36081645  1
  O2-  O554  1  0.57596670  0.20159877  0.67695327  1
  O2-  O555  1  0.58210532  0.41548018  0.00943543  1
  O2-  O556  1  0.58068436  0.41118080  0.35226630  1
  O2-  O557  1  0.55459202  0.36424123  0.67303404  1
  O2-  O558  1  0.58855200  0.66956677  0.02079869  1
  O2-  O559  1  0.58807392  0.66485105  0.35492246  1
  O2-  O560  1  0.57491124  0.69392950  0.67876375  1
  O2-  O561  1  0.57843516  0.92136549  0.02300027  1
  O2-  O562  1  0.58265763  0.92127067  0.35841005  1
  O2-  O563  1  0.59712494  0.93576215  0.68581143  1
  O2-  O564  1  0.82400753  0.16427523  0.01806194  1
  O2-  O565  1  0.83338038  0.16662186  0.35527172  1
  O2-  O566  1  0.83622206  0.17181924  0.68675314  1
  O2-  O567  1  0.82573763  0.40915999  0.01676712  1
  O2-  O568  1  0.84447243  0.43021211  0.34325554  1
  O2-  O569  1  0.80242656  0.39687123  0.67962129  1
  O2-  O570  1  0.82916891  0.66086954  0.02542774  1
  O2-  O571  1  0.83634004  0.66517741  0.34597279  1
  O2-  O572  1  0.82146694  0.65168126  0.69517836  1
  O2-  O573  1  0.83741278  0.92488030  0.03470552  1
  O2-  O574  1  0.82081916  0.90487247  0.35661836  1
  O2-  O575  1  0.83299853  0.91750937  0.69005206  1
