# generated using pymatgen
data_H2O
_symmetry_space_group_name_H-M   'P 1'
_cell_length_a   17.99177825
_cell_length_b   17.98852990
_cell_length_c   21.99143052
_cell_angle_alpha   90.00548899
_cell_angle_beta   90.01214047
_cell_angle_gamma   120.01020403
_symmetry_Int_Tables_number   1
_chemical_formula_structural   H2O
_chemical_formula_sum   'H384 O192'
_cell_volume   6163.24154388
_cell_formula_units_Z   192
loop_
 _symmetry_equiv_pos_site_id
 _symmetry_equiv_pos_as_xyz
  1  'x, y, z'
loop_
 _atom_type_symbol
 _atom_type_oxidation_number
  H+  1.0
  O2-  -2.0
loop_
 _atom_site_type_symbol
 _atom_site_label
 _atom_site_symmetry_multiplicity
 _atom_site_fract_x
 _atom_site_fract_y
 _atom_site_fract_z
 _atom_site_occupancy
  H+  H0  1  0.24757575  0.61564277  0.16160199  1
  H+  H1  1  0.39341033  0.37262990  0.98543861  1
  H+  H2  1  0.88451332  0.77361635  -0.01156086  1
  H+  H3  1  0.96253556  0.61508470  0.51482215  1
  H+  H4  1  0.21354615  0.59257169  0.68412412  1
  H+  H5  1  0.89402927  0.88733801  0.64836784  1
  H+  H6  1  0.86125881  0.88642153  0.49748533  1
  H+  H7  1  0.62093729  0.71520454  0.79767338  1
  H+  H8  1  0.86257102  0.97561245  0.81235400  1
  H+  H9  1  0.86859741  0.26788765  0.00352010  1
  H+  H10  1  0.36677730  0.47560992  0.49018615  1
  H+  H11  1  0.14928206  0.27912609  1.00293912  1
  H+  H12  1  0.86151952  0.39751118  0.49526668  1
  H+  H13  1  0.01498959  0.38561737  0.35283074  1
  H+  H14  1  0.64693463  0.89453747  0.64945925  1
  H+  H15  1  0.88699776  0.27844274  0.33948684  1
  H+  H16  1  0.36528728  0.74236292  -0.01123244  1
  H+  H17  1  0.65677332  0.09015464  0.22995750  1
  H+  H18  1  0.15793480  0.77184293  0.53552433  1
  H+  H19  1  0.48303192  0.79129808  0.23799438  1
  H+  H20  1  0.72616092  0.83850454  0.36971326  1
  H+  H21  1  0.52004892  0.38008949  0.41473551  1
  H+  H22  1  0.14098345  0.63270993  -0.00107116  1
  H+  H23  1  0.50590126  0.12480424  0.33870835  1
  H+  H24  1  0.87659915  0.54130481  0.67945000  1
  H+  H25  1  0.15826824  0.37300705  0.64923556  1
  H+  H26  1  0.60901074  0.14692415  0.01942728  1
  H+  H27  1  0.51679936  0.13179033  0.67665795  1
  H+  H28  1  0.60547881  0.74183667  0.48756428  1
  H+  H29  1  0.61399816  0.99011609  0.49336226  1
  H+  H30  1  0.49129570  0.13238343  0.98336109  1
  H+  H31  1  0.77353593  0.13231057  0.02308078  1
  H+  H32  1  0.78844798  0.17346381  0.67069808  1
  H+  H33  1  0.15770502  0.82405146  0.90080385  1
  H+  H34  1  0.35394583  0.70386983  0.62149567  1
  H+  H35  1  0.62878314  1.02786650  0.31392999  1
  H+  H36  1  0.23494389  0.11293176  0.54166620  1
  H+  H37  1  0.76895192  0.39173352  0.49170042  1
  H+  H38  1  0.21820826  0.85827576  0.17597332  1
  H+  H39  1  0.26703972  0.64746534  0.50136524  1
  H+  H40  1  0.52471694  0.39405792  0.00380285  1
  H+  H41  1  0.78109925  0.14439123  0.82073726  1
  H+  H42  1  0.56241694  0.61049282  0.65241859  1
  H+  H43  1  0.41009976  0.76133328  0.18633309  1
  H+  H44  1  0.52680414  0.89962043  0.49306600  1
  H+  H45  1  0.33814808  0.18739287  0.40157575  1
  H+  H46  1  0.85508694  0.15131886  0.17190999  1
  H+  H47  1  0.62779633  0.35729974  0.18459214  1
  H+  H48  1  0.17452579  0.87463135  0.61578386  1
  H+  H49  1  0.66604046  0.82742679  0.85507522  1
  H+  H50  1  0.33035319  0.11793043  0.53823485  1
  H+  H51  1  0.11297105  0.02150932  0.50857176  1
  H+  H52  1  0.96568010  0.36414582  0.50792620  1
  H+  H53  1  0.35879156  0.36566791  0.15395471  1
  H+  H54  1  0.47182197  0.11896167  0.50651736  1
  H+  H55  1  0.71790136  0.61162667  0.36224653  1
  H+  H56  1  0.61954874  0.26676131  0.19094007  1
  H+  H57  1  0.25686101  0.83369165  0.65212947  1
  H+  H58  1  0.10347304  0.64463395  0.49335960  1
  H+  H59  1  0.85783844  0.64050923  0.33437631  1
  H+  H60  1  0.21220928  0.62118060  0.70859942  1
  H+  H61  1  0.64227056  0.36866827  0.51173510  1
  H+  H62  1  -0.01925697  0.37891768  0.18115899  1
  H+  H63  1  0.21899473  0.85662397  0.32977244  1
  H+  H64  1  0.46118016  0.36103106  0.32938593  1
  H+  H65  1  0.84988756  0.37422677  0.34540100  1
  H+  H66  1  0.13321413  0.63180827  0.84247155  1
  H+  H67  1  0.58079762  0.87961109  0.33471519  1
  H+  H68  1  0.90513290  0.57436000  0.89614816  1
  H+  H69  1  0.96652938  0.61631996  0.30924043  1
  H+  H70  1  0.08915458  0.31234396  0.81153421  1
  H+  H71  1  0.40662921  -0.00543456  0.64994742  1
  H+  H72  1  0.11087809  0.48279382  0.87980143  1
  H+  H73  1  0.60745521  0.13997942  0.49287704  1
  H+  H74  1  0.65887934  0.50164586  0.18402517  1
  H+  H75  1  0.96997547  0.85803538  0.50623268  1
  H+  H76  1  0.59750669  0.88393953  0.01431361  1
  H+  H77  1  0.36603476  0.40827840  0.70939802  1
  H+  H78  1  0.86935051  0.63593916  0.49307420  1
  H+  H79  1  0.65181356  0.27013858  0.64946446  1
  H+  H80  1  0.47090614  0.87713531  0.99160999  1
  H+  H81  1  0.07688300  0.42805317  -0.01213502  1
  H+  H82  1  0.73268706  0.61057294  0.83810571  1
  H+  H83  1  0.15544150  0.28758473  0.66861528  1
  H+  H84  1  0.72755078  0.87344827  0.49936467  1
  H+  H85  1  0.90943250  0.87622361  0.32766248  1
  H+  H86  1  0.15090812  0.62194442  0.30709626  1
  H+  H87  1  0.67188181  0.58812002  0.64905256  1
  H+  H88  1  0.12882775  0.10131933  0.18493962  1
  H+  H89  1  0.88545818  0.30015875  0.18018725  1
  H+  H90  1  1.02282557  0.11755934  0.81726584  1
  H+  H91  1  0.82642701  0.42228789  0.73247587  1
  H+  H92  1  0.71344988  0.84925989  0.16809934  1
  H+  H93  1  0.49580176  0.63071374  0.15445324  1
  H+  H94  1  0.91304842  1.00975733  0.34576667  1
  H+  H95  1  0.89254218  0.32675007  0.90895845  1
  H+  H96  1  0.99778218  0.13277408  0.32875519  1
  H+  H97  1  0.88629125  0.76206690  0.17405101  1
  H+  H98  1  0.58457587  0.46070523  0.37394795  1
  H+  H99  1  0.28729841  0.39036204  0.79932138  1
  H+  H100  1  0.61137716  0.89502991  0.80615081  1
  H+  H101  1  0.11371144  0.14375980  0.01924072  1
  H+  H102  1  0.42356340  0.36211547  0.62005009  1
  H+  H103  1  0.15150214  0.33058420  0.25306002  1
  H+  H104  1  0.31010059  0.56726151  0.72473959  1
  H+  H105  1  0.36506854  0.67679420  0.85796335  1
  H+  H106  1  0.36540449  1.02283448  0.32743892  1
  H+  H107  1  0.52620808  0.88690216  0.16937747  1
  H+  H108  1  0.88859554  0.11189533  0.99886134  1
  H+  H109  1  0.21621247  0.10654589  0.33525177  1
  H+  H110  1  0.36299166  0.65023729  0.98473926  1
  H+  H111  1  0.97264773  0.98886094  0.38551104  1
  H+  H112  1  0.89990666  0.43727044  0.17156987  1
  H+  H113  1  0.65884107  0.58618281  0.41880657  1
  H+  H114  1  0.47938317  0.88750907  0.83040362  1
  H+  H115  1  0.02378709  0.39721818  0.88360622  1
  H+  H116  1  0.88538983  0.27822116  0.84592252  1
  H+  H117  1  0.38345666  0.53240009  -0.02307094  1
  H+  H118  1  0.72400631  0.10958585  0.50477980  1
  H+  H119  1  0.28317732  0.39210233  0.99733995  1
  H+  H120  1  0.72850458  0.86610255  0.80058971  1
  H+  H121  1  0.11228189  0.22870115  0.17712978  1
  H+  H122  1  0.85089470  0.46999356  0.82697682  1
  H+  H123  1  0.64137807  0.87963935  0.49922303  1
  H+  H124  1  0.57485174  0.17254410  0.73532527  1
  H+  H125  1  0.11304303  -0.03047406  0.34825824  1
  H+  H126  1  0.41023907  0.04461892  0.96266940  1
  H+  H127  1  0.11708064  0.47279797  0.62641908  1
  H+  H128  1  0.75192752  0.37964409  0.34617804  1
  H+  H129  1  0.29626144  0.38752683  0.65997022  1
  H+  H130  1  0.60670602  0.22776717  0.48825775  1
  H+  H131  1  0.85155138  0.38171613  0.83060093  1
  H+  H132  1  0.86447796  -0.00061032  0.66339870  1
  H+  H133  1  0.37234354  0.36180287  0.32334543  1
  H+  H134  1  0.11902470  0.71894496  0.16801691  1
  H+  H135  1  0.08383050  0.17218087  0.07914463  1
  H+  H136  1  0.40446342  0.15193588  0.80861982  1
  H+  H137  1  0.61314161  0.48363167  0.00676794  1
  H+  H138  1  0.14964740  0.97666751  0.67010979  1
  H+  H139  1  0.52937354  0.93012475  0.66157984  1
  H+  H140  1  0.87705851  0.41406654  0.67548402  1
  H+  H141  1  0.63233993  1.02964312  0.17012364  1
  H+  H142  1  0.87377070  0.52627094  0.50202228  1
  H+  H143  1  0.62472514  0.76837892  1.00620933  1
  H+  H144  1  0.46232707  0.10404908  0.17705662  1
  H+  H145  1  0.88147100  0.61108340  0.83680128  1
  H+  H146  1  0.03551722  0.66211190  0.02758373  1
  H+  H147  1  0.11556017  0.75738581  0.83996585  1
  H+  H148  1  0.34854530  0.89618573  0.80153233  1
  H+  H149  1  1.01812622  0.14234579  0.48310483  1
  H+  H150  1  0.38869821  0.71526816  0.64470406  1
  H+  H151  1  0.11065350  0.89576752  0.50972539  1
  H+  H152  1  0.38423075  0.88043286  -0.01032613  1
  H+  H153  1  0.11268340  0.87930191  0.34561275  1
  H+  H154  1  0.14591727  0.77777082  0.99743060  1
  H+  H155  1  0.66769118  0.84206047  0.95734515  1
  H+  H156  1  0.88769197  0.86599816  0.82525955  1
  H+  H157  1  -0.03236231  0.56933314  -0.02658189  1
  H+  H158  1  0.43223941  0.60427137  0.66735044  1
  H+  H159  1  0.35796610  0.88909364  0.16567626  1
  H+  H160  1  0.26890376  0.34725075  0.12561419  1
  H+  H161  1  0.88231648  0.86106383  0.99122321  1
  H+  H162  1  0.84492174  0.67723396  0.42831324  1
  H+  H163  1  0.40423195  0.57309460  0.27771890  1
  H+  H164  1  0.10801099  0.14019174  0.65383541  1
  H+  H165  1  0.51975862  0.38729596  0.16123401  1
  H+  H166  1  0.46997476  0.51719569  0.21573028  1
  H+  H167  1  0.12317385  0.35638519  0.33964112  1
  H+  H168  1  0.19489490  0.59602853  0.22452496  1
  H+  H169  1  0.22965075  0.35882962  0.49343742  1
  H+  H170  1  0.36577299  0.13995051  0.15470735  1
  H+  H171  1  0.86613140  0.72657541  0.81805946  1
  H+  H172  1  0.71821838  0.87562749  0.37148134  1
  H+  H173  1  0.36555670  0.73582774  0.35346568  1
  H+  H174  1  0.66865095  0.58838325  0.93398456  1
  H+  H175  1  0.34901626  0.43135223  0.05292162  1
  H+  H176  1  0.08398152  0.41357960  0.54324996  1
  H+  H177  1  0.66109877  0.09018792  1.07689091  1
  H+  H178  1  0.86380540  0.97597736  0.01288866  1
  H+  H179  1  0.27688510  0.09281563  0.61485552  1
  H+  H180  1  0.37230470  0.11557921  0.32790642  1
  H+  H181  1  0.35018616  0.68852366  0.08729350  1
  H+  H182  1  0.62884318  0.36575700  0.34422485  1
  H+  H183  1  0.82994114  0.90454084  0.10725981  1
  H+  H184  1  0.41282999  0.67333079  0.12771306  1
  H+  H185  1  0.11974087  0.11350523  0.50138030  1
  H+  H186  1  0.37981606  0.61538132  0.51295174  1
  H+  H187  1  0.12089394  0.73803006  0.68751067  1
  H+  H188  1  0.63438982  0.64419933  0.17807627  1
  H+  H189  1  0.39196966  0.28157096  0.98737069  1
  H+  H190  1  0.02566192  0.13872518  0.16944231  1
  H+  H191  1  0.10806473  0.71895033  0.33078092  1
  H+  H192  1  0.37936385  0.47165554  0.81286058  1
  H+  H193  1  0.12007653  0.38278600  0.49222941  1
  H+  H194  1  0.89155790  0.14188490  0.65599106  1
  H+  H195  1  0.40964359  0.83189642  0.28247242  1
  H+  H196  1  1.01765166  0.87602154  0.82580798  1
  H+  H197  1  0.60370046  0.23328740  0.83791842  1
  H+  H198  1  0.65269701  0.05462206  0.65893061  1
  H+  H199  1  0.66981302  0.09113385  0.89410880  1
  H+  H200  1  0.23074991  0.86883140  0.99074022  1
  H+  H201  1  0.83694993  0.43233151  0.07193053  1
  H+  H202  1  0.39011438  0.27133105  0.16887952  1
  H+  H203  1  0.24225066  0.63100936  0.32222654  1
  H+  H204  1  0.46193673  0.60709732  0.33687151  1
  H+  H205  1  0.31442865  0.98818276  0.03195295  1
  H+  H206  1  0.97544897  0.13260570  0.65121888  1
  H+  H207  1  0.40679954  0.59063332  0.80171838  1
  H+  H208  1  0.01447541  0.87370796  0.15515006  1
  H+  H209  1  0.46710610  0.87546502  0.34020150  1
  H+  H210  1  0.35170719  0.89121714  0.34267078  1
  H+  H211  1  0.35559185  0.23521076  0.33864923  1
  H+  H212  1  0.86239367  0.63600951  0.00277029  1
  H+  H213  1  0.72445153  0.61875702  0.99470979  1
  H+  H214  1  0.72032883  0.35822721  0.84383489  1
  H+  H215  1  0.96364072  0.38648831  0.70453305  1
  H+  H216  1  0.39024866  0.83899148  0.66250580  1
  H+  H217  1  0.13523386  0.63680517  0.16125112  1
  H+  H218  1  0.11038064  0.89445388  -0.00528189  1
  H+  H219  1  0.41865745  0.33240721  0.89488700  1
  H+  H220  1  0.38686289  0.49238819  0.17920545  1
  H+  H221  1  0.61004610  0.23732193  1.01097057  1
  H+  H222  1  0.59821398  0.13392924  0.16278657  1
  H+  H223  1  0.63846299  0.62938903  0.14690167  1
  H+  H224  1  0.13876957  0.04104507  0.97994097  1
  H+  H225  1  0.15895585  0.82646940  0.26966722  1
  H+  H226  1  0.36758041  -0.01063135  0.49248305  1
  H+  H227  1  0.11659384  0.95973861  0.81309471  1
  H+  H228  1  0.39802991  0.07724989  0.23479282  1
  H+  H229  1  0.98366120  0.85621316  0.32702736  1
  H+  H230  1  0.28714559  0.89408964  0.50051040  1
  H+  H231  1  0.64873362  0.14023929  0.65976920  1
  H+  H232  1  0.62629208  1.02298029  0.02412076  1
  H+  H233  1  0.19865142  0.07633667  0.75714377  1
  H+  H234  1  0.38185515  0.22582897  0.81782422  1
  H+  H235  1  0.28168073  0.14523717  -0.00193869  1
  H+  H236  1  0.39254672  0.87850306  0.50126885  1
  H+  H237  1  0.12290025  0.26316779  0.33465606  1
  H+  H238  1  0.12632847  0.85119402  0.17122593  1
  H+  H239  1  0.88036955  1.02682927  0.50648496  1
  H+  H240  1  0.21668670  0.36797726  0.19723596  1
  H+  H241  1  0.52747835  0.38780842  0.82537345  1
  H+  H242  1  0.31536526  0.14397332  0.72770754  1
  H+  H243  1  0.40970139  0.36745482  0.47527760  1
  H+  H244  1  0.63715607  0.44965410  0.66725369  1
  H+  H245  1  0.84684200  0.38009482  0.01552463  1
  H+  H246  1  0.13736496  0.33766750  0.81002072  1
  H+  H247  1  0.23805700  0.63851986  -0.01106373  1
  H+  H248  1  0.34474920  0.47003749  0.34150111  1
  H+  H249  1  0.10676460  0.38550942  0.16858394  1
  H+  H250  1  0.78988951  0.61968624  0.16303662  1
  H+  H251  1  0.10823786  0.14367956  0.33849220  1
  H+  H252  1  0.61528717  0.38799296  0.82974782  1
  H+  H253  1  0.60306436  0.63565448  0.00288236  1
  H+  H254  1  0.49495009  0.60249531  0.82400983  1
  H+  H255  1  0.61618275  -0.01435330  0.81959847  1
  H+  H256  1  0.61555163  0.89605600  0.15559884  1
  H+  H257  1  0.25785795  0.24610564  0.86853581  1
  H+  H258  1  0.37223894  0.14843237  0.98742153  1
  H+  H259  1  0.63160183  0.36911750  0.99758889  1
  H+  H260  1  0.11988092  0.47879203  0.16015398  1
  H+  H261  1  0.02946283  0.38891322  0.63553972  1
  H+  H262  1  0.35742900  0.97885586  0.16839094  1
  H+  H263  1  0.23023883  0.64498532  0.84670026  1
  H+  H264  1  0.10120540  0.10013195  0.80119459  1
  H+  H265  1  0.12713484  0.52625199  0.49600150  1
  H+  H266  1  0.63212437  0.11969618  0.84001221  1
  H+  H267  1  0.95073344  0.36363772  1.00374774  1
  H+  H268  1  0.50774875  0.35856323  0.63113165  1
  H+  H269  1  0.51662804  0.65079682  0.49011657  1
  H+  H270  1  0.41521505  0.51224993  0.64735442  1
  H+  H271  1  0.89429506  0.11779482  0.83614636  1
  H+  H272  1  0.12284607  1.01028266  0.18016165  1
  H+  H273  1  0.74234909  0.35680352  0.64777406  1
  H+  H274  1  0.11336674  0.85720005  0.83735213  1
  H+  H275  1  0.85459848  0.87198286  0.16735465  1
  H+  H276  1  0.62737276  0.63195121  0.81797782  1
  H+  H277  1  0.98279952  0.88745955  0.64725774  1
  H+  H278  1  0.62115132  0.11152349  0.31656067  1
  H+  H279  1  0.00970440  0.63307997  0.82904180  1
  H+  H280  1  0.86119160  0.73081436  0.33956080  1
  H+  H281  1  0.77323656  0.88841118  1.01921366  1
  H+  H282  1  0.88658394  0.15686598  0.34616224  1
  H+  H283  1  1.02108842  0.89248315  0.99446917  1
  H+  H284  1  0.61313609  0.77490602  0.15662306  1
  H+  H285  1  0.01470696  0.49769557  0.63252959  1
  H+  H286  1  0.39095836  0.35762148  0.83102940  1
  H+  H287  1  0.90864471  0.08588404  0.12016575  1
  H+  H288  1  0.77094844  0.92497203  0.90920554  1
  H+  H289  1  0.32196944  0.92279141  0.40041063  1
  H+  H290  1  0.17423737  0.12962543  0.93995302  1
  H+  H291  1  0.07236987  0.67058861  0.76899951  1
  H+  H292  1  0.56559137  0.16941537  0.10795857  1
  H+  H293  1  0.08318589  0.15830331  0.71947685  1
  H+  H294  1  0.41646353  0.58581936  0.91495426  1
  H+  H295  1  0.87165845  0.73696717  0.49456900  1
  H+  H296  1  0.41944018  0.07592497  0.56729739  1
  H+  H297  1  0.79940612  0.60721415  0.66490697  1
  H+  H298  1  0.82324615  0.41250447  0.40759358  1
  H+  H299  1  0.91211579  0.34976392  0.56743605  1
  H+  H300  1  0.83896142  0.17333218  0.07657083  1
  H+  H301  1  0.41524135  0.87223365  0.59440511  1
  H+  H302  1  0.25210797  0.86579786  0.71835432  1
  H+  H303  1  0.09961241  0.67415086  0.08165276  1
  H+  H304  1  0.64228835  0.52229926  0.84000806  1
  H+  H305  1  0.78459952  0.89165274  0.90994713  1
  H+  H306  1  0.12419907  0.57627673  0.55309273  1
  H+  H307  1  0.66321874  0.33409110  0.90567040  1
  H+  H308  1  0.16986100  0.61257789  0.92757586  1
  H+  H309  1  0.08333071  0.90784798  0.44117357  1
  H+  H310  1  0.67094871  0.09969588  0.56537159  1
  H+  H311  1  0.15822975  0.20114617  0.85194752  1
  H+  H312  1  0.15475490  0.06742187  0.27701263  1
  H+  H313  1  0.87342469  0.50771194  0.99437787  1
  H+  H314  1  0.87900108  0.26272663  0.67549343  1
  H+  H315  1  0.89976643  0.57609158  0.25599970  1
  H+  H316  1  0.59569611  0.63754308  0.35075998  1
  H+  H317  1  0.33391138  0.41666201  0.43074601  1
  H+  H318  1  0.06728537  0.41743230  0.06200556  1
  H+  H319  1  0.33011786  0.67526706  0.44491829  1
  H+  H320  1  0.65828310  0.33973041  0.28143323  1
  H+  H321  1  0.91088810  0.34201123  0.27992548  1
  H+  H322  1  0.87640997  0.01075030  0.16621593  1
  H+  H323  1  0.70553994  0.55734359  0.59260922  1
  H+  H324  1  0.84021886  0.92787613  0.74700382  1
  H+  H325  1  0.46039656  0.33998171  0.51753952  1
  H+  H326  1  0.53393438  0.66810992  0.08831068  1
  H+  H327  1  0.77525093  0.90911633  0.66095713  1
  H+  H328  1  0.25579174  0.37857841  0.34211926  1
  H+  H329  1  0.35244577  0.17849889  0.09271232  1
  H+  H330  1  0.92053792  0.08416313  0.89508361  1
  H+  H331  1  0.56362564  0.91168079  0.07187208  1
  H+  H332  1  0.07542645  0.16785091  0.42069879  1
  H+  H333  1  0.37016464  0.76261349  0.83368472  1
  H+  H334  1  0.42117696  0.86759686  0.89060268  1
  H+  H335  1  0.60914988  0.80910074  0.25172494  1
  H+  H336  1  0.91726631  0.82504563  0.23255875  1
  H+  H337  1  0.85472517  0.93170743  0.43803635  1
  H+  H338  1  0.56450864  0.67703656  0.40190955  1
  H+  H339  1  0.83734203  0.66415894  0.06415194  1
  H+  H340  1  0.38635183  0.78688539  0.51174834  1
  H+  H341  1  0.40927524  0.33026998  0.23043679  1
  H+  H342  1  0.58842796  0.40322923  0.72669893  1
  H+  H343  1  0.58066645  0.92658191  0.39807768  1
  H+  H344  1  0.11018624  0.44635690  0.74481529  1
  H+  H345  1  0.36140140  0.05140921  0.65965165  1
  H+  H346  1  0.58186048  0.94092782  0.72247151  1
  H+  H347  1  0.91136689  0.83301982  0.56638816  1
  H+  H348  1  0.07325226  0.59643494  0.64987380  1
  H+  H349  1  0.56749702  0.15273438  0.39651555  1
  H+  H350  1  0.08918681  0.91010084  0.71938197  1
  H+  H351  1  0.87966719  0.63020244  0.14946093  1
  H+  H352  1  0.25805738  0.88464161  0.81487085  1
  H+  H353  1  0.13708422  0.27184893  0.48797123  1
  H+  H354  1  0.01710821  0.66712767  0.68518800  1
  H+  H355  1  0.07950882  0.70884556  0.45745455  1
  H+  H356  1  0.32823223  0.92788999  0.07525837  1
  H+  H357  1  0.56723141  0.74630081  0.30902169  1
  H+  H358  1  0.76644318  0.14969778  0.16658459  1
  H+  H359  1  0.61386699  0.63650282  0.71348540  1
  H+  H360  1  0.97763272  0.11355175  1.00079051  1
  H+  H361  1  0.48018782  0.12432358  0.88067848  1
  H+  H362  1  0.07033831  0.63533381  0.37433343  1
  H+  H363  1  0.67290073  0.85669284  0.59352973  1
  H+  H364  1  0.07545101  0.91050774  0.09645441  1
  H+  H365  1  0.90879839  0.09690998  0.56017959  1
  H+  H366  1  0.67826778  0.32504279  0.55866645  1
  H+  H367  1  0.90988274  0.83594662  0.88901000  1
  H+  H368  1  0.71919510  0.36680588  1.00219562  1
  H+  H369  1  0.58099552  0.41778696  0.10230725  1
  H+  H370  1  0.23143126  0.09086211  0.82245928  1
  H+  H371  1  0.84364736  0.65782018  0.76361002  1
  H+  H372  1  0.08247695  0.46476122  0.75417452  1
  H+  H373  1  0.36292038  0.64421568  0.35038316  1
  H+  H374  1  0.19216709  0.29753406  0.93966623  1
  H+  H375  1  0.68918768  0.56827871  0.23867519  1
  H+  H376  1  0.42319813  0.58421748  0.56356191  1
  H+  H377  1  0.85151258  0.17382993  0.40825191  1
  H+  H378  1  0.92521374  0.09323700  0.27135618  1
  H+  H379  1  0.07064226  0.40740857  0.41207193  1
  H+  H380  1  0.51478447  0.63713230  -0.00937603  1
  H+  H381  1  0.35522752  0.65369304  0.76108586  1
  H+  H382  1  0.84505396  0.18418997  0.76447641  1
  H+  H383  1  0.98763428  0.58875043  0.16378169  1
  O2-  O384  1  0.08680672  0.17077453  0.15749028  1
  O2-  O385  1  0.07755841  0.16658718  0.46771629  1
  O2-  O386  1  0.08123314  0.14239125  0.79860897  1
  O2-  O387  1  0.08114082  0.41742300  0.14898759  1
  O2-  O388  1  0.08585802  0.41487129  0.49750748  1
  O2-  O389  1  0.08206504  0.42795932  0.90134395  1
  O2-  O390  1  0.09644320  0.66065360  0.14912602  1
  O2-  O391  1  0.07855822  0.68418948  0.49706238  1
  O2-  O392  1  0.07188383  0.66916990  0.81570781  1
  O2-  O393  1  0.07562287  0.90311974  0.14102906  1
  O2-  O394  1  0.07444964  0.91159352  0.48579346  1
  O2-  O395  1  0.07889934  0.89469884  0.81279000  1
  O2-  O396  1  0.35050861  0.18149945  0.13745015  1
  O2-  O397  1  0.29268350  0.13147888  0.56284077  1
  O2-  O398  1  0.35905617  0.16656765  0.80150285  1
  O2-  O399  1  0.32607909  0.39424884  0.13558281  1
  O2-  O400  1  0.34077667  0.41537198  0.47568819  1
  O2-  O401  1  0.34873820  0.41162456  0.79577501  1
  O2-  O402  1  0.36179980  0.68123577  0.13014784  1
  O2-  O403  1  0.32881610  0.67777057  0.49053958  1
  O2-  O404  1  0.33783135  0.69696386  0.82904784  1
  O2-  O405  1  0.32712171  0.91695821  0.15032353  1
  O2-  O406  1  0.33970494  0.92854355  0.47580251  1
  O2-  O407  1  0.30426665  0.90729399  0.78452648  1
  O2-  O408  1  0.56206736  0.16039586  0.15259555  1
  O2-  O409  1  0.57270949  0.16546705  0.47775960  1
  O2-  O410  1  0.57755491  0.17124601  0.82132940  1
  O2-  O411  1  0.58070351  0.41544442  0.14751044  1
  O2-  O412  1  0.61727813  0.46103455  0.50439728  1
  O2-  O413  1  0.58881757  0.42109641  0.81332687  1
  O2-  O414  1  0.51612986  0.68180845  0.12770338  1
  O2-  O415  1  0.57357617  0.68292611  0.46985009  1
  O2-  O416  1  0.59245156  0.65194056  0.79460106  1
  O2-  O417  1  0.57967863  0.92294941  0.14506079  1
  O2-  O418  1  0.58578957  0.93039500  0.47573727  1
  O2-  O419  1  0.58039719  0.92761897  0.80134954  1
  O2-  O420  1  0.82879926  0.18282965  0.15402013  1
  O2-  O421  1  0.82138331  0.12842262  0.47985568  1
  O2-  O422  1  0.84259630  0.17479603  0.80986406  1
  O2-  O423  1  0.88520713  0.47463181  0.14553596  1
  O2-  O424  1  0.83055251  0.42645265  0.47713752  1
  O2-  O425  1  0.81861572  0.40876587  0.81390754  1
  O2-  O426  1  0.84574365  0.65862091  0.14114946  1
  O2-  O427  1  0.84487841  0.67597570  0.47486904  1
  O2-  O428  1  0.83727818  0.66421109  0.80841715  1
  O2-  O429  1  0.82393169  0.90236957  0.15251795  1
  O2-  O430  1  0.83615267  0.92101947  0.48133016  1
  O2-  O431  1  0.83545630  0.91788954  0.79332238  1
  O2-  O432  1  0.15018072  0.06510520  0.20262174  1
  O2-  O433  1  0.14009411  0.07993147  0.52590160  1
  O2-  O434  1  0.17623043  0.06116330  0.80055120  1
  O2-  O435  1  0.15536878  0.33208144  0.20529486  1
  O2-  O436  1  0.16739316  0.33294457  0.50178224  1
  O2-  O437  1  0.20056879  0.22076043  0.88635119  1
  O2-  O438  1  0.18880135  0.58956576  0.17797710  1
  O2-  O439  1  0.14716930  0.58625302  0.51064690  1
  O2-  O440  1  0.17045744  0.61227198  0.86316811  1
  O2-  O441  1  0.15757197  0.82344884  0.18962018  1
  O2-  O442  1  0.20908459  0.82463402  0.55216648  1
  O2-  O443  1  0.14845748  0.82123363  0.85512256  1
  O2-  O444  1  0.39982257  0.07167293  0.18911063  1
  O2-  O445  1  0.41196327  0.08413089  0.52341157  1
  O2-  O446  1  0.48505254  0.12545617  0.83522244  1
  O2-  O447  1  0.41341166  0.33266351  0.18484905  1
  O2-  O448  1  0.44550324  0.33971333  0.47392155  1
  O2-  O449  1  0.41561076  0.32407166  0.84959239  1
  O2-  O450  1  0.43409632  0.54039566  0.20188900  1
  O2-  O451  1  0.41270792  0.58514838  0.51901787  1
  O2-  O452  1  0.43224674  0.57451605  0.83610728  1
  O2-  O453  1  0.44747771  0.80951350  0.21419920  1
  O2-  O454  1  0.42021301  0.84923028  0.52274225  1
  O2-  O455  1  0.41882220  0.86194795  0.84552200  1
  O2-  O456  1  0.66075801  0.09155086  0.18126239  1
  O2-  O457  1  0.66449553  0.09098274  0.52037040  1
  O2-  O458  1  0.66600254  0.09057399  0.84990384  1
  O2-  O459  1  0.65229694  0.32629019  0.20612276  1
  O2-  O460  1  0.66966947  0.33327959  0.51355743  1
  O2-  O461  1  0.65972928  0.32915924  0.86022469  1
  O2-  O462  1  0.70993024  0.55069342  0.20392063  1
  O2-  O463  1  0.67260110  0.53966971  0.50285234  1
  O2-  O464  1  0.67333916  0.58355286  0.85507013  1
  O2-  O465  1  0.65206963  0.83034695  0.17707716  1
  O2-  O466  1  0.66723553  0.84537566  0.51451662  1
  O2-  O467  1  0.66498324  0.83290467  0.81112867  1
  O2-  O468  1  0.90671519  0.07539754  0.16383211  1
  O2-  O469  1  0.91283262  0.08972253  0.51545085  1
  O2-  O470  1  0.92130519  0.08376565  0.85001151  1
  O2-  O471  1  0.92105850  0.35890897  0.19662138  1
  O2-  O472  1  0.90768779  0.34759869  0.52312270  1
  O2-  O473  1  0.90436223  0.33561051  0.86429589  1
  O2-  O474  1  0.92472661  0.55994256  0.17403106  1
  O2-  O475  1  0.89952739  0.58672279  0.51827412  1
  O2-  O476  1  0.91008716  0.57807355  0.85106740  1
  O2-  O477  1  0.91269485  0.82335612  0.18703394  1
  O2-  O478  1  0.90851074  0.82539445  0.51958564  1
  O2-  O479  1  0.91666280  0.83607269  0.84392049  1
  O2-  O480  1  0.15560413  0.06911762  0.32300581  1
  O2-  O481  1  0.26467895  0.05815594  0.66160793  1
  O2-  O482  1  0.17382024  0.10463305  0.98016513  1
  O2-  O483  1  0.15461669  0.32879015  0.32075772  1
  O2-  O484  1  0.19122302  0.35066423  0.67124484  1
  O2-  O485  1  0.18839543  0.32735751  0.97620289  1
  O2-  O486  1  0.19298516  0.60558041  0.29347541  1
  O2-  O487  1  0.06720513  0.55151753  0.62089431  1
  O2-  O488  1  0.17416415  0.60969491  0.97602664  1
  O2-  O489  1  0.15758062  0.82234821  0.31500169  1
  O2-  O490  1  0.17076851  0.87650449  0.57080180  1
  O2-  O491  1  0.17166294  0.83281344  0.97418143  1
  O2-  O492  1  0.39684504  0.08185523  0.30967404  1
  O2-  O493  1  0.41522220  0.05295594  0.64659686  1
  O2-  O494  1  0.43900212  0.10640332  0.95539700  1
  O2-  O495  1  0.40395036  0.33260724  0.30781545  1
  O2-  O496  1  0.46039493  0.34260335  0.60142719  1
  O2-  O497  1  0.42380678  0.34185349  0.97137094  1
  O2-  O498  1  0.40003658  0.57822961  0.32199383  1
  O2-  O499  1  0.44983846  0.57586041  0.63733413  1
  O2-  O500  1  0.41131991  0.59220781  0.95957392  1
  O2-  O501  1  0.40483424  0.83991487  0.32669083  1
  O2-  O502  1  0.41530271  0.89112407  0.63800168  1
  O2-  O503  1  0.41274301  0.85142431  0.97141980  1
  O2-  O504  1  0.65286952  0.08550315  0.29552339  1
  O2-  O505  1  0.68388655  0.11545862  0.64446349  1
  O2-  O506  1  0.66082407  0.08650229  1.03235689  1
  O2-  O507  1  0.66846041  0.34871221  0.32651169  1
  O2-  O508  1  0.70044814  0.30774377  0.62299628  1
  O2-  O509  1  0.66052851  0.33631313  0.98383414  1
  O2-  O510  1  0.65623907  0.58176515  0.37429758  1
  O2-  O511  1  0.70681987  0.55951804  0.63706625  1
  O2-  O512  1  0.66419899  0.58999530  0.97938203  1
  O2-  O513  1  0.56620372  0.79292973  0.28480956  1
  O2-  O514  1  0.67822769  0.86450288  0.63856436  1
  O2-  O515  1  0.65732997  0.83330590  1.00091095  1
  O2-  O516  1  0.92869141  0.09509144  0.31546221  1
  O2-  O517  1  0.91432124  0.10570549  0.63874010  1
  O2-  O518  1  0.91792299  0.08080522  0.98388486  1
  O2-  O519  1  0.90664481  0.34032756  0.32485423  1
  O2-  O520  1  0.94204941  0.37659277  0.66291120  1
  O2-  O521  1  0.88922207  0.32699716  0.98789378  1
  O2-  O522  1  0.90613821  0.59638574  0.29821370  1
  O2-  O523  1  0.90921668  0.60546807  0.66969622  1
  O2-  O524  1  0.91239613  0.56705421  0.97553681  1
  O2-  O525  1  0.92405334  0.83348768  0.31056545  1
  O2-  O526  1  0.92206245  0.85471217  0.63455977  1
  O2-  O527  1  0.91181185  0.83300474  0.97133327  1
  O2-  O528  1  0.07981291  0.17029545  0.03367407  1
  O2-  O529  1  0.07800234  0.17382397  0.35139661  1
  O2-  O530  1  0.08304808  0.17007059  0.67507291  1
  O2-  O531  1  0.04475127  0.42838970  0.02428349  1
  O2-  O532  1  0.07438693  0.40712984  0.36769091  1
  O2-  O533  1  0.09073040  0.41092755  0.61888585  1
  O2-  O534  1  0.09580846  0.67968689  0.03445293  1
  O2-  O535  1  0.07508950  0.65393749  0.33228314  1
  O2-  O536  1  0.07528006  0.67852871  0.69813008  1
  O2-  O537  1  0.08194633  0.92615270  0.00876204  1
  O2-  O538  1  0.08219592  0.90792849  0.36318305  1
  O2-  O539  1  0.09123275  0.92740876  0.67707616  1
  O2-  O540  1  0.34394972  0.17600256  0.00901040  1
  O2-  O541  1  0.32865866  0.17635292  0.35803441  1
  O2-  O542  1  0.26397410  0.12437808  0.70075159  1
  O2-  O543  1  0.34653830  0.43234003  0.00806098  1
  O2-  O544  1  0.31905643  0.40836735  0.35288292  1
  O2-  O545  1  0.35991194  0.41137655  0.66511840  1
  O2-  O546  1  0.33403122  0.68091370  0.00217497  1
  O2-  O547  1  0.33437678  0.67491022  0.36771668  1
  O2-  O548  1  0.36651792  0.61296227  0.73766783  1
  O2-  O549  1  0.32538286  0.94018177  0.03058215  1
  O2-  O550  1  0.31716657  0.91878620  0.35487231  1
  O2-  O551  1  0.21737868  0.83757098  0.68070333  1
  O2-  O552  1  0.57469948  0.17582467  0.02529208  1
  O2-  O553  1  0.56575469  0.14655506  0.35168891  1
  O2-  O554  1  0.57651033  0.17061745  0.69063032  1
  O2-  O555  1  0.58376495  0.42310117  0.02181500  1
  O2-  O556  1  0.54912589  0.39740132  0.37383805  1
  O2-  O557  1  0.59429946  0.39288101  0.68347018  1
  O2-  O558  1  0.56958291  0.66450477  0.01438848  1
  O2-  O559  1  0.56046542  0.66541851  0.35518469  1
  O2-  O560  1  0.62085644  0.63286929  0.66931170  1
  O2-  O561  1  0.56559116  0.91402304  0.02577663  1
  O2-  O562  1  0.56958640  0.92338915  0.35316131  1
  O2-  O563  1  0.58760651  0.94905301  0.67757931  1
  O2-  O564  1  0.83627887  0.16433544  0.03133980  1
  O2-  O565  1  0.86272525  0.19097005  0.36451110  1
  O2-  O566  1  0.84811394  0.20052569  0.68773794  1
  O2-  O567  1  0.82281714  0.41837856  0.02838235  1
  O2-  O568  1  0.81751639  0.40497950  0.36120796  1
  O2-  O569  1  0.83778295  0.43710586  0.68861220  1
  O2-  O570  1  0.83480451  0.66749781  0.01851452  1
  O2-  O571  1  0.83242877  0.67145485  0.35704688  1
  O2-  O572  1  0.85512456  0.64005303  0.68988455  1
  O2-  O573  1  0.83520124  0.91559867  0.02893965  1
  O2-  O574  1  0.91441575  0.96075735  0.36910228  1
  O2-  O575  1  0.83712980  0.93817363  0.67667429  1
