# generated using pymatgen
data_H2O
_symmetry_space_group_name_H-M   'P 1'
_cell_length_a   18.00158798
_cell_length_b   17.99781257
_cell_length_c   22.00993694
_cell_angle_alpha   90.00976649
_cell_angle_beta   89.98728343
_cell_angle_gamma   120.01438576
_symmetry_Int_Tables_number   1
_chemical_formula_structural   H2O
_chemical_formula_sum   'H384 O192'
_cell_volume   6174.71599107
_cell_formula_units_Z   192
loop_
 _symmetry_equiv_pos_site_id
 _symmetry_equiv_pos_as_xyz
  1  'x, y, z'
loop_
 _atom_type_symbol
 _atom_type_oxidation_number
  H+  1.0
  O2-  -2.0
loop_
 _atom_site_type_symbol
 _atom_site_label
 _atom_site_symmetry_multiplicity
 _atom_site_fract_x
 _atom_site_fract_y
 _atom_site_fract_z
 _atom_site_occupancy
  H+  H0  1  0.12459424  0.87017077  -0.00748799  1
  H+  H1  1  0.73275860  0.35239114  0.50034734  1
  H+  H2  1  0.27742641  0.88861865  0.34035150  1
  H+  H3  1  0.58030792  0.67453987  0.76091380  1
  H+  H4  1  0.62097759  1.00494539  0.66212516  1
  H+  H5  1  0.27558989  0.38117209  0.17995183  1
  H+  H6  1  0.36824840  0.73730395  0.33823691  1
  H+  H7  1  0.39128624  0.60751932  0.48166791  1
  H+  H8  1  0.38622008  0.02750404  0.17822815  1
  H+  H9  1  0.96507147  0.34495489  0.32454294  1
  H+  H10  1  0.63765729  0.60611469  0.33135671  1
  H+  H11  1  0.72328717  0.10731972  0.31891765  1
  H+  H12  1  0.63044295  0.52142192  0.17419021  1
  H+  H13  1  0.13232682  0.52692378  -0.01960169  1
  H+  H14  1  0.17845682  1.09595272  0.37681525  1
  H+  H15  1  0.89389479  0.73788348  0.47999847  1
  H+  H16  1  0.88331418  0.86245978  0.99490890  1
  H+  H17  1  0.39761114  0.27884043  1.00125418  1
  H+  H18  1  0.96443232  0.11197685  0.99825130  1
  H+  H19  1  0.13195304  0.48489672  0.17324513  1
  H+  H20  1  0.22573718  0.61542708  0.83422772  1
  H+  H21  1  -0.05247122  0.11935002  0.65806744  1
  H+  H22  1  0.36057022  0.46554954  0.47115348  1
  H+  H23  1  0.11361730  0.47987998  0.33535075  1
  H+  H24  1  0.91304389  0.51018446  0.14658488  1
  H+  H25  1  0.08780329  0.96299103  0.67478406  1
  H+  H26  1  0.48053834  0.11227318  0.33012086  1
  H+  H27  1  0.68896282  0.72333350  0.70711545  1
  H+  H28  1  0.24850661  0.63293927  0.50660721  1
  H+  H29  1  0.31025227  0.13324306  -0.01654252  1
  H+  H30  1  0.36820502  0.89262333  0.33792687  1
  H+  H31  1  0.85054768  0.88447205  0.49133151  1
  H+  H32  1  0.59144765  0.92126241  0.09637775  1
  H+  H33  1  0.11099407  0.12835756  0.82809178  1
  H+  H34  1  0.21390922  0.85848090  0.67058872  1
  H+  H35  1  0.63449096  0.10808355  0.31855207  1
  H+  H36  1  0.02141888  0.37561927  0.49293812  1
  H+  H37  1  0.29436531  0.88264668  0.16519913  1
  H+  H38  1  0.46696932  0.61245713  0.18132058  1
  H+  H39  1  0.02444947  0.62814429  0.82334996  1
  H+  H40  1  0.15992273  0.11934944  0.65386912  1
  H+  H41  1  0.73890897  0.62248203  -0.01138555  1
  H+  H42  1  0.62065078  0.87166106  0.82559799  1
  H+  H43  1  0.67606820  0.30999103  0.84016905  1
  H+  H44  1  0.21373416  0.35747925  0.83339330  1
  H+  H45  1  0.25187596  0.12920287  0.81491077  1
  H+  H46  1  0.80954565  0.14854354  0.39410969  1
  H+  H47  1  0.49344896  0.63548972  0.81628446  1
  H+  H48  1  0.86596357  0.47556108  0.35525931  1
  H+  H49  1  0.61710357  0.73616308  0.16988424  1
  H+  H50  1  0.88554256  0.51337652  0.66952987  1
  H+  H51  1  0.39233463  0.27490676  0.16913203  1
  H+  H52  1  0.35522579  0.96901082  0.67862429  1
  H+  H53  1  0.64680818  0.11377924  -0.00674190  1
  H+  H54  1  0.39042556  0.13092447  1.00620853  1
  H+  H55  1  0.85310362  0.12538581  0.33823665  1
  H+  H56  1  0.63602454  0.86091328  0.32711273  1
  H+  H57  1  0.30768254  0.75804480  0.53488843  1
  H+  H58  1  0.35136781  0.13148342  0.16256251  1
  H+  H59  1  0.10410839  0.37972367  0.82179660  1
  H+  H60  1  0.40782711  0.08647277  0.23653083  1
  H+  H61  1  0.92575209  0.61089332  0.40730884  1
  H+  H62  1  0.66888690  0.36915338  0.63249805  1
  H+  H63  1  0.86276134  0.41160722  0.76727688  1
  H+  H64  1  0.82859256  0.91172803  0.39897279  1
  H+  H65  1  0.77873337  0.54920873  0.16590502  1
  H+  H66  1  0.87062955  0.23054364  0.15644801  1
  H+  H67  1  0.35101193  0.90985280  0.08143521  1
  H+  H68  1  0.12324386  0.72527656  0.33954354  1
  H+  H69  1  0.41971311  0.25658774  0.33304982  1
  H+  H70  1  0.43889754  0.59640918  0.63465196  1
  H+  H71  1  0.76584996  0.62888356  0.33819792  1
  H+  H72  1  0.48014989  0.86967667  0.32591680  1
  H+  H73  1  0.62823026  0.63453319  0.67593646  1
  H+  H74  1  0.28668341  0.87100175  1.02475870  1
  H+  H75  1  0.25724521  0.37356822  0.32027173  1
  H+  H76  1  0.85444906  0.97619028  0.49100382  1
  H+  H77  1  0.15731699  0.76162761  0.16452853  1
  H+  H78  1  0.76072360  0.88319038  0.66816166  1
  H+  H79  1  0.74561799  0.35968472  0.65837885  1
  H+  H80  1  0.47961287  0.37191961  1.00272527  1
  H+  H81  1  0.77697362  0.14120790  0.00450810  1
  H+  H82  1  0.51100062  0.87856305  0.48369490  1
  H+  H83  1  0.18764777  0.43597186  0.64912864  1
  H+  H84  1  0.35404562  0.14749911  0.46777639  1
  H+  H85  1  0.02731099  0.06460170  0.67792094  1
  H+  H86  1  0.61807473  0.98363678  0.15491263  1
  H+  H87  1  0.05263783  0.63188531  0.14210839  1
  H+  H88  1  0.58456290  0.46390570  0.33640334  1
  H+  H89  1  0.34421319  0.14331547  0.82017142  1
  H+  H90  1  0.50638645  0.61996865  1.01580093  1
  H+  H91  1  0.60256150  0.17182395  0.83767797  1
  H+  H92  1  0.64395835  0.85189714  1.00388002  1
  H+  H93  1  0.39660539  0.50334676  0.31919212  1
  H+  H94  1  0.39674979  0.77363774  0.17056914  1
  H+  H95  1  0.70568471  0.58985493  0.64587325  1
  H+  H96  1  0.86935597  0.38482650  0.49903423  1
  H+  H97  1  0.53978531  0.13885830  0.01692772  1
  H+  H98  1  0.71015896  0.58850715  0.83337159  1
  H+  H99  1  0.96068580  0.11800857  0.51077792  1
  H+  H100  1  0.57963313  0.91638360  0.39509036  1
  H+  H101  1  0.10712042  0.21469107  0.81668244  1
  H+  H102  1  -0.03806750  0.87973146  0.49406304  1
  H+  H103  1  0.11055942  0.14769320  0.16044945  1
  H+  H104  1  0.90497796  0.51124331  0.84147337  1
  H+  H105  1  0.36703978  0.63956802  0.15484819  1
  H+  H106  1  0.37684723  0.46333107  0.68821562  1
  H+  H107  1  0.39567119  0.36420976  0.17580886  1
  H+  H108  1  0.10183473  0.87645681  0.51744910  1
  H+  H109  1  0.60330561  0.89001911  0.48851566  1
  H+  H110  1  0.79319380  0.43646629  0.72168232  1
  H+  H111  1  0.52596410  0.40448112  0.50145326  1
  H+  H112  1  0.44777919  0.11203459  0.81374461  1
  H+  H113  1  0.59393124  0.74256113  0.81738204  1
  H+  H114  1  0.82940778  0.10367605  0.49037579  1
  H+  H115  1  0.14281452  0.90923831  0.50268251  1
  H+  H116  1  0.38616373  0.88824861  0.16598891  1
  H+  H117  1  0.38382320  0.77741084  0.66687818  1
  H+  H118  1  0.34705996  -0.03190564  0.83483418  1
  H+  H119  1  0.77429508  0.87833418  1.01589288  1
  H+  H120  1  0.48853121  0.86279372  0.17088993  1
  H+  H121  1  0.88214853  1.01760395  0.84023663  1
  H+  H122  1  0.10128351  0.73552607  0.67330663  1
  H+  H123  1  0.00631491  0.38487377  -0.02289981  1
  H+  H124  1  0.78086061  0.38227347  0.15871250  1
  H+  H125  1  0.39503558  0.10570999  0.66024163  1
  H+  H126  1  0.66672710  0.33751118  0.93721458  1
  H+  H127  1  0.89683429  0.61218746  0.99337055  1
  H+  H128  1  0.62311383  0.60794009  0.18072180  1
  H+  H129  1  0.25957170  0.40829606  0.65190463  1
  H+  H130  1  0.59378840  0.46228490  0.83745829  1
  H+  H131  1  0.61270967  0.97395282  0.33395209  1
  H+  H132  1  0.37210099  0.71450341  0.48622172  1
  H+  H133  1  0.98895990  0.13119207  0.16737272  1
  H+  H134  1  0.09126178  0.23279658  0.65602320  1
  H+  H135  1  0.16093225  0.85078043  0.15859236  1
  H+  H136  1  0.22587142  0.20207408  0.61793850  1
  H+  H137  1  0.80725378  0.56467541  0.13851767  1
  H+  H138  1  0.88189517  0.86114174  0.32727968  1
  H+  H139  1  0.09091472  1.00283264  0.47113675  1
  H+  H140  1  0.36647437  0.72416500  0.00168817  1
  H+  H141  1  0.74264597  0.11186570  0.66486724  1
  H+  H142  1  0.15556248  0.61244455  0.16646920  1
  H+  H143  1  0.62184455  0.50865461  0.67048012  1
  H+  H144  1  0.62533252  0.86262246  0.66149072  1
  H+  H145  1  0.91602471  0.30933752  0.69969789  1
  H+  H146  1  0.63489327  0.24845050  0.16454142  1
  H+  H147  1  0.86765750  0.90519651  0.16606032  1
  H+  H148  1  0.68649577  0.11874510  0.83869999  1
  H+  H149  1  0.32318684  0.40580518  0.77177631  1
  H+  H150  1  0.72653830  0.36350141  0.99600629  1
  H+  H151  1  0.19321424  0.61403540  0.60830761  1
  H+  H152  1  0.13775545  0.24968063  0.66383577  1
  H+  H153  1  0.26489637  0.38173204  0.01159875  1
  H+  H154  1  1.00400840  0.63224460  0.67291830  1
  H+  H155  1  0.10256921  0.23615567  0.51134248  1
  H+  H156  1  0.83044386  0.20063982  0.65655425  1
  H+  H157  1  0.73213793  0.87672668  0.17271418  1
  H+  H158  1  0.63897437  0.36408082  0.17257833  1
  H+  H159  1  0.24430810  0.12884998  0.32463687  1
  H+  H160  1  0.89323047  0.51779846  0.51025305  1
  H+  H161  1  0.64121383  0.76282008  0.01133492  1
  H+  H162  1  0.10329681  0.22196947  0.30680747  1
  H+  H163  1  0.87822871  0.02096065  0.33333099  1
  H+  H164  1  0.59183346  0.36244063  0.69983756  1
  H+  H165  1  0.85044233  0.96924502  0.67026680  1
  H+  H166  1  0.12356853  0.73315790  0.99528910  1
  H+  H167  1  0.23001400  0.13373861  0.48319959  1
  H+  H168  1  0.66690365  0.33200948  0.23328260  1
  H+  H169  1  0.03062731  0.63254511  0.49625353  1
  H+  H170  1  0.62324976  0.09481827  0.66147756  1
  H+  H171  1  0.53412567  0.64416065  0.48366815  1
  H+  H172  1  0.26031373  0.87801466  0.83059832  1
  H+  H173  1  0.86420978  0.14013159  0.00255902  1
  H+  H174  1  0.13672000  0.52339188  0.83229557  1
  H+  H175  1  0.64169012  0.87285455  0.17116293  1
  H+  H176  1  0.51395224  0.37376021  0.67745331  1
  H+  H177  1  0.85130546  0.19520300  0.80181236  1
  H+  H178  1  0.38469159  0.15653322  0.33240763  1
  H+  H179  1  0.52508594  0.38304176  0.16233599  1
  H+  H180  1  0.15652947  0.76344157  0.51710769  1
  H+  H181  1  0.13739016  0.85772228  0.31996503  1
  H+  H182  1  0.86550071  0.37271779  0.15918836  1
  H+  H183  1  0.02980658  0.45754792  0.36763919  1
  H+  H184  1  0.98281201  0.36101727  0.18078529  1
  H+  H185  1  0.36225159  0.88580580  0.49443214  1
  H+  H186  1  0.11700055  0.67477844  0.08777117  1
  H+  H187  1  0.85875663  0.38413762  0.34015492  1
  H+  H188  1  0.38886547  0.28279233  0.50195020  1
  H+  H189  1  0.10614913  0.13639643  0.31926770  1
  H+  H190  1  0.63650110  0.14995614  0.16286939  1
  H+  H191  1  0.60021160  0.16150098  0.39539770  1
  H+  H192  1  0.14927624  0.61349681  0.32347446  1
  H+  H193  1  0.11577512  0.63296269  0.81843805  1
  H+  H194  1  -0.02305985  0.09946979  0.84099531  1
  H+  H195  1  0.03371132  0.63871627  0.35020379  1
  H+  H196  1  0.24454691  0.61453288  0.17084607  1
  H+  H197  1  0.53525897  0.88293974  0.00291334  1
  H+  H198  1  0.87072344  0.72951441  0.00109036  1
  H+  H199  1  0.10101180  0.88060460  0.66846285  1
  H+  H200  1  0.95764329  0.84975501  0.65551737  1
  H+  H201  1  0.90471671  0.16359812  0.83676630  1
  H+  H202  1  0.86765789  0.47308936  0.00475913  1
  H+  H203  1  0.48005975  0.86875783  0.83690396  1
  H+  H204  1  0.88348838  0.36894895  0.67423846  1
  H+  H205  1  0.11032894  1.01651259  0.00031574  1
  H+  H206  1  0.11452603  0.97110460  0.32638159  1
  H+  H207  1  0.40064482  0.00671781  1.00993206  1
  H+  H208  1  0.07517792  0.66783364  0.73432507  1
  H+  H209  1  0.88271234  0.76904085  0.84326121  1
  H+  H210  1  0.87415180  0.25609831  0.32643189  1
  H+  H211  1  0.13855291  0.37070401  0.50108217  1
  H+  H212  1  0.10739812  0.23447287  0.17518079  1
  H+  H213  1  0.37984403  0.52328211  0.17386987  1
  H+  H214  1  0.86974679  0.85165480  0.65452890  1
  H+  H215  1  0.37961619  0.86373633  0.66481191  1
  H+  H216  1  0.09892846  0.14753522  0.49825084  1
  H+  H217  1  0.93451846  0.58978995  0.18731782  1
  H+  H218  1  0.12321228  1.00990343  0.84026759  1
  H+  H219  1  0.86034550  -0.02809017  1.00876142  1
  H+  H220  1  0.62352939  0.97325141  0.00365206  1
  H+  H221  1  0.28487455  0.64294692  0.33605929  1
  H+  H222  1  0.36517810  0.64877709  0.68731042  1
  H+  H223  1  0.70862638  0.36056355  0.32809412  1
  H+  H224  1  0.09078103  0.13895105  0.01291106  1
  H+  H225  1  0.12546072  0.76187714  0.83218506  1
  H+  H226  1  0.87827810  0.35942509  0.97638440  1
  H+  H227  1  0.86633749  0.78610027  0.17184115  1
  H+  H228  1  1.01028754  0.88237874  1.00721749  1
  H+  H229  1  0.84105319  0.92943842  0.10208971  1
  H+  H230  1  0.57577666  0.12136118  0.49383596  1
  H+  H231  1  0.85197525  0.10045363  0.65894710  1
  H+  H232  1  0.12599738  0.27597012  -0.00779510  1
  H+  H233  1  0.29668821  0.14705330  0.65927257  1
  H+  H234  1  0.61470838  0.22016881  0.33634373  1
  H+  H235  1  0.55739172  0.39943469  0.78147348  1
  H+  H236  1  0.38099531  0.52630982  0.82528222  1
  H+  H237  1  0.16638914  0.64654633  0.51255083  1
  H+  H238  1  0.74378322  0.65241287  0.15181904  1
  H+  H239  1  0.37961623  0.61682247  0.82917695  1
  H+  H240  1  0.52496374  0.13156000  0.68135106  1
  H+  H241  1  0.88955748  0.61645256  0.34692041  1
  H+  H242  1  0.89156007  0.03305855  0.16580880  1
  H+  H243  1  0.73340784  0.12010643  0.16935647  1
  H+  H244  1  0.34967213  0.39173446  0.83795439  1
  H+  H245  1  0.62338144  0.23378684  1.00901082  1
  H+  H246  1  0.98648718  0.61394538  0.99276071  1
  H+  H247  1  0.39795465  0.26769068  0.65632134  1
  H+  H248  1  0.77125019  0.88224478  0.33869572  1
  H+  H249  1  0.18903078  0.11089169  1.00591830  1
  H+  H250  1  0.66551231  0.63349299  0.50028468  1
  H+  H251  1  0.84685578  0.87973336  0.82414353  1
  H+  H252  1  0.15122884  0.07037684  0.89997660  1
  H+  H253  1  0.60582311  0.33465049  0.31781544  1
  H+  H254  1  0.48671386  0.58764695  0.32855405  1
  H+  H255  1  0.00085260  0.88859646  0.16474576  1
  H+  H256  1  0.15368214  0.54441523  0.66247778  1
  H+  H257  1  0.85171840  0.71623750  0.66088391  1
  H+  H258  1  0.35349194  0.38160587  1.01826794  1
  H+  H259  1  0.38775528  0.02730562  0.33191100  1
  H+  H260  1  0.70575127  0.86442548  0.82718023  1
  H+  H261  1  0.71985457  0.87285759  0.50230482  1
  H+  H262  1  0.45667333  0.12305076  0.51243838  1
  H+  H263  1  0.24102636  0.85738250  0.51742496  1
  H+  H264  1  0.63464792  0.77837277  0.65398412  1
  H+  H265  1  0.04173266  0.40606006  0.66792990  1
  H+  H266  1  0.82382277  0.64767933  0.88587641  1
  H+  H267  1  0.38060817  0.51903723  1.00743192  1
  H+  H268  1  0.62560152  0.72422431  0.33812904  1
  H+  H269  1  0.38487501  0.60958859  1.00299733  1
  H+  H270  1  0.63023201  0.36616063  0.84836601  1
  H+  H271  1  0.38422931  0.85781882  0.84609353  1
  H+  H272  1  0.14016548  0.36539589  0.20150384  1
  H+  H273  1  0.09520626  0.91200013  0.18169498  1
  H+  H274  1  0.41726488  0.02143407  0.50810215  1
  H+  H275  1  0.40260039  0.85860872  0.99544938  1
  H+  H276  1  0.09926158  0.87557064  0.82155268  1
  H+  H277  1  0.89078681  0.64864944  0.49022622  1
  H+  H278  1  0.13013777  0.36515205  -0.01688912  1
  H+  H279  1  0.15273734  0.32234678  0.89073433  1
  H+  H280  1  0.86584320  0.26660255  0.52110664  1
  H+  H281  1  0.61694570  0.39150161  0.00679843  1
  H+  H282  1  0.71710978  0.16277627  0.49575416  1
  H+  H283  1  0.88250370  0.27357193  0.97240214  1
  H+  H284  1  0.27608518  0.64979578  0.68047047  1
  H+  H285  1  0.51361081  0.87880223  0.67481596  1
  H+  H286  1  0.21834546  0.12211284  0.16109376  1
  H+  H287  1  0.36966923  0.37252695  0.67624009  1
  H+  H288  1  0.40150896  0.34648118  0.91230520  1
  H+  H289  1  0.18148300  0.10418569  0.54627475  1
  H+  H290  1  0.09504404  0.42824390  0.72937776  1
  H+  H291  1  0.67058453  0.08798595  0.22886772  1
  H+  H292  1  0.66824527  0.83632903  0.26698509  1
  H+  H293  1  0.62409636  0.18239031  0.76742182  1
  H+  H294  1  0.89012504  0.12676349  0.16191684  1
  H+  H295  1  0.88407619  0.60354242  0.65906975  1
  H+  H296  1  0.65172894  0.62631499  0.98587686  1
  H+  H297  1  0.33640881  0.53094992  0.63982913  1
  H+  H298  1  0.17438900  0.82681420  0.26543229  1
  H+  H299  1  0.57503455  0.42258616  0.44050872  1
  H+  H300  1  0.81951791  0.65614294  0.71890863  1
  H+  H301  1  0.82243961  0.91172996  0.76381555  1
  H+  H302  1  0.33337550  0.16198949  0.09899564  1
  H+  H303  1  0.37916961  0.36478998  0.50570403  1
  H+  H304  1  0.92427494  0.57592100  0.57003997  1
  H+  H305  1  0.83983008  0.17458806  0.09385362  1
  H+  H306  1  0.55450514  0.97399792  0.79843837  1
  H+  H307  1  0.43718019  0.13660907  0.87937108  1
  H+  H308  1  0.62075966  0.48224694  0.00509258  1
  H+  H309  1  0.65508840  0.01989489  0.84541058  1
  H+  H310  1  0.33585108  0.16222040  0.72581293  1
  H+  H311  1  0.42695756  0.83177155  0.93149861  1
  H+  H312  1  0.06805470  0.91144428  0.06844471  1
  H+  H313  1  0.83004475  0.67220723  0.05933167  1
  H+  H314  1  0.87927053  0.77012840  0.32243927  1
  H+  H315  1  0.43287591  0.07087332  0.60749645  1
  H+  H316  1  0.60699225  0.18363521  0.09996897  1
  H+  H317  1  0.67965479  0.08205967  0.93468612  1
  H+  H318  1  0.91221614  0.83536563  0.93246682  1
  H+  H319  1  0.90456445  0.83577639  0.23681752  1
  H+  H320  1  0.21598574  0.90072685  0.96508311  1
  H+  H321  1  0.89607709  0.34399040  0.86834584  1
  H+  H322  1  0.41974996  0.33194156  0.59830114  1
  H+  H323  1  0.61577606  0.21910593  0.67272763  1
  H+  H324  1  0.89277259  0.07703681  0.56460642  1
  H+  H325  1  0.05979187  0.93392871  0.41746884  1
  H+  H326  1  0.58803128  0.41792993  0.10415250  1
  H+  H327  1  0.56509539  0.58939769  0.04849466  1
  H+  H328  1  0.96457977  0.11120418  0.32400977  1
  H+  H329  1  0.91418886  0.32148562  0.23534153  1
  H+  H330  1  0.87093815  0.58231197  0.25311723  1
  H+  H331  1  0.66015839  0.84483151  0.56177668  1
  H+  H332  1  0.07914259  0.41176818  0.43377028  1
  H+  H333  1  0.11394622  0.41279117  0.12397784  1
  H+  H334  1  0.16833671  0.82498639  0.60675139  1
  H+  H335  1  0.92844123  0.57247115  0.90032746  1
  H+  H336  1  0.87033055  0.62213270  0.83899636  1
  H+  H337  1  0.44278417  0.05273232  0.94872998  1
  H+  H338  1  0.32310395  0.91063145  0.73861406  1
  H+  H339  1  0.12555640  0.64427747  -0.00761052  1
  H+  H340  1  0.09201293  0.66590912  0.43628825  1
  H+  H341  1  0.34751544  0.19552743  0.40950291  1
  H+  H342  1  0.45419206  0.36429089  0.85165294  1
  H+  H343  1  0.85454551  0.53507701  0.25825120  1
  H+  H344  1  0.02103168  0.39073797  0.81440343  1
  H+  H345  1  0.36123526  0.72967935  0.83459043  1
  H+  H346  1  0.67488893  0.30840029  0.55734284  1
  H+  H347  1  0.90862975  0.83270176  0.55569154  1
  H+  H348  1  0.02154145  0.88396858  0.32427393  1
  H+  H349  1  0.32002877  0.40671977  0.11424826  1
  H+  H350  1  0.06783751  0.90689535  0.76413666  1
  H+  H351  1  0.61554380  0.73952733  0.49139099  1
  H+  H352  1  0.14532733  0.82148811  0.89144954  1
  H+  H353  1  0.42253600  0.83906222  0.26603441  1
  H+  H354  1  0.16873845  0.58755761  0.92266515  1
  H+  H355  1  0.26863919  0.38263670  0.48519849  1
  H+  H356  1  0.12446836  1.03840152  0.15997906  1
  H+  H357  1  0.83858449  0.41126185  0.43780945  1
  H+  H358  1  0.83686217  0.67099753  0.39241396  1
  H+  H359  1  0.66040567  0.57247622  0.27068645  1
  H+  H360  1  0.57591819  0.67160033  0.11413198  1
  H+  H361  1  0.76039404  0.72875540  0.10884192  1
  H+  H362  1  0.08017469  0.10979428  0.73789893  1
  H+  H363  1  0.65983929  0.54516555  0.50258798  1
  H+  H364  1  0.91182936  0.07554504  0.93608201  1
  H+  H365  1  0.27358691  0.63838241  0.00045629  1
  H+  H366  1  0.96712045  0.86013414  0.83710929  1
  H+  H367  1  0.30738839  0.38961088  0.38334925  1
  H+  H368  1  0.56936997  0.90720970  0.73723445  1
  H+  H369  1  0.33392209  0.67248444  0.09822721  1
  H+  H370  1  0.34321897  0.66723964  0.42032925  1
  H+  H371  1  0.60409790  0.67383273  0.40138746  1
  H+  H372  1  0.38985414  0.81900551  0.57327685  1
  H+  H373  1  0.34382372  0.92498195  0.43397708  1
  H+  H374  1  0.64334131  0.22209192  0.48719754  1
  H+  H375  1  0.83760540  0.40772744  0.06113682  1
  H+  H376  1  0.05096763  0.41505023  0.04039304  1
  H+  H377  1  0.19181223  0.37377275  0.55954435  1
  H+  H378  1  0.07354782  0.18001904  0.07208331  1
  H+  H379  1  0.91861564  0.33051148  0.57421295  1
  H+  H380  1  0.17995221  0.58419571  0.26401914  1
  H+  H381  1  0.41348032  0.56450649  0.53638667  1
  H+  H382  1  0.33071852  0.67724726  0.77181959  1
  H+  H383  1  0.66080539  0.57539807  0.89433638  1
  O2-  O384  1  0.07774458  0.17983949  0.15070453  1
  O2-  O385  1  0.06299615  0.17356401  0.50565249  1
  O2-  O386  1  0.07949528  0.15243006  0.80561334  1
  O2-  O387  1  0.09705786  0.41976541  0.16463817  1
  O2-  O388  1  0.08129963  0.40881060  0.47860892  1
  O2-  O389  1  0.08330276  0.41849642  0.80582019  1
  O2-  O390  1  0.11606036  0.67023250  0.13313589  1
  O2-  O391  1  0.09122522  0.66638348  0.48148246  1
  O2-  O392  1  0.08330617  0.66280476  0.80482823  1
  O2-  O393  1  0.06250376  0.91818492  0.14878586  1
  O2-  O394  1  0.04012886  0.95365183  0.45245237  1
  O2-  O395  1  0.07016965  0.90834133  0.80954189  1
  O2-  O396  1  0.32401655  0.16304658  0.14285163  1
  O2-  O397  1  0.33380914  0.18628320  0.45570035  1
  O2-  O398  1  0.30950441  0.15995409  0.79583138  1
  O2-  O399  1  0.33133576  0.41138230  0.15875696  1
  O2-  O400  1  0.32702481  0.40201018  0.46747596  1
  O2-  O401  1  0.31910001  0.41835430  0.81529010  1
  O2-  O402  1  0.33740744  0.67438605  0.14356159  1
  O2-  O403  1  0.34403173  0.65717044  0.46724457  1
  O2-  O404  1  0.32714074  0.66982277  0.81748080  1
  O2-  O405  1  0.35423184  0.91777448  0.15003862  1
  O2-  O406  1  0.34745045  0.92938988  0.47940690  1
  O2-  O407  1  0.32231455  0.90965833  0.81871510  1
  O2-  O408  1  0.60895377  0.18499224  0.14653423  1
  O2-  O409  1  0.62786136  0.16176658  0.47138676  1
  O2-  O410  1  0.65024631  0.19659059  0.80919300  1
  O2-  O411  1  0.58859530  0.41573947  0.14922217  1
  O2-  O412  1  0.58445433  0.43181306  0.48460119  1
  O2-  O413  1  0.55964149  0.39915321  0.82646490  1
  O2-  O414  1  0.58584780  0.67403947  0.15843431  1
  O2-  O415  1  0.59626384  0.68079138  0.47529710  1
  O2-  O416  1  0.56411436  0.67802754  0.80410405  1
  O2-  O417  1  0.59011756  0.92253285  0.14217619  1
  O2-  O418  1  0.56966640  0.91466841  0.46964912  1
  O2-  O419  1  0.56166614  0.92493596  0.80744395  1
  O2-  O420  1  0.83927049  0.17031691  0.13972057  1
  O2-  O421  1  0.78395982  0.11211377  0.46900287  1
  O2-  O422  1  0.90659770  0.21619056  0.82162209  1
  O2-  O423  1  0.83815365  0.40351497  0.13970278  1
  O2-  O424  1  0.83999204  0.41546374  0.48316964  1
  O2-  O425  1  0.86717961  0.41145947  0.81326437  1
  O2-  O426  1  0.79038445  0.70165722  0.12696596  1
  O2-  O427  1  0.89396874  0.68910401  0.45871637  1
  O2-  O428  1  0.83712836  0.65327125  0.84251880  1
  O2-  O429  1  0.84109369  0.93763902  0.14762242  1
  O2-  O430  1  0.82136754  0.91594083  0.47575631  1
  O2-  O431  1  0.82046239  0.91319478  0.80911493  1
  O2-  O432  1  0.15692148  0.09854298  0.17311469  1
  O2-  O433  1  0.17193307  0.10009379  0.50185661  1
  O2-  O434  1  0.15502708  0.07066315  0.85517358  1
  O2-  O435  1  0.16430993  0.32755278  0.21212878  1
  O2-  O436  1  0.17379278  0.34597895  0.51916522  1
  O2-  O437  1  0.15153470  0.32164185  0.84550631  1
  O2-  O438  1  0.18265749  0.58182118  0.18631998  1
  O2-  O439  1  0.21470931  0.64714931  0.53523291  1
  O2-  O440  1  0.16321019  0.58405481  0.84705458  1
  O2-  O441  1  0.18499544  0.82222906  0.18236845  1
  O2-  O442  1  0.19664525  0.81224024  0.54327877  1
  O2-  O443  1  0.15168461  0.82315217  0.84678776  1
  O2-  O444  1  0.40141567  0.08566700  0.19160773  1
  O2-  O445  1  0.46067040  0.07569973  0.53029930  1
  O2-  O446  1  0.41003179  0.09109310  0.84912683  1
  O2-  O447  1  0.42933618  0.33490781  0.18242286  1
  O2-  O448  1  0.41015039  0.33680275  0.52517944  1
  O2-  O449  1  0.39572376  0.34542997  0.86760493  1
  O2-  O450  1  0.40606623  0.58643429  0.17072084  1
  O2-  O451  1  0.42207549  0.57434737  0.49298401  1
  O2-  O452  1  0.41581289  0.58926788  0.83486551  1
  O2-  O453  1  0.42871751  0.83390426  0.18738542  1
  O2-  O454  1  0.36867887  0.80427484  0.53012481  1
  O2-  O455  1  0.41845947  0.83129588  0.85848878  1
  O2-  O456  1  0.67223133  0.09341198  0.18242763  1
  O2-  O457  1  0.77339154  0.16943925  0.51060569  1
  O2-  O458  1  0.69542722  0.07744783  0.86244984  1
  O2-  O459  1  0.67088590  0.33408104  0.18696415  1
  O2-  O460  1  0.67266875  0.31062368  0.51278850  1
  O2-  O461  1  0.67528746  0.35481103  0.86513787  1
  O2-  O462  1  0.65978375  0.58195445  0.18969064  1
  O2-  O463  1  0.69982154  0.60669052  0.51093832  1
  O2-  O464  1  0.65208806  0.56417691  0.85005323  1
  O2-  O465  1  0.67189215  0.84286145  0.18726332  1
  O2-  O466  1  0.65864023  0.84399875  0.51654103  1
  O2-  O467  1  0.64368911  0.83399443  0.83704821  1
  O2-  O468  1  0.92238549  0.09698112  0.17791522  1
  O2-  O469  1  0.89712154  0.07975842  0.51958679  1
  O2-  O470  1  0.91906717  0.07442237  0.85997119  1
  O2-  O471  1  0.92037716  0.32712317  0.18941473  1
  O2-  O472  1  0.91326304  0.32622366  0.52974673  1
  O2-  O473  1  0.90763006  0.35967895  0.82442859  1
  O2-  O474  1  0.95239296  0.57353144  0.15020963  1
  O2-  O475  1  0.92705615  0.57849710  0.52496881  1
  O2-  O476  1  0.92778335  0.57222114  0.85476361  1
  O2-  O477  1  0.90584693  0.84309453  0.19048356  1
  O2-  O478  1  0.90505341  0.83434258  0.51092005  1
  O2-  O479  1  0.90755672  0.83037240  0.85437278  1
  O2-  O480  1  0.18296174  0.08892455  0.33328279  1
  O2-  O481  1  0.20917739  0.14199234  0.62396853  1
  O2-  O482  1  0.13589361  0.07663408  0.98347461  1
  O2-  O483  1  0.15589166  0.32314307  0.27850207  1
  O2-  O484  1  0.23755831  0.43927264  0.62682932  1
  O2-  O485  1  0.16074803  0.33377453  0.97325552  1
  O2-  O486  1  0.17790819  0.58133403  0.30938623  1
  O2-  O487  1  0.18844442  0.60648903  0.65330732  1
  O2-  O488  1  0.16845703  0.58821454  0.96849574  1
  O2-  O489  1  0.17134537  0.82874535  0.31025460  1
  O2-  O490  1  0.15515430  0.82921098  0.65174912  1
  O2-  O491  1  0.16147780  0.84874763  0.97312665  1
  O2-  O492  1  0.41972406  0.08753019  0.31637816  1
  O2-  O493  1  0.42363369  0.07092978  0.65226394  1
  O2-  O494  1  0.43465011  0.06543160  0.99050657  1
  O2-  O495  1  0.52496973  0.33757912  0.32531775  1
  O2-  O496  1  0.42323649  0.32945879  0.64425360  1
  O2-  O497  1  0.41723922  0.33944203  0.99215378  1
  O2-  O498  1  0.43593331  0.56098977  0.30227715  1
  O2-  O499  1  0.39087209  0.56925462  0.66275375  1
  O2-  O500  1  0.41652749  0.57902718  0.99286504  1
  O2-  O501  1  0.41912084  0.84277496  0.31105297  1
  O2-  O502  1  0.41143890  0.83630151  0.64778048  1
  O2-  O503  1  0.43078984  0.82868777  0.97752379  1
  O2-  O504  1  0.66349715  0.07758815  0.30088020  1
  O2-  O505  1  0.65017867  0.06365226  0.64367046  1
  O2-  O506  1  0.67495103  0.08097974  0.98074506  1
  O2-  O507  1  0.65516891  0.32182915  0.30627743  1
  O2-  O508  1  0.68429565  0.32547304  0.64134479  1
  O2-  O509  1  0.66484989  0.33280023  0.98341698  1
  O2-  O510  1  0.66059537  0.56805169  0.31568794  1
  O2-  O511  1  0.64309460  0.56447606  0.64990347  1
  O2-  O512  1  0.67827919  0.59227352  0.97325232  1
  O2-  O513  1  0.66845689  0.83275999  0.31208579  1
  O2-  O514  1  0.66011581  0.83900433  0.64115650  1
  O2-  O515  1  0.67674538  0.82167060  0.99663344  1
  O2-  O516  1  0.90082349  0.08057931  0.31873623  1
  O2-  O517  1  0.89053182  0.07493039  0.64548187  1
  O2-  O518  1  0.90547459  0.07562297  0.98158457  1
  O2-  O519  1  0.90517915  0.31670932  0.30938035  1
  O2-  O520  1  0.91551865  0.33916375  0.66267726  1
  O2-  O521  1  0.90731261  0.33216329  0.95438379  1
  O2-  O522  1  0.92408638  0.59211254  0.36516011  1
  O2-  O523  1  0.91961347  0.57626874  0.65094992  1
  O2-  O524  1  0.92570673  0.58077345  0.97853642  1
  O2-  O525  1  0.91123116  0.83144162  0.30792138  1
  O2-  O526  1  0.89819620  0.81977333  0.63900599  1
  O2-  O527  1  0.91411227  0.83288069  0.97801658  1
  O2-  O528  1  0.06744531  0.17558671  0.02680296  1
  O2-  O529  1  0.07269360  0.16458716  0.32751521  1
  O2-  O530  1  0.07897311  0.07702031  0.70018180  1
  O2-  O531  1  0.06519779  0.41696810  -0.00248241  1
  O2-  O532  1  0.06306001  0.43052276  0.35623832  1
  O2-  O533  1  0.10065006  0.43610333  0.68405156  1
  O2-  O534  1  0.09639401  0.67436169  0.01144106  1
  O2-  O535  1  0.09702311  0.66537382  0.35556561  1
  O2-  O536  1  0.06817624  0.67271844  0.68859161  1
  O2-  O537  1  0.07139255  0.91444082  0.02328944  1
  O2-  O538  1  0.08279561  0.90944539  0.33726927  1
  O2-  O539  1  0.06315067  0.90235375  0.68524055  1
  O2-  O540  1  0.35678155  0.16046434  0.01280679  1
  O2-  O541  1  0.36618168  0.19956957  0.34129751  1
  O2-  O542  1  0.35159312  0.16533614  0.68121416  1
  O2-  O543  1  0.32108351  0.40963226  0.03297622  1
  O2-  O544  1  0.31448056  0.39525921  0.33894412  1
  O2-  O545  1  0.33894684  0.40110955  0.69434015  1
  O2-  O546  1  0.33124941  0.66567214  0.01977832  1
  O2-  O547  1  0.34249330  0.67795948  0.35445161  1
  O2-  O548  1  0.33794066  0.68286866  0.69852455  1
  O2-  O549  1  0.34740661  0.90749973  0.03422888  1
  O2-  O550  1  0.33746334  0.92149509  0.35566276  1
  O2-  O551  1  0.31941901  0.90853893  0.69343183  1
  O2-  O552  1  0.60095612  0.17515472  0.02845453  1
  O2-  O553  1  0.58727972  0.15935277  0.35097453  1
  O2-  O554  1  0.58633910  0.16391271  0.69505879  1
  O2-  O555  1  0.58814825  0.42335485  0.02193978  1
  O2-  O556  1  0.54077607  0.41253839  0.35981257  1
  O2-  O557  1  0.56962859  0.40186195  0.70160297  1
  O2-  O558  1  0.56894753  0.64177154  0.03255580  1
  O2-  O559  1  0.60356529  0.66639464  0.35606787  1
  O2-  O560  1  0.62926700  0.68808847  0.69449665  1
  O2-  O561  1  0.59439831  0.91382440  0.02067628  1
  O2-  O562  1  0.58199237  0.91371530  0.34927910  1
  O2-  O563  1  0.57348969  0.90427247  0.69075440  1
  O2-  O564  1  0.83898491  0.17566233  0.01705444  1
  O2-  O565  1  0.81949613  0.15670827  0.34953570  1
  O2-  O566  1  0.80611599  0.14636786  0.67856939  1
  O2-  O567  1  0.83453623  0.41112202  0.01593872  1
  O2-  O568  1  0.82985375  0.41228388  0.36017120  1
  O2-  O569  1  0.83189623  0.42632013  0.69642951  1
  O2-  O570  1  0.84156431  0.66829653  0.01560752  1
  O2-  O571  1  0.82864390  0.66679526  0.34725360  1
  O2-  O572  1  0.82538301  0.65482041  0.67497601  1
  O2-  O573  1  0.83772057  0.91366831  0.02754279  1
  O2-  O574  1  0.83207866  0.91046896  0.35349443  1
  O2-  O575  1  0.82134708  0.90813539  0.68370959  1
