# generated using pymatgen
data_H2O
_symmetry_space_group_name_H-M   'P 1'
_cell_length_a   17.99536574
_cell_length_b   17.99168106
_cell_length_c   21.99807567
_cell_angle_alpha   89.99171871
_cell_angle_beta   89.99181038
_cell_angle_gamma   119.99470125
_symmetry_Int_Tables_number   1
_chemical_formula_structural   H2O
_chemical_formula_sum   'H384 O192'
_cell_volume   6168.37705262
_cell_formula_units_Z   192
loop_
 _symmetry_equiv_pos_site_id
 _symmetry_equiv_pos_as_xyz
  1  'x, y, z'
loop_
 _atom_type_symbol
 _atom_type_oxidation_number
  H+  1.0
  O2-  -2.0
loop_
 _atom_site_type_symbol
 _atom_site_label
 _atom_site_symmetry_multiplicity
 _atom_site_fract_x
 _atom_site_fract_y
 _atom_site_fract_z
 _atom_site_occupancy
  H+  H0  1  0.34399462  0.14086928  0.03711858  1
  H+  H1  1  0.64234285  0.61775215  0.66493228  1
  H+  H2  1  0.40148181  0.04080067  0.18367071  1
  H+  H3  1  0.63729233  0.63948517  0.33135911  1
  H+  H4  1  0.83738414  0.40485357  0.77702897  1
  H+  H5  1  0.72268167  0.08041473  0.50605547  1
  H+  H6  1  0.58050982  0.66859086  0.42149717  1
  H+  H7  1  0.97401828  0.58976105  0.31960522  1
  H+  H8  1  0.53110042  0.88933555  0.16253487  1
  H+  H9  1  0.14832130  0.80668140  0.60266187  1
  H+  H10  1  0.35622216  0.64443283  0.16706606  1
  H+  H11  1  0.86680828  0.23225667  0.83711041  1
  H+  H12  1  0.14278721  0.85925505  1.05356884  1
  H+  H13  1  0.03329022  0.89682525  0.16997826  1
  H+  H14  1  0.86239843  0.63336532  0.99985454  1
  H+  H15  1  0.38995106  0.78609729  0.33363981  1
  H+  H16  1  0.60929629  -0.03373556  1.00808085  1
  H+  H17  1  0.61323496  0.72039303  0.83158018  1
  H+  H18  1  0.39573352  0.57766074  0.24476393  1
  H+  H19  1  0.12148276  0.48542158  0.15796023  1
  H+  H20  1  0.58544064  0.73263122  0.15931662  1
  H+  H21  1  0.05768076  0.66437968  0.13455363  1
  H+  H22  1  0.62166469  0.36208304  0.84168976  1
  H+  H23  1  0.14581245  0.28147228  0.83254056  1
  H+  H24  1  0.10984292  0.14523954  0.34164015  1
  H+  H25  1  0.39229756  0.78176365  0.17745297  1
  H+  H26  1  0.98325639  0.61308392  0.50635760  1
  H+  H27  1  0.19938998  0.84768539  0.66225752  1
  H+  H28  1  0.42627142  0.58853908  0.59872330  1
  H+  H29  1  0.88639611  0.27177565  0.67612327  1
  H+  H30  1  0.86198601  0.12834000  0.33828934  1
  H+  H31  1  0.64249496  0.11297379  0.17041893  1
  H+  H32  1  0.91036186  0.95123331  0.52703066  1
  H+  H33  1  0.39037588  0.90141108  0.16585642  1
  H+  H34  1  0.80145115  0.64097598  0.16397173  1
  H+  H35  1  0.27340384  0.87545659  -0.01355746  1
  H+  H36  1  0.89181199  0.02195003  0.99684307  1
  H+  H37  1  0.13381029  0.74316937  0.16818305  1
  H+  H38  1  0.13916794  0.62537192  0.17902081  1
  H+  H39  1  0.74113522  0.35684742  0.47975561  1
  H+  H40  1  0.66233113  0.53634114  0.33566979  1
  H+  H41  1  0.44076600  0.87751399  0.68196450  1
  H+  H42  1  0.86676324  0.37123064  0.83509867  1
  H+  H43  1  0.12917777  0.40283456  0.51231444  1
  H+  H44  1  0.59374814  0.16348236  0.72882153  1
  H+  H45  1  0.25267343  0.88817494  0.16925238  1
  H+  H46  1  0.65337863  0.27112834  0.47495153  1
  H+  H47  1  0.77949444  0.13693708  0.67784985  1
  H+  H48  1  0.75219400  0.62819015  0.33709848  1
  H+  H49  1  0.42100701  0.84184789  0.23787653  1
  H+  H50  1  0.48617573  0.86347977  0.50599422  1
  H+  H51  1  0.85637436  0.13276739  0.83083136  1
  H+  H52  1  0.41751922  0.34215622  0.56967857  1
  H+  H53  1  0.86430683  0.08725658  0.49953065  1
  H+  H54  1  0.85920786  0.87122751  0.83123527  1
  H+  H55  1  0.36481112  0.88977839  0.49986663  1
  H+  H56  1  0.64737420  0.87062378  0.17856854  1
  H+  H57  1  0.83100277  0.34417990  0.17964957  1
  H+  H58  1  0.49231404  0.35224813  0.98991237  1
  H+  H59  1  0.77709710  0.38699281  -0.00377660  1
  H+  H60  1  0.36836530  0.47898950  0.82783580  1
  H+  H61  1  -0.00422788  0.89640860  0.50803202  1
  H+  H62  1  0.03296238  0.13795359  0.15555399  1
  H+  H63  1  0.12042662  0.58645862  0.83419831  1
  H+  H64  1  0.97541240  0.36453489  0.67850839  1
  H+  H65  1  0.39314537  0.11210116  0.81245015  1
  H+  H66  1  0.36302429  0.63801816  0.82396131  1
  H+  H67  1  0.13340544  0.39494136  0.33494099  1
  H+  H68  1  0.89646137  0.25329751  0.35260842  1
  H+  H69  1  0.87433364  0.23425968  1.00546596  1
  H+  H70  1  0.91112207  0.88203422  0.33164111  1
  H+  H71  1  0.03831555  0.38114447  0.34442542  1
  H+  H72  1  0.41352755  0.58675845  0.89848164  1
  H+  H73  1  0.14218688  0.27827972  0.51893812  1
  H+  H74  1  0.66061202  0.86444442  0.50487216  1
  H+  H75  1  0.60316884  0.49261662  0.48936981  1
  H+  H76  1  0.12516074  0.74199070  0.82006928  1
  H+  H77  1  0.68202282  0.14907460  0.97242080  1
  H+  H78  1  0.77694971  0.64000832  1.00680572  1
  H+  H79  1  0.37565909  0.10434243  0.33720519  1
  H+  H80  1  0.40418924  0.86045012  0.99076442  1
  H+  H81  1  0.37541444  0.73425357  0.49779455  1
  H+  H82  1  0.12315411  0.23967040  0.34003780  1
  H+  H83  1  0.63402954  0.35206656  0.66679281  1
  H+  H84  1  0.47023232  0.88105940  0.33354140  1
  H+  H85  1  0.27062852  0.14492792  0.50241189  1
  H+  H86  1  0.72425865  0.35764780  0.66720396  1
  H+  H87  1  0.61582105  0.95912848  0.49013744  1
  H+  H88  1  0.78792779  0.14102632  1.00086309  1
  H+  H89  1  0.90465558  0.33909783  0.33111675  1
  H+  H90  1  0.15691114  0.94255479  0.38442760  1
  H+  H91  1  0.62439980  0.71432351  0.48249046  1
  H+  H92  1  0.24191349  0.53221209  0.95024351  1
  H+  H93  1  0.17080318  0.76061403  0.94904823  1
  H+  H94  1  0.55687841  0.87441052  0.67183646  1
  H+  H95  1  0.85990768  0.50036964  0.84286521  1
  H+  H96  1  0.47407614  0.61386416  0.83954171  1
  H+  H97  1  0.85778658  0.98342196  0.68330247  1
  H+  H98  1  0.62031369  0.96406127  0.32702670  1
  H+  H99  1  0.72061467  0.60974846  0.84037397  1
  H+  H100  1  0.85668643  0.12473986  0.15223126  1
  H+  H101  1  0.87365704  0.74285887  0.34891261  1
  H+  H102  1  0.61830093  0.47645265  0.83166504  1
  H+  H103  1  0.61823053  0.48974394  1.01264191  1
  H+  H104  1  0.72719919  0.60807660  0.51111642  1
  H+  H105  1  0.29573671  0.65059062  0.00759944  1
  H+  H106  1  0.84675785  0.72179639  0.82882668  1
  H+  H107  1  0.36992026  0.24451830  0.33937468  1
  H+  H108  1  0.38888430  0.03102870  0.50784760  1
  H+  H109  1  0.22982941  0.11872950  0.65003406  1
  H+  H110  1  0.39210697  0.36355065  0.84032794  1
  H+  H111  1  0.14581985  0.12333537  0.17767873  1
  H+  H112  1  0.89310907  0.11831935  0.66475608  1
  H+  H113  1  0.39535348  0.77552715  0.84155766  1
  H+  H114  1  0.61869440  0.47954593  0.68019937  1
  H+  H115  1  0.39463001  0.04723423  0.64958666  1
  H+  H116  1  0.11137516  0.84827635  0.02799468  1
  H+  H117  1  0.51091190  0.40335581  0.48935638  1
  H+  H118  1  0.23257254  0.36671121  0.51637998  1
  H+  H119  1  0.37301370  0.64350582  0.49548115  1
  H+  H120  1  0.36970958  0.48388419  0.67245466  1
  H+  H121  1  0.89530015  0.60569464  0.16924043  1
  H+  H122  1  0.14789354  0.03550373  0.18080718  1
  H+  H123  1  0.22048638  0.86289119  0.50977521  1
  H+  H124  1  0.12637246  0.14293040  1.00477683  1
  H+  H125  1  0.35326134  0.01201337  1.01284707  1
  H+  H126  1  0.38567716  0.74505244  0.00544068  1
  H+  H127  1  0.49183772  0.13435096  1.02318214  1
  H+  H128  1  0.85891693  0.47694375  0.67597284  1
  H+  H129  1  0.63251767  0.36412279  0.99933551  1
  H+  H130  1  0.61126424  0.73582062  0.68081230  1
  H+  H131  1  0.29362910  0.65040770  0.66702550  1
  H+  H132  1  0.39359699  0.66932422  0.34177065  1
  H+  H133  1  0.64103287  0.10273015  0.65954271  1
  H+  H134  1  0.11350145  0.72262024  0.48992088  1
  H+  H135  1  0.38404066  0.27912675  0.51124604  1
  H+  H136  1  0.12625406  0.49644159  0.32356397  1
  H+  H137  1  0.22921676  0.86263967  0.32871897  1
  H+  H138  1  0.73201091  0.86355641  0.17522243  1
  H+  H139  1  0.52906439  0.12972598  0.48621028  1
  H+  H140  1  0.56290113  0.86072989  0.31246036  1
  H+  H141  1  0.64055743  0.01993481  0.16417534  1
  H+  H142  1  0.89631816  0.11348082  0.99654028  1
  H+  H143  1  0.73395237  0.11459185  0.83495383  1
  H+  H144  1  0.12763651  0.38586788  0.82834519  1
  H+  H145  1  0.95047201  0.83505311  0.83797527  1
  H+  H146  1  0.37434299  0.15567704  0.66474273  1
  H+  H147  1  0.37258944  0.45171159  0.32481980  1
  H+  H148  1  0.39236077  0.28611707  0.66044553  1
  H+  H149  1  0.69678249  0.50860169  0.18721800  1
  H+  H150  1  0.63290823  0.58859894  0.14256510  1
  H+  H151  1  0.89148077  0.61895641  0.65956794  1
  H+  H152  1  0.88944686  0.77189015  0.98599634  1
  H+  H153  1  0.39005270  0.52767939  0.50569284  1
  H+  H154  1  0.71105963  0.39974022  0.14997407  1
  H+  H155  1  0.80392997  0.90037363  0.34430012  1
  H+  H156  1  0.08727639  0.42176909  0.74009186  1
  H+  H157  1  0.86648659  0.71990778  0.51113064  1
  H+  H158  1  0.33411249  0.90855345  0.62343185  1
  H+  H159  1  0.53305632  0.13735855  0.82019160  1
  H+  H160  1  0.47116391  0.11615485  0.33297602  1
  H+  H161  1  0.41742730  0.56714275  0.35948844  1
  H+  H162  1  0.87040516  0.87017069  0.66740231  1
  H+  H163  1  0.13702959  0.27046578  -0.00585942  1
  H+  H164  1  0.43130679  0.38384718  0.16195422  1
  H+  H165  1  0.95734558  0.60133928  0.96123787  1
  H+  H166  1  0.39565031  0.37681622  0.66281652  1
  H+  H167  1  0.27531021  0.64029470  0.81964769  1
  H+  H168  1  0.23760242  0.36345725  0.32873071  1
  H+  H169  1  0.39316095  0.62405909  -0.00445572  1
  H+  H170  1  0.43458855  0.30983274  0.19386225  1
  H+  H171  1  0.25953105  0.89165658  0.82752564  1
  H+  H172  1  0.62402951  0.14100680  0.82855310  1
  H+  H173  1  0.02984061  0.22581316  0.78325227  1
  H+  H174  1  0.50578327  0.62644134  0.32596170  1
  H+  H175  1  0.22820379  0.62424503  0.17463046  1
  H+  H176  1  0.86216970  -0.03443743  0.83380558  1
  H+  H177  1  0.35659229  0.97926015  0.34756529  1
  H+  H178  1  0.36133520  0.36014892  0.34056487  1
  H+  H179  1  0.87244053  0.63552777  0.49997346  1
  H+  H180  1  0.12457962  1.02789375  0.33205719  1
  H+  H181  1  0.36195742  0.14365691  0.49922976  1
  H+  H182  1  0.71640571  0.88755147  0.67972351  1
  H+  H183  1  0.62929641  0.60451772  0.84244122  1
  H+  H184  1  0.73020477  0.85423982  0.84435767  1
  H+  H185  1  0.97458979  0.60660030  0.65913867  1
  H+  H186  1  0.10098862  0.75815517  0.80166881  1
  H+  H187  1  0.09061955  0.97094548  0.51934268  1
  H+  H188  1  0.60552695  0.37461783  0.31159970  1
  H+  H189  1  0.37741430  0.23153477  0.82202894  1
  H+  H190  1  0.11965750  0.47018698  0.82685750  1
  H+  H191  1  0.39940456  0.62145981  0.65793423  1
  H+  H192  1  0.07600617  0.18413950  0.74885179  1
  H+  H193  1  0.00007607  0.90757483  0.01640415  1
  H+  H194  1  0.28836893  0.14351451  0.82179820  1
  H+  H195  1  0.27045011  0.38768174  1.00471497  1
  H+  H196  1  0.72309737  0.08777865  0.32635483  1
  H+  H197  1  0.62721796  0.26621601  0.84337257  1
  H+  H198  1  0.13309834  0.84388427  0.31824271  1
  H+  H199  1  0.62269526  0.22467752  0.67098978  1
  H+  H200  1  -0.03608085  0.62638388  0.04148927  1
  H+  H201  1  0.53698536  0.45821766  0.33736363  1
  H+  H202  1  0.53621981  0.14288406  0.17852698  1
  H+  H203  1  0.84417407  0.62900189  0.82478371  1
  H+  H204  1  0.57065949  0.12036128  0.01882848  1
  H+  H205  1  -0.01784501  0.11739483  0.66137137  1
  H+  H206  1  0.25820581  0.12433077  0.35145124  1
  H+  H207  1  0.38188064  0.47112309  0.14682472  1
  H+  H208  1  0.45902715  0.33269900  0.33330622  1
  H+  H209  1  0.15516490  0.66746076  0.02131276  1
  H+  H210  1  0.77584070  0.88440495  0.00735934  1
  H+  H211  1  0.12232263  0.14386316  0.49887673  1
  H+  H212  1  0.88863746  0.35806930  0.98910431  1
  H+  H213  1  0.78653399  0.35535452  0.35597240  1
  H+  H214  1  0.83829893  0.85627815  0.51273076  1
  H+  H215  1  0.97048930  0.11012714  0.83879947  1
  H+  H216  1  0.49036014  0.12785529  0.65671986  1
  H+  H217  1  0.48118120  0.36420887  0.84008133  1
  H+  H218  1  0.84320875  0.46969631  0.15283638  1
  H+  H219  1  0.86322235  0.47941960  0.99715208  1
  H+  H220  1  0.86466072  0.88466029  0.00326678  1
  H+  H221  1  0.34627972  0.67619126  0.73009296  1
  H+  H222  1  0.73118824  0.61813330  0.66383030  1
  H+  H223  1  0.88737510  0.02531119  0.17001035  1
  H+  H224  1  0.63226104  0.61389243  -0.00270003  1
  H+  H225  1  0.86119320  0.38928201  0.67921265  1
  H+  H226  1  0.86284369  0.73562423  0.67220226  1
  H+  H227  1  0.61149043  0.72582629  0.00418631  1
  H+  H228  1  0.87106016  0.89043694  0.16264958  1
  H+  H229  1  0.11821209  0.71337021  0.33436081  1
  H+  H230  1  0.67079658  0.86735682  0.33546986  1
  H+  H231  1  0.38293050  0.24311866  0.02443153  1
  H+  H232  1  0.41799521  0.98150908  0.77344054  1
  H+  H233  1  0.36513600  0.39071482  0.49764686  1
  H+  H234  1  0.69043811  0.37717082  0.29364768  1
  H+  H235  1  0.51549013  0.87447466  0.00295262  1
  H+  H236  1  0.15995513  0.06044771  0.47758793  1
  H+  H237  1  0.90472212  0.82487137  0.92172984  1
  H+  H238  1  0.09697279  0.16801542  0.10048758  1
  H+  H239  1  0.16709574  0.14204129  0.84519165  1
  H+  H240  1  0.75531866  0.12008699  0.15376924  1
  H+  H241  1  0.52781843  0.39327687  0.67885945  1
  H+  H242  1  0.00275590  0.71879723  0.06835296  1
  H+  H243  1  -0.01341522  0.58313262  0.82156840  1
  H+  H244  1  0.61094732  0.59575679  0.11589230  1
  H+  H245  1  0.12079599  0.63781875  0.49163643  1
  H+  H246  1  0.47800000  0.61877051  0.50090082  1
  H+  H247  1  1.02386937  0.38621354  1.00342539  1
  H+  H248  1  0.11778235  0.13916251  0.66431092  1
  H+  H249  1  0.65144189  0.01836743  0.66156009  1
  H+  H250  1  0.16654302  0.53103290  0.64944682  1
  H+  H251  1  0.03450111  0.13730617  0.00726977  1
  H+  H252  1  0.64041791  0.73099836  0.33190773  1
  H+  H253  1  0.12817889  0.85728505  0.51369760  1
  H+  H254  1  0.88919134  0.39230624  0.50405312  1
  H+  H255  1  0.01369355  0.95451849  0.81260372  1
  H+  H256  1  -0.00657364  0.87094764  0.33079578  1
  H+  H257  1  0.12511079  0.03276500  0.99938617  1
  H+  H258  1  0.86148268  0.27750651  0.17883556  1
  H+  H259  1  0.25880265  0.39422781  0.17360557  1
  H+  H260  1  0.63714670  0.85989437  -0.00325491  1
  H+  H261  1  0.61863526  0.26924659  -0.00131300  1
  H+  H262  1  0.52869692  0.64353176  0.67270079  1
  H+  H263  1  0.12241931  0.62029741  1.02193657  1
  H+  H264  1  0.04597399  0.41097321  0.52001386  1
  H+  H265  1  0.14301023  0.04608604  0.83225475  1
  H+  H266  1  0.89225267  0.49746268  0.32102318  1
  H+  H267  1  0.58984177  0.40593267  0.11234332  1
  H+  H268  1  0.35820791  0.47737408  0.00289749  1
  H+  H269  1  0.90015685  0.78134065  0.17379123  1
  H+  H270  1  0.31515778  0.51320745  0.20504009  1
  H+  H271  1  0.08782694  0.65853108  0.39595082  1
  H+  H272  1  0.11657703  0.62085378  0.66583752  1
  H+  H273  1  0.49537285  0.64684131  0.15799483  1
  H+  H274  1  0.06323572  0.48348865  0.70802650  1
  H+  H275  1  0.61188810  0.11839015  0.48462644  1
  H+  H276  1  0.41332458  0.78123916  0.66521824  1
  H+  H277  1  0.00076373  0.16108037  0.31484649  1
  H+  H278  1  0.24017576  0.62652829  0.50269356  1
  H+  H279  1  0.47549975  0.61378504  0.98956657  1
  H+  H280  1  0.53098447  0.88070524  0.83016913  1
  H+  H281  1  0.08462241  0.89659687  0.87172153  1
  H+  H282  1  0.98780016  0.10352387  0.51476508  1
  H+  H283  1  0.58184485  0.17583862  0.38910395  1
  H+  H284  1  0.88841840  0.99099757  0.34751987  1
  H+  H285  1  0.59048800  0.23598829  0.33232781  1
  H+  H286  1  0.24069487  0.91279169  0.80851232  1
  H+  H287  1  0.85803872  0.17147517  0.49087801  1
  H+  H288  1  0.41914378  0.09234933  0.24582007  1
  H+  H289  1  0.66923575  0.82999536  0.93779241  1
  H+  H290  1  0.34335202  0.68238708  0.10382931  1
  H+  H291  1  0.81589247  0.41322275  0.09120374  1
  H+  H292  1  0.42990988  0.83540988  0.90140519  1
  H+  H293  1  0.31939796  0.15555325  0.41229906  1
  H+  H294  1  0.82650854  0.92011238  0.74239268  1
  H+  H295  1  0.37269131  0.15050214  0.17676542  1
  H+  H296  1  0.12780607  0.59822309  0.32341439  1
  H+  H297  1  0.17471413  0.57531558  0.89008399  1
  H+  H298  1  0.66383909  0.06400794  0.56356642  1
  H+  H299  1  0.82084261  0.11888765  0.40496027  1
  H+  H300  1  0.29162139  0.88294451  0.05722773  1
  H+  H301  1  0.82883475  0.16103161  0.08941325  1
  H+  H302  1  0.64396732  0.02214193  0.83580390  1
  H+  H303  1  0.90052384  0.85702536  0.60335986  1
  H+  H304  1  0.91346522  0.31976983  0.92888403  1
  H+  H305  1  0.34366500  0.41248511  0.08811438  1
  H+  H306  1  0.32958139  0.91674195  0.44215526  1
  H+  H307  1  0.92811625  0.34185607  0.59275405  1
  H+  H308  1  0.83909326  0.91608040  0.10225978  1
  H+  H309  1  0.10532667  -0.01145477  0.66884902  1
  H+  H310  1  0.63359060  0.36735879  0.19918810  1
  H+  H311  1  0.05954375  0.94125681  0.07635558  1
  H+  H312  1  0.40655836  0.89173854  0.79227205  1
  H+  H313  1  0.19019166  0.59442798  0.59162965  1
  H+  H314  1  0.83384258  0.16585481  0.74083228  1
  H+  H315  1  0.35556726  0.88997074  0.34662298  1
  H+  H316  1  0.09823734  0.42297402  0.10134750  1
  H+  H317  1  0.12567249  0.90289831  0.16221195  1
  H+  H318  1  0.58426362  0.91176631  0.09958731  1
  H+  H319  1  0.17288332  0.08348847  0.93829945  1
  H+  H320  1  0.04575247  0.60620609  0.76180777  1
  H+  H321  1  0.08599293  0.17722957  0.44368290  1
  H+  H322  1  0.33534525  0.41594061  0.43664856  1
  H+  H323  1  0.15563162  0.50566497  0.98403031  1
  H+  H324  1  0.28315301  0.39070240  0.66816430  1
  H+  H325  1  0.15197241  0.53413850  0.50950407  1
  H+  H326  1  0.93302247  0.29406807  0.53363385  1
  H+  H327  1  0.58431138  0.17124404  0.11591481  1
  H+  H328  1  0.28220189  0.15102137  0.17726383  1
  H+  H329  1  0.87880161  0.56410101  0.89872844  1
  H+  H330  1  0.03497089  0.85392498  0.93243311  1
  H+  H331  1  0.92560278  0.07151276  0.57367780  1
  H+  H332  1  0.92677192  0.83965184  0.23486410  1
  H+  H333  1  0.37249699  0.08355543  0.96352542  1
  H+  H334  1  0.16273746  0.08746210  0.27170642  1
  H+  H335  1  0.58960785  0.41785533  0.76981827  1
  H+  H336  1  0.15956274  0.83826391  0.92782760  1
  H+  H337  1  0.84910422  0.67811525  0.09978480  1
  H+  H338  1  0.88319175  0.47774471  0.49486582  1
  H+  H339  1  0.85702637  0.40488509  0.40503475  1
  H+  H340  1  0.06912061  0.94552808  0.75800518  1
  H+  H341  1  0.12447510  0.23166202  0.65866636  1
  H+  H342  1  0.24085111  0.36469704  0.83899519  1
  H+  H343  1  0.64528718  0.32497830  0.90917866  1
  H+  H344  1  0.90937293  0.55912364  0.22634235  1
  H+  H345  1  0.19134616  0.85076337  0.22720359  1
  H+  H346  1  0.15874825  0.57306152  0.25872489  1
  H+  H347  1  0.92064834  0.07941646  0.90259857  1
  H+  H348  1  0.43657158  0.84414863  0.56885184  1
  H+  H349  1  0.39465483  0.95629869  0.10801274  1
  H+  H350  1  0.67915279  0.08550930  0.92322104  1
  H+  H351  1  0.34687781  0.19365538  0.10208894  1
  H+  H352  1  0.66106906  0.58094246  0.93833301  1
  H+  H353  1  0.07655451  0.92144489  0.42364361  1
  H+  H354  1  0.17015629  0.08752234  0.59055707  1
  H+  H355  1  0.34083593  0.42122509  0.76736609  1
  H+  H356  1  0.17868941  0.41295814  0.17645904  1
  H+  H357  1  0.70832620  0.57551553  0.24029868  1
  H+  H358  1  0.58218848  0.66492429  0.77032727  1
  H+  H359  1  0.56536600  0.43439393  0.40321460  1
  H+  H360  1  0.16733774  0.32993628  0.93413767  1
  H+  H361  1  0.42972344  0.10068231  0.56109235  1
  H+  H362  1  0.96656540  0.34098007  0.84663750  1
  H+  H363  1  0.95966655  0.21341763  0.28660428  1
  H+  H364  1  0.39745796  0.04405710  0.85579774  1
  H+  H365  1  0.59536083  0.90424167  0.77281361  1
  H+  H366  1  0.92445591  0.10327419  0.22033036  1
  H+  H367  1  0.69413474  0.84391491  0.27103777  1
  H+  H368  1  0.42566614  0.31212112  0.93494472  1
  H+  H369  1  0.58671664  0.89712487  0.43196559  1
  H+  H370  1  0.34649629  0.92045791  0.69468784  1
  H+  H371  1  0.64198210  0.85570495  0.84531880  1
  H+  H372  1  0.92220986  0.58337817  0.56612499  1
  H+  H373  1  0.66784468  0.58059385  0.56935815  1
  H+  H374  1  0.10897779  0.37915257  0.00460522  1
  H+  H375  1  0.56630560  0.66878129  0.06196010  1
  H+  H376  1  0.83407856  0.67420889  0.73104952  1
  H+  H377  1  0.67278319  0.06682091  0.26278511  1
  H+  H378  1  0.19106764  0.35821015  0.26670691  1
  H+  H379  1  0.33880472  0.17642263  0.72478158  1
  H+  H380  1  0.10675736  0.70315205  0.67321126  1
  H+  H381  1  0.01150457  0.90410050  0.67314167  1
  H+  H382  1  0.84362535  0.68378970  0.40909254  1
  H+  H383  1  0.35623001  0.68750218  0.40231453  1
  O2-  O384  1  0.09444416  0.16542763  0.14583229  1
  O2-  O385  1  0.08685540  0.17362610  0.48850730  1
  O2-  O386  1  0.06163115  0.19599997  0.79137149  1
  O2-  O387  1  0.10531241  0.42591002  0.14608250  1
  O2-  O388  1  0.10224301  0.43694192  0.49941869  1
  O2-  O389  1  0.09105658  0.40904798  0.81292352  1
  O2-  O390  1  0.09733086  0.68023528  0.16985088  1
  O2-  O391  1  0.08568165  0.66257847  0.47462548  1
  O2-  O392  1  0.03556208  0.58076089  0.80291971  1
  O2-  O393  1  0.09312071  0.93298508  0.15381103  1
  O2-  O394  1  0.05724943  0.91347856  0.50016637  1
  O2-  O395  1  0.06715886  0.95444704  0.80539895  1
  O2-  O396  1  0.34387927  0.18328691  0.16318135  1
  O2-  O397  1  0.33233768  0.17510054  0.48553346  1
  O2-  O398  1  0.34771933  0.17180773  0.80442540  1
  O2-  O399  1  0.35079968  0.41091333  0.13427344  1
  O2-  O400  1  0.33505191  0.42142840  0.48130846  1
  O2-  O401  1  0.34166610  0.41829111  0.81292592  1
  O2-  O402  1  0.33735054  0.68335898  0.14933761  1
  O2-  O403  1  0.34511292  0.67598350  0.47916861  1
  O2-  O404  1  0.33714626  0.67185320  0.80726968  1
  O2-  O405  1  0.36736524  0.93836109  0.14779427  1
  O2-  O406  1  0.33043750  0.91691965  0.48770694  1
  O2-  O407  1  0.40840746  0.92661159  0.75655888  1
  O2-  O408  1  0.59295703  0.16295002  0.15893595  1
  O2-  O409  1  0.58628208  0.15116175  0.46728379  1
  O2-  O410  1  0.59612271  0.17448317  0.81431660  1
  O2-  O411  1  0.55051313  0.41378965  0.08300885  1
  O2-  O412  1  0.56462789  0.43846868  0.46605363  1
  O2-  O413  1  0.58881333  0.41506767  0.81620730  1
  O2-  O414  1  0.53923265  0.69148011  0.13233301  1
  O2-  O415  1  0.56769181  0.67855976  0.46341280  1
  O2-  O416  1  0.57925569  0.66013928  0.81573175  1
  O2-  O417  1  0.59038306  0.91868915  0.14540188  1
  O2-  O418  1  0.58744287  0.89725984  0.47680627  1
  O2-  O419  1  0.59327413  0.91137125  0.81723400  1
  O2-  O420  1  0.82154485  0.15182693  0.13632539  1
  O2-  O421  1  0.82674073  0.11039595  0.48188348  1
  O2-  O422  1  0.83054135  0.16633719  0.81536067  1
  O2-  O423  1  0.80135906  0.41032834  0.13516438  1
  O2-  O424  1  0.86239739  0.41859343  0.47922580  1
  O2-  O425  1  0.83683649  0.40332647  0.82180384  1
  O2-  O426  1  0.85853634  0.68333431  0.14451899  1
  O2-  O427  1  0.84071384  0.66653322  0.48821106  1
  O2-  O428  1  0.81655382  0.66163523  0.80909522  1
  O2-  O429  1  0.83864318  0.91894617  0.14772100  1
  O2-  O430  1  0.73048487  0.81114118  0.49923551  1
  O2-  O431  1  0.83067225  0.90693061  0.81603698  1
  O2-  O432  1  0.17731715  0.09556991  0.19738403  1
  O2-  O433  1  0.16967040  0.09428977  0.51424152  1
  O2-  O434  1  0.18729925  0.10157537  0.85195314  1
  O2-  O435  1  0.22610484  0.41171620  0.20122437  1
  O2-  O436  1  0.17260864  0.33972962  0.53207972  1
  O2-  O437  1  0.18046333  0.33581134  0.85524152  1
  O2-  O438  1  0.16797579  0.58971589  0.18912322  1
  O2-  O439  1  0.18080538  0.59851467  0.51991381  1
  O2-  O440  1  0.17038129  0.57816424  0.84515454  1
  O2-  O441  1  0.19209937  0.85874912  0.18234208  1
  O2-  O442  1  0.15915739  0.82618481  0.52219231  1
  O2-  O443  1  0.08808773  0.86988353  0.90989055  1
  O2-  O444  1  0.42597130  0.09970175  0.20014611  1
  O2-  O445  1  0.42250611  0.09367925  0.51597049  1
  O2-  O446  1  0.42163385  0.07597902  0.81837851  1
  O2-  O447  1  0.47145487  0.37001791  0.18287883  1
  O2-  O448  1  0.41255368  0.34060980  0.52427998  1
  O2-  O449  1  0.42035685  0.33050455  0.85401183  1
  O2-  O450  1  0.37319449  0.56682845  0.20277957  1
  O2-  O451  1  0.41994221  0.58806553  0.52111588  1
  O2-  O452  1  0.41247559  0.58414269  0.85276805  1
  O2-  O453  1  0.42646306  0.84301817  0.19258105  1
  O2-  O454  1  0.42772155  0.84158884  0.52430333  1
  O2-  O455  1  0.42944772  0.83650496  0.85480703  1
  O2-  O456  1  0.67574914  0.08136680  0.17906355  1
  O2-  O457  1  0.66217317  0.05925859  0.51833672  1
  O2-  O458  1  0.67134397  0.08290092  0.85009188  1
  O2-  O459  1  0.65687956  0.40126956  0.16182411  1
  O2-  O460  1  0.68137558  0.33299087  0.46652219  1
  O2-  O461  1  0.64534483  0.32494018  0.86234884  1
  O2-  O462  1  0.71603445  0.56966156  0.19628911  1
  O2-  O463  1  0.66691023  0.58171667  0.52436654  1
  O2-  O464  1  0.66063106  0.57558769  0.85824224  1
  O2-  O465  1  0.67434313  0.83805555  0.19505903  1
  O2-  O466  1  0.70664460  0.86269336  0.52964035  1
  O2-  O467  1  0.66960270  0.82300846  0.86057339  1
  O2-  O468  1  0.91354495  0.08885554  0.17622007  1
  O2-  O469  1  0.92779733  0.06119639  0.52903554  1
  O2-  O470  1  0.91340219  0.07441548  0.85728432  1
  O2-  O471  1  0.84556167  0.30919017  0.20665266  1
  O2-  O472  1  0.93905699  0.34825691  0.54672486  1
  O2-  O473  1  0.90748109  0.31100344  0.86207734  1
  O2-  O474  1  0.90512686  0.55847560  0.18098740  1
  O2-  O475  1  0.92224496  0.58294499  0.52050520  1
  O2-  O476  1  0.88199688  0.56294615  0.85319952  1
  O2-  O477  1  0.92726280  0.84228812  0.18955322  1
  O2-  O478  1  0.89970135  0.89132848  0.52696238  1
  O2-  O479  1  0.89360600  0.81689361  0.85411794  1
  O2-  O480  1  0.15794995  0.08758786  0.31774812  1
  O2-  O481  1  0.16903094  0.08758962  0.63626290  1
  O2-  O482  1  0.17231678  0.08866820  0.98268227  1
  O2-  O483  1  0.17902496  0.34036701  0.31077755  1
  O2-  O484  1  0.18960864  0.32742209  0.63278536  1
  O2-  O485  1  0.16374081  0.33167414  0.97922149  1
  O2-  O486  1  0.15506303  0.56571484  0.30520502  1
  O2-  O487  1  0.19351674  0.59205345  0.63788599  1
  O2-  O488  1  0.20495343  0.55516463  0.96164296  1
  O2-  O489  1  0.17371865  0.82595019  0.30562696  1
  O2-  O490  1  0.14462553  0.80049829  0.64748336  1
  O2-  O491  1  0.20325586  0.82106630  0.93810765  1
  O2-  O492  1  0.40793166  0.07723466  0.32016270  1
  O2-  O493  1  0.43199330  0.10869590  0.63893904  1
  O2-  O494  1  0.38055496  0.07648518  1.00650987  1
  O2-  O495  1  0.39832630  0.30351100  0.32094481  1
  O2-  O496  1  0.42698015  0.34746861  0.64731660  1
  O2-  O497  1  0.44113599  0.29943699  0.97535695  1
  O2-  O498  1  0.44034431  0.59706197  0.32109465  1
  O2-  O499  1  0.42771445  0.58867715  0.64440122  1
  O2-  O500  1  0.41435581  0.58767377  0.97569115  1
  O2-  O501  1  0.41200043  0.84723601  0.31658954  1
  O2-  O502  1  0.45280766  0.84340420  0.65288206  1
  O2-  O503  1  0.43414224  0.83080446  0.97691753  1
  O2-  O504  1  0.66565094  0.05370193  0.30668404  1
  O2-  O505  1  0.67527775  0.07653644  0.64417752  1
  O2-  O506  1  0.68330585  0.09576059  0.96910336  1
  O2-  O507  1  0.62847274  0.34229655  0.28913502  1
  O2-  O508  1  0.66377822  0.32146492  0.65315080  1
  O2-  O509  1  0.65201831  0.32663103  0.97953928  1
  O2-  O510  1  0.69272064  0.59385023  0.31685712  1
  O2-  O511  1  0.66932704  0.58389024  0.65181234  1
  O2-  O512  1  0.66234313  0.58228030  0.98381601  1
  O2-  O513  1  0.70201731  0.84133517  0.31620360  1
  O2-  O514  1  0.65368091  0.85458325  0.66682270  1
  O2-  O515  1  0.66972747  0.83092615  0.98343964  1
  O2-  O516  1  0.94980062  0.15469160  0.29043138  1
  O2-  O517  1  0.91980665  0.08442749  0.65005871  1
  O2-  O518  1  0.92448143  0.08197507  0.98060954  1
  O2-  O519  1  0.93652550  0.30718632  0.33153464  1
  O2-  O520  1  0.91537182  0.33333079  0.66207591  1
  O2-  O521  1  0.91797857  0.32560494  0.97723023  1
  O2-  O522  1  0.91582980  0.55511909  0.30288435  1
  O2-  O523  1  0.91459606  0.58251347  0.64372631  1
  O2-  O524  1  0.89923334  0.57405109  0.97751192  1
  O2-  O525  1  0.93540166  0.84664412  0.31416183  1
  O2-  O526  1  0.90307301  0.84529098  0.64737150  1
  O2-  O527  1  0.91828201  0.83135062  0.96869143  1
  O2-  O528  1  0.09490353  0.17251349  0.02104998  1
  O2-  O529  1  0.08403075  0.18016605  0.35567840  1
  O2-  O530  1  0.08899495  0.17192192  0.67768826  1
  O2-  O531  1  0.08479166  0.41611483  0.01806673  1
  O2-  O532  1  0.10105351  0.42436295  0.34838386  1
  O2-  O533  1  0.07677896  0.43867978  0.69823171  1
  O2-  O534  1  0.01307714  0.67077298  0.06597065  1
  O2-  O535  1  0.08771587  0.65415941  0.35055248  1
  O2-  O536  1  0.07800608  0.63997474  0.68349325  1
  O2-  O537  1  0.04394811  0.95891906  0.03819245  1
  O2-  O538  1  0.09700904  0.92735625  0.38020817  1
  O2-  O539  1  0.06983232  0.93393982  0.69156378  1
  O2-  O540  1  0.34109748  0.19171509  0.05205513  1
  O2-  O541  1  0.31779022  0.14687616  0.36671662  1
  O2-  O542  1  0.33772203  0.17924715  0.67957794  1
  O2-  O543  1  0.33156787  0.41749083  0.01779562  1
  O2-  O544  1  0.34053727  0.40276582  0.35183121  1
  O2-  O545  1  0.34086208  0.42422368  0.68916401  1
  O2-  O546  1  0.35282793  0.68346061  0.02651535  1
  O2-  O547  1  0.36058051  0.69543937  0.35711666  1
  O2-  O548  1  0.35313204  0.68100020  0.68463665  1
  O2-  O549  1  0.31922937  0.90940212  0.01877604  1
  O2-  O550  1  0.32313470  0.91781445  0.36282188  1
  O2-  O551  1  0.32279836  0.93482440  0.65835512  1
  O2-  O552  1  0.55482809  0.16279720  0.03083757  1
  O2-  O553  1  0.56740520  0.17604767  0.34557150  1
  O2-  O554  1  0.59164215  0.16099938  0.68391934  1
  O2-  O555  1  0.59224097  0.42581473  0.02382797  1
  O2-  O556  1  0.56760536  0.43096822  0.35391668  1
  O2-  O557  1  0.58706318  0.41953024  0.69648395  1
  O2-  O558  1  0.57789007  0.66441885  0.01802478  1
  O2-  O559  1  0.60334969  0.66906261  0.34199400  1
  O2-  O560  1  0.58742219  0.67479237  0.69161009  1
  O2-  O561  1  0.58012745  0.90755784  0.02387985  1
  O2-  O562  1  0.58812254  0.90167530  0.34573163  1
  O2-  O563  1  0.61636174  0.90580124  0.69004281  1
  O2-  O564  1  0.84437851  0.17167642  0.02195037  1
  O2-  O565  1  0.81970328  0.13654950  0.36219301  1
  O2-  O566  1  0.83882322  0.16833345  0.69467059  1
  O2-  O567  1  0.83611554  0.41619827  0.01184845  1
  O2-  O568  1  0.84815886  0.39344019  0.35986630  1
  O2-  O569  1  0.82905693  0.41777182  0.69314170  1
  O2-  O570  1  0.83867509  0.67030567  0.01751859  1
  O2-  O571  1  0.84147813  0.68318885  0.36413421  1
  O2-  O572  1  0.83822283  0.67483464  0.68549351  1
  O2-  O573  1  0.83686377  0.91533134  0.02188306  1
  O2-  O574  1  0.86398822  0.93164431  0.36034377  1
  O2-  O575  1  0.81949890  0.92297602  0.69694665  1
