# generated using pymatgen
data_H2O
_symmetry_space_group_name_H-M   'P 1'
_cell_length_a   17.96894629
_cell_length_b   17.97844845
_cell_length_c   21.97791821
_cell_angle_alpha   90.04409790
_cell_angle_beta   89.97918993
_cell_angle_gamma   119.99473508
_symmetry_Int_Tables_number   1
_chemical_formula_structural   H2O
_chemical_formula_sum   'H384 O192'
_cell_volume   6149.14753850
_cell_formula_units_Z   192
loop_
 _symmetry_equiv_pos_site_id
 _symmetry_equiv_pos_as_xyz
  1  'x, y, z'
loop_
 _atom_type_symbol
 _atom_type_oxidation_number
  H+  1.0
  O2-  -2.0
loop_
 _atom_site_type_symbol
 _atom_site_label
 _atom_site_symmetry_multiplicity
 _atom_site_fract_x
 _atom_site_fract_y
 _atom_site_fract_z
 _atom_site_occupancy
  H+  H0  1  0.85319593  -0.02344942  0.33567702  1
  H+  H1  1  0.35132526  0.62751962  0.16145800  1
  H+  H2  1  0.58754259  0.16798212  0.38914899  1
  H+  H3  1  0.62591987  0.60536462  0.00184550  1
  H+  H4  1  0.60259048  0.88986748  0.66270178  1
  H+  H5  1  0.36280104  0.47252933  0.01286192  1
  H+  H6  1  0.51047168  0.39611914  0.82031866  1
  H+  H7  1  0.67337997  0.06863722  0.30384879  1
  H+  H8  1  0.56182639  0.11086669  -0.01977416  1
  H+  H9  1  0.69808499  0.34875295  0.97689968  1
  H+  H10  1  0.52607641  0.86653667  0.84179410  1
  H+  H11  1  0.38102180  0.18187462  0.17214553  1
  H+  H12  1  0.01969149  0.88390883  0.67841335  1
  H+  H13  1  0.60875756  0.72041068  0.83750338  1
  H+  H14  1  0.75617335  0.87882909  0.48791325  1
  H+  H15  1  0.13473131  0.36714097  0.84817509  1
  H+  H16  1  0.85780280  0.64367574  0.82901195  1
  H+  H17  1  0.71510222  0.10836897  0.48919430  1
  H+  H18  1  0.13110182  0.01786777  0.50949685  1
  H+  H19  1  0.84943046  0.41375953  -0.04846875  1
  H+  H20  1  0.88584375  0.99988662  0.01706038  1
  H+  H21  1  0.10619089  0.12395983  0.35405344  1
  H+  H22  1  0.11703741  0.63465245  0.49946867  1
  H+  H23  1  0.11271866  0.21493496  0.34972146  1
  H+  H24  1  0.11951005  0.47995327  0.82744570  1
  H+  H25  1  0.37512968  0.49215851  0.68070516  1
  H+  H26  1  0.53378765  0.87859210  0.01104446  1
  H+  H27  1  0.48631888  0.10646385  0.31551503  1
  H+  H28  1  0.72365134  0.36946627  0.33159731  1
  H+  H29  1  0.13075131  0.27598932  0.85526522  1
  H+  H30  1  0.36258118  0.38282383  0.01150212  1
  H+  H31  1  0.00566786  0.86047677  0.50351579  1
  H+  H32  1  0.14134499  0.26516918  0.63174625  1
  H+  H33  1  0.13689320  0.76921077  0.50553708  1
  H+  H34  1  0.98956837  0.36659678  0.65274845  1
  H+  H35  1  0.26603312  0.38644813  0.83361392  1
  H+  H36  1  0.16711137  0.07219782  0.28515597  1
  H+  H37  1  0.89124509  -0.01735638  0.86449578  1
  H+  H38  1  0.13463557  0.23194996  0.51135808  1
  H+  H39  1  0.43301759  0.82893770  0.17239194  1
  H+  H40  1  0.91574411  0.78575612  1.00365301  1
  H+  H41  1  0.54479170  0.04054692  0.89676901  1
  H+  H42  1  0.57811278  0.55589666  0.29819385  1
  H+  H43  1  0.09816806  0.42055973  0.76868353  1
  H+  H44  1  0.14604608  0.26395293  0.18720699  1
  H+  H45  1  0.87402453  0.49560429  0.21037335  1
  H+  H46  1  0.15420039  0.50579859  0.32729122  1
  H+  H47  1  0.12289735  0.38544154  0.65939654  1
  H+  H48  1  0.73395059  0.36006748  0.49213938  1
  H+  H49  1  0.39128139  0.26390015  0.33498776  1
  H+  H50  1  0.39539307  0.12327889  0.82087895  1
  H+  H51  1  0.37079570  0.47930765  0.44417626  1
  H+  H52  1  0.64095260  0.12341501  0.14996304  1
  H+  H53  1  0.02189251  0.88212683  0.16806431  1
  H+  H54  1  0.58298088  0.63883310  0.67611381  1
  H+  H55  1  0.65343252  0.86195372  0.17019018  1
  H+  H56  1  0.48477763  0.85713444  0.33381237  1
  H+  H57  1  0.08503598  0.67190741  0.11603382  1
  H+  H58  1  0.30957559  0.41214823  0.34747511  1
  H+  H59  1  0.61390207  0.23471571  0.33409066  1
  H+  H60  1  0.11000229  0.88009705  0.17229691  1
  H+  H61  1  0.78152507  0.40575537  0.20353677  1
  H+  H62  1  0.22341780  0.86160731  0.49727982  1
  H+  H63  1  0.88108296  0.50876379  0.67609545  1
  H+  H64  1  1.02980801  0.12895483  1.01985888  1
  H+  H65  1  0.10808260  -0.02658566  0.67678734  1
  H+  H66  1  0.98172670  0.61163795  0.47368616  1
  H+  H67  1  0.71661478  0.85497077  0.66339596  1
  H+  H68  1  0.39435481  0.27372861  0.99783014  1
  H+  H69  1  0.84644435  0.13052042  0.47207916  1
  H+  H70  1  0.59772172  0.37893499  0.00629737  1
  H+  H71  1  0.83406055  0.13995901  0.06630283  1
  H+  H72  1  0.16412475  0.14878477  0.99520752  1
  H+  H73  1  0.39107362  0.77462229  0.00112322  1
  H+  H74  1  0.37678172  0.06572111  0.16465782  1
  H+  H75  1  0.56518121  0.66287428  0.77741078  1
  H+  H76  1  0.60408365  0.21961330  0.64242664  1
  H+  H77  1  0.36654884  0.22774016  0.82553643  1
  H+  H78  1  0.13537530  0.86187824  0.66179753  1
  H+  H79  1  0.63052177  0.61441412  0.84503445  1
  H+  H80  1  0.13340550  0.37952389  0.34930518  1
  H+  H81  1  0.62129854  0.94731874  0.84052770  1
  H+  H82  1  0.23223194  0.35682241  0.18361377  1
  H+  H83  1  0.24742070  0.60736006  0.32922389  1
  H+  H84  1  0.88176522  0.85768366  0.66094198  1
  H+  H85  1  -0.02419683  0.11594283  0.33613836  1
  H+  H86  1  0.61397809  0.71898660  0.01431533  1
  H+  H87  1  0.32645527  0.83692440  0.17035618  1
  H+  H88  1  0.13264305  0.01101785  0.18613732  1
  H+  H89  1  0.37586177  0.72901823  0.67341992  1
  H+  H90  1  0.04731781  0.38373952  0.33564106  1
  H+  H91  1  0.65995858  0.35598813  0.64211662  1
  H+  H92  1  0.36249477  0.63684453  0.83434775  1
  H+  H93  1  0.24359239  0.61251865  0.66099909  1
  H+  H94  1  0.72773697  0.61930354  0.51251385  1
  H+  H95  1  0.34490052  0.71584339  0.16812147  1
  H+  H96  1  0.77078311  0.87251967  0.84116796  1
  H+  H97  1  0.62616304  0.86088278  0.31264926  1
  H+  H98  1  0.22641508  0.10224962  0.34470224  1
  H+  H99  1  0.76708235  0.64221253  0.83380389  1
  H+  H100  1  0.86261616  0.63408106  0.47807830  1
  H+  H101  1  0.33553347  0.41983847  0.10706776  1
  H+  H102  1  0.84877566  0.06844313  0.78187793  1
  H+  H103  1  0.09473297  0.18379114  0.70416618  1
  H+  H104  1  0.68631052  0.33014574  0.57986652  1
  H+  H105  1  0.24471607  0.21242287  -0.04254551  1
  H+  H106  1  1.03459673  0.65790900  1.01291822  1
  H+  H107  1  0.90230792  0.07623042  0.41949803  1
  H+  H108  1  0.06931700  0.74732503  0.75843006  1
  H+  H109  1  0.28208440  0.41198242  0.66623391  1
  H+  H110  1  0.35519330  0.72604686  0.49315553  1
  H+  H111  1  0.94441529  0.36204822  0.86987572  1
  H+  H112  1  0.86134975  0.72485306  0.17061999  1
  H+  H113  1  0.59272137  0.42013015  0.66817009  1
  H+  H114  1  0.22467499  0.61167586  0.50930555  1
  H+  H115  1  0.39763121  1.02833561  0.81869897  1
  H+  H116  1  0.15499694  0.88542969  0.84351435  1
  H+  H117  1  0.74027560  0.63924222  0.34139183  1
  H+  H118  1  0.22706357  0.35981556  1.00535500  1
  H+  H119  1  0.34864844  0.88485172  0.48340475  1
  H+  H120  1  0.86058086  0.87212428  0.83576209  1
  H+  H121  1  0.82911817  0.41923334  0.02077929  1
  H+  H122  1  0.39327326  0.53155730  0.17605614  1
  H+  H123  1  0.84288186  0.42528348  0.77106282  1
  H+  H124  1  0.88315505  0.19832877  0.73487146  1
  H+  H125  1  1.00279690  0.87700904  1.00337138  1
  H+  H126  1  0.56428720  0.95041357  0.34329289  1
  H+  H127  1  0.65214848  0.14470551  0.31399392  1
  H+  H128  1  0.98712297  0.07795567  0.87038137  1
  H+  H129  1  0.39556433  0.86634556  0.84093928  1
  H+  H130  1  0.96260458  0.09842301  0.65171587  1
  H+  H131  1  0.38407400  0.61457736  0.50737625  1
  H+  H132  1  0.62246071  0.16480408  0.77990955  1
  H+  H133  1  0.03609820  0.39083223  0.01344024  1
  H+  H134  1  0.61274372  0.48408119  0.34025053  1
  H+  H135  1  0.86977428  0.47355014  0.46672814  1
  H+  H136  1  -0.01658485  0.37936141  0.17570990  1
  H+  H137  1  0.62106048  0.77393537  0.66307177  1
  H+  H138  1  0.84013513  0.41905991  0.28955237  1
  H+  H139  1  0.15778045  0.79162436  0.00024250  1
  H+  H140  1  0.35265349  0.94658917  0.33568612  1
  H+  H141  1  0.60745925  0.25984631  0.98042611  1
  H+  H142  1  0.39188475  0.40269000  0.34291907  1
  H+  H143  1  0.31342027  0.89432808  0.41673270  1
  H+  H144  1  0.46965962  0.61004405  0.85015928  1
  H+  H145  1  0.37923924  0.85369076  0.65978545  1
  H+  H146  1  0.89058183  0.77347736  0.84868884  1
  H+  H147  1  0.64313898  0.85488458  1.00476113  1
  H+  H148  1  0.23088605  0.62279045  0.00142993  1
  H+  H149  1  0.93800608  0.25672462  0.81403053  1
  H+  H150  1  0.02961094  0.89122123  0.83379443  1
  H+  H151  1  0.45542438  0.36905379  0.65733368  1
  H+  H152  1  0.62616769  1.01654566  0.49054613  1
  H+  H153  1  1.01806834  0.57878186  0.70326231  1
  H+  H154  1  0.64399762  0.61760318  0.17735770  1
  H+  H155  1  0.14003386  0.61696954  0.84884827  1
  H+  H156  1  0.09806735  0.67019421  0.43586438  1
  H+  H157  1  0.32076015  0.18489469  0.40936598  1
  H+  H158  1  0.63556985  0.37354755  0.33725272  1
  H+  H159  1  0.34909207  0.22791927  0.66757573  1
  H+  H160  1  0.13069076  0.90034583  0.01452442  1
  H+  H161  1  0.97559662  0.10285665  0.18327086  1
  H+  H162  1  0.61189556  0.63928949  0.49111317  1
  H+  H163  1  0.35266538  0.72169427  0.33638009  1
  H+  H164  1  0.11306134  0.86947310  0.49762551  1
  H+  H165  1  0.11304561  0.59371745  0.69649635  1
  H+  H166  1  0.85280286  0.96703653  0.67779618  1
  H+  H167  1  0.92327145  0.82649755  0.56799509  1
  H+  H168  1  0.89210148  0.12854425  0.33059888  1
  H+  H169  1  0.38840084  0.80711985  0.26532675  1
  H+  H170  1  0.89713789  0.38131624  0.19676645  1
  H+  H171  1  0.79561273  0.17392044  0.32505291  1
  H+  H172  1  0.96479758  0.85564556  0.33719098  1
  H+  H173  1  0.11246661  0.12452452  0.17490739  1
  H+  H174  1  0.61611712  0.54480837  0.66197114  1
  H+  H175  1  0.02082577  0.38731297  0.49581260  1
  H+  H176  1  0.39187605  0.29574900  0.16042860  1
  H+  H177  1  0.14216919  0.53383600  0.00088203  1
  H+  H178  1  0.37526961  0.35742801  0.84164355  1
  H+  H179  1  0.88589379  0.55242117  0.98123566  1
  H+  H180  1  -0.01562043  0.62653960  0.19235683  1
  H+  H181  1  0.87923463  0.23801677  0.67273099  1
  H+  H182  1  0.98183648  0.64583839  0.82951699  1
  H+  H183  1  0.87685014  0.88361483  0.02432212  1
  H+  H184  1  0.47514192  0.36628435  0.99492649  1
  H+  H185  1  0.73183281  0.85218827  0.00832327  1
  H+  H186  1  0.66470846  0.34648903  0.24213787  1
  H+  H187  1  0.93132515  0.58639504  0.62985347  1
  H+  H188  1  0.72385015  0.36781097  0.83159873  1
  H+  H189  1  0.59989609  0.48598010  0.82196629  1
  H+  H190  1  0.98047861  0.25777646  0.81311551  1
  H+  H191  1  0.08686793  0.15790999  0.11536028  1
  H+  H192  1  0.26277621  0.16486427  0.49758571  1
  H+  H193  1  0.22274966  0.09741601  0.18543057  1
  H+  H194  1  0.71254288  0.60063886  1.00153293  1
  H+  H195  1  0.32396511  0.41946186  0.77308261  1
  H+  H196  1  0.62687350  0.48121932  0.50109465  1
  H+  H197  1  0.89510829  0.32650266  1.03471633  1
  H+  H198  1  0.92919007  0.38112458  0.32519210  1
  H+  H199  1  0.79976501  0.71735792  0.03701124  1
  H+  H200  1  0.41706589  0.03383801  0.99452031  1
  H+  H201  1  0.37124014  0.39953968  0.16753390  1
  H+  H202  1  0.18504711  0.09719834  0.90019030  1
  H+  H203  1  0.87241075  0.20013120  1.00714912  1
  H+  H204  1  0.53381215  0.64524773  0.16483629  1
  H+  H205  1  0.52868502  0.38973067  0.34699246  1
  H+  H206  1  0.88009644  0.10530660  0.66507151  1
  H+  H207  1  0.71000702  0.11748604  0.80138233  1
  H+  H208  1  0.13414332  0.52325947  0.51217840  1
  H+  H209  1  0.63888762  0.00315849  0.15748811  1
  H+  H210  1  0.62474486  0.74600687  0.33452678  1
  H+  H211  1  0.87120338  0.49689685  0.82418414  1
  H+  H212  1  0.84794391  0.62984002  0.68434771  1
  H+  H213  1  0.51152484  0.10315857  0.14598946  1
  H+  H214  1  0.35750383  0.84283483  0.32738512  1
  H+  H215  1  0.09082044  0.17410585  0.45253092  1
  H+  H216  1  0.62634618  0.73513622  0.16497816  1
  H+  H217  1  0.61377047  0.10337202  0.64058901  1
  H+  H218  1  0.60393666  0.47139934  1.00865007  1
  H+  H219  1  0.89400121  0.62481728  0.19002793  1
  H+  H220  1  0.36214119  0.39533345  0.51063649  1
  H+  H221  1  0.60457803  0.13152161  0.47990975  1
  H+  H222  1  0.22600297  0.61197660  0.17789019  1
  H+  H223  1  0.62248428  0.65449544  0.33876099  1
  H+  H224  1  0.36409969  0.09923028  0.65146195  1
  H+  H225  1  0.36883824  0.63956675  0.33906650  1
  H+  H226  1  0.47218321  0.86130393  0.65379676  1
  H+  H227  1  0.89226944  0.25272433  0.33193186  1
  H+  H228  1  0.64769337  0.38106329  0.18021856  1
  H+  H229  1  0.21788680  0.10850764  0.66013953  1
  H+  H230  1  0.89160373  0.64126687  -0.00664044  1
  H+  H231  1  0.35892352  0.12951628  0.38837200  1
  H+  H232  1  0.85653984  0.48471184  0.34105151  1
  H+  H233  1  0.27495135  0.63855446  0.83119325  1
  H+  H234  1  0.59837251  -0.02397856  0.65596710  1
  H+  H235  1  0.59544853  0.91537708  0.06865451  1
  H+  H236  1  0.38461006  0.77209418  0.84250987  1
  H+  H237  1  0.87064822  0.09115128  0.81080715  1
  H+  H238  1  0.15550464  0.79949017  0.83600596  1
  H+  H239  1  0.21333101  0.84708600  0.18348029  1
  H+  H240  1  0.11849909  0.64913740  1.01521479  1
  H+  H241  1  0.36126889  0.63556028  1.01469052  1
  H+  H242  1  0.22604823  0.85993359  0.33322473  1
  H+  H243  1  0.35403605  -0.02941839  0.67036938  1
  H+  H244  1  0.86378210  0.12052255  0.15587775  1
  H+  H245  1  0.47176843  0.61235466  0.50334375  1
  H+  H246  1  0.63645080  0.84419762  0.85407070  1
  H+  H247  1  0.92523966  0.59211984  0.41410763  1
  H+  H248  1  0.49388515  0.63841939  0.32694816  1
  H+  H249  1  0.55936575  0.91424837  0.17571853  1
  H+  H250  1  0.88040650  0.86539435  0.32878459  1
  H+  H251  1  0.06026165  0.14953687  0.79667436  1
  H+  H252  1  0.11089140  0.22526998  1.02016878  1
  H+  H253  1  0.85278950  0.61556647  0.34201666  1
  H+  H254  1  0.88186946  0.76934117  0.66225492  1
  H+  H255  1  0.50296732  0.00029843  0.90294748  1
  H+  H256  1  0.76352984  0.88817105  0.32710966  1
  H+  H257  1  0.16625788  0.83226989  0.60371918  1
  H+  H258  1  0.92902835  0.83528680  0.90802135  1
  H+  H259  1  0.38924278  0.14369901  0.01059072  1
  H+  H260  1  0.42997401  0.63992894  0.67832255  1
  H+  H261  1  0.13867444  0.61836037  0.18707617  1
  H+  H262  1  0.11084790  0.48587395  0.16713448  1
  H+  H263  1  0.11373549  0.12986430  0.65547001  1
  H+  H264  1  0.26752708  0.88005070  0.67648768  1
  H+  H265  1  0.47399689  0.60750755  1.00345548  1
  H+  H266  1  0.88152610  0.85568764  0.18028955  1
  H+  H267  1  0.10882910  0.87602432  0.35000048  1
  H+  H268  1  0.73945368  0.12620040  0.98874966  1
  H+  H269  1  0.29124996  0.90784567  0.82594267  1
  H+  H270  1  0.34080467  -0.06957300  0.15918400  1
  H+  H271  1  0.88454701  0.35671415  0.50160298  1
  H+  H272  1  0.10729594  0.96473758  0.35462599  1
  H+  H273  1  0.85824980  0.96224441  0.17139920  1
  H+  H274  1  0.78335853  0.13651265  0.14821991  1
  H+  H275  1  0.61474771  0.48565744  0.16408003  1
  H+  H276  1  0.14314827  1.02577677  0.84498283  1
  H+  H277  1  0.60929306  0.24178686  0.80248854  1
  H+  H278  1  0.11825447  0.13165550  0.84270882  1
  H+  H279  1  0.87477471  0.38163526  0.67499970  1
  H+  H280  1  0.83320231  0.72721460  0.34266006  1
  H+  H281  1  0.78254001  0.37323313  0.67053530  1
  H+  H282  1  0.75915881  0.05063971  0.86219801  1
  H+  H283  1  0.30333963  0.91173685  0.00374960  1
  H+  H284  1  0.59860801  0.87701038  0.49128926  1
  H+  H285  1  0.76239379  0.87008424  0.17097891  1
  H+  H286  1  0.36610293  0.36220933  0.66411981  1
  H+  H287  1  0.11104680  0.72866177  0.17677505  1
  H+  H288  1  0.13167503  0.77361684  0.33683736  1
  H+  H289  1  0.15780234  0.07057916  0.60034703  1
  H+  H290  1  0.65178999  0.07747671  0.58520562  1
  H+  H291  1  0.82194982  0.66977319  0.73877733  1
  H+  H292  1  0.19178558  0.31738038  0.27349178  1
  H+  H293  1  0.89223623  0.76462009  0.50704983  1
  H+  H294  1  0.33707881  0.26691700  0.49163313  1
  H+  H295  1  0.42655026  0.59640362  0.23296567  1
  H+  H296  1  0.93168639  0.61492438  0.89372252  1
  H+  H297  1  0.17556850  0.57411984  0.26569678  1
  H+  H298  1  0.56453254  0.17283267  0.70431250  1
  H+  H299  1  0.07594031  0.89945857  0.43690422  1
  H+  H300  1  0.90555295  0.33067935  0.96186974  1
  H+  H301  1  0.08529277  0.92261499  0.77218150  1
  H+  H302  1  0.13050417  0.10814252  0.51490272  1
  H+  H303  1  0.08784761  0.41932264  0.44113538  1
  H+  H304  1  0.58225965  0.42216484  0.10493590  1
  H+  H305  1  0.12628548  0.39611350  0.01570319  1
  H+  H306  1  0.81559699  0.66860893  0.43596379  1
  H+  H307  1  0.59835253  0.42596439  0.44044828  1
  H+  H308  1  0.61060213  0.22370154  0.48139630  1
  H+  H309  1  0.17789135  0.58546947  0.60388884  1
  H+  H310  1  0.92468085  0.04356327  0.94023796  1
  H+  H311  1  0.55638516  0.13900123  0.08248192  1
  H+  H312  1  0.42167622  0.83053033  0.93994394  1
  H+  H313  1  0.38813107  0.90351849  0.00350398  1
  H+  H314  1  0.18554837  0.84860479  0.93967714  1
  H+  H315  1  0.41889938  0.05013366  0.22294211  1
  H+  H316  1  1.00895362  0.68652464  0.57654988  1
  H+  H317  1  0.64913992  0.36923840  0.50072650  1
  H+  H318  1  0.32686953  0.66364859  0.43517228  1
  H+  H319  1  0.91346246  0.82758946  0.23955838  1
  H+  H320  1  0.41211791  0.54412082  0.32624287  1
  H+  H321  1  0.92250482  0.33350736  0.59609741  1
  H+  H322  1  0.41339325  0.57893541  0.94419471  1
  H+  H323  1  0.15625788  0.82953893  0.24593529  1
  H+  H324  1  0.91301752  0.07859437  0.24027233  1
  H+  H325  1  0.58500857  0.66268862  0.07528523  1
  H+  H326  1  0.85991042  0.01109641  0.47271099  1
  H+  H327  1  0.77180075  0.63333051  0.17124195  1
  H+  H328  1  0.65903732  0.58109658  0.90329933  1
  H+  H329  1  0.34744088  0.67122752  0.73442976  1
  H+  H330  1  0.08563041  0.43050782  0.10610707  1
  H+  H331  1  0.82540436  0.90667254  0.73673120  1
  H+  H332  1  0.08365733  0.66812712  0.76434067  1
  H+  H333  1  0.56007924  0.43943109  0.73133525  1
  H+  H334  1  0.82637169  0.66886495  0.08444914  1
  H+  H335  1  0.41924564  0.32147227  0.27397516  1
  H+  H336  1  0.16512685  0.33379033  0.94712973  1
  H+  H337  1  0.67261192  0.81722518  0.91274393  1
  H+  H338  1  0.38020912  0.52156981  0.84822220  1
  H+  H339  1  0.39280699  0.09189257  0.31366318  1
  H+  H340  1  0.66323162  0.58042331  0.23940142  1
  H+  H341  1  0.70848271  0.62916036  0.66652220  1
  H+  H342  1  0.56114106  0.89470318  0.42993266  1
  H+  H343  1  0.40367319  0.82845255  0.56382814  1
  H+  H344  1  0.41113257  0.33011644  0.89939317  1
  H+  H345  1  0.81106995  0.89950815  0.42710920  1
  H+  H346  1  0.65544671  0.83058765  0.56481760  1
  H+  H347  1  0.69939604  0.07568340  0.90074042  1
  H+  H348  1  0.49346786  0.12903927  0.80907761  1
  H+  H349  1  0.32818956  0.66385225  0.07354733  1
  H+  H350  1  0.46314001  0.85854556  0.50442637  1
  H+  H351  1  0.65082932  0.32650519  0.88214333  1
  H+  H352  1  0.30039062  0.14687723  0.00926194  1
  H+  H353  1  0.28059856  0.13598898  0.82496922  1
  H+  H354  1  0.75484709  0.35665171  0.09133070  1
  H+  H355  1  0.83703672  0.90435022  0.08593391  1
  H+  H356  1  0.34088343  0.92393343  0.76140410  1
  H+  H357  1  0.88227486  0.08965813  1.00218304  1
  H+  H358  1  0.87019764  0.38289272  0.85955311  1
  H+  H359  1  0.48589290  0.37443646  0.17428012  1
  H+  H360  1  0.23493846  0.28880905  0.32581867  1
  H+  H361  1  0.66279778  0.59763972  0.56865225  1
  H+  H362  1  0.73742083  0.15650380  0.73511047  1
  H+  H363  1  0.83552904  0.39944428  0.41889571  1
  H+  H364  1  0.94501931  0.34677801  0.25960032  1
  H+  H365  1  0.80010385  0.39115708  0.09935496  1
  H+  H366  1  0.98192215  0.70756264  0.57465480  1
  H+  H367  1  0.91648017  0.60572841  0.29636250  1
  H+  H368  1  0.82743588  0.18314170  0.42455847  1
  H+  H369  1  0.62472532  0.76901451  0.50620343  1
  H+  H370  1  0.32815233  0.16916070  0.72663170  1
  H+  H371  1  0.16926400  0.59032411  0.90955596  1
  H+  H372  1  0.45196962  0.10160899  0.64169527  1
  H+  H373  1  0.71780673  0.18589776  0.94964703  1
  H+  H374  1  0.58677928  0.67520753  0.43206952  1
  H+  H375  1  0.87977259  0.26586110  0.50348465  1
  H+  H376  1  0.37037543  1.02034911  0.44720907  1
  H+  H377  1  0.45893149  0.10873224  0.44782189  1
  H+  H378  1  0.38736105  0.35084463  0.56435090  1
  H+  H379  1  0.66684282  0.83408034  0.25230444  1
  H+  H380  1  0.09364273  0.92048654  0.07452434  1
  H+  H381  1  0.34321395  0.15228551  0.10475758  1
  H+  H382  1  0.68379366  0.11926488  0.21353845  1
  H+  H383  1  0.12954225  0.47604412  0.66807540  1
  O2-  O384  1  0.08332661  0.15639142  0.16046207  1
  O2-  O385  1  0.09847128  0.17254545  0.49679980  1
  O2-  O386  1  0.07704040  0.15534786  0.83927834  1
  O2-  O387  1  0.07746444  0.42648739  0.15064010  1
  O2-  O388  1  0.08220498  0.42497702  0.48516946  1
  O2-  O389  1  0.09261146  0.41954562  0.81361793  1
  O2-  O390  1  0.08334874  0.66711061  0.16096928  1
  O2-  O391  1  0.08929755  0.66679970  0.48196974  1
  O2-  O392  1  0.07802413  0.71367344  0.78957951  1
  O2-  O393  1  0.08339380  0.91410827  0.15524309  1
  O2-  O394  1  0.07657281  0.89799477  0.48410571  1
  O2-  O395  1  0.08971328  0.92563869  0.81793106  1
  O2-  O396  1  0.33167772  0.13882290  0.14949638  1
  O2-  O397  1  0.30653748  0.20824030  0.47077835  1
  O2-  O398  1  0.34034021  0.16768283  0.80853222  1
  O2-  O399  1  0.33649792  0.42473776  0.15247177  1
  O2-  O400  1  0.33413914  0.46412645  0.48076111  1
  O2-  O401  1  0.32637813  0.41545543  0.81820578  1
  O2-  O402  1  0.31610428  0.65233133  0.14660818  1
  O2-  O403  1  0.32702227  0.66416092  0.48033800  1
  O2-  O404  1  0.33515594  0.66843536  0.81609272  1
  O2-  O405  1  0.29774016  0.86923479  0.15310983  1
  O2-  O406  1  0.31423056  0.90734710  0.46378788  1
  O2-  O407  1  0.35004529  0.93425740  0.80755242  1
  O2-  O408  1  0.56813500  0.14199162  0.12636040  1
  O2-  O409  1  0.57876700  0.16548386  0.46289631  1
  O2-  O410  1  0.57709536  0.18257379  0.78240774  1
  O2-  O411  1  0.58152040  0.42359444  0.15027590  1
  O2-  O412  1  0.60659983  0.42268137  0.48485481  1
  O2-  O413  1  0.56496032  0.43248247  0.79821141  1
  O2-  O414  1  0.59411016  0.67176023  0.14958530  1
  O2-  O415  1  0.57993668  0.66837670  0.47724090  1
  O2-  O416  1  0.57199792  0.65973979  0.82197316  1
  O2-  O417  1  0.60935786  0.93899616  0.14920546  1
  O2-  O418  1  0.56782163  0.90636566  0.47436867  1
  O2-  O419  1  0.58637472  0.88592257  0.82987969  1
  O2-  O420  1  0.84028601  0.15049141  0.13117213  1
  O2-  O421  1  0.82037162  0.16979782  0.46893995  1
  O2-  O422  1  0.70941902  0.15964474  0.77267063  1
  O2-  O423  1  0.84392447  0.43178604  0.21656205  1
  O2-  O424  1  0.83781665  0.40904263  0.46320789  1
  O2-  O425  1  0.83939579  0.43399341  0.81562127  1
  O2-  O426  1  0.83256311  0.66410693  0.15429224  1
  O2-  O427  1  0.83082631  0.66667693  0.47967238  1
  O2-  O428  1  0.82708856  0.67499202  0.81692522  1
  O2-  O429  1  0.82964389  0.90238685  0.15552437  1
  O2-  O430  1  0.81579708  0.90682923  0.47183852  1
  O2-  O431  1  0.83202431  0.90618651  0.82518960  1
  O2-  O432  1  0.16434772  0.07183895  0.20267539  1
  O2-  O433  1  0.15904451  0.07437765  0.52942255  1
  O2-  O434  1  0.17625776  0.08901062  0.85532844  1
  O2-  O435  1  0.17858009  0.32120006  0.20699117  1
  O2-  O436  1  0.19642168  0.33542902  0.56129631  1
  O2-  O437  1  0.16359855  0.33682301  0.86761685  1
  O2-  O438  1  0.16761323  0.58533919  0.19951116  1
  O2-  O439  1  0.16603320  0.58426041  0.52820022  1
  O2-  O440  1  0.16941311  0.58730196  0.86350354  1
  O2-  O441  1  0.15205895  0.82585605  0.20019489  1
  O2-  O442  1  0.16459206  0.83132575  0.51838265  1
  O2-  O443  1  0.18784963  0.85652123  0.85609135  1
  O2-  O444  1  0.41289848  0.04163120  0.17761292  1
  O2-  O445  1  0.40038139  0.07996103  0.43095049  1
  O2-  O446  1  0.43134392  0.09441244  0.82884057  1
  O2-  O447  1  0.42352616  0.34193714  0.18951004  1
  O2-  O448  1  0.38741003  0.35750556  0.51987491  1
  O2-  O449  1  0.40717789  0.32744101  0.85404712  1
  O2-  O450  1  0.42477482  0.59358961  0.18745730  1
  O2-  O451  1  0.41540632  0.58671978  0.52503886  1
  O2-  O452  1  0.40897053  0.58088401  0.86546871  1
  O2-  O453  1  0.37997930  0.79567325  0.19478867  1
  O2-  O454  1  0.40208770  0.82932574  0.51821712  1
  O2-  O455  1  0.41764766  0.83140765  0.86005838  1
  O2-  O456  1  0.68070534  0.10509131  0.16960109  1
  O2-  O457  1  0.65381354  0.07795481  0.50337724  1
  O2-  O458  1  0.70515958  0.05092960  0.86110449  1
  O2-  O459  1  0.67940645  0.35463378  0.19804455  1
  O2-  O460  1  0.67574249  0.33153165  0.51126959  1
  O2-  O461  1  0.66163592  0.32948775  0.83804541  1
  O2-  O462  1  0.67141432  0.58400796  0.19193488  1
  O2-  O463  1  0.66586336  0.59051013  0.52401533  1
  O2-  O464  1  0.66368770  0.58584697  0.85814636  1
  O2-  O465  1  0.67686909  0.82814592  0.18843238  1
  O2-  O466  1  0.65251542  0.83059276  0.51953984  1
  O2-  O467  1  0.67235099  0.81666669  0.86713141  1
  O2-  O468  1  0.91365359  0.07260213  0.19528429  1
  O2-  O469  1  0.88999120  0.07466778  0.46288916  1
  O2-  O470  1  0.93835619  0.02881922  0.89233594  1
  O2-  O471  1  0.92618184  0.34632880  0.19772622  1
  O2-  O472  1  0.91196292  0.32596812  0.52041686  1
  O2-  O473  1  0.89303593  0.35631749  0.88977954  1
  O2-  O474  1  0.92693047  0.60278834  0.21270134  1
  O2-  O475  1  0.92038337  0.58251556  0.45891496  1
  O2-  O476  1  0.92514724  0.60624388  0.84887878  1
  O2-  O477  1  0.91390714  0.82585987  0.19402002  1
  O2-  O478  1  0.93080914  0.82485937  0.52293287  1
  O2-  O479  1  0.92547499  0.83472357  0.86259536  1
  O2-  O480  1  0.16497500  0.07247957  0.33043888  1
  O2-  O481  1  0.15610040  0.07391204  0.64680021  1
  O2-  O482  1  0.21275655  0.15228467  0.96997927  1
  O2-  O483  1  0.19901556  0.31487621  0.32071706  1
  O2-  O484  1  0.17598623  0.32905111  0.62299836  1
  O2-  O485  1  0.16506997  0.32991393  0.99252721  1
  O2-  O486  1  0.18272300  0.56780635  0.31219116  1
  O2-  O487  1  0.18175434  0.58095177  0.64949044  1
  O2-  O488  1  0.16988861  0.59439599  0.98574629  1
  O2-  O489  1  0.16066877  0.83521286  0.32190379  1
  O2-  O490  1  0.16497784  0.83049951  0.64884130  1
  O2-  O491  1  0.18921195  0.85174175  0.98475624  1
  O2-  O492  1  0.42816572  0.06949508  0.29724579  1
  O2-  O493  1  0.38884173  0.06391696  0.63757579  1
  O2-  O494  1  0.44735907  0.10013736  0.98044853  1
  O2-  O495  1  0.42045216  0.32416128  0.31887066  1
  O2-  O496  1  0.39402561  0.33147727  0.64625927  1
  O2-  O497  1  0.41403606  0.33149782  0.97970157  1
  O2-  O498  1  0.43324074  0.60399343  0.31121309  1
  O2-  O499  1  0.46215109  0.60753740  0.67089521  1
  O2-  O500  1  0.41270709  0.57646284  0.98973045  1
  O2-  O501  1  0.39175331  0.81120706  0.31208730  1
  O2-  O502  1  0.40823351  0.82367318  0.64241162  1
  O2-  O503  1  0.42545961  0.83458201  0.98523156  1
  O2-  O504  1  0.69299549  0.12798292  0.29290139  1
  O2-  O505  1  0.64866052  0.07648940  0.63026874  1
  O2-  O506  1  0.69327101  0.12650422  0.96288909  1
  O2-  O507  1  0.66152540  0.33875374  0.32067737  1
  O2-  O508  1  0.68814935  0.32566036  0.62698770  1
  O2-  O509  1  0.63638610  0.32062485  0.96701354  1
  O2-  O510  1  0.63806097  0.57348916  0.30623923  1
  O2-  O511  1  0.65028305  0.60659467  0.64875831  1
  O2-  O512  1  0.65422869  0.57324620  0.98392724  1
  O2-  O513  1  0.66378601  0.83783979  0.30106991  1
  O2-  O514  1  0.65851970  0.83059494  0.64459386  1
  O2-  O515  1  0.67309185  0.82216094  0.99069631  1
  O2-  O516  1  0.91460961  0.08828372  0.32198862  1
  O2-  O517  1  0.89944325  0.06512452  0.65126794  1
  O2-  O518  1  0.91751398  0.05949954  0.99566140  1
  O2-  O519  1  0.95395435  0.34748266  0.30858195  1
  O2-  O520  1  0.92721772  0.33702434  0.64187210  1
  O2-  O521  1  0.92396957  0.31615756  1.00091375  1
  O2-  O522  1  0.89086006  0.59009113  0.33763097  1
  O2-  O523  1  0.91378143  0.57353430  0.67227419  1
  O2-  O524  1  0.92325586  0.61506125  0.97524303  1
  O2-  O525  1  0.90686832  0.82924037  0.31812057  1
  O2-  O526  1  0.91429354  0.82926999  0.64615145  1
  O2-  O527  1  0.93980012  0.84433378  0.98768158  1
  O2-  O528  1  0.09045610  0.16450686  0.03306700  1
  O2-  O529  1  0.07629440  0.15603027  0.36607626  1
  O2-  O530  1  0.08517817  0.16692844  0.66164261  1
  O2-  O531  1  0.09663839  0.42929549  0.02530839  1
  O2-  O532  1  0.10602828  0.41406029  0.35617628  1
  O2-  O533  1  0.09585091  0.41409158  0.68100817  1
  O2-  O534  1  0.09273606  0.68357456  0.03069698  1
  O2-  O535  1  0.09028362  0.67704032  0.36423801  1
  O2-  O536  1  0.06975262  0.59070130  0.72659533  1
  O2-  O537  1  0.09485249  0.92465379  0.02926074  1
  O2-  O538  1  0.07457264  0.90317664  0.36733396  1
  O2-  O539  1  0.07940934  0.91422285  0.69502281  1
  O2-  O540  1  0.35719290  0.17072777  0.02937142  1
  O2-  O541  1  0.33271236  0.16174482  0.36894197  1
  O2-  O542  1  0.32041103  0.16659095  0.68191984  1
  O2-  O543  1  0.33169888  0.41164039  0.02832222  1
  O2-  O544  1  0.37225155  0.44392897  0.35349810  1
  O2-  O545  1  0.33262789  0.43286554  0.69291830  1
  O2-  O546  1  0.33260516  0.66829509  0.02731138  1
  O2-  O547  1  0.32844565  0.65950783  0.35316693  1
  O2-  O548  1  0.35441310  0.66879485  0.68969186  1
  O2-  O549  1  0.36646371  0.94443271  0.01037864  1
  O2-  O550  1  0.31648357  0.88749022  0.34987575  1
  O2-  O551  1  0.32911100  0.91195006  0.69034955  1
  O2-  O552  1  0.53794478  0.14332349  0.00066701  1
  O2-  O553  1  0.59019653  0.17174772  0.34302601  1
  O2-  O554  1  0.56122502  0.16307165  0.65951238  1
  O2-  O555  1  0.57211914  0.41140149  0.02536553  1
  O2-  O556  1  0.58940958  0.42496277  0.36031893  1
  O2-  O557  1  0.55834187  0.44375777  0.68375926  1
  O2-  O558  1  0.58124475  0.65794891  0.02915046  1
  O2-  O559  1  0.59498428  0.68728711  0.35465876  1
  O2-  O560  1  0.54899450  0.66353293  0.69595772  1
  O2-  O561  1  0.59472598  0.90518989  0.02433775  1
  O2-  O562  1  0.54833848  0.89064649  0.34870057  1
  O2-  O563  1  0.56734543  0.91608490  0.67299838  1
  O2-  O564  1  0.83346263  0.13907580  0.01776132  1
  O2-  O565  1  0.85068352  0.19194173  0.34638244  1
  O2-  O566  1  0.85333020  0.18234692  0.69588102  1
  O2-  O567  1  0.81953130  0.43301561  -0.02059106  1
  O2-  O568  1  0.83822364  0.42212661  0.33590192  1
  O2-  O569  1  0.83884695  0.40561152  0.69194410  1
  O2-  O570  1  0.82095935  0.67684551  0.03810530  1
  O2-  O571  1  0.79846212  0.66786005  0.35983676  1
  O2-  O572  1  0.82076293  0.66485669  0.69324962  1
  O2-  O573  1  0.84058508  0.90762581  0.03883221  1
  O2-  O574  1  0.82320150  0.91409603  0.34474439  1
  O2-  O575  1  0.82411938  0.90494172  0.69179469  1
