# generated using pymatgen
data_H2O
_symmetry_space_group_name_H-M   'P 1'
_cell_length_a   17.98563202
_cell_length_b   17.98178621
_cell_length_c   21.99483054
_cell_angle_alpha   90.00942698
_cell_angle_beta   89.99317067
_cell_angle_gamma   119.98963844
_symmetry_Int_Tables_number   1
_chemical_formula_structural   H2O
_chemical_formula_sum   'H384 O192'
_cell_volume   6161.05540549
_cell_formula_units_Z   192
loop_
 _symmetry_equiv_pos_site_id
 _symmetry_equiv_pos_as_xyz
  1  'x, y, z'
loop_
 _atom_type_symbol
 _atom_type_oxidation_number
  H+  1.0
  O2-  -2.0
loop_
 _atom_site_type_symbol
 _atom_site_label
 _atom_site_symmetry_multiplicity
 _atom_site_fract_x
 _atom_site_fract_y
 _atom_site_fract_z
 _atom_site_occupancy
  H+  H0  1  0.53164239  0.64504610  0.66468503  1
  H+  H1  1  0.12834744  0.52953433  0.16968151  1
  H+  H2  1  0.25543357  0.10609790  0.82376673  1
  H+  H3  1  0.02413975  0.47344316  0.72877994  1
  H+  H4  1  0.31681469  0.14505964  0.18484216  1
  H+  H5  1  0.48570191  0.83711375  0.51729597  1
  H+  H6  1  0.49103801  0.86961320  0.17944648  1
  H+  H7  1  0.13425326  0.24133097  0.49689253  1
  H+  H8  1  0.20020204  0.11691106  0.17044541  1
  H+  H9  1  0.33056696  0.06347845  0.31101411  1
  H+  H10  1  0.12565003  0.64819374  0.67434300  1
  H+  H11  1  0.35680026  0.96835344  0.67390811  1
  H+  H12  1  0.37601597  0.27326818  -0.01132376  1
  H+  H13  1  0.59171745  0.34367931  0.48349325  1
  H+  H14  1  0.36066256  0.85975413  0.01144613  1
  H+  H15  1  0.89791034  0.90684363  0.65546986  1
  H+  H16  1  0.13854327  0.51888819  0.50519674  1
  H+  H17  1  0.37457059  0.64005328  0.83289796  1
  H+  H18  1  0.15093892  0.62617384  0.83764707  1
  H+  H19  1  0.84835217  0.17346916  0.06118540  1
  H+  H20  1  0.64474386  0.64663791  0.32947914  1
  H+  H21  1  0.37300053  0.73059450  0.50877784  1
  H+  H22  1  0.13023113  0.10245524  0.94906339  1
  H+  H23  1  0.24246002  0.62801854  0.84028644  1
  H+  H24  1  0.99544956  0.59644559  0.65354591  1
  H+  H25  1  0.14285585  0.86530252  0.16617984  1
  H+  H26  1  0.86130412  0.13989936  0.66301530  1
  H+  H27  1  0.66155810  -0.01559973  1.00568472  1
  H+  H28  1  0.15589840  0.36105450  0.64339671  1
  H+  H29  1  0.12596319  0.10896994  0.32814372  1
  H+  H30  1  0.40056606  0.53258172  0.50586374  1
  H+  H31  1  0.87409973  0.39236045  0.01010237  1
  H+  H32  1  0.43560870  0.97253370  0.37790304  1
  H+  H33  1  0.40177745  0.77754554  0.85353622  1
  H+  H34  1  0.11568122  0.35118702  0.31957371  1
  H+  H35  1  0.12449925  0.01766340  0.32271726  1
  H+  H36  1  0.89456765  0.87431892  0.83711634  1
  H+  H37  1  0.62763309  0.02764120  0.18347728  1
  H+  H38  1  0.42946076  0.82726274  0.26694123  1
  H+  H39  1  0.13412907  0.60502124  0.50244317  1
  H+  H40  1  0.21559360  0.61171084  0.17172347  1
  H+  H41  1  0.64075020  0.23620602  0.52790396  1
  H+  H42  1  0.98637371  0.95336544  0.62282109  1
  H+  H43  1  0.85231901  0.46673051  0.34678993  1
  H+  H44  1  0.51692645  0.87979528  0.67027426  1
  H+  H45  1  0.34169971  0.60483671  0.15744979  1
  H+  H46  1  0.73020767  0.86696385  0.17622005  1
  H+  H47  1  0.83198714  0.16046505  0.72864826  1
  H+  H48  1  0.11581570  0.22552927  0.65058768  1
  H+  H49  1  0.37170462  0.00795559  0.50498112  1
  H+  H50  1  0.87534196  0.23496526  0.15228605  1
  H+  H51  1  0.39516412  0.37256745  0.69720354  1
  H+  H52  1  0.56020142  0.30182083  0.46893783  1
  H+  H53  1  0.76791099  0.64289955  0.15937102  1
  H+  H54  1  0.11743805  0.47363041  -0.00758865  1
  H+  H55  1  0.86228990  -0.02386157  0.15928465  1
  H+  H56  1  0.87105323  0.73395292  0.82624209  1
  H+  H57  1  0.88821907  0.77576727  0.32928534  1
  H+  H58  1  0.97034671  0.11067218  0.16592203  1
  H+  H59  1  0.73806630  0.66256237  0.50985629  1
  H+  H60  1  0.20341715  0.83342632  0.51271788  1
  H+  H61  1  0.62018743  0.64264544  0.66027914  1
  H+  H62  1  0.31568134  0.64147578  0.09805297  1
  H+  H63  1  0.87122348  0.61652211  0.17553386  1
  H+  H64  1  0.77565220  0.64991091  0.34274540  1
  H+  H65  1  0.62950853  0.77049253  0.64852134  1
  H+  H66  1  0.85396836  0.21702288  0.82100497  1
  H+  H67  1  0.48757647  0.61999092  0.83734012  1
  H+  H68  1  0.97940170  0.09962132  0.98587593  1
  H+  H69  1  0.35726991  0.22168889  0.67334010  1
  H+  H70  1  0.85547189  0.64043163  0.49687180  1
  H+  H71  1  0.13701646  0.86953564  0.84411003  1
  H+  H72  1  0.10627020  0.91735418  0.42329064  1
  H+  H73  1  0.64160071  0.10554567  -0.01207707  1
  H+  H74  1  0.15104495  0.31979537  0.22197890  1
  H+  H75  1  0.48219196  0.37250968  0.16841913  1
  H+  H76  1  0.13024202  0.86029557  0.66860700  1
  H+  H77  1  0.89973248  0.11801270  -0.01215253  1
  H+  H78  1  0.57459526  0.16052053  0.05153877  1
  H+  H79  1  0.10922442  0.90486733  0.00328548  1
  H+  H80  1  0.86426097  0.73500092  0.49874956  1
  H+  H81  1  0.36776630  0.25756215  0.31934889  1
  H+  H82  1  0.14211633  0.49053008  0.82693616  1
  H+  H83  1  0.77197936  0.87069321  0.82564488  1
  H+  H84  1  0.88741713  0.52960259  0.84389303  1
  H+  H85  1  0.62388234  0.48829919  0.68528088  1
  H+  H86  1  0.64048221  0.55490616  0.32583623  1
  H+  H87  1  0.95891932  0.59380745  0.49673099  1
  H+  H88  1  0.10989472  0.97010048  0.16165352  1
  H+  H89  1  -0.00023347  0.40182680  0.67952846  1
  H+  H90  1  0.63489188  0.10427049  0.83741113  1
  H+  H91  1  0.48136313  0.63063595  0.49906280  1
  H+  H92  1  0.26264328  0.63531464  0.32695129  1
  H+  H93  1  0.73354576  0.33795671  0.51866888  1
  H+  H94  1  0.83908460  0.46255437  0.49300709  1
  H+  H95  1  0.62076181  0.68290206  0.48862103  1
  H+  H96  1  0.89658868  0.11631482  0.32923000  1
  H+  H97  1  0.63249422  0.10386528  0.66359152  1
  H+  H98  1  0.35348732  0.97961955  0.82483962  1
  H+  H99  1  0.66482754  0.11013398  0.34975642  1
  H+  H100  1  0.66911478  0.27001890  0.25021683  1
  H+  H101  1  0.77775572  0.37215984  0.33124768  1
  H+  H102  1  0.02576102  0.64297743  0.00865318  1
  H+  H103  1  0.80726772  0.39739813  0.43546436  1
  H+  H104  1  0.35052856  0.62455289  0.33043010  1
  H+  H105  1  0.07250308  0.65085338  0.43247971  1
  H+  H106  1  0.12200170  0.83892147  0.50906303  1
  H+  H107  1  0.33856303  0.20166544  0.82557619  1
  H+  H108  1  0.90891864  0.84359774  0.56998688  1
  H+  H109  1  0.25162695  0.14503450  0.01249477  1
  H+  H110  1  0.59479779  -0.10814971  0.44363704  1
  H+  H111  1  0.02721912  0.90325601  0.84030589  1
  H+  H112  1  0.46756060  0.35066922  0.83797571  1
  H+  H113  1  0.49062791  0.12331195  0.19182774  1
  H+  H114  1  1.01069267  0.62620800  0.34008736  1
  H+  H115  1  0.13253060  0.01918374  0.66638232  1
  H+  H116  1  0.25396172  0.12246144  0.33124205  1
  H+  H117  1  0.61006807  0.49124456  0.15468419  1
  H+  H118  1  0.11908983  0.24627366  0.98443148  1
  H+  H119  1  0.26601918  0.87936601  0.67488985  1
  H+  H120  1  0.38617046  0.61451180  0.00187022  1
  H+  H121  1  0.89255589  0.62131091  0.84316172  1
  H+  H122  1  0.09536211  0.70313629  0.49550268  1
  H+  H123  1  0.37054528  0.10191162  0.83326632  1
  H+  H124  1  0.02647040  0.89790493  0.68592878  1
  H+  H125  1  0.86916204  0.73564231  1.00804805  1
  H+  H126  1  0.57171329  0.43241327  0.28221358  1
  H+  H127  1  0.72454945  0.62713020  0.01134239  1
  H+  H128  1  0.37378627  0.39937139  1.00406606  1
  H+  H129  1  0.89154592  0.27743538  0.99509475  1
  H+  H130  1  0.61001675  0.73120033  0.17119266  1
  H+  H131  1  0.88900412  0.26930424  0.33432942  1
  H+  H132  1  0.12673515  0.74182464  0.15468991  1
  H+  H133  1  0.40101233  0.85370027  0.33038202  1
  H+  H134  1  0.38141581  0.35460206  0.83613142  1
  H+  H135  1  0.61743937  0.15103217  0.19586096  1
  H+  H136  1  0.60538238  0.11104774  0.50698608  1
  H+  H137  1  0.36551273  -0.03273606  0.33125441  1
  H+  H138  1  0.65752848  0.33148178  0.90050365  1
  H+  H139  1  0.27613153  0.64463784  1.00344382  1
  H+  H140  1  0.90651282  0.32907290  0.60194070  1
  H+  H141  1  0.03813693  0.16107369  0.50541968  1
  H+  H142  1  0.72148882  0.36172166  0.66995208  1
  H+  H143  1  0.87358319  0.35811269  0.50609117  1
  H+  H144  1  0.32787231  0.17729382  0.48364888  1
  H+  H145  1  1.01620274  0.38388755  0.34050157  1
  H+  H146  1  0.50868602  0.16936496  0.32699931  1
  H+  H147  1  0.08826187  0.92303550  0.74462881  1
  H+  H148  1  0.51561411  0.13959974  0.99448886  1
  H+  H149  1  0.62307791  0.55272942  0.49779999  1
  H+  H150  1  0.38104892  0.42223457  0.45530066  1
  H+  H151  1  0.51911944  0.11945535  0.50398224  1
  H+  H152  1  0.53590192  0.87179487  0.35112024  1
  H+  H153  1  0.38301746  0.51354090  0.17366113  1
  H+  H154  1  0.96463590  0.36184682  0.50469825  1
  H+  H155  1  0.28254754  0.64183023  0.67648462  1
  H+  H156  1  0.61507013  0.78709408  0.48864902  1
  H+  H157  1  -0.01683292  0.12925975  0.62624091  1
  H+  H158  1  0.10695066  0.22439122  0.81162389  1
  H+  H159  1  1.12592305  0.96887332  0.48619039  1
  H+  H160  1  0.44741926  0.33818144  0.55059338  1
  H+  H161  1  0.07753362  0.15166072  0.08797181  1
  H+  H162  1  0.11752408  0.64251448  0.15552632  1
  H+  H163  1  0.29646407  0.38755480  0.50395807  1
  H+  H164  1  0.78772743  0.39813900  0.01227197  1
  H+  H165  1  0.37501068  0.03137669  0.99358710  1
  H+  H166  1  0.27857336  0.80215348  0.04942806  1
  H+  H167  1  0.23524108  0.86760840  0.17085555  1
  H+  H168  1  0.87582407  0.60909802  0.33661526  1
  H+  H169  1  0.23993078  0.09314353  0.49119352  1
  H+  H170  1  0.43526303  0.35636522  0.33278182  1
  H+  H171  1  0.88411514  0.77407136  0.17443045  1
  H+  H172  1  -0.02051540  0.36704917  -0.00811289  1
  H+  H173  1  0.32966896  0.37090319  0.32581112  1
  H+  H174  1  0.31047280  0.91767846  0.42727337  1
  H+  H175  1  0.85815427  0.98949238  0.50809520  1
  H+  H176  1  0.20449904  0.50114144  0.12453214  1
  H+  H177  1  0.72570398  0.10817719  0.83352296  1
  H+  H178  1  0.85134491  0.99380192  0.64206250  1
  H+  H179  1  0.89986047  0.53098250  0.99693808  1
  H+  H180  1  0.35417343  0.13288463  0.66019345  1
  H+  H181  1  0.19842925  0.38945577  0.50633450  1
  H+  H182  1  -0.03681520  0.87526185  -0.00231953  1
  H+  H183  1  0.85691304  0.22353519  0.50197264  1
  H+  H184  1  0.17550906  0.59377519  0.92837035  1
  H+  H185  1  0.11870034  0.26306743  0.32241514  1
  H+  H186  1  0.02051349  0.88325775  0.33610821  1
  H+  H187  1  0.41244560  0.27932311  0.47890428  1
  H+  H188  1  0.27003736  0.37711045  0.15864404  1
  H+  H189  1  0.55161725  0.46065756  0.52011715  1
  H+  H190  1  0.58915507  0.41853151  0.77720150  1
  H+  H191  1  0.88494763  0.35673619  0.33536319  1
  H+  H192  1  0.87672262  0.89472425  0.34880188  1
  H+  H193  1  0.14617203  0.40477936  0.14689256  1
  H+  H194  1  0.65519658  0.22930699  0.35744198  1
  H+  H195  1  0.86526567  0.85934353  0.51307656  1
  H+  H196  1  0.89037671  0.36672938  0.17649205  1
  H+  H197  1  0.66472752  0.34394250  1.05082350  1
  H+  H198  1  0.49718195  0.86012422  0.85334913  1
  H+  H199  1  0.02595620  0.64127130  0.82987807  1
  H+  H200  1  0.60503354  0.21776938  0.67530906  1
  H+  H201  1  0.61021809  0.43313619  0.26807112  1
  H+  H202  1  0.87007139  0.86544891  -0.00842718  1
  H+  H203  1  0.78484857  0.12855693  0.34784629  1
  H+  H204  1  0.76570358  0.39117765  0.83291907  1
  H+  H205  1  0.85226918  0.47937839  0.16452243  1
  H+  H206  1  0.36799455  0.73228990  0.00888267  1
  H+  H207  1  -0.02450346  0.86000863  0.17339611  1
  H+  H208  1  0.23962777  0.93503773  0.45821720  1
  H+  H209  1  0.77330364  0.12898438  0.50199899  1
  H+  H210  1  0.11842835  0.33566312  -0.01816256  1
  H+  H211  1  0.22148775  0.85995325  0.99568232  1
  H+  H212  1  0.51143479  0.39013840  0.99854177  1
  H+  H213  1  0.37496386  0.97951034  0.16178551  1
  H+  H214  1  0.40647639  0.11942329  0.16429109  1
  H+  H215  1  0.82562317  0.41778160  0.77463457  1
  H+  H216  1  0.76397908  0.91239582  0.49395595  1
  H+  H217  1  0.86301462  0.88744341  0.15783960  1
  H+  H218  1  0.44360119  0.58131037  0.33658094  1
  H+  H219  1  0.38645447  0.85901279  0.66560445  1
  H+  H220  1  0.89653668  0.57481227  0.27612362  1
  H+  H221  1  0.27853567  0.38684005  0.83141941  1
  H+  H222  1  0.36130926  0.38024813  0.16058831  1
  H+  H223  1  0.38996746  0.77078087  0.66849895  1
  H+  H224  1  0.64177703  0.00394249  0.51391204  1
  H+  H225  1  0.72074067  0.61134206  0.83726034  1
  H+  H226  1  0.16488622  0.31556004  0.89152475  1
  H+  H227  1  0.09349141  0.12647478  0.15447971  1
  H+  H228  1  0.25748410  0.88432093  0.82556716  1
  H+  H229  1  0.46937664  0.09968057  0.66054978  1
  H+  H230  1  0.28430597  0.39391513  0.67689501  1
  H+  H231  1  0.62771967  0.37231246  0.13585866  1
  H+  H232  1  0.62197990  0.83809079  -0.01112684  1
  H+  H233  1  0.86736788  0.14275067  0.15333824  1
  H+  H234  1  0.48196974  0.86594636  -0.00088391  1
  H+  H235  1  0.75526414  0.62213219  0.67221642  1
  H+  H236  1  0.08613792  0.36709134  0.48790755  1
  H+  H237  1  0.84290984  0.62041807  0.67494584  1
  H+  H238  1  0.39109788  0.52967958  0.66257481  1
  H+  H239  1  0.60251644  0.21884033  0.82717614  1
  H+  H240  1  0.10072050  0.13029300  0.65659284  1
  H+  H241  1  0.72310652  0.10511212  0.66366349  1
  H+  H242  1  0.12848885  0.26655607  0.15950385  1
  H+  H243  1  0.10917648  0.88300731  0.32907304  1
  H+  H244  1  0.89224537  0.12799317  0.52803424  1
  H+  H245  1  0.65300298  0.39872628  0.37398557  1
  H+  H246  1  0.12532626  0.10435724  0.50829435  1
  H+  H247  1  0.02226220  0.13462411  0.34384587  1
  H+  H248  1  0.11285092  0.73726585  1.00696439  1
  H+  H249  1  0.63091071  0.88383285  0.34961402  1
  H+  H250  1  0.61072681  0.47987642  0.83403614  1
  H+  H251  1  0.86130377  0.46405001  0.67498094  1
  H+  H252  1  0.50331828  0.12524613  0.33005093  1
  H+  H253  1  0.87909005  0.26769067  0.66099466  1
  H+  H254  1  0.10948826  0.72798679  0.67580507  1
  H+  H255  1  0.27263752  0.63342454  0.50112592  1
  H+  H256  1  0.67480800  0.08072435  0.92879682  1
  H+  H257  1  0.63357856  0.61355390  0.83044977  1
  H+  H258  1  0.85218758  0.98018498  0.00354422  1
  H+  H259  1  0.14143996  0.61720371  -0.01119613  1
  H+  H260  1  0.40917515  0.06593058  0.60156948  1
  H+  H261  1  0.89772898  1.02809386  0.32886886  1
  H+  H262  1  0.61070892  0.87411059  0.66054819  1
  H+  H263  1  0.62626592  0.36391916  0.84399512  1
  H+  H264  1  0.37199167  0.28346055  0.47894019  1
  H+  H265  1  0.15306209  0.36371363  0.83454850  1
  H+  H266  1  0.62379708  0.73724149  0.82113937  1
  H+  H267  1  0.52234337  0.64075810  0.16820233  1
  H+  H268  1  0.24213882  0.37280311  0.32596417  1
  H+  H269  1  0.45230611  0.35956454  0.42195031  1
  H+  H270  1  0.96914739  0.11237125  0.82727492  1
  H+  H271  1  0.62455302  0.35370310  0.36257375  1
  H+  H272  1  0.86711121  0.34979816  0.84322163  1
  H+  H273  1  0.51410868  0.12974172  0.82545528  1
  H+  H274  1  0.55626250  0.68775936  0.32964241  1
  H+  H275  1  0.87696286  0.64991800  1.00866242  1
  H+  H276  1  0.12995592  0.61017556  0.32700182  1
  H+  H277  1  0.43103554  0.83725559  0.93237860  1
  H+  H278  1  0.13624552  0.53862083  0.66228415  1
  H+  H279  1  0.37699825  0.09509728  0.50739926  1
  H+  H280  1  0.61963606  -0.04199054  0.83586652  1
  H+  H281  1  0.63446082  0.62498041  0.17138258  1
  H+  H282  1  0.78846453  0.14179320  0.00137633  1
  H+  H283  1  0.40167089  0.86799724  0.18389058  1
  H+  H284  1  0.21633810  0.85239390  0.31912886  1
  H+  H285  1  0.60468856  0.39996647  0.00400305  1
  H+  H286  1  0.62425469  0.89524069  0.16809805  1
  H+  H287  1  0.85863485  0.12935942  0.81932838  1
  H+  H288  1  0.31900337  0.16602937  0.06590048  1
  H+  H289  1  0.10034826  0.71490009  0.33708366  1
  H+  H290  1  0.67387278  0.31249396  0.58848748  1
  H+  H291  1  0.33463314  0.42943800  0.74147551  1
  H+  H292  1  0.97452894  0.51412733  0.61632244  1
  H+  H293  1  0.58844952  0.69654334  0.42067190  1
  H+  H294  1  0.36960720  0.47836484  0.83357172  1
  H+  H295  1  0.32163197  0.91423778  0.76117896  1
  H+  H296  1  0.90222635  0.32108004  0.89877917  1
  H+  H297  1  0.06745174  0.17086825  0.75080440  1
  H+  H298  1  0.75985474  0.34513019  0.23301948  1
  H+  H299  1  0.67324652  0.81889190  0.88452159  1
  H+  H300  1  0.37934034  0.23869806  0.16001483  1
  H+  H301  1  0.36639867  0.63135679  0.49989266  1
  H+  H302  1  0.65777086  0.07460667  0.24775804  1
  H+  H303  1  0.10741662  0.47276199  0.33876873  1
  H+  H304  1  0.63756886  0.54117688  0.61288353  1
  H+  H305  1  0.10428074  0.43006122  0.76952824  1
  H+  H306  1  0.09863026  0.98831969  0.01129198  1
  H+  H307  1  0.84430023  0.16360486  0.40660336  1
  H+  H308  1  0.66123845  0.78906930  0.33473194  1
  H+  H309  1  0.57226046  0.43504332  0.09280024  1
  H+  H310  1  0.91566309  0.83536998  0.26920317  1
  H+  H311  1  0.36740284  0.73097533  0.32655872  1
  H+  H312  1  0.08260363  0.91653783  0.10028027  1
  H+  H313  1  0.13435797  0.77741772  0.83955763  1
  H+  H314  1  0.15718863  0.58286342  0.26529126  1
  H+  H315  1  0.58655850  0.67246963  0.76210879  1
  H+  H316  1  0.74865832  0.88245178  0.33349210  1
  H+  H317  1  0.83467269  0.67248201  0.10255476  1
  H+  H318  1  0.85886134  0.96426217  0.82422957  1
  H+  H319  1  0.62285173  0.86858339  0.83126927  1
  H+  H320  1  0.82201461  0.92136573  0.06385826  1
  H+  H321  1  0.16225940  0.82423073  0.25895790  1
  H+  H322  1  0.40709436  0.32615386  0.92635543  1
  H+  H323  1  0.35147579  0.49692899  0.32646307  1
  H+  H324  1  0.09064133  0.67871497  0.08796726  1
  H+  H325  1  0.66387512  0.06477671  0.57214136  1
  H+  H326  1  0.71690910  0.37115790  0.13861510  1
  H+  H327  1  0.84763643  0.93076076  0.40687862  1
  H+  H328  1  0.61287172  -0.02790540  0.66963755  1
  H+  H329  1  0.64646901  0.83407091  0.58899887  1
  H+  H330  1  0.83948219  0.42331655  0.10448868  1
  H+  H331  1  0.83420706  0.67510146  0.40324269  1
  H+  H332  1  0.95954069  0.61610684  0.18232695  1
  H+  H333  1  0.91536852  0.08197600  0.88950565  1
  H+  H334  1  0.41859354  0.58697109  0.60092299  1
  H+  H335  1  0.76897181  0.90190848  0.65337629  1
  H+  H336  1  0.17492288  0.58939437  0.60005827  1
  H+  H337  1  0.64139937  0.28238099  0.99646101  1
  H+  H338  1  0.40199050  0.53398769  1.00209019  1
  H+  H339  1  0.83345163  0.66708696  0.77092343  1
  H+  H340  1  0.08367234  0.67084939  0.76946812  1
  H+  H341  1  0.40333028  0.57044390  0.23351020  1
  H+  H342  1  0.41927180  0.33265265  0.22830902  1
  H+  H343  1  0.08452564  0.16986345  0.40325998  1
  H+  H344  1  0.16618501  0.83933924  0.93476979  1
  H+  H345  1  0.14914100  0.07927020  0.23331649  1
  H+  H346  1  0.52347492  0.45414409  0.42794461  1
  H+  H347  1  0.10173492  0.42410148  0.05384162  1
  H+  H348  1  0.57540231  0.15681353  0.73305522  1
  H+  H349  1  0.91916445  0.08431981  0.22939077  1
  H+  H350  1  0.66988506  0.59902051  0.22926884  1
  H+  H351  1  0.91734339  0.33248235  0.23330028  1
  H+  H352  1  0.19759965  0.33818161  0.58557857  1
  H+  H353  1  0.91020788  0.56571867  0.55864493  1
  H+  H354  1  0.61425705  0.23497279  0.16669165  1
  H+  H355  1  0.92557297  0.84648446  0.89820043  1
  H+  H356  1  0.15279790  0.82458180  0.60751018  1
  H+  H357  1  0.34727234  0.67359402  0.77443041  1
  H+  H358  1  0.37116911  0.64068608  0.67510200  1
  H+  H359  1  0.14752670  0.06589564  0.56721678  1
  H+  H360  1  0.34007562  0.90858026  0.10805318  1
  H+  H361  1  0.07290065  0.41118533  0.42953575  1
  H+  H362  1  0.41867863  0.40707199  0.54389610  1
  H+  H363  1  0.43484012  0.35769495  0.64016360  1
  H+  H364  1  0.60790465  0.92756307  0.10576207  1
  H+  H365  1  0.36984056  0.04198237  0.25326124  1
  H+  H366  1  0.21743563  0.10946662  0.65210873  1
  H+  H367  1  0.67979332  0.84632364  0.23969332  1
  H+  H368  1  0.84803098  0.37148119  0.67890819  1
  H+  H369  1  0.63271760  0.54911413  1.00602130  1
  H+  H370  1  0.53463488  0.39908008  0.69340652  1
  H+  H371  1  0.63583073  0.36828778  0.66380625  1
  H+  H372  1  0.31208706  0.13540884  0.38890397  1
  H+  H373  1  0.62646164  0.18048477  0.42092173  1
  H+  H374  1  0.36698629  0.11480161  0.99052838  1
  H+  H375  1  0.64736308  0.01287504  0.34461447  1
  H+  H376  1  0.71267535  0.93816929  0.02799410  1
  H+  H377  1  0.34618021  0.42464087  0.06625587  1
  H+  H378  1  0.50960668  0.68442137  -0.03098467  1
  H+  H379  1  0.92752067  0.58998400  0.93650656  1
  H+  H380  1  0.42198590  0.81949833  0.57442717  1
  H+  H381  1  0.43090342  0.59113173  0.89879438  1
  H+  H382  1  0.68131320  0.64055691  0.57113036  1
  H+  H383  1  0.40172514  0.07448801  0.89331474  1
  O2-  O384  1  0.07197577  0.16053612  0.13324950  1
  O2-  O385  1  0.09314149  0.17990784  0.48424267  1
  O2-  O386  1  0.06648424  0.16618120  0.79530279  1
  O2-  O387  1  0.14390700  0.45418959  0.12775851  1
  O2-  O388  1  0.07018498  0.40962042  0.47590129  1
  O2-  O389  1  0.11949688  0.43085864  0.81228383  1
  O2-  O390  1  0.09271071  0.67926420  0.13796508  1
  O2-  O391  1  0.06960932  0.64396218  0.47775092  1
  O2-  O392  1  0.08679344  0.67457852  0.81473013  1
  O2-  O393  1  0.08574479  0.91062963  0.14552329  1
  O2-  O394  1  0.13087070  0.92279897  0.46484708  1
  O2-  O395  1  0.09277152  0.93019245  0.82567127  1
  O2-  O396  1  0.34669570  0.17477540  0.14785241  1
  O2-  O397  1  0.29916872  0.11641387  0.47254267  1
  O2-  O398  1  0.31649626  0.14165803  0.81204240  1
  O2-  O399  1  0.33199952  0.41202992  0.14722943  1
  O2-  O400  1  0.36453753  0.42990733  0.49650376  1
  O2-  O401  1  0.33980412  0.41913564  0.81588719  1
  O2-  O402  1  0.29518573  0.61224678  0.13833676  1
  O2-  O403  1  0.33546127  0.66549571  0.48905811  1
  O2-  O404  1  0.34416332  0.67168630  0.81944470  1
  O2-  O405  1  0.34000226  0.91660971  0.15285595  1
  O2-  O406  1  0.28625240  0.92193068  0.46678368  1
  O2-  O407  1  0.31946293  0.91700050  0.80818761  1
  O2-  O408  1  0.59287841  0.19136043  0.19955995  1
  O2-  O409  1  0.58253050  0.15026909  0.49630194  1
  O2-  O410  1  0.57444170  0.15933357  0.81057437  1
  O2-  O411  1  0.57733220  0.43105530  0.13826022  1
  O2-  O412  1  0.58916389  0.49101054  0.48517931  1
  O2-  O413  1  0.58115697  0.41564734  0.82208584  1
  O2-  O414  1  0.58330983  0.67144328  0.15584448  1
  O2-  O415  1  0.58181667  0.70084058  0.46866982  1
  O2-  O416  1  0.58505214  0.67095670  0.80688839  1
  O2-  O417  1  0.59378728  0.92393989  0.14960300  1
  O2-  O418  1  0.59247668  0.89016266  0.49034946  1
  O2-  O419  1  0.58521777  0.89720226  0.82451681  1
  O2-  O420  1  0.84600010  0.17731950  0.13275681  1
  O2-  O421  1  0.83504007  0.16237580  0.49008099  1
  O2-  O422  1  0.82728036  0.15834722  0.80173001  1
  O2-  O423  1  0.82569837  0.41918355  0.14914162  1
  O2-  O424  1  0.80909843  0.39992212  0.48139927  1
  O2-  O425  1  0.82692403  0.42214198  0.81966408  1
  O2-  O426  1  0.83078354  0.67056385  0.14835033  1
  O2-  O427  1  0.83226720  0.67564889  0.47995645  1
  O2-  O428  1  0.84143286  0.67192681  0.81608563  1
  O2-  O429  1  0.83077926  0.91569639  0.14340606  1
  O2-  O430  1  0.82567513  0.93462112  0.48588273  1
  O2-  O431  1  0.83718284  0.90289368  0.81584254  1
  O2-  O432  1  0.14491763  0.07446250  0.18728532  1
  O2-  O433  1  0.14606773  0.06480437  0.52148273  1
  O2-  O434  1  0.14152408  0.01292523  0.85212880  1
  O2-  O435  1  0.16201316  0.32548559  0.17732176  1
  O2-  O436  1  0.20731294  0.34259543  0.51898899  1
  O2-  O437  1  0.17643505  0.32558856  0.84644263  1
  O2-  O438  1  0.15397565  0.58950721  0.18625752  1
  O2-  O439  1  0.16909013  0.57977873  0.51888102  1
  O2-  O440  1  0.18054304  0.59639931  0.85402493  1
  O2-  O441  1  0.17192224  0.83260854  0.18080893  1
  O2-  O442  1  0.14395342  0.80345091  0.52899712  1
  O2-  O443  1  0.16849645  0.83810160  0.85527804  1
  O2-  O444  1  0.42656885  0.08425808  0.18555550  1
  O2-  O445  1  0.40954053  0.06694648  0.52167554  1
  O2-  O446  1  0.40311921  0.07145706  0.84831758  1
  O2-  O447  1  0.42116550  0.33328174  0.18281152  1
  O2-  O448  1  0.45874098  0.39289196  0.56764805  1
  O2-  O449  1  0.40583359  0.31803683  0.85004372  1
  O2-  O450  1  0.40844041  0.57431559  0.18874442  1
  O2-  O451  1  0.42269525  0.59484904  0.51723321  1
  O2-  O452  1  0.42659281  0.58753220  0.85382841  1
  O2-  O453  1  0.43321146  0.83984441  0.19925750  1
  O2-  O454  1  0.42433152  0.81154122  0.52945089  1
  O2-  O455  1  0.43532310  0.83660408  0.86996274  1
  O2-  O456  1  0.64536976  0.08234914  0.20511506  1
  O2-  O457  1  0.66465740  0.06463018  0.52650381  1
  O2-  O458  1  0.66797481  0.07831977  0.85365971  1
  O2-  O459  1  0.65531800  0.33699439  0.12573048  1
  O2-  O460  1  0.68838244  0.29187708  0.54785798  1
  O2-  O461  1  0.65576179  0.32975094  0.85614872  1
  O2-  O462  1  0.66671945  0.59370820  0.18434414  1
  O2-  O463  1  0.68162932  0.65194808  0.52596696  1
  O2-  O464  1  0.65865055  0.57815518  0.84543774  1
  O2-  O465  1  0.67159120  0.84166982  0.19469449  1
  O2-  O466  1  0.64513232  0.85136818  0.50858463  1
  O2-  O467  1  0.67518785  0.82459730  0.84022546  1
  O2-  O468  1  0.91187658  0.07911991  0.18448947  1
  O2-  O469  1  0.92685956  0.10104241  0.54349409  1
  O2-  O470  1  0.90925000  0.08111863  0.84452612  1
  O2-  O471  1  0.92137158  0.33689977  0.18855076  1
  O2-  O472  1  0.90591120  0.33087164  0.52272304  1
  O2-  O473  1  0.89141663  0.31308373  0.85438973  1
  O2-  O474  1  0.89889866  0.58357978  0.19371855  1
  O2-  O475  1  0.89987859  0.56734168  0.51447663  1
  O2-  O476  1  0.92277708  0.59023970  0.85832231  1
  O2-  O477  1  0.91628492  0.83475421  0.18990327  1
  O2-  O478  1  0.89552290  0.82920002  0.52635012  1
  O2-  O479  1  0.93500316  0.85074158  0.85348915  1
  O2-  O480  1  0.15350052  0.07863393  0.30756698  1
  O2-  O481  1  0.15370334  0.07426507  0.64376357  1
  O2-  O482  1  0.13492906  0.10104596  0.99351660  1
  O2-  O483  1  0.14285732  0.31987043  0.30125707  1
  O2-  O484  1  0.18818163  0.33240135  0.63360888  1
  O2-  O485  1  0.14463756  0.30346128  0.96467433  1
  O2-  O486  1  0.16346243  0.58344558  0.31056712  1
  O2-  O487  1  0.17776282  0.59591078  0.64513010  1
  O2-  O488  1  0.17359872  0.58969626  0.97429480  1
  O2-  O489  1  0.15730937  0.82055401  0.30443189  1
  O2-  O490  1  0.15983972  0.82933495  0.65267608  1
  O2-  O491  1  0.16240900  0.83903346  0.98020574  1
  O2-  O492  1  0.33374581  0.01592894  0.29011857  1
  O2-  O493  1  0.40831814  0.06673359  0.64695234  1
  O2-  O494  1  0.40182579  0.08870025  0.97579638  1
  O2-  O495  1  0.39136906  0.31698961  0.30328868  1
  O2-  O496  1  0.42696035  0.34280113  0.68427987  1
  O2-  O497  1  0.41091964  0.33169714  0.97196761  1
  O2-  O498  1  0.38853747  0.56272708  0.31664379  1
  O2-  O499  1  0.41980005  0.58989114  0.64591240  1
  O2-  O500  1  0.42322602  0.59359847  0.98468125  1
  O2-  O501  1  0.42256801  0.81611849  0.31397435  1
  O2-  O502  1  0.41973374  0.83153159  0.65126593  1
  O2-  O503  1  0.42422780  0.83756694  0.98209600  1
  O2-  O504  1  0.68095839  0.07173658  0.32743863  1
  O2-  O505  1  0.66158033  0.07170299  0.64956510  1
  O2-  O506  1  0.67717462  0.08122313  0.97471682  1
  O2-  O507  1  0.72020843  0.32171880  0.26732400  1
  O2-  O508  1  0.66224786  0.33223002  0.65157425  1
  O2-  O509  1  0.67174347  0.34477216  1.00506774  1
  O2-  O510  1  0.67565843  0.61425243  0.31257808  1
  O2-  O511  1  0.66436418  0.59018384  0.64031067  1
  O2-  O512  1  0.66393824  0.61140763  1.01235455  1
  O2-  O513  1  0.68785192  0.85118236  0.31881580  1
  O2-  O514  1  0.65162548  0.83325155  0.63400624  1
  O2-  O515  1  0.62162731  0.78776180  0.96900346  1
  O2-  O516  1  0.92725183  0.08764698  0.31150242  1
  O2-  O517  1  0.92090442  0.10504614  0.61029607  1
  O2-  O518  1  0.91927492  0.07873337  0.97128776  1
  O2-  O519  1  0.91761974  0.32984682  0.31901278  1
  O2-  O520  1  0.90566755  0.32930163  0.64737564  1
  O2-  O521  1  0.91706878  0.33866204  0.98098074  1
  O2-  O522  1  0.90242387  0.57482353  0.32112185  1
  O2-  O523  1  0.94753849  0.54641180  0.63064369  1
  O2-  O524  1  0.93121711  0.59192610  0.98216732  1
  O2-  O525  1  0.91913986  0.83688970  0.31471758  1
  O2-  O526  1  0.94724509  0.89828198  0.64165262  1
  O2-  O527  1  0.90552473  0.83947934  0.97954995  1
  O2-  O528  1  0.08263209  0.14037749  0.01418162  1
  O2-  O529  1  0.08412025  0.16613961  0.35797881  1
  O2-  O530  1  0.07166393  0.16514344  0.66115088  1
  O2-  O531  1  0.08604951  0.41503498  0.00990189  1
  O2-  O532  1  0.07793159  0.41360153  0.35566353  1
  O2-  O533  1  0.04994315  0.45264420  0.69919437  1
  O2-  O534  1  0.08728751  0.67781700  0.02519850  1
  O2-  O535  1  0.07236860  0.65537294  0.35351946  1
  O2-  O536  1  0.08455358  0.66632074  0.68919205  1
  O2-  O537  1  0.07619397  0.92779176  0.02423098  1
  O2-  O538  1  0.08347003  0.91550318  0.34724827  1
  O2-  O539  1  0.08624641  0.91630133  0.69960454  1
  O2-  O540  1  0.31261717  0.16326590  0.02123049  1
  O2-  O541  1  0.31538135  0.14530512  0.34435780  1
  O2-  O542  1  0.32263866  0.16423391  0.65496056  1
  O2-  O543  1  0.35356940  0.43644216  0.02215719  1
  O2-  O544  1  0.30287078  0.40344442  0.34161519  1
  O2-  O545  1  0.34141384  0.43159375  0.69575135  1
  O2-  O546  1  0.33235793  0.67295626  0.02531765  1
  O2-  O547  1  0.32587564  0.66364916  0.34000061  1
  O2-  O548  1  0.34267580  0.67248564  0.69175926  1
  O2-  O549  1  0.31137559  0.86132572  0.03490756  1
  O2-  O550  1  0.37965347  0.93155229  0.36103497  1
  O2-  O551  1  0.32621277  0.90792473  0.69127020  1
  O2-  O552  1  0.57658415  0.16479451  0.00732012  1
  O2-  O553  1  0.66546599  0.19381508  0.38577763  1
  O2-  O554  1  0.57697957  0.15642762  0.68726315  1
  O2-  O555  1  0.56975541  0.42514971  0.01726353  1
  O2-  O556  1  0.47153940  0.41484413  0.40198650  1
  O2-  O557  1  0.59884759  0.42680886  0.69763439  1
  O2-  O558  1  0.53499033  0.74029172  -0.05404092  1
  O2-  O559  1  0.60294091  0.69385580  0.35540492  1
  O2-  O560  1  0.59381012  0.67929811  0.67413791  1
  O2-  O561  1  0.65468416  0.93236508  0.02723334  1
  O2-  O562  1  0.59300176  0.90424575  0.37041879  1
  O2-  O563  1  0.58120337  0.90829511  0.67997174  1
  O2-  O564  1  0.84932912  0.17308011  0.01461416  1
  O2-  O565  1  0.84619656  0.16548514  0.36148360  1
  O2-  O566  1  0.82826412  0.16384850  0.68228630  1
  O2-  O567  1  0.84831097  0.42750350  0.02650151  1
  O2-  O568  1  0.82556833  0.40563112  0.36052386  1
  O2-  O569  1  0.82306066  0.40717718  0.69380174  1
  O2-  O570  1  0.84741660  0.67818132  0.02734381  1
  O2-  O571  1  0.83612981  0.67321323  0.35757393  1
  O2-  O572  1  0.81307749  0.64679234  0.69392129  1
  O2-  O573  1  0.81058623  0.92177126  0.01961492  1
  O2-  O574  1  0.85057863  0.92994745  0.36173559  1
  O2-  O575  1  0.82979967  0.93935330  0.66419566  1
