# generated using pymatgen
data_H2O
_symmetry_space_group_name_H-M   'P 1'
_cell_length_a   17.99412223
_cell_length_b   17.99359133
_cell_length_c   22.00648292
_cell_angle_alpha   89.99014443
_cell_angle_beta   89.99277033
_cell_angle_gamma   120.00336069
_symmetry_Int_Tables_number   1
_chemical_formula_structural   H2O
_chemical_formula_sum   'H384 O192'
_cell_volume   6170.42477458
_cell_formula_units_Z   192
loop_
 _symmetry_equiv_pos_site_id
 _symmetry_equiv_pos_as_xyz
  1  'x, y, z'
loop_
 _atom_type_symbol
 _atom_type_oxidation_number
  H+  1.0
  O2-  -2.0
loop_
 _atom_site_type_symbol
 _atom_site_label
 _atom_site_symmetry_multiplicity
 _atom_site_fract_x
 _atom_site_fract_y
 _atom_site_fract_z
 _atom_site_occupancy
  H+  H0  1  0.39864459  0.87349806  0.32550007  1
  H+  H1  1  0.14537031  0.55558917  0.26805210  1
  H+  H2  1  0.63390825  0.86386062  0.66348309  1
  H+  H3  1  0.50650112  0.84991510  0.01171444  1
  H+  H4  1  0.27354435  0.88799127  0.49123341  1
  H+  H5  1  0.88562041  0.62539568  0.49565040  1
  H+  H6  1  0.65562233  0.04080594  0.66402977  1
  H+  H7  1  0.05241911  0.40520490  0.50540310  1
  H+  H8  1  0.51245964  0.64111894  0.82696921  1
  H+  H9  1  0.34789840  0.61975712  0.34724380  1
  H+  H10  1  0.93870590  0.36346370  0.45942426  1
  H+  H11  1  0.61395827  0.45981317  0.17582634  1
  H+  H12  1  0.84489938  -0.04027381  0.50209964  1
  H+  H13  1  0.07096748  0.15216217  0.62665842  1
  H+  H14  1  0.03259625  0.40512434  0.01012072  1
  H+  H15  1  0.18891139  0.11030035  0.25540335  1
  H+  H16  1  0.86289011  0.39453195  0.16458724  1
  H+  H17  1  0.51844006  0.62941518  0.49877142  1
  H+  H18  1  0.60793818  0.63221295  0.01193726  1
  H+  H19  1  0.24244855  0.19643796  0.29177684  1
  H+  H20  1  0.60607831  0.46848877  0.33937415  1
  H+  H21  1  0.60531813  0.95992501  0.16013613  1
  H+  H22  1  0.38994122  0.51975309  0.33024565  1
  H+  H23  1  0.86786965  0.72954959  0.67630852  1
  H+  H24  1  0.24948197  0.61470170  0.16067448  1
  H+  H25  1  0.23136786  0.62305770  0.51171026  1
  H+  H26  1  0.13735265  0.77330979  0.49734091  1
  H+  H27  1  0.90308233  0.13902546  0.18589673  1
  H+  H28  1  0.78451965  0.13019642  0.83200360  1
  H+  H29  1  0.14245424  0.11537233  -0.00146357  1
  H+  H30  1  0.36745684  0.22530679  0.67521557  1
  H+  H31  1  0.13109567  0.27344838  0.52464011  1
  H+  H32  1  0.89420010  0.77210122  0.99449341  1
  H+  H33  1  0.64259049  0.61218904  0.66637754  1
  H+  H34  1  0.11702536  0.97882950  0.83115905  1
  H+  H35  1  0.56630895  0.65252412  0.09952695  1
  H+  H36  1  0.63386630  0.01162596  0.32128967  1
  H+  H37  1  0.41881938  0.83436689  0.26629932  1
  H+  H38  1  0.41403198  0.78110147  0.65199379  1
  H+  H39  1  0.78414328  0.63470047  0.16346276  1
  H+  H40  1  0.27847865  0.89471063  0.33747002  1
  H+  H41  1  0.89669838  0.28879286  0.65746947  1
  H+  H42  1  0.86195261  0.39854965  0.83742095  1
  H+  H43  1  0.71452959  0.85179146  0.51080806  1
  H+  H44  1  0.14733979  0.53301382  0.50959874  1
  H+  H45  1  0.74426417  0.10643123  0.49066869  1
  H+  H46  1  0.73128106  0.22574284  -0.05275111  1
  H+  H47  1  0.22628391  0.37589264  0.15835146  1
  H+  H48  1  0.85693775  0.12697775  0.67201164  1
  H+  H49  1  0.47793319  0.35930272  0.18495047  1
  H+  H50  1  0.36506491  0.97578619  0.49496185  1
  H+  H51  1  0.72129422  0.35956967  0.32563335  1
  H+  H52  1  0.74212413  0.88642342  0.18304134  1
  H+  H53  1  0.67141681  0.82846852  0.27030987  1
  H+  H54  1  0.60690104  0.02470965  0.53447519  1
  H+  H55  1  0.98017341  0.86466143  0.83273897  1
  H+  H56  1  0.15567379  0.38853109  0.84672714  1
  H+  H57  1  0.36819493  0.95251469  0.83665790  1
  H+  H58  1  0.37474337  0.76189443  0.99507120  1
  H+  H59  1  0.89057920  0.86599879  0.66026511  1
  H+  H60  1  0.33831287  0.44250222  0.76278739  1
  H+  H61  1  0.89665501  0.62117080  0.17519234  1
  H+  H62  1  0.35509309  0.87615801  0.00642373  1
  H+  H63  1  0.36257676  0.37408936  1.01109454  1
  H+  H64  1  0.59105833  0.16072613  0.77910954  1
  H+  H65  1  0.88913801  0.30489412  0.98462966  1
  H+  H66  1  0.77748371  0.64800886  0.01365425  1
  H+  H67  1  0.72370855  0.11126597  0.17266130  1
  H+  H68  1  0.28317698  0.65085874  0.67805803  1
  H+  H69  1  0.65386707  0.32104109  0.91613356  1
  H+  H70  1  0.11609464  0.15812336  0.30243010  1
  H+  H71  1  0.14022000  0.29027897  0.31709766  1
  H+  H72  1  0.47110888  0.85816103  0.49171412  1
  H+  H73  1  0.73298283  0.62176662  0.51393261  1
  H+  H74  1  0.85952897  0.38925336  0.34334655  1
  H+  H75  1  0.27197160  0.63829965  0.00896548  1
  H+  H76  1  0.35574026  0.01059433  0.99345163  1
  H+  H77  1  0.87138512  0.10094936  0.32922202  1
  H+  H78  1  0.76530992  0.12842340  0.32485257  1
  H+  H79  1  0.88371973  0.19970937  0.01351960  1
  H+  H80  1  0.38950697  0.27854760  0.84191881  1
  H+  H81  1  0.37287676  0.51211904  0.82746471  1
  H+  H82  1  0.29136161  0.13941724  0.34639471  1
  H+  H83  1  0.23270628  0.11810422  1.00234289  1
  H+  H84  1  0.37358285  0.26094775  0.32911517  1
  H+  H85  1  0.27755539  0.38457818  0.49906721  1
  H+  H86  1  0.85218252  0.49577889  0.48893406  1
  H+  H87  1  0.25850176  0.63407608  0.84268713  1
  H+  H88  1  0.34161369  0.62066024  0.16426007  1
  H+  H89  1  0.11270828  0.63958101  0.49196095  1
  H+  H90  1  0.60367043  0.73548075  0.67504364  1
  H+  H91  1  1.02610929  0.64365926  0.66700169  1
  H+  H92  1  0.85712279  0.63470640  0.83318570  1
  H+  H93  1  0.86207393  0.72917640  0.16803779  1
  H+  H94  1  0.78229845  0.15884510  0.00825589  1
  H+  H95  1  0.48281650  0.10164604  0.84568033  1
  H+  H96  1  0.16090573  0.11243755  0.65182601  1
  H+  H97  1  0.61616894  0.23045330  0.48882995  1
  H+  H98  1  0.22536655  0.86226706  0.99102664  1
  H+  H99  1  0.63029384  0.36839374  0.00552533  1
  H+  H100  1  0.62289651  0.14754729  0.67860030  1
  H+  H101  1  0.60212955  0.37909796  0.33587464  1
  H+  H102  1  0.10852387  -0.02755529  0.49298059  1
  H+  H103  1  0.77976960  0.63917206  0.67640153  1
  H+  H104  1  0.63808998  0.52426397  0.00612095  1
  H+  H105  1  0.61219580  0.72267191  1.00813433  1
  H+  H106  1  0.14875084  0.02565010  0.17075902  1
  H+  H107  1  0.05452835  0.18377144  0.85519127  1
  H+  H108  1  0.47682210  0.36523496  0.65928474  1
  H+  H109  1  0.61344164  0.96071337  0.46812907  1
  H+  H110  1  0.85572711  0.08898351  0.51191353  1
  H+  H111  1  0.28130236  0.14110498  0.16094529  1
  H+  H112  1  0.28101006  0.41485873  0.83239094  1
  H+  H113  1  0.14161983  0.86389881  0.32887322  1
  H+  H114  1  0.67558432  0.58939081  0.60499272  1
  H+  H115  1  0.05253547  0.17287075  0.26095442  1
  H+  H116  1  0.36639284  0.49183021  0.68146090  1
  H+  H117  1  0.14521396  0.90784492  0.15833855  1
  H+  H118  1  0.14523247  0.62740767  0.99341264  1
  H+  H119  1  0.46041225  0.60026677  0.17235616  1
  H+  H120  1  0.97839784  0.37268248  0.34134391  1
  H+  H121  1  0.60769288  0.71774451  0.34056171  1
  H+  H122  1  0.51949357  0.88155368  0.32960796  1
  H+  H123  1  0.14702619  0.37769064  1.00481065  1
  H+  H124  1  0.64171615  0.61672935  0.51656879  1
  H+  H125  1  0.63392640  0.10205443  0.32257682  1
  H+  H126  1  0.40795361  0.07021560  0.23281073  1
  H+  H127  1  0.59627822  0.62622767  0.15985950  1
  H+  H128  1  0.40518879  0.57239699  0.23445893  1
  H+  H129  1  0.11986154  0.96821481  0.67019784  1
  H+  H130  1  0.86249382  0.48242374  0.16267053  1
  H+  H131  1  0.36214038  0.35346485  0.33215614  1
  H+  H132  1  0.36689358  0.13520595  0.16381196  1
  H+  H133  1  0.90615822  0.29309559  0.83816456  1
  H+  H134  1  0.36176626  0.47722515  0.16328152  1
  H+  H135  1  0.88861545  0.52792976  0.33246438  1
  H+  H136  1  0.82146554  0.21619563  0.72026237  1
  H+  H137  1  0.72960238  0.85247540  -0.01120698  1
  H+  H138  1  0.13929144  0.49429408  0.83270239  1
  H+  H139  1  0.76827168  0.38390750  0.84833697  1
  H+  H140  1  0.65560799  0.16323550  0.99121639  1
  H+  H141  1  0.27848692  0.38655890  0.35504348  1
  H+  H142  1  0.60410728  0.96027905  0.83099693  1
  H+  H143  1  0.03673967  0.40112431  0.68044943  1
  H+  H144  1  0.86045897  0.72670124  0.48916395  1
  H+  H145  1  0.62952158  0.76946851  0.83408473  1
  H+  H146  1  0.63450730  0.60726001  0.32682932  1
  H+  H147  1  0.25561301  0.61173314  0.34758005  1
  H+  H148  1  0.93837589  0.11526254  0.66672780  1
  H+  H149  1  0.88393484  1.00323176  0.81755938  1
  H+  H150  1  0.85282881  0.40903976  0.49417416  1
  H+  H151  1  0.37522990  0.76425071  0.17906263  1
  H+  H152  1  0.60513863  0.71825463  0.49662747  1
  H+  H153  1  0.27727030  0.40010434  0.68363702  1
  H+  H154  1  0.71506509  0.36894635  0.50251709  1
  H+  H155  1  0.39691251  0.10620103  0.83966131  1
  H+  H156  1  0.73107283  0.52800344  0.21655026  1
  H+  H157  1  0.38812941  0.36476443  0.66447703  1
  H+  H158  1  0.87959216  0.00547957  0.16755656  1
  H+  H159  1  0.40046675  0.11374582  0.32801707  1
  H+  H160  1  0.36143693  0.38593549  0.16456720  1
  H+  H161  1  0.92563075  0.04486488  0.81975359  1
  H+  H162  1  0.50695957  0.63893018  0.67512244  1
  H+  H163  1  0.39589669  0.37128372  0.84170848  1
  H+  H164  1  0.38546269  0.62183431  0.66760682  1
  H+  H165  1  0.15329409  0.12200056  0.85425116  1
  H+  H166  1  0.96442787  0.62030284  0.83962880  1
  H+  H167  1  0.99528466  0.38259016  0.83870072  1
  H+  H168  1  0.38948445  0.62394201  0.98923884  1
  H+  H169  1  0.13094713  0.44671029  0.16006859  1
  H+  H170  1  0.38396956  0.52251035  0.51592431  1
  H+  H171  1  0.92666241  0.58953096  0.93596188  1
  H+  H172  1  0.38815344  0.27008600  0.17824441  1
  H+  H173  1  0.59455733  0.84721147  0.01308497  1
  H+  H174  1  0.17358822  0.13095773  0.49958415  1
  H+  H175  1  0.11419910  0.64378662  0.67643747  1
  H+  H176  1  0.86165597  0.40190571  1.00675461  1
  H+  H177  1  1.11552962  0.63497384  0.15741583  1
  H+  H178  1  0.36149716  -0.00530368  0.68716803  1
  H+  H179  1  0.39172553  0.02016547  0.32821690  1
  H+  H180  1  0.61963968  0.14344513  0.49409915  1
  H+  H181  1  0.62247608  0.32911896  0.84931158  1
  H+  H182  1  0.89287464  0.76885930  0.83579183  1
  H+  H183  1  0.65996262  1.01866904  0.01896266  1
  H+  H184  1  0.61375398  0.47585787  0.67099884  1
  H+  H185  1  0.11816385  0.23787266  0.14941780  1
  H+  H186  1  0.37377981  0.23161836  0.49638996  1
  H+  H187  1  0.86138103  0.48559978  0.65683387  1
  H+  H188  1  0.80975366  0.80223493  0.20349253  1
  H+  H189  1  0.97918631  0.10698625  1.00162300  1
  H+  H190  1  0.64207108  0.86314195  0.83290146  1
  H+  H191  1  0.85342202  0.95963846  0.34822376  1
  H+  H192  1  0.28572742  0.14251576  0.83386358  1
  H+  H193  1  0.87088788  0.24182023  0.16737152  1
  H+  H194  1  0.85735246  0.84753409  0.81765046  1
  H+  H195  1  0.46031667  0.09256393  0.17140507  1
  H+  H196  1  0.63593015  0.26703631  0.32394627  1
  H+  H197  1  0.89561598  0.53327267  0.99657867  1
  H+  H198  1  0.36293028  0.72353809  0.49458451  1
  H+  H199  1  0.15874409  0.77491130  0.65362689  1
  H+  H200  1  0.03342482  0.64350888  0.33965458  1
  H+  H201  1  0.86047374  0.74951571  0.33809670  1
  H+  H202  1  0.71907479  0.84980231  0.33512248  1
  H+  H203  1  0.17963090  0.08314054  0.90863865  1
  H+  H204  1  0.61663485  0.20863165  0.84219012  1
  H+  H205  1  0.12494602  0.39978444  0.67933068  1
  H+  H206  1  0.43253151  0.09282493  0.60319763  1
  H+  H207  1  0.88112015  0.85840862  0.51086295  1
  H+  H208  1  0.11988561  0.73281598  0.00486889  1
  H+  H209  1  0.60308480  0.36716032  0.16724156  1
  H+  H210  1  0.14390423  0.53742372  0.99299525  1
  H+  H211  1  0.92768869  0.17327201  0.85801032  1
  H+  H212  1  0.13456355  0.86066721  0.50176941  1
  H+  H213  1  0.74332843  0.13820183  0.66137485  1
  H+  H214  1  0.22659418  0.85860333  0.83864212  1
  H+  H215  1  0.35017255  0.69165529  0.73484974  1
  H+  H216  1  0.24766458  0.11024047  0.65447285  1
  H+  H217  1  0.62082639  0.02140832  1.02634670  1
  H+  H218  1  0.60278272  0.12381555  0.15902819  1
  H+  H219  1  0.72855861  0.36808236  0.65015681  1
  H+  H220  1  0.11793949  0.97719940  0.01051948  1
  H+  H221  1  0.64162709  0.55198729  0.85191974  1
  H+  H222  1  0.64387545  0.86083250  0.18314514  1
  H+  H223  1  1.01677490  0.88480188  0.49767807  1
  H+  H224  1  0.62467259  0.43691664  0.81845072  1
  H+  H225  1  0.11688910  0.63437740  0.33526887  1
  H+  H226  1  0.47778650  0.62274255  0.98772853  1
  H+  H227  1  0.63647513  0.36253525  0.65297717  1
  H+  H228  1  0.09169568  0.95784594  0.34260549  1
  H+  H229  1  0.85264686  0.86890440  0.34917096  1
  H+  H230  1  0.34427967  0.41217089  0.41079747  1
  H+  H231  1  0.72974049  0.61534590  0.33525296  1
  H+  H232  1  0.71911089  0.36665159  0.00404504  1
  H+  H233  1  0.86211265  -0.03983563  0.99483828  1
  H+  H234  1  0.29125306  0.13634300  0.49222214  1
  H+  H235  1  0.62552010  0.85119201  0.50415348  1
  H+  H236  1  0.62118569  0.23481318  0.67731557  1
  H+  H237  1  0.06519470  0.10083713  0.53970059  1
  H+  H238  1  0.35531699  0.13432285  0.00464729  1
  H+  H239  1  0.36679761  0.38461950  0.50024598  1
  H+  H240  1  0.84982978  0.63863641  0.34640113  1
  H+  H241  1  0.13805179  0.86562233  -0.00647024  1
  H+  H242  1  0.98382203  0.39507094  0.18148402  1
  H+  H243  1  0.87525069  0.52900896  0.84787267  1
  H+  H244  1  0.47469509  0.61024097  0.32749270  1
  H+  H245  1  -0.01931909  0.86684003  0.66304057  1
  H+  H246  1  0.52850216  0.12986376  0.33522160  1
  H+  H247  1  0.83234862  0.18804200  0.47594169  1
  H+  H248  1  0.88270715  0.08913277  1.00681071  1
  H+  H249  1  0.38270999  0.61143386  0.51475074  1
  H+  H250  1  0.26941748  0.38201412  0.01284522  1
  H+  H251  1  0.17834386  0.79298828  0.16146924  1
  H+  H252  1  0.95415940  0.84209243  0.33334065  1
  H+  H253  1  0.89268696  0.62142285  0.65388830  1
  H+  H254  1  0.59901783  0.22734122  0.01364972  1
  H+  H255  1  0.87384865  0.91610828  0.15908713  1
  H+  H256  1  0.14931047  0.53854184  0.66496024  1
  H+  H257  1  0.49148910  0.12554161  0.66380280  1
  H+  H258  1  0.51880633  0.38910254  0.02024730  1
  H+  H259  1  0.89147856  0.30924365  0.51685160  1
  H+  H260  1  0.60639114  0.64371899  0.82543313  1
  H+  H261  1  0.11561474  0.50657639  0.33396790  1
  H+  H262  1  0.59405797  0.37369030  0.48789259  1
  H+  H263  1  0.15181949  0.28474640  0.66646313  1
  H+  H264  1  0.75491850  0.84645493  0.81793785  1
  H+  H265  1  0.11471773  0.22886985  0.00720231  1
  H+  H266  1  0.46845610  0.84682595  0.17758860  1
  H+  H267  1  0.60959548  0.87578204  0.33126370  1
  H+  H268  1  0.56177201  0.39967658  0.42766232  1
  H+  H269  1  0.14524420  0.11511761  0.16753625  1
  H+  H270  1  0.72245231  0.35547195  0.17234193  1
  H+  H271  1  0.38457363  0.86222972  0.50087480  1
  H+  H272  1  0.52245782  0.37497020  0.82585269  1
  H+  H273  1  0.08773119  0.16974020  0.06622851  1
  H+  H274  1  0.84074133  -0.02549363  0.68068115  1
  H+  H275  1  0.38680600  0.27183073  0.99956296  1
  H+  H276  1  0.03457209  0.63969062  0.00598249  1
  H+  H277  1  0.54380650  0.89768169  0.66517272  1
  H+  H278  1  0.86374981  0.39956530  0.66737417  1
  H+  H279  1  0.86318237  0.87283351  0.99592446  1
  H+  H280  1  0.73350624  0.63438790  0.84321462  1
  H+  H281  1  0.98692751  0.11671962  0.54364170  1
  H+  H282  1  0.96139270  0.10353515  0.32963954  1
  H+  H283  1  0.40044749  0.64573596  0.83885512  1
  H+  H284  1  0.40040939  0.11640126  0.50706344  1
  H+  H285  1  0.97443708  0.62080783  0.49504189  1
  H+  H286  1  0.32442955  -0.04917053  0.16670823  1
  H+  H287  1  0.09618872  0.72699334  0.82696421  1
  H+  H288  1  0.83988585  0.17494703  0.11196315  1
  H+  H289  1  0.09485128  0.67582168  0.10017576  1
  H+  H290  1  0.82187994  0.90288922  0.44050592  1
  H+  H291  1  0.10185495  0.43269637  0.77395643  1
  H+  H292  1  0.39153800  0.06846054  0.93359674  1
  H+  H293  1  0.92536458  0.35278051  0.24018812  1
  H+  H294  1  0.67938529  0.56589381  0.24928920  1
  H+  H295  1  0.10652204  0.19190153  0.79415611  1
  H+  H296  1  0.66068313  0.07374079  0.22841606  1
  H+  H297  1  0.57917406  0.40489695  0.72463194  1
  H+  H298  1  0.17980605  0.34540396  0.60841638  1
  H+  H299  1  0.05353757  0.16168780  0.43325045  1
  H+  H300  1  0.02937091  0.88710513  0.00928959  1
  H+  H301  1  0.09493120  0.16092138  0.43056379  1
  H+  H302  1  0.19427115  0.59709044  0.90004489  1
  H+  H303  1  0.08865023  0.42291119  0.43521360  1
  H+  H304  1  0.70311369  0.03491349  0.90357520  1
  H+  H305  1  0.34151304  0.17120019  0.77280759  1
  H+  H306  1  0.82239408  0.42023924  0.39894961  1
  H+  H307  1  0.94305461  0.36539666  0.60723200  1
  H+  H308  1  0.41581086  0.33135319  0.56546568  1
  H+  H309  1  0.66474329  0.82318316  0.93239866  1
  H+  H310  1  0.57500688  0.15825240  0.06598810  1
  H+  H311  1  0.11716556  0.89019388  0.82762289  1
  H+  H312  1  0.58967115  0.16265332  0.39398931  1
  H+  H313  1  0.66897227  0.09582271  0.88844646  1
  H+  H314  1  0.06547124  0.66919932  0.76789599  1
  H+  H315  1  0.92092905  0.58818843  0.27477205  1
  H+  H316  1  0.66425606  0.32193546  0.23241978  1
  H+  H317  1  0.48619065  0.11257414  0.50399177  1
  H+  H318  1  0.09025946  0.66844531  0.42844623  1
  H+  H319  1  0.33166820  0.91178175  0.77289421  1
  H+  H320  1  0.39455992  0.32157023  0.26111676  1
  H+  H321  1  0.65761424  0.32908360  0.56206706  1
  H+  H322  1  0.57568906  0.89668913  0.41396311  1
  H+  H323  1  0.41885040  0.33734506  0.94180672  1
  H+  H324  1  0.93363928  0.36155999  0.92692449  1
  H+  H325  1  0.08421144  0.91918718  0.73313480  1
  H+  H326  1  0.60253004  0.21203383  0.16139464  1
  H+  H327  1  0.88431688  0.81816279  0.24772006  1
  H+  H328  1  0.16719481  0.83699543  0.89758378  1
  H+  H329  1  0.81673959  0.87923528  0.75342706  1
  H+  H330  1  0.33703066  0.92207000  0.39795074  1
  H+  H331  1  0.82275834  0.66695942  0.42737181  1
  H+  H332  1  0.31627490  0.89731183  0.06595388  1
  H+  H333  1  0.05804943  0.12445163  0.69777514  1
  H+  H334  1  0.37383425  0.82248529  0.82668219  1
  H+  H335  1  0.32691083  0.66226842  0.07069839  1
  H+  H336  1  0.88958373  0.28172952  0.32728533  1
  H+  H337  1  0.43874903  0.83567640  0.59048278  1
  H+  H338  1  0.15159139  0.78244082  0.32314256  1
  H+  H339  1  0.57006596  0.67029455  0.74044315  1
  H+  H340  1  0.07066740  0.90446768  0.40353594  1
  H+  H341  1  0.83194112  0.66604255  0.77062887  1
  H+  H342  1  0.82915550  0.42018241  0.07006988  1
  H+  H343  1  0.35290594  0.17421911  0.40519164  1
  H+  H344  1  0.98222843  0.61600023  0.17568618  1
  H+  H345  1  0.14711578  0.34724154  0.20295499  1
  H+  H346  1  0.84360708  0.15727397  0.77285724  1
  H+  H347  1  0.32459321  0.65193327  0.44110585  1
  H+  H348  1  0.19030549  0.83023912  0.59292301  1
  H+  H349  1  0.86976898  0.06624148  0.58049364  1
  H+  H350  1  0.76188418  0.87962317  0.66986981  1
  H+  H351  1  0.14411075  0.36742696  0.51076249  1
  H+  H352  1  0.84299695  0.67980383  0.06864239  1
  H+  H353  1  0.37615537  0.14078079  0.67536629  1
  H+  H354  1  0.67186013  0.09409006  0.58013469  1
  H+  H355  1  0.91711815  0.09067685  0.24310326  1
  H+  H356  1  0.18071902  0.35615541  0.94351469  1
  H+  H357  1  0.42215446  0.60443139  0.90002025  1
  H+  H358  1  0.91661872  0.83116437  0.56868915  1
  H+  H359  1  0.59318129  0.92370772  0.72955031  1
  H+  H360  1  0.09365471  0.38717662  0.35764506  1
  H+  H361  1  0.65213964  0.82330855  0.60285805  1
  H+  H362  1  0.27825565  0.90179721  0.68015021  1
  H+  H363  1  0.57910680  0.41522495  0.07947514  1
  H+  H364  1  0.57680927  0.65764942  0.39978444  1
  H+  H365  1  0.41318097  0.58633874  0.60721338  1
  H+  H366  1  0.66892191  0.58606695  0.94731391  1
  H+  H367  1  0.09914964  0.92629100  0.10418224  1
  H+  H368  1  0.92799297  0.83037521  0.93351938  1
  H+  H369  1  0.33416696  0.40973952  0.07600346  1
  H+  H370  1  0.47304775  0.35869714  0.50203321  1
  H+  H371  1  0.51876350  0.86766570  0.82071465  1
  H+  H372  1  0.57078003  0.88588641  0.10938360  1
  H+  H373  1  0.95004732  0.13765826  0.91785366  1
  H+  H374  1  0.16513628  0.30327839  0.85255567  1
  H+  H375  1  0.08933605  0.44762095  0.06946658  1
  H+  H376  1  0.92005502  0.59655167  0.59064624  1
  H+  H377  1  0.81585915  0.15004137  0.38632004  1
  H+  H378  1  0.34350926  0.17388730  0.06848008  1
  H+  H379  1  0.18904985  0.38890181  0.29546324  1
  H+  H380  1  0.18597781  0.08837298  0.56225826  1
  H+  H381  1  0.40120477  0.81016537  0.93126497  1
  H+  H382  1  0.17548459  0.59648606  0.60490389  1
  H+  H383  1  0.03232347  0.14902289  0.16162823  1
  O2-  O384  1  0.09104000  0.17468620  0.14360876  1
  O2-  O385  1  0.05014027  0.14306029  0.55401594  1
  O2-  O386  1  0.11326671  0.19629235  0.83807931  1
  O2-  O387  1  0.09445703  0.47213044  0.15231216  1
  O2-  O388  1  0.10652152  0.42623754  0.48338161  1
  O2-  O389  1  0.10208265  0.43154184  0.81939553  1
  O2-  O390  1  0.09741410  0.67744816  0.14580196  1
  O2-  O391  1  0.08265038  0.66821756  0.47381388  1
  O2-  O392  1  0.05786751  0.66755253  0.81273147  1
  O2-  O393  1  0.10959259  0.93406973  0.14892952  1
  O2-  O394  1  0.07617029  0.91218154  0.47931081  1
  O2-  O395  1  0.08468567  0.91980103  0.81405838  1
  O2-  O396  1  0.34355806  0.17281137  0.14924677  1
  O2-  O397  1  0.35145213  0.17183990  0.47840170  1
  O2-  O398  1  0.34559839  0.17747748  0.81791434  1
  O2-  O399  1  0.33284324  0.41533193  0.14559758  1
  O2-  O400  1  0.33778721  0.41681850  0.48430159  1
  O2-  O401  1  0.34181754  0.44820181  0.81254141  1
  O2-  O402  1  0.31157081  0.65000483  0.14804327  1
  O2-  O403  1  0.33193326  0.66025836  0.48696597  1
  O2-  O404  1  0.36356079  0.70624027  0.81330891  1
  O2-  O405  1  0.29302993  0.89268409  0.14737961  1
  O2-  O406  1  0.33504284  0.91688923  0.47737875  1
  O2-  O407  1  0.33604905  0.89557125  0.81683349  1
  O2-  O408  1  0.56943519  0.15197424  0.14604415  1
  O2-  O409  1  0.58928803  0.16935379  0.47339820  1
  O2-  O410  1  0.58846194  0.15050276  0.82358869  1
  O2-  O411  1  0.57468842  0.40197080  0.15724251  1
  O2-  O412  1  0.55815520  0.39758020  0.47317853  1
  O2-  O413  1  0.57557001  0.38403488  0.80406533  1
  O2-  O414  1  0.55561731  0.64202309  0.14433816  1
  O2-  O415  1  0.57729993  0.65821382  0.48121935  1
  O2-  O416  1  0.57248588  0.66818889  0.80669347  1
  O2-  O417  1  0.57664577  0.89710587  0.15447673  1
  O2-  O418  1  0.57741834  0.89934266  0.46150571  1
  O2-  O419  1  0.58034123  0.90500219  0.80899093  1
  O2-  O420  1  0.84319697  0.17975389  0.15691946  1
  O2-  O421  1  0.80053331  0.12647115  0.46891908  1
  O2-  O422  1  0.84277885  0.17143428  0.81581471  1
  O2-  O423  1  0.83036497  0.42145876  0.14778751  1
  O2-  O424  1  0.81855074  0.43266326  0.47699743  1
  O2-  O425  1  0.82573612  0.42469735  0.83190941  1
  O2-  O426  1  0.84388881  0.67160542  0.14918051  1
  O2-  O427  1  0.82865484  0.66635517  0.47509955  1
  O2-  O428  1  0.82857649  0.66821894  0.81607886  1
  O2-  O429  1  0.84362866  0.94766219  0.15038223  1
  O2-  O430  1  0.81802487  0.90012965  0.48654623  1
  O2-  O431  1  0.80476739  0.84738974  0.79400254  1
  O2-  O432  1  0.17766689  0.08932013  0.18527316  1
  O2-  O433  1  0.17999547  0.08412852  0.51588791  1
  O2-  O434  1  0.17994932  0.08653297  0.86298337  1
  O2-  O435  1  0.16215552  0.35011667  0.16020672  1
  O2-  O436  1  0.17046762  0.33496134  0.53114136  1
  O2-  O437  1  0.19367116  0.36588215  0.86359239  1
  O2-  O438  1  0.14363377  0.55756014  0.18286648  1
  O2-  O439  1  0.16969097  0.59230721  0.52562361  1
  O2-  O440  1  0.20161703  0.58724874  0.85660427  1
  O2-  O441  1  0.20652836  0.85555353  0.17237537  1
  O2-  O442  1  0.16952314  0.83394835  0.51251910  1
  O2-  O443  1  0.16630287  0.83804085  0.85203301  1
  O2-  O444  1  0.40058845  0.06686950  0.18758385  1
  O2-  O445  1  0.42739666  0.08327264  0.52223014  1
  O2-  O446  1  0.42055185  0.07214033  0.85761755  1
  O2-  O447  1  0.41481581  0.32979625  0.19680075  1
  O2-  O448  1  0.41071096  0.32852146  0.52045962  1
  O2-  O449  1  0.42327374  0.33994738  0.85773534  1
  O2-  O450  1  0.39974395  0.56807697  0.18900879  1
  O2-  O451  1  0.41293511  0.58182643  0.53290761  1
  O2-  O452  1  0.42140824  0.60403453  0.85205981  1
  O2-  O453  1  0.40931854  0.82372247  0.19377972  1
  O2-  O454  1  0.41535879  0.83102374  0.51346519  1
  O2-  O455  1  0.40784804  0.79493555  0.84106130  1
  O2-  O456  1  0.66209087  0.07697555  0.18292739  1
  O2-  O457  1  0.65866076  0.08104752  0.53354965  1
  O2-  O458  1  0.68649607  0.05750215  0.86904172  1
  O2-  O459  1  0.66176346  0.32102229  0.18658926  1
  O2-  O460  1  0.65526732  0.32831856  0.51632052  1
  O2-  O461  1  0.65920486  0.31209526  0.87143829  1
  O2-  O462  1  0.69321416  0.55044662  0.20636577  1
  O2-  O463  1  0.67837712  0.59824304  0.53763154  1
  O2-  O464  1  0.67334584  0.61299427  0.86094236  1
  O2-  O465  1  0.68505219  0.84437367  0.20013482  1
  O2-  O466  1  0.65404892  0.82409784  0.52669450  1
  O2-  O467  1  0.67027505  0.82993536  0.84678693  1
  O2-  O468  1  0.93768511  0.11278631  0.20091931  1
  O2-  O469  1  0.88337817  0.06317491  0.53680251  1
  O2-  O470  1  0.97544872  0.18099816  0.88457052  1
  O2-  O471  1  0.92471933  0.35270043  0.19449611  1
  O2-  O472  1  0.92806398  0.36772482  0.50268592  1
  O2-  O473  1  0.93419354  0.35240767  0.85352783  1
  O2-  O474  1  0.92189458  0.58606967  0.19054881  1
  O2-  O475  1  0.91471617  0.59303148  0.51159903  1
  O2-  O476  1  0.90463188  0.59160075  0.85901315  1
  O2-  O477  1  0.86966651  0.81634853  0.20277239  1
  O2-  O478  1  0.91709897  0.83295947  0.52321155  1
  O2-  O479  1  0.91821585  0.83179282  0.84666486  1
  O2-  O480  1  0.19837372  0.13631823  0.29816968  1
  O2-  O481  1  0.18886068  0.08210227  0.63449274  1
  O2-  O482  1  0.17297769  0.08470907  0.98560322  1
  O2-  O483  1  0.17787866  0.35149541  0.33034099  1
  O2-  O484  1  0.18110855  0.34573807  0.65418069  1
  O2-  O485  1  0.17688549  0.34740123  0.98855136  1
  O2-  O486  1  0.15050170  0.56424570  0.31279568  1
  O2-  O487  1  0.17932994  0.59895872  0.65040105  1
  O2-  O488  1  0.17635802  0.59712386  0.97783901  1
  O2-  O489  1  0.18048122  0.84450049  0.31334366  1
  O2-  O490  1  0.20846648  0.82431159  0.63408351  1
  O2-  O491  1  0.16510370  0.83390796  0.97503341  1
  O2-  O492  1  0.42593569  0.08098790  0.31051331  1
  O2-  O493  1  0.43108947  0.09773925  0.64817550  1
  O2-  O494  1  0.36627798  0.06485452  0.97443581  1
  O2-  O495  1  0.36686362  0.30652564  0.30522478  1
  O2-  O496  1  0.41427546  0.33273210  0.64731040  1
  O2-  O497  1  0.41438658  0.33528999  0.98689104  1
  O2-  O498  1  0.41366452  0.57740355  0.31222871  1
  O2-  O499  1  0.41657112  0.58983693  0.65353386  1
  O2-  O500  1  0.42056358  0.59876177  0.96759377  1
  O2-  O501  1  0.42934277  0.84380041  0.31162333  1
  O2-  O502  1  0.45536555  0.83693318  0.63377956  1
  O2-  O503  1  0.40336862  0.82061814  0.97539754  1
  O2-  O504  1  0.66444079  0.07266923  0.30578300  1
  O2-  O505  1  0.67928167  0.10002982  0.64749707  1
  O2-  O506  1  0.70886677  0.17018357  0.96709774  1
  O2-  O507  1  0.66193854  0.32709905  0.30831159  1
  O2-  O508  1  0.66548522  0.33110600  0.63853423  1
  O2-  O509  1  0.65770671  0.33560099  0.99006295  1
  O2-  O510  1  0.66791240  0.57893669  0.31535916  1
  O2-  O511  1  0.67240523  0.58250334  0.65232895  1
  O2-  O512  1  0.66762249  0.58522552  0.99201689  1
  O2-  O513  1  0.66093402  0.82087123  0.31628801  1
  O2-  O514  1  0.65475164  0.82328797  0.64884824  1
  O2-  O515  1  0.66595741  0.82049634  0.97703079  1
  O2-  O516  1  0.90051680  0.06708484  0.31858014  1
  O2-  O517  1  0.87679188  0.08338731  0.65909185  1
  O2-  O518  1  0.92077684  0.07609663  0.98261936  1
  O2-  O519  1  0.91898542  0.34387301  0.31859215  1
  O2-  O520  1  0.93613081  0.35360015  0.65059928  1
  O2-  O521  1  0.93058954  0.36343109  0.97308536  1
  O2-  O522  1  0.92173784  0.58930105  0.31985297  1
  O2-  O523  1  0.92242047  0.59255533  0.63585147  1
  O2-  O524  1  0.94194372  0.58652920  0.97898796  1
  O2-  O525  1  0.89333702  0.81582241  0.32091588  1
  O2-  O526  1  0.91914094  0.83416705  0.64711463  1
  O2-  O527  1  0.92952180  0.83351788  0.97821377  1
  O2-  O528  1  0.08597634  0.16824951  0.02071266  1
  O2-  O529  1  0.07756684  0.18371215  0.30178028  1
  O2-  O530  1  0.09724227  0.16707087  0.66882171  1
  O2-  O531  1  0.09170179  0.43087819  0.02688862  1
  O2-  O532  1  0.06429445  0.41652239  0.37349254  1
  O2-  O533  1  0.09762747  0.43193467  0.69519187  1
  O2-  O534  1  0.09567349  0.67370382  0.02226181  1
  O2-  O535  1  0.09505199  0.67190654  0.35173071  1
  O2-  O536  1  0.08242896  0.67345324  0.68843835  1
  O2-  O537  1  0.08946620  0.91705238  0.02577558  1
  O2-  O538  1  0.06722407  0.89947749  0.35784869  1
  O2-  O539  1  0.07647083  0.91363265  0.68830426  1
  O2-  O540  1  0.33885006  0.17684059  0.02350152  1
  O2-  O541  1  0.35208593  0.17394171  0.35886932  1
  O2-  O542  1  0.33948650  0.16519571  0.69052591  1
  O2-  O543  1  0.33104664  0.40458958  0.02904806  1
  O2-  O544  1  0.34060579  0.40878553  0.36453794  1
  O2-  O545  1  0.33756786  0.43281027  0.70084478  1
  O2-  O546  1  0.33233920  0.66612240  0.02530015  1
  O2-  O547  1  0.31084695  0.63613263  0.36972971  1
  O2-  O548  1  0.34510217  0.67707248  0.69032299  1
  O2-  O549  1  0.32407264  0.90563935  0.02150764  1
  O2-  O550  1  0.34010832  0.92598330  0.35273500  1
  O2-  O551  1  0.31780688  0.94520503  0.71029668  1
  O2-  O552  1  0.58081700  0.16616042  0.02107607  1
  O2-  O553  1  0.59027012  0.16078997  0.34866972  1
  O2-  O554  1  0.59181213  0.17573347  0.69546672  1
  O2-  O555  1  0.57962151  0.41984446  0.03402674  1
  O2-  O556  1  0.56945685  0.40671812  0.35000739  1
  O2-  O557  1  0.57919275  0.41269408  0.68001847  1
  O2-  O558  1  0.57622245  0.66230791  0.02368793  1
  O2-  O559  1  0.57546164  0.65626526  0.35445473  1
  O2-  O560  1  0.57012832  0.67233234  0.69234127  1
  O2-  O561  1  0.55544823  0.85924593  0.03731792  1
  O2-  O562  1  0.58285083  0.90991154  0.34615194  1
  O2-  O563  1  0.60330953  0.92998249  0.68486475  1
  O2-  O564  1  0.82973638  0.15599523  0.03108962  1
  O2-  O565  1  0.82574458  0.15987522  0.34229831  1
  O2-  O566  1  0.83328427  0.19464895  0.68294510  1
  O2-  O567  1  0.82300024  0.42008983  0.02476104  1
  O2-  O568  1  0.82532559  0.41755996  0.35374686  1
  O2-  O569  1  0.82623709  0.42461928  0.67005203  1
  O2-  O570  1  0.83916090  0.68147402  0.02379852  1
  O2-  O571  1  0.81703317  0.66602442  0.35991579  1
  O2-  O572  1  0.83982215  0.66947810  0.69221442  1
  O2-  O573  1  0.82681870  0.89889090  0.00495168  1
  O2-  O574  1  0.82365902  0.90117482  0.36604901  1
  O2-  O575  1  0.82133577  0.91262988  0.68702866  1
