# generated using pymatgen
data_H2O
_symmetry_space_group_name_H-M   'P 1'
_cell_length_a   17.99254409
_cell_length_b   18.00537016
_cell_length_c   22.01860260
_cell_angle_alpha   89.99181677
_cell_angle_beta   90.01176429
_cell_angle_gamma   119.99852549
_symmetry_Int_Tables_number   1
_chemical_formula_structural   H2O
_chemical_formula_sum   'H384 O192'
_cell_volume   6177.62380464
_cell_formula_units_Z   192
loop_
 _symmetry_equiv_pos_site_id
 _symmetry_equiv_pos_as_xyz
  1  'x, y, z'
loop_
 _atom_type_symbol
 _atom_type_oxidation_number
  H+  1.0
  O2-  -2.0
loop_
 _atom_site_type_symbol
 _atom_site_label
 _atom_site_symmetry_multiplicity
 _atom_site_fract_x
 _atom_site_fract_y
 _atom_site_fract_z
 _atom_site_occupancy
  H+  H0  1  0.61310958  0.46978884  0.82733975  1
  H+  H1  1  0.92705293  0.60196384  0.26503351  1
  H+  H2  1  0.37774986  0.98000962  0.67566276  1
  H+  H3  1  0.41254832  0.76721425  0.85078593  1
  H+  H4  1  0.12535313  0.41249214  0.66413829  1
  H+  H5  1  0.14402875  0.52588923  0.50748975  1
  H+  H6  1  0.14058478  0.03293411  0.49926382  1
  H+  H7  1  0.48016324  0.58477045  0.84510176  1
  H+  H8  1  0.06965419  0.39477801  0.92419302  1
  H+  H9  1  0.21866144  0.78244865  0.61208415  1
  H+  H10  1  0.33033955  0.15224539  0.76700597  1
  H+  H11  1  0.13830056  0.61286264  0.50572229  1
  H+  H12  1  0.58220428  0.52938877  0.55733046  1
  H+  H13  1  0.35986601  0.45158997  0.82617087  1
  H+  H14  1  0.24848535  0.56003086  0.86647612  1
  H+  H15  1  0.45885183  0.87200265  -0.00543232  1
  H+  H16  1  0.48727714  1.11395453  0.66710358  1
  H+  H17  1  0.89812248  0.02907981  0.32332820  1
  H+  H18  1  0.87263612  0.48738862  0.49059803  1
  H+  H19  1  0.35066121  -0.01035188  0.14262517  1
  H+  H20  1  0.42517993  0.08307459  0.92278817  1
  H+  H21  1  0.15887116  0.83026558  0.89373933  1
  H+  H22  1  0.36325761  0.21538472  0.82542946  1
  H+  H23  1  0.10202061  -0.03538173  0.33980377  1
  H+  H24  1  0.63999101  0.36256485  0.32215699  1
  H+  H25  1  0.27707931  0.08123756  0.25481485  1
  H+  H26  1  0.27105322  0.88273448  0.82660217  1
  H+  H27  1  0.38247106  0.65959511  0.83846589  1
  H+  H28  1  0.11611253  0.49114426  0.00787195  1
  H+  H29  1  0.02047474  0.64166073  -0.00248545  1
  H+  H30  1  0.39844632  0.86522292  0.50223912  1
  H+  H31  1  0.47694883  0.60807556  -0.00010532  1
  H+  H32  1  0.71256861  0.12333214  0.16979839  1
  H+  H33  1  0.32906450  0.42872389  0.40305237  1
  H+  H34  1  0.38900447  0.83872480  0.32380928  1
  H+  H35  1  0.52941154  0.62563699  0.34156317  1
  H+  H36  1  0.36759364  0.48432536  0.48970864  1
  H+  H37  1  0.64608817  0.36267865  0.50816631  1
  H+  H38  1  0.11379696  0.23036292  0.16637456  1
  H+  H39  1  0.89593812  0.89659314  0.33827394  1
  H+  H40  1  0.26781722  0.11893709  0.67490920  1
  H+  H41  1  0.16629884  0.84016173  0.56127796  1
  H+  H42  1  0.53050939  0.88795732  0.82658913  1
  H+  H43  1  0.09805374  0.14674426  0.34383412  1
  H+  H44  1  0.39648759  0.62176493  0.50277048  1
  H+  H45  1  0.38023304  0.77368874  0.99311962  1
  H+  H46  1  0.86807778  0.47981924  0.67093981  1
  H+  H47  1  0.43068352  0.83976238  0.59513368  1
  H+  H48  1  0.08206608  0.62735287  0.82805950  1
  H+  H49  1  0.90704887  0.82501559  0.55684960  1
  H+  H50  1  0.88833131  0.62373146  -0.01756858  1
  H+  H51  1  0.11870610  0.23011371  0.00445535  1
  H+  H52  1  -0.00206959  0.87952221  0.83294712  1
  H+  H53  1  0.87429428  0.98478451  0.49041308  1
  H+  H54  1  0.64587124  0.28411849  0.98583124  1
  H+  H55  1  0.38899501  0.60986678  -0.00439635  1
  H+  H56  1  0.86986411  0.23812160  0.00989268  1
  H+  H57  1  0.96598851  0.35886534  0.85371493  1
  H+  H58  1  0.22561088  0.85150761  0.32623385  1
  H+  H59  1  0.11268698  0.14097785  0.16844318  1
  H+  H60  1  0.65361429  0.85636000  0.98383919  1
  H+  H61  1  0.53175878  0.13507794  0.35972861  1
  H+  H62  1  0.10870972  0.38725580  0.15830261  1
  H+  H63  1  0.39177367  0.11138355  0.83450104  1
  H+  H64  1  0.10611680  0.87617719  0.82380524  1
  H+  H65  1  0.11722492  0.63719136  0.67384895  1
  H+  H66  1  0.89659334  0.87493161  0.82998034  1
  H+  H67  1  0.23733578  0.09514922  0.84222524  1
  H+  H68  1  0.63695046  0.60819735  -0.00544578  1
  H+  H69  1  0.02424075  0.89931654  0.17433671  1
  H+  H70  1  0.63457057  0.37597381  0.15576817  1
  H+  H71  1  0.88688659  0.62245176  0.50975114  1
  H+  H72  1  0.38741306  0.28729777  0.35321651  1
  H+  H73  1  0.61641838  0.62174080  0.33919553  1
  H+  H74  1  0.34787831  0.89985891  0.14808484  1
  H+  H75  1  0.62408581  0.72952207  0.16876682  1
  H+  H76  1  0.36566167  0.38320160  0.66659507  1
  H+  H77  1  0.11421767  0.49166788  0.67647640  1
  H+  H78  1  0.63954080  1.11662609  0.83123110  1
  H+  H79  1  0.41252090  0.82823459  0.90238690  1
  H+  H80  1  0.62698458  0.86009424  0.66585134  1
  H+  H81  1  0.25787773  0.89675898  0.49029789  1
  H+  H82  1  0.78158525  0.39403012  0.14714687  1
  H+  H83  1  0.23944837  0.40088871  0.64799304  1
  H+  H84  1  0.12769684  0.86929479  0.50480673  1
  H+  H85  1  0.89884036  0.87596670  0.17187644  1
  H+  H86  1  0.28212245  0.14605670  0.52588314  1
  H+  H87  1  0.19637709  0.10732120  0.34848854  1
  H+  H88  1  0.11428067  0.15142517  0.48623461  1
  H+  H89  1  0.52461818  0.37804940  0.82529264  1
  H+  H90  1  0.87319249  0.36855135  0.82376005  1
  H+  H91  1  0.45001041  0.34567938  0.19895560  1
  H+  H92  1  0.85939342  0.73044628  -0.00280939  1
  H+  H93  1  0.38742555  0.50352269  0.15859856  1
  H+  H94  1  0.53909566  0.64259517  0.49144481  1
  H+  H95  1  0.78123367  0.88059770  0.16178385  1
  H+  H96  1  0.42557452  0.58729501  0.55971318  1
  H+  H97  1  0.97521460  0.86982325  0.98633313  1
  H+  H98  1  0.22812033  0.34025261  0.98804126  1
  H+  H99  1  0.11854186  -0.02912575  0.82795892  1
  H+  H100  1  0.64578409  0.12883371  0.32884144  1
  H+  H101  1  0.63371089  0.59933910  0.83677793  1
  H+  H102  1  0.34689983  0.14769351  0.13307783  1
  H+  H103  1  0.78004476  0.38752598  0.67116579  1
  H+  H104  1  0.21518323  0.86434794  0.17152516  1
  H+  H105  1  0.64578736  0.11887995  0.65699529  1
  H+  H106  1  0.61230080  0.71697010  0.82534062  1
  H+  H107  1  0.91434137  0.08281405  0.55456303  1
  H+  H108  1  0.29746594  0.74988669  0.80580540  1
  H+  H109  1  -0.00463790  0.63778808  0.33310564  1
  H+  H110  1  0.36832563  -0.05606600  0.34168049  1
  H+  H111  1  0.86492067  0.48466544  -0.01136206  1
  H+  H112  1  0.42138635  0.55506985  0.90446141  1
  H+  H113  1  0.89171758  0.62982997  0.32735767  1
  H+  H114  1  0.35851831  0.39617648  0.34632724  1
  H+  H115  1  0.97972461  0.61518844  0.17233872  1
  H+  H116  1  0.66455386  0.09256124  0.59360777  1
  H+  H117  1  0.13405256  0.28348190  0.32719945  1
  H+  H118  1  0.77588105  0.63169228  0.34036637  1
  H+  H119  1  0.74603962  0.90863586  0.33550369  1
  H+  H120  1  0.53167998  0.39224663  0.34479526  1
  H+  H121  1  0.39249005  0.02252973  0.83488348  1
  H+  H122  1  0.39336108  0.60998144  0.65197805  1
  H+  H123  1  1.01235781  0.14180508  1.01710239  1
  H+  H124  1  0.34787484  0.19398361  0.57948137  1
  H+  H125  1  0.38910420  0.63128376  0.16984370  1
  H+  H126  1  0.88959888  0.87302804  0.50115609  1
  H+  H127  1  0.37905473  0.36905636  0.18687741  1
  H+  H128  1  0.37222012  0.13313308  0.97410519  1
  H+  H129  1  0.85975212  0.70389641  0.68581089  1
  H+  H130  1  0.16057859  0.08506041  0.56063403  1
  H+  H131  1  0.77157940  0.64778894  0.49578894  1
  H+  H132  1  0.11241132  0.72508496  0.15763006  1
  H+  H133  1  0.39212542  0.77375061  0.50210908  1
  H+  H134  1  0.12719644  0.86204351  0.18096083  1
  H+  H135  1  0.77850327  0.63879353  0.15197425  1
  H+  H136  1  0.84646936  0.24618750  0.50453188  1
  H+  H137  1  0.78872002  0.15947924  0.65208812  1
  H+  H138  1  0.53393341  0.38972592  0.48636421  1
  H+  H139  1  0.13063353  0.77074367  0.83443915  1
  H+  H140  1  0.60522013  0.63318148  0.16069809  1
  H+  H141  1  0.21909397  0.59556241  0.17872618  1
  H+  H142  1  0.22563268  0.37190566  0.32860298  1
  H+  H143  1  0.16376667  0.82803859  0.26772536  1
  H+  H144  1  0.34840537  0.88616795  -0.00277162  1
  H+  H145  1  0.62088746  0.38686651  -0.00833741  1
  H+  H146  1  0.10902982  0.72829367  0.49234396  1
  H+  H147  1  0.61922791  0.47295387  0.67910191  1
  H+  H148  1  0.64355256  0.86227756  0.83542013  1
  H+  H149  1  0.87964648  0.26594100  0.83076582  1
  H+  H150  1  0.88973216  0.87650358  -0.01301632  1
  H+  H151  1  0.33666391  0.22838425  0.14994214  1
  H+  H152  1  0.89051547  0.61442129  0.17138896  1
  H+  H153  1  0.96158892  0.97632965  0.37514710  1
  H+  H154  1  0.88025979  0.16679428  0.65306807  1
  H+  H155  1  0.46825931  0.12141504  0.14788334  1
  H+  H156  1  0.52403998  0.88186024  0.45948069  1
  H+  H157  1  0.97656774  0.36928844  1.00009954  1
  H+  H158  1  0.81450026  0.17715622  0.10349180  1
  H+  H159  1  0.84282010  0.81875026  0.64557397  1
  H+  H160  1  0.28046536  0.64656395  0.00708587  1
  H+  H161  1  0.27753474  0.38721486  0.49356790  1
  H+  H162  1  0.13837053  1.02593199  0.19000715  1
  H+  H163  1  0.11089166  0.39269007  0.34249844  1
  H+  H164  1  0.75063176  0.85847488  0.66483159  1
  H+  H165  1  0.21629406  0.61506192  0.83194396  1
  H+  H166  1  0.64210751  0.36263716  0.83168398  1
  H+  H167  1  0.02048184  0.64007029  0.49606820  1
  H+  H168  1  0.61986375  0.72118959  0.00494967  1
  H+  H169  1  0.36894768  0.47260314  0.67164989  1
  H+  H170  1  0.36061709  0.88327056  0.83022652  1
  H+  H171  1  0.86668436  0.14306942  0.83870020  1
  H+  H172  1  0.08303789  0.17373545  0.07478708  1
  H+  H173  1  -0.02901690  0.12509498  0.32427473  1
  H+  H174  1  0.84277268  0.23292851  0.16537854  1
  H+  H175  1  0.50666302  0.83667737  0.35612303  1
  H+  H176  1  0.22365136  0.36786395  0.17576741  1
  H+  H177  1  0.38706343  1.02694154  -0.01569296  1
  H+  H178  1  0.00083219  0.01770738  0.70710306  1
  H+  H179  1  0.01954440  0.38644166  0.34639059  1
  H+  H180  1  0.43878579  0.87931812  0.18926251  1
  H+  H181  1  0.73794580  0.60587722  0.67779375  1
  H+  H182  1  0.78995316  0.39594442  0.49375519  1
  H+  H183  1  0.77872407  0.37931733  0.33660221  1
  H+  H184  1  0.78102268  0.14980373  0.00245265  1
  H+  H185  1  0.53302530  0.89723991  0.66981492  1
  H+  H186  1  0.65606413  0.85838040  0.19306314  1
  H+  H187  1  0.48006679  0.60621448  0.65725790  1
  H+  H188  1  0.74489247  0.86483047  0.99061171  1
  H+  H189  1  0.39379630  0.76063559  0.16185921  1
  H+  H190  1  0.54238316  0.35466882  0.13414789  1
  H+  H191  1  0.48082057  0.36556788  0.65431037  1
  H+  H192  1  -0.03035694  0.10638208  0.16983931  1
  H+  H193  1  0.62195112  0.23002356  0.67102478  1
  H+  H194  1  0.77829684  0.14036238  0.82670180  1
  H+  H195  1  0.39613830  0.37982408  0.49322400  1
  H+  H196  1  0.10796218  0.73035989  0.34339133  1
  H+  H197  1  0.88898264  0.02968043  0.87281186  1
  H+  H198  1  -0.03955176  0.63186504  0.82278578  1
  H+  H199  1  0.36141111  0.46909083  0.00250317  1
  H+  H200  1  0.12733653  0.39726529  0.49620253  1
  H+  H201  1  0.59725012  0.12794851  0.15564749  1
  H+  H202  1  0.21407789  0.29985802  0.55079044  1
  H+  H203  1  0.97467094  0.84761260  0.32294899  1
  H+  H204  1  0.53008219  0.13956450  0.82199995  1
  H+  H205  1  0.97803835  0.08132004  0.67612276  1
  H+  H206  1  0.11419963  0.63698055  0.15751728  1
  H+  H207  1  0.62221952  0.47523212  0.49329748  1
  H+  H208  1  0.61440052  0.49431779  0.17040274  1
  H+  H209  1  0.11405369  0.88441868  0.67063539  1
  H+  H210  1  0.62245091  0.15484132  0.99660722  1
  H+  H211  1  0.53006641  0.14755182  -0.00161147  1
  H+  H212  1  0.86429309  0.48652450  0.15028754  1
  H+  H213  1  0.90413682  0.29319182  0.65484993  1
  H+  H214  1  0.10894205  0.45887751  0.87001564  1
  H+  H215  1  0.88897605  0.35915328  0.33083587  1
  H+  H216  1  0.59356872  0.93536526  0.03964518  1
  H+  H217  1  0.61642394  0.62845173  0.67804288  1
  H+  H218  1  -0.03241453  0.35475748  0.17581311  1
  H+  H219  1  0.39601342  0.29101076  0.50782928  1
  H+  H220  1  0.18044927  0.59565513  0.93829578  1
  H+  H221  1  0.38305601  0.74273940  0.66825434  1
  H+  H222  1  0.90192051  0.38317108  0.66572039  1
  H+  H223  1  0.39113760  0.35790551  0.99321800  1
  H+  H224  1  0.35743361  0.16614766  0.27629072  1
  H+  H225  1  0.02047050  0.89189354  0.49303328  1
  H+  H226  1  0.90898961  0.07533657  0.22710816  1
  H+  H227  1  0.10524686  0.47341864  0.15957211  1
  H+  H228  1  0.83603555  0.91663538  0.06688013  1
  H+  H229  1  0.13423395  0.34619758  0.85275195  1
  H+  H230  1  0.85367816  0.12982064  0.33255851  1
  H+  H231  1  0.85268292  0.98109073  0.64479187  1
  H+  H232  1  0.40055567  0.86991368  0.65561643  1
  H+  H233  1  0.11369094  0.88104639  0.33908632  1
  H+  H234  1  0.61981793  0.22976727  0.82231717  1
  H+  H235  1  0.22139502  0.34543630  0.83347544  1
  H+  H236  1  0.63451292  0.02524960  0.18002104  1
  H+  H237  1  0.39661438  1.03324983  0.51295990  1
  H+  H238  1  0.12916394  0.77152649  0.98849216  1
  H+  H239  1  0.77625677  0.38269574  0.82046767  1
  H+  H240  1  0.11654564  0.72423962  0.67491641  1
  H+  H241  1  0.62310420  0.60729718  0.51012632  1
  H+  H242  1  0.60493800  0.71113725  0.67553740  1
  H+  H243  1  0.63768816  1.05043657  -0.01592398  1
  H+  H244  1  0.84852757  0.96401981  0.79324887  1
  H+  H245  1  0.88679471  0.12590140  1.00915269  1
  H+  H246  1  0.35714697  0.11841620  0.67762464  1
  H+  H247  1  0.54096276  0.87572284  0.17978896  1
  H+  H248  1  0.64355539  0.36429249  0.66549846  1
  H+  H249  1  0.40329717  0.06920428  0.30016488  1
  H+  H250  1  0.88074801  0.76489308  0.32286884  1
  H+  H251  1  0.64065536  1.02732416  0.83544944  1
  H+  H252  1  0.67552230  0.33581504  0.89020007  1
  H+  H253  1  0.00589419  0.38938337  0.67034328  1
  H+  H254  1  0.48182291  0.35782138  -0.00840340  1
  H+  H255  1  0.64025163  0.52094955  0.99083802  1
  H+  H256  1  0.92636079  0.85184032  0.89687173  1
  H+  H257  1  0.38186358  0.34775454  0.83230593  1
  H+  H258  1  0.54777992  0.13400752  0.50829557  1
  H+  H259  1  0.38234959  0.64705746  0.80563083  1
  H+  H260  1  0.86113937  0.73554998  0.49116244  1
  H+  H261  1  0.10559601  0.25181733  0.68413719  1
  H+  H262  1  0.10355718  0.87113761  0.00863342  1
  H+  H263  1  0.83579086  0.12296105  0.48435410  1
  H+  H264  1  0.86652320  0.98581011  0.01244001  1
  H+  H265  1  0.69918694  0.13227532  0.49178559  1
  H+  H266  1  0.88814502  0.60687352  0.66897528  1
  H+  H267  1  0.40326573  0.12353120  0.52647921  1
  H+  H268  1  0.36122631  0.71249326  0.34002738  1
  H+  H269  1  0.15871464  0.02315255  1.03219003  1
  H+  H270  1  0.63964475  0.26559858  0.16975167  1
  H+  H271  1  0.88950339  0.26997118  0.33111084  1
  H+  H272  1  0.43724922  0.46966858  0.12060392  1
  H+  H273  1  0.23396560  0.61998528  0.65542665  1
  H+  H274  1  0.81827006  0.04174091  0.62751156  1
  H+  H275  1  0.09889651  0.20928507  0.82388131  1
  H+  H276  1  0.27844538  0.64208266  0.49481630  1
  H+  H277  1  0.36182994  0.62599655  0.34445707  1
  H+  H278  1  0.62303066  0.98519276  0.66929116  1
  H+  H279  1  0.64758260  0.51624489  0.32745059  1
  H+  H280  1  0.14222061  0.62817301  0.99227069  1
  H+  H281  1  0.25311577  0.86081181  0.65561846  1
  H+  H282  1  -0.11901249  0.34456154  0.50970475  1
  H+  H283  1  -0.02327821  0.11468402  0.85193140  1
  H+  H284  1  0.11201963  0.23479225  0.65460772  1
  H+  H285  1  0.38612614  0.52464022  0.32557770  1
  H+  H286  1  0.13259939  0.51956117  0.32590441  1
  H+  H287  1  0.85501140  0.65713997  0.75190320  1
  H+  H288  1  0.07677808  0.66468879  0.76373566  1
  H+  H289  1  0.47989030  0.63423664  0.17116299  1
  H+  H290  1  0.59394881  0.17008898  0.72999510  1
  H+  H291  1  0.27825039  0.69417915  0.74739151  1
  H+  H292  1  0.38434702  0.68345586  0.72193773  1
  H+  H293  1  0.05143698  0.13414319  0.77350173  1
  H+  H294  1  0.03090724  0.84067376  0.05769465  1
  H+  H295  1  0.85054420  0.92296586  0.43486291  1
  H+  H296  1  0.07684114  0.66716787  0.05989668  1
  H+  H297  1  0.42861020  0.08036987  0.60825988  1
  H+  H298  1  0.07871599  0.91401063  0.43328411  1
  H+  H299  1  0.76728008  0.13636411  0.33228582  1
  H+  H300  1  0.65528284  0.27885129  0.51514170  1
  H+  H301  1  0.83446282  0.66605604  0.40094257  1
  H+  H302  1  0.83845735  0.41529236  0.76084053  1
  H+  H303  1  0.83817837  0.41383108  0.39545894  1
  H+  H304  1  0.41804648  0.58860913  0.26780557  1
  H+  H305  1  0.69033991  0.82824440  0.24733237  1
  H+  H306  1  0.41624239  0.32670399  0.89317227  1
  H+  H307  1  0.83404789  0.66156339  0.09216511  1
  H+  H308  1  0.32906373  0.40065940  0.76240900  1
  H+  H309  1  0.33081871  0.40987537  0.06025745  1
  H+  H310  1  0.07446712  0.18404552  0.40146564  1
  H+  H311  1  0.07113611  0.66825367  0.40320428  1
  H+  H312  1  0.37006629  0.22982327  -0.02070779  1
  H+  H313  1  0.29333210  0.70046526  0.14175551  1
  H+  H314  1  0.66500636  0.57253958  0.89544035  1
  H+  H315  1  0.67978832  0.83200132  0.89189324  1
  H+  H316  1  0.97815382  0.61001410  0.66108674  1
  H+  H317  1  0.12843958  0.24694460  0.49165932  1
  H+  H318  1  0.16203578  0.57750811  0.23839812  1
  H+  H319  1  0.33518479  0.66700450  0.43412136  1
  H+  H320  1  0.43310960  0.81756323  0.26655780  1
  H+  H321  1  0.79890350  0.73318009  0.60927481  1
  H+  H322  1  0.27855565  0.13123355  0.99669489  1
  H+  H323  1  0.67622296  0.57320639  0.26683104  1
  H+  H324  1  0.59744940  0.41908023  0.40043488  1
  H+  H325  1  0.15600267  0.08733504  0.28155147  1
  H+  H326  1  0.58834257  0.91945405  0.76644346  1
  H+  H327  1  0.17245801  0.59150637  0.59689817  1
  H+  H328  1  0.61377957  0.90232074  0.12671226  1
  H+  H329  1  0.92243362  0.09901761  0.95113254  1
  H+  H330  1  0.16764613  0.33959034  0.23677396  1
  H+  H331  1  0.67525945  0.10188404  0.92232715  1
  H+  H332  1  0.81733167  0.88368141  0.71957447  1
  H+  H333  1  0.39875767  0.32652127  0.28609800  1
  H+  H334  1  0.67118895  0.32571022  0.22970817  1
  H+  H335  1  0.91712739  0.59061598  0.56812479  1
  H+  H336  1  0.09237197  0.42402822  0.43905272  1
  H+  H337  1  0.39315915  0.10195024  0.19646606  1
  H+  H338  1  0.88675120  0.36562617  0.99361718  1
  H+  H339  1  0.16870995  0.30165345  0.92769246  1
  H+  H340  1  0.22249491  0.11951215  0.18004359  1
  H+  H341  1  0.22554198  0.60323373  0.32440781  1
  H+  H342  1  0.92247578  0.83957403  0.23186834  1
  H+  H343  1  0.63756556  0.27367742  0.32783383  1
  H+  H344  1  0.83346707  0.43224159  0.05124471  1
  H+  H345  1  0.31943858  0.92161976  0.05394656  1
  H+  H346  1  0.57908539  0.65450298  0.76809087  1
  H+  H347  1  0.91431426  0.60199933  0.91921996  1
  H+  H348  1  0.68240112  0.58425802  0.61472614  1
  H+  H349  1  0.34736309  0.68335554  0.06275518  1
  H+  H350  1  0.58332108  0.40849930  0.73481622  1
  H+  H351  1  0.86555929  0.97466281  0.15701509  1
  H+  H352  1  0.58911206  0.67112394  0.06817471  1
  H+  H353  1  0.64705180  0.85543576  0.34499056  1
  H+  H354  1  0.66340123  0.09729505  0.26537529  1
  H+  H355  1  0.67564085  0.33820677  0.60514302  1
  H+  H356  1  0.73586415  0.37455135  0.98257162  1
  H+  H357  1  -0.01917394  0.12926619  0.49988370  1
  H+  H358  1  0.76871030  0.87586477  0.81712218  1
  H+  H359  1  0.09320750  0.93369312  0.11819380  1
  H+  H360  1  0.34753330  0.18357245  0.39543736  1
  H+  H361  1  0.21650141  0.86400273  0.98586308  1
  H+  H362  1  0.56656952  0.52175297  0.21731135  1
  H+  H363  1  0.18606856  0.05190416  0.90294126  1
  H+  H364  1  0.34203610  0.91513309  0.73291588  1
  H+  H365  1  0.58228790  0.16884668  0.09397722  1
  H+  H366  1  0.13612851  0.01595202  0.65250969  1
  H+  H367  1  0.32515368  0.88318666  0.39744634  1
  H+  H368  1  0.12586665  0.09680125  0.65675677  1
  H+  H369  1  0.60052683  0.17446909  0.41313887  1
  H+  H370  1  0.21341104  0.10523611  0.07332928  1
  H+  H371  1  0.29923676  0.15752098  0.39902412  1
  H+  H372  1  0.47251303  0.04231955  0.28570659  1
  H+  H373  1  0.08716337  0.91548258  0.72900042  1
  H+  H374  1  0.08556352  0.42163975  0.06017380  1
  H+  H375  1  0.30561921  0.97213458  0.44424129  1
  H+  H376  1  0.54731401  0.98125488  0.06612723  1
  H+  H377  1  0.59916164  0.41448097  0.05475580  1
  H+  H378  1  0.77361597  0.63872108  -0.00085339  1
  H+  H379  1  0.81145152  0.15052458  0.42207482  1
  H+  H380  1  0.18853914  0.38078438  0.58526114  1
  H+  H381  1  0.91806931  0.32814385  0.23910422  1
  H+  H382  1  0.59555594  0.65452595  0.43269427  1
  H+  H383  1  0.43400466  0.35666632  0.59130482  1
  O2-  O384  1  0.08627269  0.17126356  0.14854457  1
  O2-  O385  1  0.08688156  0.18525063  0.47446119  1
  O2-  O386  1  0.05816472  0.14698966  0.81734796  1
  O2-  O387  1  0.07927047  0.41584507  0.14016175  1
  O2-  O388  1  0.09998703  0.43010771  0.48408061  1
  O2-  O389  1  0.07144865  0.39735204  0.87942598  1
  O2-  O390  1  0.08471378  0.66645552  0.13968852  1
  O2-  O391  1  0.08026685  0.66768641  0.47872392  1
  O2-  O392  1  0.06851104  0.66796373  0.80899981  1
  O2-  O393  1  0.09142119  0.93074394  0.16275078  1
  O2-  O394  1  0.08199584  0.92178788  0.47828455  1
  O2-  O395  1  0.07892175  0.91081001  0.81014699  1
  O2-  O396  1  0.30652849  0.17053061  0.13166332  1
  O2-  O397  1  0.34490926  0.17886126  0.53633811  1
  O2-  O398  1  0.33459486  0.15353172  0.81308851  1
  O2-  O399  1  0.38234504  0.44848208  0.14153564  1
  O2-  O400  1  0.33935761  0.42465838  0.47305525  1
  O2-  O401  1  0.32445707  0.39281866  0.80780712  1
  O2-  O402  1  0.34764795  0.70074769  0.13890650  1
  O2-  O403  1  0.33898269  0.67339330  0.47978217  1
  O2-  O404  1  0.25148239  0.70015310  0.78487466  1
  O2-  O405  1  0.31543885  0.92616369  0.13303705  1
  O2-  O406  1  0.31617622  0.93461008  0.47046658  1
  O2-  O407  1  0.33225689  0.91280556  0.81228966  1
  O2-  O408  1  0.57119370  0.16262542  0.13877284  1
  O2-  O409  1  0.60815447  0.16531793  0.49251225  1
  O2-  O410  1  0.59051278  0.16873759  0.80709532  1
  O2-  O411  1  0.60057916  0.40326594  0.13643485  1
  O2-  O412  1  0.59634516  0.41675827  0.47482882  1
  O2-  O413  1  0.58510182  0.40844056  0.81080702  1
  O2-  O414  1  0.58553009  0.67298380  0.14741723  1
  O2-  O415  1  0.59820566  0.65892309  0.47861343  1
  O2-  O416  1  0.58149345  0.65589803  0.81347615  1
  O2-  O417  1  0.60779996  0.91318341  0.16909583  1
  O2-  O418  1  0.56206921  0.91335928  0.42483599  1
  O2-  O419  1  0.59048333  0.91681000  0.81195359  1
  O2-  O420  1  0.80041025  0.17563356  0.14700685  1
  O2-  O421  1  0.79900454  0.14398458  0.46718483  1
  O2-  O422  1  0.84039896  0.17181386  0.81643968  1
  O2-  O423  1  0.83026826  0.43703665  0.12328164  1
  O2-  O424  1  0.84661023  0.42846290  0.47390486  1
  O2-  O425  1  0.83776072  0.40993646  0.80653360  1
  O2-  O426  1  0.83570851  0.65622744  0.13709312  1
  O2-  O427  1  0.82984035  0.67257009  0.47973794  1
  O2-  O428  1  0.88324191  0.67519054  0.81573681  1
  O2-  O429  1  0.83756584  0.91323011  0.14044212  1
  O2-  O430  1  0.84515785  0.92261805  0.47951972  1
  O2-  O431  1  0.82878325  0.90300308  0.79783763  1
  O2-  O432  1  0.17121352  0.08691760  0.20682497  1
  O2-  O433  1  0.17071004  0.09251397  0.51568921  1
  O2-  O434  1  0.17823959  0.05767923  0.85990316  1
  O2-  O435  1  0.16493517  0.33448306  0.19051913  1
  O2-  O436  1  0.19589993  0.32927781  0.52228516  1
  O2-  O437  1  0.16296149  0.31145465  0.85265933  1
  O2-  O438  1  0.16083804  0.57980507  0.19055374  1
  O2-  O439  1  0.17216148  0.58803122  0.52286477  1
  O2-  O440  1  0.19971533  0.56956867  0.86397258  1
  O2-  O441  1  0.15778780  0.82951104  0.19030362  1
  O2-  O442  1  0.16127948  0.83994478  0.51646022  1
  O2-  O443  1  0.16339622  0.83190220  0.84841357  1
  O2-  O444  1  0.40344301  0.09438347  0.15343646  1
  O2-  O445  1  0.43459865  0.09087714  0.53010085  1
  O2-  O446  1  0.42473032  0.08271677  0.84982483  1
  O2-  O447  1  0.38876631  0.32358911  0.20552967  1
  O2-  O448  1  0.43220812  0.35423970  0.50762722  1
  O2-  O449  1  0.41520284  0.32065468  0.84856114  1
  O2-  O450  1  0.41817003  0.59991694  0.18388963  1
  O2-  O451  1  0.42649329  0.58993878  0.51451127  1
  O2-  O452  1  0.42149240  0.54482323  0.86048151  1
  O2-  O453  1  0.45104472  0.83292522  0.19435726  1
  O2-  O454  1  0.42757312  0.83532988  0.51694397  1
  O2-  O455  1  0.41622293  0.82309172  0.85666199  1
  O2-  O456  1  0.64922388  0.08566552  0.18557276  1
  O2-  O457  1  0.64309750  0.11113439  0.51412094  1
  O2-  O458  1  0.67058034  0.08808072  0.84904933  1
  O2-  O459  1  0.67282318  0.32626176  0.18398194  1
  O2-  O460  1  0.67971995  0.33917574  0.52806464  1
  O2-  O461  1  0.67418020  0.33258400  0.84473614  1
  O2-  O462  1  0.61780114  0.54517838  0.19193399  1
  O2-  O463  1  0.63712863  0.56450095  0.53686824  1
  O2-  O464  1  0.66011552  0.56549529  0.85086112  1
  O2-  O465  1  0.68411709  0.82346143  0.20190265  1
  O2-  O466  1  0.63348335  0.80406438  0.59173885  1
  O2-  O467  1  0.67605708  0.83245576  0.84668515  1
  O2-  O468  1  0.90969624  0.06865182  0.18228836  1
  O2-  O469  1  0.91876814  0.09129318  0.51019198  1
  O2-  O470  1  0.91870671  0.09187150  0.87555341  1
  O2-  O471  1  0.91007051  0.32531000  0.19419907  1
  O2-  O472  1  0.86835939  0.29389583  0.53384185  1
  O2-  O473  1  0.90428590  0.32986133  0.84211685  1
  O2-  O474  1  0.92200984  0.58835853  0.19173463  1
  O2-  O475  1  0.91964592  0.59425024  0.52274148  1
  O2-  O476  1  0.90082606  0.61174930  0.83736378  1
  O2-  O477  1  0.93591048  0.85355929  0.18798078  1
  O2-  O478  1  0.91822499  0.83740287  0.51271853  1
  O2-  O479  1  0.93238366  0.85375732  0.85036501  1
  O2-  O480  1  0.14229049  0.07725112  0.32609900  1
  O2-  O481  1  0.16277016  0.07702878  0.63815894  1
  O2-  O482  1  0.19379896  0.08590678  1.03161736  1
  O2-  O483  1  0.16701183  0.34260608  0.30965748  1
  O2-  O484  1  0.19549771  0.40826477  0.62612936  1
  O2-  O485  1  0.16856414  0.30243006  0.97344061  1
  O2-  O486  1  0.16753801  0.57657544  0.30569174  1
  O2-  O487  1  0.17397017  0.59686507  0.64301613  1
  O2-  O488  1  0.17810225  0.60135348  0.98298009  1
  O2-  O489  1  0.16522937  0.83091057  0.31326047  1
  O2-  O490  1  0.19936164  0.81769746  0.63292769  1
  O2-  O491  1  0.15501071  0.83232129  0.97270073  1
  O2-  O492  1  0.43866479  0.04715004  0.31854279  1
  O2-  O493  1  0.42563904  0.07867713  0.65351445  1
  O2-  O494  1  0.42149294  0.08720264  0.96885501  1
  O2-  O495  1  0.41598634  0.34032321  0.32940291  1
  O2-  O496  1  0.42359717  0.34297125  0.63502403  1
  O2-  O497  1  0.42004438  0.32632307  0.97805414  1
  O2-  O498  1  0.42145802  0.58600330  0.31246439  1
  O2-  O499  1  0.42108057  0.57755189  0.63887183  1
  O2-  O500  1  0.41611476  0.57483734  0.98578870  1
  O2-  O501  1  0.42247576  0.81089006  0.31209338  1
  O2-  O502  1  0.43062965  0.83920873  0.64084270  1
  O2-  O503  1  0.40227612  0.83372852  0.97584309  1
  O2-  O504  1  0.66954781  0.09549083  0.31009222  1
  O2-  O505  1  0.67425158  0.08901570  0.63754844  1
  O2-  O506  1  0.67584089  0.10823883  0.96810159  1
  O2-  O507  1  0.66575114  0.32917891  0.30551719  1
  O2-  O508  1  0.67564440  0.33529323  0.65061979  1
  O2-  O509  1  0.67389637  0.34243295  0.96735734  1
  O2-  O510  1  0.67957898  0.57686057  0.31143637  1
  O2-  O511  1  0.67907121  0.58420021  0.65962940  1
  O2-  O512  1  0.67048846  0.58245471  0.97819858  1
  O2-  O513  1  0.69497380  0.85740265  0.32153939  1
  O2-  O514  1  0.64980278  0.82046801  0.65466945  1
  O2-  O515  1  0.68570364  0.82858837  0.97132591  1
  O2-  O516  1  0.91332528  0.08598362  0.30610068  1
  O2-  O517  1  0.87238023  0.04185077  0.63157815  1
  O2-  O518  1  0.91936651  0.09482474  0.99663993  1
  O2-  O519  1  0.92346811  0.33107621  0.31780093  1
  O2-  O520  1  0.93932971  0.35848704  0.65289172  1
  O2-  O521  1  0.91637271  0.33249722  0.98613558  1
  O2-  O522  1  0.92856748  0.60612066  0.31112600  1
  O2-  O523  1  0.91801023  0.58026143  0.64600880  1
  O2-  O524  1  0.92033638  0.59721489  0.96371206  1
  O2-  O525  1  0.91509742  0.82520509  0.30739207  1
  O2-  O526  1  0.85474315  0.77547161  0.62557616  1
  O2-  O527  1  0.91762055  0.84584454  0.96746160  1
  O2-  O528  1  0.07667946  0.16966355  0.02894654  1
  O2-  O529  1  0.07180419  0.18157577  0.35525638  1
  O2-  O530  1  0.02339134  0.07857849  0.69942137  1
  O2-  O531  1  0.08516641  0.42854063  0.01514923  1
  O2-  O532  1  0.08130372  0.42128070  0.36065167  1
  O2-  O533  1  0.08793729  0.43041502  0.68829309  1
  O2-  O534  1  0.08035311  0.67177547  0.01454581  1
  O2-  O535  1  0.06907287  0.67041240  0.35753664  1
  O2-  O536  1  0.08428628  0.66460138  0.69012783  1
  O2-  O537  1  0.06788098  0.89073212  0.03272573  1
  O2-  O538  1  0.07681131  0.90460107  0.35418879  1
  O2-  O539  1  0.08842203  0.91813809  0.68389581  1
  O2-  O540  1  0.33550845  0.16358781  -0.02713900  1
  O2-  O541  1  0.33855618  0.10709819  0.26444305  1
  O2-  O542  1  0.32585714  0.14689566  0.69303273  1
  O2-  O543  1  0.33319479  0.40724549  0.01572401  1
  O2-  O544  1  0.32685220  0.42621825  0.35630933  1
  O2-  O545  1  0.33559082  0.41204404  0.68555315  1
  O2-  O546  1  0.34341566  0.67631149  0.01740875  1
  O2-  O547  1  0.32887312  0.65395921  0.35867517  1
  O2-  O548  1  0.34991908  0.68345038  0.68760202  1
  O2-  O549  1  0.32240141  0.92208645  0.00872465  1
  O2-  O550  1  0.32818127  0.88288183  0.35263517  1
  O2-  O551  1  0.34642103  0.91697684  0.68771241  1
  O2-  O552  1  0.58872902  0.17948026  0.01582722  1
  O2-  O553  1  0.59145603  0.17862804  0.36897916  1
  O2-  O554  1  0.59222628  0.16835167  0.68449330  1
  O2-  O555  1  0.58752512  0.41301493  0.01068595  1
  O2-  O556  1  0.59340252  0.41867838  0.35446561  1
  O2-  O557  1  0.58652418  0.41078141  0.68907675  1
  O2-  O558  1  0.58510447  0.66339023  0.02306703  1
  O2-  O559  1  0.58722181  0.64888420  0.35944711  1
  O2-  O560  1  0.57796548  0.65113961  0.69038823  1
  O2-  O561  1  0.55513566  0.95673514  0.02872128  1
  O2-  O562  1  0.55183164  0.84239038  0.38594016  1
  O2-  O563  1  0.59184164  0.92660215  0.68817406  1
  O2-  O564  1  0.83722447  0.17494669  0.02330339  1
  O2-  O565  1  0.82749332  0.16262177  0.34967072  1
  O2-  O566  1  0.84834556  0.19364316  0.66772373  1
  O2-  O567  1  0.83310437  0.42563985  0.00540712  1
  O2-  O568  1  0.83860405  0.40716475  0.35063150  1
  O2-  O569  1  0.84093471  0.41913985  0.68656426  1
  O2-  O570  1  0.83513282  0.67160095  0.01321616  1
  O2-  O571  1  0.83650916  0.66759804  0.35557170  1
  O2-  O572  1  0.83808609  0.64730769  0.70515743  1
  O2-  O573  1  0.83865391  0.92259431  0.02069818  1
  O2-  O574  1  0.90199611  0.94771754  0.36160292  1
  O2-  O575  1  0.81398986  0.88435762  0.67453007  1
