# generated using pymatgen
data_H2O
_symmetry_space_group_name_H-M   'P 1'
_cell_length_a   17.99768218
_cell_length_b   17.99997576
_cell_length_c   22.00812337
_cell_angle_alpha   89.99168289
_cell_angle_beta   90.00608815
_cell_angle_gamma   120.01186750
_symmetry_Int_Tables_number   1
_chemical_formula_structural   H2O
_chemical_formula_sum   'H384 O192'
_cell_volume   6173.76635788
_cell_formula_units_Z   192
loop_
 _symmetry_equiv_pos_site_id
 _symmetry_equiv_pos_as_xyz
  1  'x, y, z'
loop_
 _atom_type_symbol
 _atom_type_oxidation_number
  H+  1.0
  O2-  -2.0
loop_
 _atom_site_type_symbol
 _atom_site_label
 _atom_site_symmetry_multiplicity
 _atom_site_fract_x
 _atom_site_fract_y
 _atom_site_fract_z
 _atom_site_occupancy
  H+  H0  1  0.08956115  0.16017205  0.09651229  1
  H+  H1  1  0.38206674  0.86292656  -0.03725556  1
  H+  H2  1  0.60761502  0.70388143  0.82510693  1
  H+  H3  1  0.91566506  0.83846419  0.59573577  1
  H+  H4  1  0.34699121  0.24937144  0.14143303  1
  H+  H5  1  0.26560342  0.87880702  -0.02111981  1
  H+  H6  1  0.41261547  -0.00092148  0.19078278  1
  H+  H7  1  0.02778502  0.13268952  0.00920106  1
  H+  H8  1  0.22844571  0.35702479  0.66142521  1
  H+  H9  1  0.10309476  0.78646867  0.53736724  1
  H+  H10  1  0.61170173  0.63719494  0.16315185  1
  H+  H11  1  0.76267911  0.13810637  0.49438756  1
  H+  H12  1  0.62542054  0.39489880  0.00659213  1
  H+  H13  1  0.85561877  0.72945083  0.15893891  1
  H+  H14  1  0.40258125  0.82638187  0.56510003  1
  H+  H15  1  0.77114392  0.88404765  0.49050758  1
  H+  H16  1  0.38468895  0.51941203  0.50395955  1
  H+  H17  1  0.63440218  0.10094996  0.68679887  1
  H+  H18  1  0.63324188  0.61731567  -0.00806753  1
  H+  H19  1  0.27856840  0.88829839  0.67738089  1
  H+  H20  1  0.52971369  0.15589452  0.35654059  1
  H+  H21  1  0.11783385  0.68808271  0.73354466  1
  H+  H22  1  1.03127387  0.39770478  0.82126638  1
  H+  H23  1  0.89663810  0.37720587  0.84016090  1
  H+  H24  1  0.39527765  0.12399118  0.50161570  1
  H+  H25  1  0.38313395  0.77600307  0.33208962  1
  H+  H26  1  0.01406953  0.37169099  0.15598479  1
  H+  H27  1  0.39031643  0.04090969  0.33422381  1
  H+  H28  1  0.12468826  0.38688512  0.67154642  1
  H+  H29  1  0.23981136  0.88697179  0.33414477  1
  H+  H30  1  0.83600276  0.91756352  0.73024018  1
  H+  H31  1  0.51856708  0.64267114  1.00774912  1
  H+  H32  1  0.21405394  0.72466133  0.77698764  1
  H+  H33  1  0.84217927  0.37073517  0.14453312  1
  H+  H34  1  0.87437374  0.65494824  0.67264485  1
  H+  H35  1  0.03013643  0.89664413  0.66072745  1
  H+  H36  1  0.16372282  0.62632287  0.50052334  1
  H+  H37  1  0.22213361  0.13006447  0.16803287  1
  H+  H38  1  0.16481826  0.82245105  0.91883919  1
  H+  H39  1  0.86434415  0.01374177  0.16528218  1
  H+  H40  1  0.61594157  0.89507244  0.16222660  1
  H+  H41  1  0.65385257  0.83838230  0.84060021  1
  H+  H42  1  0.85858181  0.88136610  0.33677912  1
  H+  H43  1  0.14839352  0.70411045  0.30378779  1
  H+  H44  1  0.01627345  0.88032436  0.48711793  1
  H+  H45  1  0.11938165  0.38871121  0.01002351  1
  H+  H46  1  0.60306448  0.47917683  0.49345359  1
  H+  H47  1  0.11908180  0.63770833  0.16398520  1
  H+  H48  1  0.86548631  0.14034766  0.86249593  1
  H+  H49  1  0.87110109  0.01501237  0.31803990  1
  H+  H50  1  0.36570724  0.37992999  0.66316489  1
  H+  H51  1  0.89222787  0.77857331  0.84003269  1
  H+  H52  1  0.53068903  0.90029232  0.16879213  1
  H+  H53  1  0.13644809  0.26919557  0.66331361  1
  H+  H54  1  0.38201389  0.13722901  0.17959524  1
  H+  H55  1  0.13305365  0.58411207  0.33042040  1
  H+  H56  1  0.66872288  0.58561816  0.26988023  1
  H+  H57  1  0.51358457  0.61892177  0.82206131  1
  H+  H58  1  0.60499983  0.12764118  -0.00707721  1
  H+  H59  1  0.36823316  -0.01985507  0.68038003  1
  H+  H60  1  0.27419691  0.89421915  0.49739479  1
  H+  H61  1  0.47497319  0.61748097  0.65610997  1
  H+  H62  1  0.15013117  0.23998886  0.48519835  1
  H+  H63  1  0.85642842  0.10995406  0.15541379  1
  H+  H64  1  0.89329367  0.28571044  0.84947763  1
  H+  H65  1  0.67548194  0.33929261  0.90059979  1
  H+  H66  1  0.35569228  0.68504246  0.08651649  1
  H+  H67  1  0.16885051  0.09290038  0.93063998  1
  H+  H68  1  0.46780185  0.36341612  0.50518127  1
  H+  H69  1  0.63885351  0.27436688  0.98733943  1
  H+  H70  1  0.77331362  0.64171400  0.82393322  1
  H+  H71  1  0.13684281  0.37039276  0.51731914  1
  H+  H72  1  0.90549760  0.32246961  0.21662217  1
  H+  H73  1  0.61155457  0.50609662  0.71528600  1
  H+  H74  1  0.41868689  0.83816597  0.27427731  1
  H+  H75  1  0.11131244  -0.02878650  0.17286154  1
  H+  H76  1  0.46694422  0.86013866  0.64723587  1
  H+  H77  1  0.61417283  0.21064740  0.67574472  1
  H+  H78  1  0.76757785  0.87864931  0.33732039  1
  H+  H79  1  0.38778963  0.61119165  0.50375696  1
  H+  H80  1  0.11857423  0.13554861  0.00697287  1
  H+  H81  1  0.99245913  0.63206954  0.66631919  1
  H+  H82  1  0.60432567  0.63403798  0.33761317  1
  H+  H83  1  0.97776942  0.10941216  0.83628691  1
  H+  H84  1  0.24674082  0.86749844  0.18092962  1
  H+  H85  1  0.29930281  0.68349847  0.14123116  1
  H+  H86  1  0.88912402  0.51338548  0.31906191  1
  H+  H87  1  0.86992281  0.88512767  1.00633127  1
  H+  H88  1  0.62830337  0.76944614  0.32480453  1
  H+  H89  1  0.51480097  0.63708590  0.48927957  1
  H+  H90  1  0.36497531  0.46979207  0.66412981  1
  H+  H91  1  0.62445549  0.38778992  0.83117998  1
  H+  H92  1  0.57672250  0.87063860  0.88295904  1
  H+  H93  1  0.37853292  0.85987127  0.66380688  1
  H+  H94  1  0.36142421  0.72808861  0.66510114  1
  H+  H95  1  0.63424792  0.86792789  0.64474940  1
  H+  H96  1  0.90235038  0.54496637  0.67421250  1
  H+  H97  1  0.47882052  0.35074290  0.84032528  1
  H+  H98  1  0.88763653  0.02179255  0.83697740  1
  H+  H99  1  0.97395711  0.86081766  0.17972475  1
  H+  H100  1  0.64679966  0.32011435  0.24921909  1
  H+  H101  1  0.87214944  0.63342518  0.33200678  1
  H+  H102  1  0.89204688  0.78075811  0.99365640  1
  H+  H103  1  0.86031111  0.12585592  0.63421438  1
  H+  H104  1  0.88904084  0.25690948  0.63686367  1
  H+  H105  1  0.46991926  0.10484578  0.67469737  1
  H+  H106  1  0.37884863  0.64139377  1.00117535  1
  H+  H107  1  0.71821754  0.10010186  0.66236712  1
  H+  H108  1  0.87902357  0.89025045  0.82388927  1
  H+  H109  1  0.88688910  0.62612626  0.85015901  1
  H+  H110  1  0.14644549  0.52243029  0.65732173  1
  H+  H111  1  0.61378230  0.48290244  0.34435539  1
  H+  H112  1  0.15529174  0.77369934  0.82456425  1
  H+  H113  1  0.33139361  0.91736473  0.03354745  1
  H+  H114  1  0.63047848  0.60128444  0.83381724  1
  H+  H115  1  0.36525714  0.45988103  0.81616526  1
  H+  H116  1  0.87096672  0.36654611  0.50402055  1
  H+  H117  1  0.64944226  0.28424273  0.83882717  1
  H+  H118  1  0.87311754  0.10594746  0.32114173  1
  H+  H119  1  1.03599606  0.38597196  0.66671385  1
  H+  H120  1  0.77742668  0.45760773  0.71047071  1
  H+  H121  1  0.13445222  0.73459493  0.16378364  1
  H+  H122  1  0.65484578  0.37594447  0.34073862  1
  H+  H123  1  0.88895802  0.02488691  0.65680608  1
  H+  H124  1  0.10154848  0.67508178  0.06583916  1
  H+  H125  1  0.26697934  0.62887504  0.66196087  1
  H+  H126  1  0.98364178  0.62461357  0.49623969  1
  H+  H127  1  0.88351873  0.26609156  0.15533088  1
  H+  H128  1  0.36261909  0.24255891  0.34296220  1
  H+  H129  1  0.76166342  0.12521479  0.14519461  1
  H+  H130  1  0.14240920  0.02729527  0.84521220  1
  H+  H131  1  0.87357905  0.49458360  0.84074868  1
  H+  H132  1  0.74399013  0.34712957  0.65674998  1
  H+  H133  1  0.84091106  0.17717304  0.91902424  1
  H+  H134  1  0.13725536  0.52921395  0.83934172  1
  H+  H135  1  0.77260933  0.13151330  0.33536045  1
  H+  H136  1  -0.00188480  0.59849490  0.51479086  1
  H+  H137  1  0.14153872  0.11668350  0.65407372  1
  H+  H138  1  0.56892144  0.49454501  0.70114884  1
  H+  H139  1  0.13438246  0.35363752  0.16184217  1
  H+  H140  1  0.57209349  0.19747422  0.48138946  1
  H+  H141  1  0.76857924  0.88399796  0.15917248  1
  H+  H142  1  0.88908822  0.87132907  0.65578204  1
  H+  H143  1  0.86043526  0.64360507  0.01243626  1
  H+  H144  1  0.88611919  0.02118833  0.50412932  1
  H+  H145  1  0.92501050  0.07485628  0.93121596  1
  H+  H146  1  0.13882481  0.04218293  0.32318941  1
  H+  H147  1  0.12136534  0.35304387  0.84181678  1
  H+  H148  1  0.64451118  0.01797093  0.31686479  1
  H+  H149  1  0.61906888  0.65367708  0.66532585  1
  H+  H150  1  0.14351284  0.80762756  0.33990432  1
  H+  H151  1  0.67938470  0.07819625  0.25763215  1
  H+  H152  1  0.14161467  0.77044808  0.98362118  1
  H+  H153  1  0.72083527  0.27184902  0.61021625  1
  H+  H154  1  0.35973055  0.71198142  0.85587287  1
  H+  H155  1  0.87133842  0.37962951  0.99040819  1
  H+  H156  1  0.22856181  0.13078518  0.32437240  1
  H+  H157  1  0.35547050  0.88997248  0.83164109  1
  H+  H158  1  0.40955581  0.79070490  0.17875168  1
  H+  H159  1  0.15342765  0.62657449  0.83329745  1
  H+  H160  1  -0.02246987  0.60661311  0.30899260  1
  H+  H161  1  0.89410786  0.77368240  0.32630886  1
  H+  H162  1  0.85359611  0.22824112  0.49410172  1
  H+  H163  1  0.10100893  0.21564783  0.82586986  1
  H+  H164  1  0.74361759  0.37471979  0.33572613  1
  H+  H165  1  0.55031178  0.91712556  0.77566090  1
  H+  H166  1  0.62758692  0.26985449  0.18580709  1
  H+  H167  1  0.77327784  0.89080342  0.67197353  1
  H+  H168  1  0.77914821  0.88209055  0.00500459  1
  H+  H169  1  0.22859154  0.36643622  -0.00774465  1
  H+  H170  1  0.38370090  0.52695532  0.17002804  1
  H+  H171  1  0.63299972  0.77950028  0.66026572  1
  H+  H172  1  0.11468248  0.88784173  0.98634657  1
  H+  H173  1  0.27135010  0.62685942  0.84476831  1
  H+  H174  1  0.23528536  0.61538280  -0.00728865  1
  H+  H175  1  0.86759330  0.46765259  -0.00075212  1
  H+  H176  1  0.36537910  0.63309083  0.33935519  1
  H+  H177  1  0.63834233  0.52380889  0.17692798  1
  H+  H178  1  0.12085610  0.63628954  0.00628338  1
  H+  H179  1  0.46445022  0.33582843  0.66076151  1
  H+  H180  1  0.62773146  0.10927566  0.50283488  1
  H+  H181  1  0.78587525  0.87694948  0.82528840  1
  H+  H182  1  0.91458390  0.83199097  0.26713021  1
  H+  H183  1  0.38054844  0.10534564  0.67450649  1
  H+  H184  1  0.36478873  0.89622204  0.34331453  1
  H+  H185  1  0.83292416  0.43376883  0.75150176  1
  H+  H186  1  0.62468860  0.61857882  0.49276404  1
  H+  H187  1  0.89398923  1.01446476  -0.00893464  1
  H+  H188  1  0.64884656  0.11941511  0.15870905  1
  H+  H189  1  0.83164348  0.50373532  0.52411015  1
  H+  H190  1  0.15822638  0.75853000  0.47145691  1
  H+  H191  1  0.11696430  0.88563127  0.17292550  1
  H+  H192  1  1.01564283  0.39727840  0.50361419  1
  H+  H193  1  0.08327218  0.41322662  0.10110815  1
  H+  H194  1  0.52124872  0.13486391  0.99264741  1
  H+  H195  1  0.52042179  0.88631686  0.34507438  1
  H+  H196  1  0.14622312  0.77916016  0.65855747  1
  H+  H197  1  0.73085303  0.62044856  0.32707552  1
  H+  H198  1  0.16997544  0.09874000  0.23434536  1
  H+  H199  1  0.87346070  0.27116973  0.31091991  1
  H+  H200  1  0.38784906  0.02820761  0.97418419  1
  H+  H201  1  0.22938275  0.12015100  -0.01055690  1
  H+  H202  1  0.14563242  0.38830115  0.38311854  1
  H+  H203  1  0.12113137  0.86677997  0.49462130  1
  H+  H204  1  0.60067230  0.36391286  0.67765239  1
  H+  H205  1  1.02559500  0.13647794  0.66949368  1
  H+  H206  1  0.13922674  0.14862747  0.49282056  1
  H+  H207  1  0.39967885  0.03900846  0.50388095  1
  H+  H208  1  0.11659509  0.49605886  0.17706739  1
  H+  H209  1  1.00621015  0.13342813  0.32354972  1
  H+  H210  1  0.73103698  0.36052336  -0.01419194  1
  H+  H211  1  0.02470692  0.89970099  0.33438600  1
  H+  H212  1  0.27448465  0.62749246  0.34085064  1
  H+  H213  1  0.72473614  0.61454857  0.17383640  1
  H+  H214  1  0.36718540  0.22659564  0.82823989  1
  H+  H215  1  0.72624810  0.12570900  0.86166348  1
  H+  H216  1  0.12662731  0.45933586  0.35686923  1
  H+  H217  1  0.74904454  0.64817000  0.64853607  1
  H+  H218  1  0.36487435  0.15476805  0.33824818  1
  H+  H219  1  0.39170393  -0.12804790  0.18524862  1
  H+  H220  1  0.59915416  0.41999383  0.10649592  1
  H+  H221  1  0.21701117  0.10725352  0.53017003  1
  H+  H222  1  0.12209932  0.13097119  0.16459949  1
  H+  H223  1  0.83698682  0.62837702  0.49907908  1
  H+  H224  1  0.39848965  0.37597878  0.00657435  1
  H+  H225  1  0.51183770  0.62957805  0.33597434  1
  H+  H226  1  0.63474503  0.77413828  0.17304506  1
  H+  H227  1  0.37943111  0.36402286  0.50624155  1
  H+  H228  1  0.63487713  0.04427620  0.84633386  1
  H+  H229  1  0.63215920  0.77093704  0.50278953  1
  H+  H230  1  0.11922201  0.91186307  0.33476619  1
  H+  H231  1  0.85556023  0.10749255  0.99671268  1
  H+  H232  1  0.12129489  0.22746299  0.15545785  1
  H+  H233  1  0.37694879  0.51207537  0.33474190  1
  H+  H234  1  0.49275815  0.36892347  0.17368855  1
  H+  H235  1  0.52271759  0.39636130  0.34527620  1
  H+  H236  1  0.37880917  0.59900623  0.84503801  1
  H+  H237  1  0.83129594  0.16507469  0.39556307  1
  H+  H238  1  0.52247057  0.63700351  0.16337808  1
  H+  H239  1  0.63451905  0.76770033  0.99586738  1
  H+  H240  1  0.88294087  0.86151899  0.50169513  1
  H+  H241  1  0.36814071  0.49518017  -0.00249975  1
  H+  H242  1  0.98734451  0.63451909  0.16462794  1
  H+  H243  1  0.72465834  0.62285309  -0.00878450  1
  H+  H244  1  0.89170466  0.33808620  0.66777357  1
  H+  H245  1  0.61613155  0.35732312  0.50327457  1
  H+  H246  1  0.14069955  1.02644982  0.65129812  1
  H+  H247  1  0.12041001  0.64865532  0.66619837  1
  H+  H248  1  0.63787748  1.02725192  0.50642576  1
  H+  H249  1  0.61667508  0.91122658  0.87368261  1
  H+  H250  1  0.63271509  0.86046547  0.32810611  1
  H+  H251  1  0.39259421  0.03487109  0.83172900  1
  H+  H252  1  0.28207971  0.39451035  0.34351659  1
  H+  H253  1  0.36564701  0.39232357  0.15311829  1
  H+  H254  1  1.11603658  0.97732424  0.99155885  1
  H+  H255  1  0.60840354  0.88051028  0.49952026  1
  H+  H256  1  0.45452105  0.86517439  0.86531842  1
  H+  H257  1  0.76299551  0.64401911  0.48027174  1
  H+  H258  1  0.23002502  0.11865542  0.84067513  1
  H+  H259  1  0.90831264  0.57233555  1.06412562  1
  H+  H260  1  0.36751222  0.63544893  0.66171240  1
  H+  H261  1  0.09721246  0.14610388  0.34282015  1
  H+  H262  1  0.51774987  0.88088216  0.49912117  1
  H+  H263  1  0.14170016  0.27473338  0.00077087  1
  H+  H264  1  0.03462403  0.89579197  0.83718071  1
  H+  H265  1  0.74475872  0.37188349  0.48763561  1
  H+  H266  1  0.11805913  0.26038343  0.30914499  1
  H+  H267  1  0.27521281  0.39431927  0.49347553  1
  H+  H268  1  0.58092266  0.93147662  0.58825620  1
  H+  H269  1  0.53906663  0.12694234  0.15524579  1
  H+  H270  1  0.39151290  0.35185302  0.83453682  1
  H+  H271  1  0.64178096  1.02493189  0.16269822  1
  H+  H272  1  0.36799813  0.72696426  -0.00679066  1
  H+  H273  1  0.62475827  0.48393920  1.00846291  1
  H+  H274  1  0.28250369  0.63511214  0.49141078  1
  H+  H275  1  0.48610603  0.37373638  0.01583882  1
  H+  H276  1  0.27068781  0.13054358  0.67537766  1
  H+  H277  1  0.38315853  0.77118809  0.50395409  1
  H+  H278  1  0.98663601  0.36910561  0.99298371  1
  H+  H279  1  0.36685600  0.14426037  0.99737148  1
  H+  H280  1  0.35571503  0.10061793  0.15836469  1
  H+  H281  1  0.62198029  0.23858769  0.35974690  1
  H+  H282  1  0.81800933  0.14879085  0.57926421  1
  H+  H283  1  0.27470815  0.38593637  0.15280174  1
  H+  H284  1  0.38919196  0.61850594  0.16974991  1
  H+  H285  1  0.60963990  0.38058515  0.17126772  1
  H+  H286  1  0.13852370  0.52654471  0.50838734  1
  H+  H287  1  0.87380450  0.74432095  0.67036698  1
  H+  H288  1  0.41586632  0.58497323  0.59570065  1
  H+  H289  1  0.33087330  0.16457036  0.76836140  1
  H+  H290  1  0.93887614  0.34920858  0.92906660  1
  H+  H291  1  0.87321736  0.35980420  0.30466287  1
  H+  H292  1  0.88716906  0.07625803  0.22614268  1
  H+  H293  1  0.50057841  0.03814464  0.22819053  1
  H+  H294  1  0.82713583  0.67549517  0.06688541  1
  H+  H295  1  0.17597341  0.58444853  0.59789246  1
  H+  H296  1  0.83936642  0.66031977  0.39241240  1
  H+  H297  1  0.12907418  0.68816419  0.37573191  1
  H+  H298  1  0.90777917  0.34011357  0.56234295  1
  H+  H299  1  0.35777326  0.21881462  0.67390532  1
  H+  H300  1  0.66555268  0.83396419  0.23216407  1
  H+  H301  1  0.60888660  0.97944750  0.65254929  1
  H+  H302  1  0.82265498  0.14525014  0.08271478  1
  H+  H303  1  0.58169752  0.67042005  0.06726921  1
  H+  H304  1  0.81254826  0.41700136  0.43360087  1
  H+  H305  1  0.61653445  0.15166399  0.83325684  1
  H+  H306  1  0.92277604  0.07859886  0.59381229  1
  H+  H307  1  0.15653716  0.54716488  0.27421920  1
  H+  H308  1  0.12250408  0.47983346  0.00979054  1
  H+  H309  1  0.11873980  0.89665649  0.66453451  1
  H+  H310  1  0.91842505  0.58825414  0.21646268  1
  H+  H311  1  0.81753608  0.21495065  0.74845025  1
  H+  H312  1  0.34029674  0.66716483  0.43084964  1
  H+  H313  1  0.88572133  0.10900263  0.50697529  1
  H+  H314  1  0.52634197  0.15140185  0.82834812  1
  H+  H315  1  0.33836220  0.43528657  0.05590169  1
  H+  H316  1  0.34098627  0.40204268  0.75764750  1
  H+  H317  1  0.11178419  0.13213393  0.82482099  1
  H+  H318  1  0.82987981  0.91301325  0.43076566  1
  H+  H319  1  0.67749306  0.80986892  0.90106256  1
  H+  H320  1  0.98418055  0.61446526  1.01732330  1
  H+  H321  1  0.61558907  0.47153621  0.82531576  1
  H+  H322  1  0.44636148  0.63613309  0.94128724  1
  H+  H323  1  0.14394471  0.31899806  0.90219595  1
  H+  H324  1  0.86243961  0.64465053  0.15487734  1
  H+  H325  1  0.66987058  0.60454521  0.55048386  1
  H+  H326  1  0.50205865  0.96799931  0.77937633  1
  H+  H327  1  0.40401205  0.54810888  0.89261313  1
  H+  H328  1  0.58351310  0.16808303  0.74144724  1
  H+  H329  1  0.64674351  0.31785544  0.55623708  1
  H+  H330  1  0.64651780  0.86212156  0.98340468  1
  H+  H331  1  0.57125637  0.66930285  0.42728126  1
  H+  H332  1  0.78664475  0.40189403  0.83775033  1
  H+  H333  1  0.89680089  0.43307818  0.37386236  1
  H+  H334  1  0.90830781  0.59913364  0.91312787  1
  H+  H335  1  0.12056217  0.89108742  0.83609031  1
  H+  H336  1  0.33575909  0.92572724  0.40331439  1
  H+  H337  1  0.81046557  0.38866094  0.08412962  1
  H+  H338  1  0.11834955  0.34747528  0.29912855  1
  H+  H339  1  0.58720152  0.16522949  0.09136019  1
  H+  H340  1  0.22766615  0.87067584  0.83639266  1
  H+  H341  1  0.57594575  0.41928470  0.43507379  1
  H+  H342  1  0.58417385  0.91900884  0.40162154  1
  H+  H343  1  0.57880618  0.66368791  0.72786828  1
  H+  H344  1  0.83042120  0.91418615  0.09971620  1
  H+  H345  1  0.88076477  0.77133887  0.50215535  1
  H+  H346  1  0.56362587  0.36834304  0.74187316  1
  H+  H347  1  0.66192092  0.56272826  0.64170966  1
  H+  H348  1  0.33762477  0.91817137  0.76490974  1
  H+  H349  1  0.83620715  0.67661202  0.76612245  1
  H+  H350  1  0.17021182  0.58510606  0.93591223  1
  H+  H351  1  0.35244949  0.91865554  0.12371648  1
  H+  H352  1  0.41166014  0.32407503  0.59755954  1
  H+  H353  1  0.42174214  0.09546322  0.92040551  1
  H+  H354  1  0.88588391  0.86406564  0.17333066  1
  H+  H355  1  0.16647158  0.32466628  0.22016931  1
  H+  H356  1  0.66796970  0.82890473  0.56358521  1
  H+  H357  1  0.35434963  0.22481241  0.49622465  1
  H+  H358  1  0.98456182  0.86932588  0.98765586  1
  H+  H359  1  0.38701174  0.12229034  0.83216439  1
  H+  H360  1  0.43413036  0.09296914  0.27532262  1
  H+  H361  1  0.07804842  0.91798288  0.42784608  1
  H+  H362  1  0.82824002  0.17963716  0.74874379  1
  H+  H363  1  0.41991347  0.35887087  0.27928705  1
  H+  H364  1  0.87504462  0.56991939  0.57963489  1
  H+  H365  1  0.40683648  0.57486805  0.27192327  1
  H+  H366  1  0.35855848  0.88629490  0.49554094  1
  H+  H367  1  0.66508526  0.58251856  0.89567013  1
  H+  H368  1  0.37025535  0.23531769  0.00672963  1
  H+  H369  1  0.75686723  0.07972101  0.99982300  1
  H+  H370  1  0.09356163  0.42559380  0.76366204  1
  H+  H371  1  0.38615612  0.38639067  0.33983713  1
  H+  H372  1  0.33414746  0.42395882  0.43117794  1
  H+  H373  1  0.32135556  0.16626957  0.43811410  1
  H+  H374  1  0.18336785  0.84726935  0.60251044  1
  H+  H375  1  0.43624483  0.28499074  0.21070093  1
  H+  H376  1  0.17082331  0.33656311  0.57106257  1
  H+  H377  1  0.08222953  0.66632354  0.46189138  1
  H+  H378  1  0.17960306  0.84049206  0.23580542  1
  H+  H379  1  0.31089752  0.18426560  0.08567801  1
  H+  H380  1  0.08257950  0.16165200  0.73007700  1
  H+  H381  1  0.20854585  0.57644685  0.18612834  1
  H+  H382  1  0.08256480  0.41713806  0.44985919  1
  H+  H383  1  0.91950734  0.83733113  0.90032425  1
  O2-  O384  1  0.09082417  0.16382953  0.14346546  1
  O2-  O385  1  0.15151770  0.19393815  0.46216724  1
  O2-  O386  1  0.07636167  0.15627499  0.80788920  1
  O2-  O387  1  0.07860078  0.40568083  0.14665703  1
  O2-  O388  1  0.07853524  0.42604631  0.49468051  1
  O2-  O389  1  0.09295592  0.42804896  0.80879863  1
  O2-  O390  1  0.10084722  0.67564487  0.14495921  1
  O2-  O391  1  0.14352723  0.70159301  0.45220655  1
  O2-  O392  1  0.15400365  0.69966948  0.78879720  1
  O2-  O393  1  0.07769654  0.90867347  0.16714064  1
  O2-  O394  1  0.07629171  0.90444786  0.47195996  1
  O2-  O395  1  0.09677553  0.92945659  0.82858226  1
  O2-  O396  1  0.29502205  0.19967267  0.12522537  1
  O2-  O397  1  0.32710083  0.16384591  0.48277252  1
  O2-  O398  1  0.33293718  0.16368244  0.81402466  1
  O2-  O399  1  0.33609494  0.42284413  0.14007435  1
  O2-  O400  1  0.33572735  0.42410649  0.47841507  1
  O2-  O401  1  0.34384608  0.40045419  0.80255511  1
  O2-  O402  1  0.35431431  0.68741905  0.13325763  1
  O2-  O403  1  0.34289043  0.66906599  0.47663671  1
  O2-  O404  1  0.33475094  0.65536938  0.83638583  1
  O2-  O405  1  0.34509315  0.91355759  0.16745406  1
  O2-  O406  1  0.33175247  0.91949317  0.47967543  1
  O2-  O407  1  0.33769660  0.92686500  0.81082887  1
  O2-  O408  1  0.59558112  0.16609693  0.13592630  1
  O2-  O409  1  0.55496593  0.13662212  0.47419117  1
  O2-  O410  1  0.58814999  0.18262812  0.81480143  1
  O2-  O411  1  0.59174714  0.42039874  0.15143898  1
  O2-  O412  1  0.57286818  0.41770713  0.48093732  1
  O2-  O413  1  0.58809864  0.41002490  0.81324096  1
  O2-  O414  1  0.58260381  0.66849448  0.14768203  1
  O2-  O415  1  0.57484293  0.67115426  0.47292923  1
  O2-  O416  1  0.57327322  0.64716308  0.80481759  1
  O2-  O417  1  0.58822181  0.92794230  0.14874017  1
  O2-  O418  1  0.58038256  0.91529299  0.48991707  1
  O2-  O419  1  0.52676217  0.94119119  0.80441675  1
  O2-  O420  1  0.82494110  0.15109118  0.12839441  1
  O2-  O421  1  0.82696130  0.16576982  0.48617020  1
  O2-  O422  1  0.83792009  0.17468888  0.87425666  1
  O2-  O423  1  0.79975431  0.38463835  0.12816809  1
  O2-  O424  1  0.80800012  0.40799670  0.47825341  1
  O2-  O425  1  0.84747058  0.43537329  0.82230274  1
  O2-  O426  1  0.82572693  0.66979404  0.14192176  1
  O2-  O427  1  0.82575815  0.66769611  0.47299704  1
  O2-  O428  1  0.83498308  0.67458672  0.81146832  1
  O2-  O429  1  0.83016194  0.91752688  0.14524475  1
  O2-  O430  1  0.83185052  0.91333917  0.47618811  1
  O2-  O431  1  0.84352099  0.91575300  0.80827300  1
  O2-  O432  1  0.16405299  0.09237220  0.18800321  1
  O2-  O433  1  0.15475923  0.08020468  0.54041940  1
  O2-  O434  1  0.16968411  0.09067158  0.85642337  1
  O2-  O435  1  0.16843145  0.32545973  0.17372107  1
  O2-  O436  1  0.17338106  0.34509088  0.52603065  1
  O2-  O437  1  0.13058514  0.30728221  0.85851806  1
  O2-  O438  1  0.14887679  0.55609202  0.19686391  1
  O2-  O439  1  0.18038162  0.58821675  0.52118399  1
  O2-  O440  1  0.16693262  0.58731276  0.85862697  1
  O2-  O441  1  0.18206489  0.83467414  0.19126802  1
  O2-  O442  1  0.15092034  0.83195069  0.51472836  1
  O2-  O443  1  0.16784493  0.82883539  0.84837430  1
  O2-  O444  1  0.46422416  0.05637220  0.20793990  1
  O2-  O445  1  0.42763788  0.09773893  0.52035687  1
  O2-  O446  1  0.42277916  0.09531656  0.84649205  1
  O2-  O447  1  0.43318396  0.33286354  0.19247276  1
  O2-  O448  1  0.40810140  0.33223916  0.52173525  1
  O2-  O449  1  0.41792669  0.31932166  0.85287360  1
  O2-  O450  1  0.41448752  0.58578608  0.18792460  1
  O2-  O451  1  0.41679847  0.58076234  0.52090537  1
  O2-  O452  1  0.41106624  0.56590265  0.84985144  1
  O2-  O453  1  0.43047085  0.84563113  0.20019962  1
  O2-  O454  1  0.40946848  0.83123859  0.52006617  1
  O2-  O455  1  0.39649751  0.82594133  0.88213464  1
  O2-  O456  1  0.67856668  0.08831093  0.17467719  1
  O2-  O457  1  0.66617701  0.08828852  0.51872918  1
  O2-  O458  1  0.66309290  0.10246187  0.86283624  1
  O2-  O459  1  0.61440586  0.30745992  0.21034926  1
  O2-  O460  1  0.64258750  0.32076278  0.51197466  1
  O2-  O461  1  0.68280639  0.34453480  0.85484845  1
  O2-  O462  1  0.66526289  0.58483782  0.19117871  1
  O2-  O463  1  0.65805296  0.59042939  0.50671898  1
  O2-  O464  1  0.66757889  0.57932520  0.85034777  1
  O2-  O465  1  0.66752803  0.83538591  0.18666862  1
  O2-  O466  1  0.66527718  0.83140802  0.51830971  1
  O2-  O467  1  0.67922082  0.80486418  0.85529766  1
  O2-  O468  1  0.88710330  0.07553165  0.17972248  1
  O2-  O469  1  0.91579331  0.07950153  0.52220181  1
  O2-  O470  1  0.91825027  0.08053691  0.85488925  1
  O2-  O471  1  0.91529629  0.32544659  0.17072396  1
  O2-  O472  1  0.90633159  0.34050943  0.51724554  1
  O2-  O473  1  0.93090097  0.34910498  0.85021316  1
  O2-  O474  1  0.92491614  0.60440108  0.17259097  1
  O2-  O475  1  0.83333897  0.55265273  0.54601185  1
  O2-  O476  1  0.91230344  0.59382307  0.86938061  1
  O2-  O477  1  0.91068444  0.82987467  0.19001362  1
  O2-  O478  1  0.91332765  0.83164592  0.51781574  1
  O2-  O479  1  0.92275321  0.83912413  0.85471534  1
  O2-  O480  1  0.16937949  0.10143503  0.30619165  1
  O2-  O481  1  0.17645587  0.09036823  0.64108441  1
  O2-  O482  1  0.16761914  0.09008737  0.97671591  1
  O2-  O483  1  0.15436105  0.32199206  0.29146059  1
  O2-  O484  1  0.16685506  0.33067038  0.64887803  1
  O2-  O485  1  0.16557552  0.33341618  0.98364184  1
  O2-  O486  1  0.16388979  0.55332126  0.31938903  1
  O2-  O487  1  0.17892091  0.58428892  0.64344510  1
  O2-  O488  1  0.17296686  0.58455775  0.98152262  1
  O2-  O489  1  0.17866050  0.86021823  0.31711052  1
  O2-  O490  1  0.17930916  0.84256550  0.64694555  1
  O2-  O491  1  0.17017159  0.82878653  0.96513878  1
  O2-  O492  1  0.42026987  0.10023840  0.31791141  1
  O2-  O493  1  0.40823251  0.07059095  0.66447813  1
  O2-  O494  1  0.42075723  0.09076970  0.96635322  1
  O2-  O495  1  0.41846378  0.35428518  0.32379207  1
  O2-  O496  1  0.40772379  0.32145514  0.64318646  1
  O2-  O497  1  0.42265848  0.33899670  1.01682510  1
  O2-  O498  1  0.40860301  0.57734183  0.31688620  1
  O2-  O499  1  0.41401730  0.58790314  0.64167196  1
  O2-  O500  1  0.42812644  0.60518260  0.97980742  1
  O2-  O501  1  0.41362035  0.83756123  0.32013369  1
  O2-  O502  1  0.40278045  0.82429453  0.64528332  1
  O2-  O503  1  0.41229281  0.83168159  0.94833224  1
  O2-  O504  1  0.68107160  0.07742489  0.30249809  1
  O2-  O505  1  0.66336169  0.06577443  0.68430440  1
  O2-  O506  1  0.64469107  -0.01860165  0.99119006  1
  O2-  O507  1  0.68058592  0.34168774  0.32660121  1
  O2-  O508  1  0.69676339  0.30222591  0.63180747  1
  O2-  O509  1  0.66867079  0.33537436  0.97405619  1
  O2-  O510  1  0.66904509  0.58930819  0.31532019  1
  O2-  O511  1  0.68941423  0.62301384  0.63007020  1
  O2-  O512  1  0.66477813  0.58903970  0.97538658  1
  O2-  O513  1  0.66231729  0.83052846  0.31094220  1
  O2-  O514  1  0.66830054  0.83797956  0.64233770  1
  O2-  O515  1  0.67174608  0.82582137  0.97517165  1
  O2-  O516  1  0.89685918  0.07310985  0.29896270  1
  O2-  O517  1  0.92049007  0.08425515  0.63996476  1
  O2-  O518  1  0.92470438  0.07562522  0.97696777  1
  O2-  O519  1  0.89826894  0.32541806  0.28780891  1
  O2-  O520  1  0.92332232  0.32232923  0.63970187  1
  O2-  O521  1  0.92914085  0.34045842  0.97353724  1
  O2-  O522  1  0.91653864  0.57688704  0.29847397  1
  O2-  O523  1  0.92966621  0.60159138  0.65429907  1
  O2-  O524  1  0.91947844  0.58320925  1.02050181  1
  O2-  O525  1  0.91875254  0.83466999  0.31267670  1
  O2-  O526  1  0.91846641  0.83996698  0.64124177  1
  O2-  O527  1  0.92043883  0.84016374  0.97692352  1
  O2-  O528  1  0.08717888  0.16350148  0.02647248  1
  O2-  O529  1  0.06340807  0.17520939  0.33996950  1
  O2-  O530  1  0.08597164  0.16635191  0.68459096  1
  O2-  O531  1  0.09051820  0.42012871  0.02622776  1
  O2-  O532  1  0.10077457  0.40331791  0.37905436  1
  O2-  O533  1  0.09517712  0.42079269  0.68253004  1
  O2-  O534  1  0.09235639  0.66891576  0.02088427  1
  O2-  O535  1  0.10580390  0.66796601  0.33385668  1
  O2-  O536  1  0.09635771  0.68179280  0.68471538  1
  O2-  O537  1  0.08268619  0.91528233  0.00192231  1
  O2-  O538  1  0.08442378  0.93655504  0.35031961  1
  O2-  O539  1  0.09099757  0.93091541  0.67308659  1
  O2-  O540  1  0.33364149  0.17113687  0.01210153  1
  O2-  O541  1  0.33000590  0.18014141  0.35296284  1
  O2-  O542  1  0.33022132  0.16072974  0.69291706  1
  O2-  O543  1  0.33670339  0.43377372  0.01090177  1
  O2-  O544  1  0.33936060  0.42925292  0.36094103  1
  O2-  O545  1  0.33425460  0.40974070  0.67820200  1
  O2-  O546  1  0.34298073  0.67221399  0.01566363  1
  O2-  O547  1  0.33478325  0.66445087  0.35426119  1
  O2-  O548  1  0.33256761  0.66393642  0.67615301  1
  O2-  O549  1  0.33061508  0.91329761  -0.01051846  1
  O2-  O550  1  0.33525093  0.92756571  0.35767210  1
  O2-  O551  1  0.33909905  0.91476632  0.69274297  1
  O2-  O552  1  0.58223413  0.16340574  0.00800388  1
  O2-  O553  1  0.58790575  0.17753027  0.37314003  1
  O2-  O554  1  0.58049706  0.15499006  0.69655342  1
  O2-  O555  1  0.59929460  0.42586370  0.02702287  1
  O2-  O556  1  0.58366775  0.42296276  0.36008096  1
  O2-  O557  1  0.54822567  0.33893471  0.70135936  1
  O2-  O558  1  0.58233890  0.67191023  0.02193433  1
  O2-  O559  1  0.57325079  0.66427729  0.35067448  1
  O2-  O560  1  0.58031025  0.67285330  0.68276912  1
  O2-  O561  1  0.57975598  0.99013788  -0.01350909  1
  O2-  O562  1  0.58226443  0.91341235  0.35686644  1
  O2-  O563  1  0.57505485  0.91978640  0.63213215  1
  O2-  O564  1  0.81485031  0.12893150  0.00636388  1
  O2-  O565  1  0.83407944  0.16481747  0.35079943  1
  O2-  O566  1  0.82642870  0.15584557  0.62358247  1
  O2-  O567  1  0.83272742  0.40460941  0.00041375  1
  O2-  O568  1  0.85227397  0.43135291  0.34782160  1
  O2-  O569  1  0.81714719  0.43583226  0.70677593  1
  O2-  O570  1  0.83007558  0.67559838  0.02086629  1
  O2-  O571  1  0.84346177  0.66562762  0.34732465  1
  O2-  O572  1  0.84043388  0.68265773  0.68522241  1
  O2-  O573  1  0.83799706  0.91432719  0.02227473  1
  O2-  O574  1  0.82845150  0.91198269  0.35156672  1
  O2-  O575  1  0.83455778  0.92014855  0.68484572  1
