# generated using pymatgen
data_H2O
_symmetry_space_group_name_H-M   'P 1'
_cell_length_a   17.99977530
_cell_length_b   17.99866807
_cell_length_c   22.00394858
_cell_angle_alpha   90.00021849
_cell_angle_beta   90.02078000
_cell_angle_gamma   119.99379119
_symmetry_Int_Tables_number   1
_chemical_formula_structural   H2O
_chemical_formula_sum   'H384 O192'
_cell_volume   6173.98875423
_cell_formula_units_Z   192
loop_
 _symmetry_equiv_pos_site_id
 _symmetry_equiv_pos_as_xyz
  1  'x, y, z'
loop_
 _atom_type_symbol
 _atom_type_oxidation_number
  H+  1.0
  O2-  -2.0
loop_
 _atom_site_type_symbol
 _atom_site_label
 _atom_site_symmetry_multiplicity
 _atom_site_fract_x
 _atom_site_fract_y
 _atom_site_fract_z
 _atom_site_occupancy
  H+  H0  1  0.41426168  0.32622107  0.26853922  1
  H+  H1  1  0.59874120  0.93830373  0.67513287  1
  H+  H2  1  0.48383352  1.03010440  0.80531076  1
  H+  H3  1  0.90529398  0.03990314  0.49122493  1
  H+  H4  1  0.41001934  0.07755913  0.55909474  1
  H+  H5  1  0.11317818  0.71731192  0.02615352  1
  H+  H6  1  0.40998628  0.79048294  0.84176149  1
  H+  H7  1  0.82690131  0.32644043  0.51736772  1
  H+  H8  1  0.38352887  0.51302732  0.50185777  1
  H+  H9  1  0.72498660  0.61504384  0.31962158  1
  H+  H10  1  0.97918807  0.11092822  0.32523489  1
  H+  H11  1  -0.01618343  0.37212508  0.65986180  1
  H+  H12  1  0.19902284  0.56660883  0.86085871  1
  H+  H13  1  0.77781214  0.13509825  0.33914199  1
  H+  H14  1  0.75904707  0.16270015  0.67092390  1
  H+  H15  1  0.48967013  0.65942849  0.33622060  1
  H+  H16  1  0.38134201  0.52919929  0.83883452  1
  H+  H17  1  0.36304505  0.97273843  0.48767249  1
  H+  H18  1  0.36913803  0.59944722  0.18861975  1
  H+  H19  1  0.98716560  0.88618826  0.18155327  1
  H+  H20  1  0.91918115  0.10909324  0.65294320  1
  H+  H21  1  0.68397950  0.82416702  0.90049470  1
  H+  H22  1  0.38627878  0.12562693  0.65681370  1
  H+  H23  1  0.90632695  0.87974837  0.99991955  1
  H+  H24  1  0.88847306  1.02335400  0.32593214  1
  H+  H25  1  0.89256764  0.21738775  0.98317428  1
  H+  H26  1  0.38384567  0.48147742  0.15423232  1
  H+  H27  1  0.63104325  0.01954965  0.50684252  1
  H+  H28  1  0.10286797  0.11513332  0.15836505  1
  H+  H29  1  0.64475677  0.47954104  0.82486314  1
  H+  H30  1  0.97001338  0.60403957  0.50186662  1
  H+  H31  1  0.06327915  0.40699862  0.49368771  1
  H+  H32  1  0.62053281  0.71400888  0.36446150  1
  H+  H33  1  0.62999134  0.43238108  -0.01787108  1
  H+  H34  1  0.61336568  0.11296334  0.83348070  1
  H+  H35  1  0.65122224  0.77781817  1.01053570  1
  H+  H36  1  0.13059948  0.27025441  0.99446534  1
  H+  H37  1  0.40386192  0.90290261  0.99335184  1
  H+  H38  1  0.88285770  0.73873327  0.00836024  1
  H+  H39  1  0.14116192  0.85740022  0.33304087  1
  H+  H40  1  0.35445123  0.36313063  0.67938462  1
  H+  H41  1  0.35126319  0.52375597  0.23342627  1
  H+  H42  1  0.89017719  0.51057343  0.83928932  1
  H+  H43  1  0.04259586  0.13646512  0.66831034  1
  H+  H44  1  0.38438613  0.98381942  0.16072863  1
  H+  H45  1  0.39601900  0.28411942  0.99893197  1
  H+  H46  1  0.74911071  0.61370465  0.83327563  1
  H+  H47  1  0.38448964  0.02789977  0.84031377  1
  H+  H48  1  0.61466656  0.25404110  0.50587720  1
  H+  H49  1  0.46996889  0.11551912  0.32917916  1
  H+  H50  1  0.13895360  0.86040643  0.50251254  1
  H+  H51  1  0.16423512  0.80964191  0.59317149  1
  H+  H52  1  0.55806449  0.18033681  0.41699741  1
  H+  H53  1  0.44060723  0.64295984  0.27411945  1
  H+  H54  1  0.36243972  0.71168766  0.66295127  1
  H+  H55  1  0.14195479  0.27376378  0.83859074  1
  H+  H56  1  0.47392828  0.61220188  0.84969219  1
  H+  H57  1  0.91908519  0.83548208  0.26913873  1
  H+  H58  1  0.86945302  0.87575046  0.49451500  1
  H+  H59  1  0.87713756  0.63745335  0.66579513  1
  H+  H60  1  0.77157448  0.39011812  0.33773503  1
  H+  H61  1  0.72049375  0.36106549  0.66249465  1
  H+  H62  1  0.85527767  0.38606983  0.15744143  1
  H+  H63  1  0.39395131  0.59830832  0.65795060  1
  H+  H64  1  0.32538564  0.73738043  0.35954304  1
  H+  H65  1  0.03649495  0.90483127  0.02406483  1
  H+  H66  1  0.72359848  0.84739988  0.47881749  1
  H+  H67  1  0.35265337  0.21695246  0.49230917  1
  H+  H68  1  0.09598304  0.76949215  0.86082894  1
  H+  H69  1  0.42786869  0.92839497  0.82029652  1
  H+  H70  1  0.14139007  0.87871540  0.18598843  1
  H+  H71  1  0.03767239  0.14646720  0.48830659  1
  H+  H72  1  0.89334206  0.87251916  0.17358054  1
  H+  H73  1  0.41656835  0.82250874  0.99446833  1
  H+  H74  1  0.53723695  0.41779005  -0.01168716  1
  H+  H75  1  0.37308415  0.84888502  0.65810446  1
  H+  H76  1  -0.01038074  0.12317490  0.83072345  1
  H+  H77  1  0.26373839  0.10705993  0.15902600  1
  H+  H78  1  0.13143121  0.78518588  0.17960755  1
  H+  H79  1  0.22714359  0.85851176  0.50057650  1
  H+  H80  1  0.38689422  0.60507280  0.50720455  1
  H+  H81  1  0.89117684  0.02864774  0.83543424  1
  H+  H82  1  0.62623440  0.85360064  0.33068663  1
  H+  H83  1  0.87524511  0.52072319  0.33234948  1
  H+  H84  1  0.84105898  0.15940880  0.65676776  1
  H+  H85  1  0.36140044  0.71967720  0.00751495  1
  H+  H86  1  0.35584044  0.12778596  0.49040684  1
  H+  H87  1  0.01768994  0.12231466  0.16072636  1
  H+  H88  1  0.36165736  0.11957954  0.16194729  1
  H+  H89  1  0.28280768  0.89762543  0.01962692  1
  H+  H90  1  0.20612635  0.87081860  0.81574703  1
  H+  H91  1  0.26791690  0.12786669  0.33672244  1
  H+  H92  1  0.11231273  0.22137718  0.33497544  1
  H+  H93  1  0.65061133  0.85820434  0.84458721  1
  H+  H94  1  0.63584458  0.38021886  0.82468339  1
  H+  H95  1  0.10802962  0.34130028  0.17918918  1
  H+  H96  1  0.86722278  0.64290563  0.16354401  1
  H+  H97  1  0.15642855  0.36748035  0.50418652  1
  H+  H98  1  -0.02898940  0.34452289  0.83768246  1
  H+  H99  1  0.54307540  0.92583528  0.00262599  1
  H+  H100  1  0.63397414  0.60824807  0.32489332  1
  H+  H101  1  0.36411133  0.71493666  0.15578015  1
  H+  H102  1  0.86596978  0.12951507  0.15056356  1
  H+  H103  1  0.09475124  0.45142986  0.82823389  1
  H+  H104  1  0.11892239  0.25769117  0.18182934  1
  H+  H105  1  0.38565337  0.36740634  0.84630073  1
  H+  H106  1  0.36519144  0.43989340  0.05896062  1
  H+  H107  1  0.13006839  1.01294194  0.32137253  1
  H+  H108  1  0.10685728  0.68601867  0.81909134  1
  H+  H109  1  0.82783102  0.66266837  0.43341006  1
  H+  H110  1  0.15720987  0.83352021  0.97491894  1
  H+  H111  1  0.73230754  0.35789254  0.83608363  1
  H+  H112  1  0.63139627  0.75157674  0.68980050  1
  H+  H113  1  0.88313444  0.60768144  0.50266095  1
  H+  H114  1  0.73103058  0.62959869  0.16500419  1
  H+  H115  1  0.54315739  0.88873756  0.83870909  1
  H+  H116  1  0.14836824  0.12187333  0.65749299  1
  H+  H117  1  0.84638126  0.92703133  0.77160515  1
  H+  H118  1  0.11558863  0.37938625  0.67050468  1
  H+  H119  1  0.37732901  1.03363380  0.66382139  1
  H+  H120  1  0.65240067  0.06540381  1.01245375  1
  H+  H121  1  0.77785691  0.88450210  0.68399382  1
  H+  H122  1  0.12910547  0.03843302  0.84155471  1
  H+  H123  1  0.47432848  0.11210210  0.50042654  1
  H+  H124  1  0.85723478  0.63414768  0.34127321  1
  H+  H125  1  0.38152227  0.64900836  0.82409475  1
  H+  H126  1  0.86539492  0.13320945  0.34384457  1
  H+  H127  1  0.61658330  0.47501983  0.32284071  1
  H+  H128  1  0.84072588  0.45917347  0.49663294  1
  H+  H129  1  0.61570315  0.39542677  0.16925947  1
  H+  H130  1  0.24148409  0.57318814  0.02743899  1
  H+  H131  1  0.40395098  0.53413265  0.99520044  1
  H+  H132  1  0.13775934  0.86870651  1.03310191  1
  H+  H133  1  0.41804365  0.08463177  0.23704226  1
  H+  H134  1  0.33868500  0.13059941  0.82776711  1
  H+  H135  1  0.59923484  0.45842132  0.51284582  1
  H+  H136  1  0.14574728  0.63335133  0.17950139  1
  H+  H137  1  0.74727702  0.37279866  0.49440023  1
  H+  H138  1  0.61847808  0.63715737  0.12383048  1
  H+  H139  1  -0.00963335  0.88272905  0.84330497  1
  H+  H140  1  0.10857825  0.98635606  0.66992061  1
  H+  H141  1  0.51212301  0.61452154  0.50258838  1
  H+  H142  1  0.27069928  0.38051142  0.33767944  1
  H+  H143  1  0.68323872  0.73214367  0.96852369  1
  H+  H144  1  0.39136468  0.76986627  0.50225663  1
  H+  H145  1  0.60885993  0.88538285  0.47556776  1
  H+  H146  1  0.72897501  0.37649591  -0.00769295  1
  H+  H147  1  0.36559152  0.88506504  0.49298913  1
  H+  H148  1  0.21907649  0.12680919  0.84186232  1
  H+  H149  1  0.48023786  0.12075333  0.17759087  1
  H+  H150  1  0.86987807  0.25993269  0.15899610  1
  H+  H151  1  0.37259411  0.68340579  0.34088144  1
  H+  H152  1  0.13978835  0.59943806  0.65794472  1
  H+  H153  1  0.87375647  0.73451840  0.16042509  1
  H+  H154  1  0.48311172  0.36593557  0.17731322  1
  H+  H155  1  0.10566111  0.71932251  0.33756296  1
  H+  H156  1  0.83929818  0.21047525  0.50228448  1
  H+  H157  1  0.11451849  0.48135332  0.34044080  1
  H+  H158  1  0.97605011  0.60097803  0.65278964  1
  H+  H159  1  0.86185463  0.28730057  0.99173596  1
  H+  H160  1  0.61987917  0.23502079  0.16493042  1
  H+  H161  1  0.77295402  0.63264055  0.49602245  1
  H+  H162  1  0.57365562  0.16973290  -0.08944842  1
  H+  H163  1  0.86267804  0.37362403  0.82382033  1
  H+  H164  1  0.64991529  0.61343258  0.67065930  1
  H+  H165  1  0.92405980  0.57825887  0.89501919  1
  H+  H166  1  0.22045007  0.83865060  0.65296064  1
  H+  H167  1  0.11319750  0.63618404  0.49221537  1
  H+  H168  1  0.90215058  0.88081400  0.85071374  1
  H+  H169  1  0.36850341  0.94512651  0.73371532  1
  H+  H170  1  1.00497482  0.36921738  0.15598112  1
  H+  H171  1  0.88641245  0.01981518  0.17176154  1
  H+  H172  1  0.14905100  0.27433589  0.50303327  1
  H+  H173  1  0.89390683  0.62601531  -0.00956460  1
  H+  H174  1  0.61876725  0.56143221  -0.03106623  1
  H+  H175  1  0.97882097  0.28596034  0.27896999  1
  H+  H176  1  0.10776978  0.62475325  0.02147465  1
  H+  H177  1  0.00839641  0.36074426  0.00490516  1
  H+  H178  1  0.63012496  0.06080404  0.65468803  1
  H+  H179  1  0.61717931  0.98303359  0.15927708  1
  H+  H180  1  0.89186499  0.12061800  0.50183851  1
  H+  H181  1  0.56179772  0.73474797  0.10605416  1
  H+  H182  1  0.08017385  0.16018169  0.06945528  1
  H+  H183  1  0.38372538  0.89305837  0.15286785  1
  H+  H184  1  0.52951494  0.38580130  0.33036243  1
  H+  H185  1  0.64061118  0.36711805  0.31739745  1
  H+  H186  1  0.58813434  0.61543372  1.00489416  1
  H+  H187  1  0.85623888  0.47736332  0.67256682  1
  H+  H188  1  0.73801669  0.11252957  0.84306779  1
  H+  H189  1  0.95390659  0.38539789  0.46613726  1
  H+  H190  1  0.26190336  0.97044526  0.82434373  1
  H+  H191  1  0.60924838  0.15184236  0.97168338  1
  H+  H192  1  0.63351576  0.92990359  -0.00108053  1
  H+  H193  1  0.28251058  0.64218212  0.49784692  1
  H+  H194  1  0.22010598  0.61351186  0.33145747  1
  H+  H195  1  0.61584817  0.38812550  0.67605283  1
  H+  H196  1  0.15790200  0.53688355  0.50235570  1
  H+  H197  1  0.12269145  0.13843856  0.48912975  1
  H+  H198  1  0.23113363  0.35855531  0.66026569  1
  H+  H199  1  0.65279709  0.02311821  0.32007541  1
  H+  H200  1  1.01907553  0.89675562  0.66907653  1
  H+  H201  1  0.85582217  0.97821151  0.00448895  1
  H+  H202  1  0.63652113  0.59994735  0.51503672  1
  H+  H203  1  0.78522595  0.89595892  0.83103853  1
  H+  H204  1  0.39582577  0.27481305  0.17214662  1
  H+  H205  1  0.37762894  0.27565471  0.84396690  1
  H+  H206  1  0.36052929  0.38383457  0.33742910  1
  H+  H207  1  0.12987136  0.10212684  0.31519217  1
  H+  H208  1  0.86658411  0.49808652  1.00447138  1
  H+  H209  1  0.88539958  0.52745670  0.17783284  1
  H+  H210  1  0.60463468  0.15571021  0.67558017  1
  H+  H211  1  0.30445916  0.66936073  0.81422936  1
  H+  H212  1  0.38968349  0.87420731  0.31929422  1
  H+  H213  1  0.15240682  0.05199071  0.22761116  1
  H+  H214  1  0.02172453  0.64348588  0.17310681  1
  H+  H215  1  0.52992966  0.90093544  0.32706233  1
  H+  H216  1  0.78428975  0.87709509  1.00095259  1
  H+  H217  1  0.86975848  0.22442644  0.82488195  1
  H+  H218  1  0.62740101  0.27704977  0.66968247  1
  H+  H219  1  0.60158209  0.70335693  0.49400426  1
  H+  H220  1  0.25792358  0.83236446  0.34531082  1
  H+  H221  1  0.11311043  0.49685772  1.00836452  1
  H+  H222  1  0.89073750  0.12344031  0.82818899  1
  H+  H223  1  0.59532031  0.13629637  0.48588757  1
  H+  H224  1  0.51291027  0.14555024  0.68218022  1
  H+  H225  1  0.02656628  0.88487646  0.49111605  1
  H+  H226  1  0.12522935  0.92953847  0.81010293  1
  H+  H227  1  0.59311993  0.85121698  0.68769604  1
  H+  H228  1  0.28164335  0.38704049  0.48773159  1
  H+  H229  1  0.72515904  0.36427929  0.17288098  1
  H+  H230  1  0.05297611  0.76655930  0.85646313  1
  H+  H231  1  0.85526180  0.67920228  0.72425766  1
  H+  H232  1  0.37585200  0.09499456  0.32311346  1
  H+  H233  1  0.83067109  0.92784476  0.52665528  1
  H+  H234  1  0.52066989  0.61805704  0.68078819  1
  H+  H235  1  0.10229956  0.37165793  1.00443186  1
  H+  H236  1  0.12468906  0.23164113  0.67265702  1
  H+  H237  1  0.48254429  0.85782235  0.16404129  1
  H+  H238  1  0.10880371  0.13797735  0.83055327  1
  H+  H239  1  0.86028528  0.72467298  0.34068333  1
  H+  H240  1  0.22696066  0.10902411  0.50021352  1
  H+  H241  1  0.61922440  0.71199041  0.84914813  1
  H+  H242  1  0.86397572  0.39378998  0.67182621  1
  H+  H243  1  0.58882900  0.63460425  0.89587115  1
  H+  H244  1  0.46074777  0.84783301  0.66344632  1
  H+  H245  1  0.96627761  0.60946216  0.32980496  1
  H+  H246  1  0.62041704  0.77711386  0.29164292  1
  H+  H247  1  -0.04678152  0.34333048  0.46305442  1
  H+  H248  1  0.66673891  0.60456655  0.22073746  1
  H+  H249  1  0.87242088  0.41379394  0.00674715  1
  H+  H250  1  0.11235572  0.70280543  0.66621261  1
  H+  H251  1  0.38343708  1.03099920  -0.00238586  1
  H+  H252  1  0.33264484  0.71029187  0.98010024  1
  H+  H253  1  0.62497710  0.48086390  0.68101950  1
  H+  H254  1  0.37135122  0.45929379  0.66991502  1
  H+  H255  1  0.88867561  0.86258778  0.32890285  1
  H+  H256  1  0.86943167  0.96957576  0.67044453  1
  H+  H257  1  0.27757209  0.92856559  0.72548705  1
  H+  H258  1  0.64772451  0.11957397  0.16953539  1
  H+  H259  1  0.13950696  0.11962536  0.99961581  1
  H+  H260  1  0.12603136  0.99166016  0.01966483  1
  H+  H261  1  0.87598788  0.75684036  0.82390679  1
  H+  H262  1  0.89874602  0.25686999  0.32106047  1
  H+  H263  1  0.39615228  0.41175238  -0.00054465  1
  H+  H264  1  0.61304762  0.48295272  0.16445908  1
  H+  H265  1  0.01983726  0.13712185  0.01133550  1
  H+  H266  1  0.37534404  0.39049532  0.15240138  1
  H+  H267  1  0.11479756  0.97539277  0.49260995  1
  H+  H268  1  0.59345400  0.36794247  0.50835702  1
  H+  H269  1  0.35992732  0.13308476  0.01199679  1
  H+  H270  1  0.83527984  0.41039071  0.76573322  1
  H+  H271  1  0.27581884  0.39328843  0.82751820  1
  H+  H272  1  0.34855088  0.58848710  0.01647229  1
  H+  H273  1  0.97813224  0.61621758  0.99387533  1
  H+  H274  1  0.77099562  0.88233160  0.34175072  1
  H+  H275  1  0.88449401  0.85518912  0.65494357  1
  H+  H276  1  0.11875411  0.58042406  0.84587246  1
  H+  H277  1  0.73262403  0.11228984  0.15887594  1
  H+  H278  1  0.13596111  0.35925486  0.33316850  1
  H+  H279  1  0.10984118  0.72270585  0.49012897  1
  H+  H280  1  0.65623460  0.59816313  0.84489498  1
  H+  H281  1  0.52050138  0.88453222  0.48701454  1
  H+  H282  1  0.65010503  0.88379548  0.17328553  1
  H+  H283  1  0.77883066  0.89276543  0.15913567  1
  H+  H284  1  0.74169750  0.61781134  0.66469180  1
  H+  H285  1  0.88474894  0.76597344  0.49965915  1
  H+  H286  1  0.11975888  0.47028465  0.67072035  1
  H+  H287  1  0.46634190  0.12052889  -0.02620536  1
  H+  H288  1  0.10911674  0.42998428  0.43014760  1
  H+  H289  1  0.90950808  0.09915207  0.93955079  1
  H+  H290  1  0.83274563  0.42869874  0.10192935  1
  H+  H291  1  0.94158688  0.85279462  0.94279575  1
  H+  H292  1  0.59310701  0.92714232  0.09936803  1
  H+  H293  1  0.26789533  0.63510043  0.16767333  1
  H+  H294  1  0.36449915  0.06066117  0.90320308  1
  H+  H295  1  0.07780686  0.63854987  0.72480383  1
  H+  H296  1  0.02544482  0.88275245  0.34014027  1
  H+  H297  1  0.23248785  0.11668880  0.65291148  1
  H+  H298  1  0.07703495  0.66668868  0.11284712  1
  H+  H299  1  0.34891633  0.66401358  0.72533839  1
  H+  H300  1  0.32505290  0.17571737  0.76915867  1
  H+  H301  1  0.23786226  0.87420201  0.90928851  1
  H+  H302  1  0.33653954  0.41844322  0.42523388  1
  H+  H303  1  0.89971034  0.31274582  0.22137020  1
  H+  H304  1  0.57639011  0.15373716  0.78474411  1
  H+  H305  1  0.66416151  0.10341274  0.59001887  1
  H+  H306  1  0.67614137  0.58039097  0.57350504  1
  H+  H307  1  0.15080449  0.56193287  0.95356063  1
  H+  H308  1  0.33648905  0.66844303  0.43651990  1
  H+  H309  1  0.43492925  0.85490769  0.90069643  1
  H+  H310  1  0.91491586  0.08108353  0.23113160  1
  H+  H311  1  0.16787313  0.08385544  0.56006894  1
  H+  H312  1  0.07043603  0.94203104  0.76121794  1
  H+  H313  1  0.26872918  0.13595228  0.01447337  1
  H+  H314  1  0.45639760  0.34094685  0.51730350  1
  H+  H315  1  0.59412691  0.91056994  0.77738536  1
  H+  H316  1  0.35538725  0.93490754  0.07195624  1
  H+  H317  1  0.40712202  0.59926859  0.94149821  1
  H+  H318  1  0.67652900  0.34466425  0.89577484  1
  H+  H319  1  0.42247136  0.83870858  0.22082969  1
  H+  H320  1  0.91331359  0.57623384  0.59459480  1
  H+  H321  1  0.68507002  0.08443741  0.26240170  1
  H+  H322  1  0.30914494  0.60923636  0.08690930  1
  H+  H323  1  0.88930672  0.29190894  0.66769379  1
  H+  H324  1  0.65518514  0.02163723  0.84954863  1
  H+  H325  1  0.57573478  0.63939676  0.41261357  1
  H+  H326  1  0.02968959  0.38742569  0.34290669  1
  H+  H327  1  0.91036804  0.30634152  0.89764396  1
  H+  H328  1  0.52193945  0.23051747  0.37645152  1
  H+  H329  1  0.60306452  0.41863965  0.76021524  1
  H+  H330  1  0.08311629  0.16577324  0.76601486  1
  H+  H331  1  0.66572069  0.83583886  0.53357377  1
  H+  H332  1  0.65185631  0.31686856  0.56641259  1
  H+  H333  1  0.83834079  0.91845594  0.09905586  1
  H+  H334  1  0.12890356  0.60908581  0.32822960  1
  H+  H335  1  0.17423636  0.32963718  0.59927328  1
  H+  H336  1  0.91649860  0.82745450  0.55912739  1
  H+  H337  1  0.37449820  0.34626534  0.50091630  1
  H+  H338  1  0.63323936  0.27683286  0.32791218  1
  H+  H339  1  0.41848875  0.82996406  0.56093178  1
  H+  H340  1  0.08881401  0.16128506  0.39277530  1
  H+  H341  1  0.83482959  0.16583251  0.76340012  1
  H+  H342  1  0.17173601  0.09349382  0.93996827  1
  H+  H343  1  0.93277925  0.07833695  0.58890003  1
  H+  H344  1  0.45624739  0.95608660  0.28293446  1
  H+  H345  1  0.66717284  0.32922104  0.23371285  1
  H+  H346  1  0.32401606  0.15493410  0.39795564  1
  H+  H347  1  0.10442831  0.95905620  0.11857451  1
  H+  H348  1  0.16691868  0.83077668  0.27077192  1
  H+  H349  1  0.58758586  0.17351984  0.10672822  1
  H+  H350  1  0.82193235  0.41664634  0.40022197  1
  H+  H351  1  0.65890104  0.80465306  0.63014694  1
  H+  H352  1  0.07653043  0.40247343  0.76335277  1
  H+  H353  1  0.17581129  0.58722630  0.56500922  1
  H+  H354  1  0.32084644  0.86702324  0.40265689  1
  H+  H355  1  0.84380763  0.14632333  0.08384391  1
  H+  H356  1  0.13599593  0.35786574  0.83635657  1
  H+  H357  1  0.87351272  0.31201441  0.57392390  1
  H+  H358  1  0.17101451  0.59298726  0.23479960  1
  H+  H359  1  0.42442688  0.56989882  0.59910863  1
  H+  H360  1  0.71959699  0.13268221  0.96924013  1
  H+  H361  1  0.06854100  0.39348989  0.10087535  1
  H+  H362  1  0.38491711  0.26736251  0.32796838  1
  H+  H363  1  0.41640828  0.33210785  0.93347088  1
  H+  H364  1  0.33663463  0.42014014  0.76919910  1
  H+  H365  1  0.89349124  0.77101835  0.65128280  1
  H+  H366  1  0.83157084  0.91705601  0.39946820  1
  H+  H367  1  0.08637778  0.91623199  0.39888064  1
  H+  H368  1  0.57908958  0.91765363  0.39111738  1
  H+  H369  1  0.79699112  0.73034625  0.78222964  1
  H+  H370  1  0.72233061  0.10478266  0.50576939  1
  H+  H371  1  0.16020169  0.32948777  0.93531869  1
  H+  H372  1  0.63770715  0.29206058  -0.02207046  1
  H+  H373  1  0.07645925  0.66033663  0.39721759  1
  H+  H374  1  0.32534504  0.14923420  0.08694923  1
  H+  H375  1  0.84760863  0.67432133  0.06366173  1
  H+  H376  1  0.01341821  0.60231180  0.82510196  1
  H+  H377  1  0.90936861  0.58323633  0.23906618  1
  H+  H378  1  0.83232399  0.16343140  0.43675015  1
  H+  H379  1  0.22146941  0.90505275  0.91452293  1
  H+  H380  1  0.23132937  0.60163842  0.65879097  1
  H+  H381  1  0.69181420  0.87189104  0.23337081  1
  H+  H382  1  0.56794612  0.63345204  0.74567149  1
  H+  H383  1  0.15160184  0.32214636  0.27068922  1
  O2-  O384  1  0.07801523  0.15022685  0.14464710  1
  O2-  O385  1  0.09711316  0.17321868  0.47257498  1
  O2-  O386  1  0.07498293  0.16415599  0.81146795  1
  O2-  O387  1  0.06597765  0.39191830  0.14589369  1
  O2-  O388  1  0.12062248  0.43445607  0.47592911  1
  O2-  O389  1  0.07046769  0.39402407  0.80866812  1
  O2-  O390  1  0.08191201  0.67717046  0.15743281  1
  O2-  O391  1  0.07865507  0.66128265  0.47639745  1
  O2-  O392  1  0.07606557  0.62576923  0.80693830  1
  O2-  O393  1  0.10499212  0.95939198  0.16464987  1
  O2-  O394  1  0.08711626  0.91484118  0.47698299  1
  O2-  O395  1  0.07886391  0.94433800  0.80787704  1
  O2-  O396  1  0.32393432  0.14273160  0.14359983  1
  O2-  O397  1  0.32303421  0.15546163  0.47499446  1
  O2-  O398  1  0.31782349  0.16984744  0.81386619  1
  O2-  O399  1  0.35415266  0.42610698  0.13302635  1
  O2-  O400  1  0.34098281  0.42069453  0.47154058  1
  O2-  O401  1  0.33685135  0.42853652  0.81394994  1
  O2-  O402  1  0.32803908  0.65172566  0.15052330  1
  O2-  O403  1  0.34277738  0.66761379  0.48195459  1
  O2-  O404  1  0.36427165  0.69032708  0.80390999  1
  O2-  O405  1  0.36145984  0.92996864  0.13684669  1
  O2-  O406  1  0.33237667  0.91025668  0.47515742  1
  O2-  O407  1  0.42573136  0.97633189  0.79938478  1
  O2-  O408  1  0.58825340  0.17168106  0.15097517  1
  O2-  O409  1  0.56296707  0.16578318  0.47887360  1
  O2-  O410  1  0.56394575  0.12212313  0.82373121  1
  O2-  O411  1  0.58010168  0.42053902  0.15686516  1
  O2-  O412  1  0.55991451  0.39792910  0.50284681  1
  O2-  O413  1  0.60973471  0.41806822  0.80858175  1
  O2-  O414  1  0.58205325  0.64146971  0.09043112  1
  O2-  O415  1  0.57403076  0.64084727  0.48838647  1
  O2-  O416  1  0.58426683  0.64838362  0.85191653  1
  O2-  O417  1  0.58843126  0.92182620  0.14434149  1
  O2-  O418  1  0.57995203  0.91908416  0.46936692  1
  O2-  O419  1  0.60305096  0.91371856  0.82183317  1
  O2-  O420  1  0.83581683  0.15492895  0.12781471  1
  O2-  O421  1  0.83001000  0.15536381  0.48201194  1
  O2-  O422  1  0.84300668  0.16271358  0.80790779  1
  O2-  O423  1  0.83018815  0.42305357  0.14694629  1
  O2-  O424  1  0.80914831  0.40013471  0.48022249  1
  O2-  O425  1  0.83581514  0.40786922  0.81131954  1
  O2-  O426  1  0.84066230  0.67495857  0.14493612  1
  O2-  O427  1  0.83291409  0.66510534  0.47901891  1
  O2-  O428  1  0.83388951  0.70885738  0.79681369  1
  O2-  O429  1  0.84008269  0.91939356  0.14431612  1
  O2-  O430  1  0.83790728  0.91019908  0.48611938  1
  O2-  O431  1  0.84643484  0.93308791  0.81683854  1
  O2-  O432  1  0.15585318  0.05130863  0.18055451  1
  O2-  O433  1  0.16468364  0.08044858  0.51480924  1
  O2-  O434  1  0.15990904  0.09754989  0.86048778  1
  O2-  O435  1  0.13492937  0.31225172  0.20224860  1
  O2-  O436  1  0.17977769  0.33263886  0.52235726  1
  O2-  O437  1  0.17162284  0.33404719  0.85271439  1
  O2-  O438  1  0.17858433  0.60428606  0.19046310  1
  O2-  O439  1  0.17933515  0.59536830  0.51983517  1
  O2-  O440  1  0.13880802  0.54516306  0.86988578  1
  O2-  O441  1  0.16523308  0.84280840  0.19889772  1
  O2-  O442  1  0.16641401  0.82653952  0.51550465  1
  O2-  O443  1  0.21772890  0.92472898  0.79721040  1
  O2-  O444  1  0.41885888  0.08717579  0.19007926  1
  O2-  O445  1  0.40928221  0.07441316  0.51432531  1
  O2-  O446  1  0.34858521  0.04979816  0.85927273  1
  O2-  O447  1  0.41991352  0.33204734  0.18988424  1
  O2-  O448  1  0.39203332  0.30815591  0.52071082  1
  O2-  O449  1  0.41039320  0.33326986  0.86244598  1
  O2-  O450  1  0.39740118  0.57190922  0.21174063  1
  O2-  O451  1  0.41384174  0.57184728  0.52268357  1
  O2-  O452  1  0.41110996  0.59064611  0.85377598  1
  O2-  O453  1  0.42095703  0.82549282  0.17684131  1
  O2-  O454  1  0.42165051  0.83184639  0.51599639  1
  O2-  O455  1  0.44208427  0.85106425  0.85595797  1
  O2-  O456  1  0.67584493  0.08562653  0.17997358  1
  O2-  O457  1  0.66334346  0.07904603  0.52312176  1
  O2-  O458  1  0.68050509  0.08260261  0.86196507  1
  O2-  O459  1  0.66456735  0.32975214  0.18736417  1
  O2-  O460  1  0.65063520  0.31738158  0.52143810  1
  O2-  O461  1  0.67212215  0.33263511  0.85108248  1
  O2-  O462  1  0.66913314  0.60488849  0.17539048  1
  O2-  O463  1  0.67491889  0.57800715  0.52828422  1
  O2-  O464  1  0.69228541  0.57165430  0.84968319  1
  O2-  O465  1  0.68488593  0.85907955  0.18990026  1
  O2-  O466  1  0.66213065  0.82260479  0.49040715  1
  O2-  O467  1  0.68407062  0.82896890  0.85536628  1
  O2-  O468  1  0.91649711  0.08130258  0.18576473  1
  O2-  O469  1  0.92817989  0.09353470  0.51441798  1
  O2-  O470  1  0.92367994  0.09307321  0.84686475  1
  O2-  O471  1  0.89202136  0.31787303  0.17722741  1
  O2-  O472  1  0.83263746  0.28171222  0.54069840  1
  O2-  O473  1  0.90991534  0.31406646  0.85221192  1
  O2-  O474  1  0.91479333  0.58751997  0.19348422  1
  O2-  O475  1  0.91042729  0.57492197  0.51843801  1
  O2-  O476  1  0.92809700  0.57222069  0.85027395  1
  O2-  O477  1  0.92635998  0.84603335  0.19107979  1
  O2-  O478  1  0.91584471  0.82832443  0.51337980  1
  O2-  O479  1  0.93165272  0.84903856  0.86288174  1
  O2-  O480  1  0.15779092  0.06978322  0.29957133  1
  O2-  O481  1  0.17215945  0.08759257  0.63887851  1
  O2-  O482  1  0.17468374  0.09324293  0.98541126  1
  O2-  O483  1  0.15978391  0.32405109  0.31707183  1
  O2-  O484  1  0.17048685  0.32892419  0.64495415  1
  O2-  O485  1  0.15351079  0.32975636  0.97987997  1
  O2-  O486  1  0.16089644  0.57942121  0.31460469  1
  O2-  O487  1  0.17184317  0.57067716  0.64221494  1
  O2-  O488  1  0.15092949  0.56083606  0.99841263  1
  O2-  O489  1  0.16579376  0.82277528  0.31669489  1
  O2-  O490  1  0.16302221  0.79884371  0.63780786  1
  O2-  O491  1  0.16367542  0.83355268  1.01897592  1
  O2-  O492  1  0.41493926  0.07511107  0.30754805  1
  O2-  O493  1  0.41397842  0.09180533  0.64624525  1
  O2-  O494  1  0.40176554  0.08830158  0.97765441  1
  O2-  O495  1  0.41555753  0.32803336  0.31390640  1
  O2-  O496  1  0.37362543  0.27084545  0.66587820  1
  O2-  O497  1  0.42678435  0.34012179  0.97921751  1
  O2-  O498  1  0.45874078  0.68056175  0.31075993  1
  O2-  O499  1  0.42701128  0.57012300  0.64489707  1
  O2-  O500  1  0.41330058  0.59690301  0.98586374  1
  O2-  O501  1  0.44203656  0.89715294  0.29148836  1
  O2-  O502  1  0.40388605  0.82046951  0.64289710  1
  O2-  O503  1  0.44189290  0.88002180  0.97653991  1
  O2-  O504  1  0.68632805  0.08395240  0.30738407  1
  O2-  O505  1  0.66526655  0.11665192  0.63611205  1
  O2-  O506  1  0.67949913  0.12684151  1.00129761  1
  O2-  O507  1  0.66937179  0.33226040  0.30608151  1
  O2-  O508  1  0.65999389  0.33322729  0.64810984  1
  O2-  O509  1  0.67269881  0.35475404  0.97190342  1
  O2-  O510  1  0.66679149  0.58758264  0.30068114  1
  O2-  O511  1  0.67972596  0.58524523  0.65264033  1
  O2-  O512  1  0.61596655  0.61613289  0.96613889  1
  O2-  O513  1  0.65811949  0.82202311  0.32010788  1
  O2-  O514  1  0.66036317  0.81295837  0.67399463  1
  O2-  O515  1  0.68901905  0.78964200  0.97476241  1
  O2-  O516  1  0.91785560  0.08341962  0.31091197  1
  O2-  O517  1  0.93528753  0.07014719  0.63431044  1
  O2-  O518  1  0.90876854  0.09348198  0.98408240  1
  O2-  O519  1  0.94249458  0.30683822  0.29585781  1
  O2-  O520  1  0.92229879  0.34861898  0.64794653  1
  O2-  O521  1  0.90808306  0.28338672  0.97164968  1
  O2-  O522  1  0.90553229  0.58236226  0.31575879  1
  O2-  O523  1  0.91491473  0.57796804  0.64046405  1
  O2-  O524  1  0.92012836  0.59031541  0.97494335  1
  O2-  O525  1  0.91850212  0.83204751  0.31461878  1
  O2-  O526  1  0.91708789  0.83100397  0.63503833  1
  O2-  O527  1  0.94158730  0.85331565  0.98814182  1
  O2-  O528  1  0.08056129  0.16152837  0.02363057  1
  O2-  O529  1  0.08316822  0.15887875  0.34758261  1
  O2-  O530  1  0.09724618  0.17133797  0.69014388  1
  O2-  O531  1  0.06724440  0.39816197  0.02077976  1
  O2-  O532  1  0.08859283  0.42228259  0.35948537  1
  O2-  O533  1  0.08580975  0.40983221  0.68643495  1
  O2-  O534  1  0.07603548  0.65494851  0.03338610  1
  O2-  O535  1  0.07437919  0.65796234  0.35180653  1
  O2-  O536  1  0.07972168  0.64055283  0.67973093  1
  O2-  O537  1  0.09572987  0.93649760  0.04265999  1
  O2-  O538  1  0.08676836  0.91496591  0.35333476  1
  O2-  O539  1  0.07240407  0.93213938  0.69242853  1
  O2-  O540  1  0.32833260  0.16021632  0.03376765  1
  O2-  O541  1  0.32744798  0.15603424  0.35219641  1
  O2-  O542  1  0.33875738  0.19255301  0.68632557  1
  O2-  O543  1  0.37344229  0.44898481  0.01379005  1
  O2-  O544  1  0.33102637  0.41475489  0.35192770  1
  O2-  O545  1  0.33303634  0.40276457  0.68932677  1
  O2-  O546  1  0.29170742  0.57320613  0.04784252  1
  O2-  O547  1  0.32184657  0.68078655  0.36238073  1
  O2-  O548  1  0.34001231  0.65348639  0.68083717  1
  O2-  O549  1  0.34584282  0.93432451  0.02445126  1
  O2-  O550  1  0.31026466  0.83478141  0.36361161  1
  O2-  O551  1  0.32498766  0.93151899  0.70061985  1
  O2-  O552  1  0.57122686  0.17359378  -0.04478825  1
  O2-  O553  1  0.54912063  0.19586994  0.37012849  1
  O2-  O554  1  0.57200750  0.17560383  0.70024781  1
  O2-  O555  1  0.59843619  0.46312108  -0.01105021  1
  O2-  O556  1  0.59222095  0.41550736  0.33798114  1
  O2-  O557  1  0.59222000  0.42143625  0.69712872  1
  O2-  O558  1  0.61029073  0.73336306  0.08711661  1
  O2-  O559  1  0.58189438  0.65167767  0.36773995  1
  O2-  O560  1  0.57812356  0.64961167  0.70273287  1
  O2-  O561  1  0.60160318  0.95126047  0.02166269  1
  O2-  O562  1  0.58550759  0.91397484  0.34628222  1
  O2-  O563  1  0.56321742  0.88454172  0.69651773  1
  O2-  O564  1  0.85712512  0.13315185  0.00355506  1
  O2-  O565  1  0.83746854  0.16585974  0.35849338  1
  O2-  O566  1  0.81869515  0.18240255  0.68715531  1
  O2-  O567  1  0.83680547  0.43665964  0.02137579  1
  O2-  O568  1  0.82996368  0.42538571  0.35554380  1
  O2-  O569  1  0.82854362  0.41744747  0.68892057  1
  O2-  O570  1  0.85201194  0.67695408  0.01856649  1
  O2-  O571  1  0.82647087  0.66475747  0.35618822  1
  O2-  O572  1  0.84961905  0.67192404  0.67951477  1
  O2-  O573  1  0.84023284  0.92012057  0.01916607  1
  O2-  O574  1  0.83175051  0.91578763  0.35486699  1
  O2-  O575  1  0.84007724  0.91422132  0.69307098  1
