# generated using pymatgen
data_H2O
_symmetry_space_group_name_H-M   'P 1'
_cell_length_a   17.97329229
_cell_length_b   17.95439270
_cell_length_c   21.99117164
_cell_angle_alpha   90.01660626
_cell_angle_beta   89.99276588
_cell_angle_gamma   119.96110959
_symmetry_Int_Tables_number   1
_chemical_formula_structural   H2O
_chemical_formula_sum   'H384 O192'
_cell_volume   6148.19168162
_cell_formula_units_Z   192
loop_
 _symmetry_equiv_pos_site_id
 _symmetry_equiv_pos_as_xyz
  1  'x, y, z'
loop_
 _atom_type_symbol
 _atom_type_oxidation_number
  H+  1.0
  O2-  -2.0
loop_
 _atom_site_type_symbol
 _atom_site_label
 _atom_site_symmetry_multiplicity
 _atom_site_fract_x
 _atom_site_fract_y
 _atom_site_fract_z
 _atom_site_occupancy
  H+  H0  1  0.53307308  0.38951857  1.00437506  1
  H+  H1  1  0.38498814  0.01855611  0.15699194  1
  H+  H2  1  0.24487254  0.35204191  0.84714634  1
  H+  H3  1  0.86567735  0.62423135  0.15124397  1
  H+  H4  1  0.12023569  0.62258129  0.50287105  1
  H+  H5  1  0.76221601  0.37579174  0.61006075  1
  H+  H6  1  -0.01804996  0.62700097  0.00123283  1
  H+  H7  1  0.35853254  0.72893113  0.67636611  1
  H+  H8  1  0.87596777  0.61625678  0.66862117  1
  H+  H9  1  0.61777652  0.63740962  0.49608778  1
  H+  H10  1  0.67152706  0.31757969  0.93399193  1
  H+  H11  1  0.60417579  0.61484363  0.17269880  1
  H+  H12  1  0.02523312  0.13262533  0.64801441  1
  H+  H13  1  0.85006167  0.72308852  0.67874456  1
  H+  H14  1  0.34838741  0.72159092  0.00058852  1
  H+  H15  1  0.21694423  0.36258699  0.17024628  1
  H+  H16  1  0.68827311  0.10363497  0.90379461  1
  H+  H17  1  1.02684624  0.12483044  0.49604442  1
  H+  H18  1  0.62509670  0.65066775  0.33877672  1
  H+  H19  1  0.19237967  0.53634786  0.52906124  1
  H+  H20  1  0.72747286  0.96290951  0.60885982  1
  H+  H21  1  0.06008205  0.91557385  0.39800959  1
  H+  H22  1  0.86002852  0.14216918  0.62868612  1
  H+  H23  1  0.25030112  0.63677481  0.52779592  1
  H+  H24  1  0.77956424  0.39826085  0.00441684  1
  H+  H25  1  0.38674955  0.76843657  0.16720079  1
  H+  H26  1  0.88342925  0.28391497  0.32890481  1
  H+  H27  1  0.26487514  0.87282796  0.83604628  1
  H+  H28  1  0.48498060  0.13310187  0.68592217  1
  H+  H29  1  0.26971469  0.13041247  0.66170396  1
  H+  H30  1  0.78433578  0.13179150  0.49610752  1
  H+  H31  1  0.94820567  0.37426794  0.17251805  1
  H+  H32  1  0.88559745  0.11765849  0.32630753  1
  H+  H33  1  0.36247226  -0.01706028  0.68534802  1
  H+  H34  1  0.60132148  0.72108883  0.66338578  1
  H+  H35  1  0.51583941  0.88135791  0.00591510  1
  H+  H36  1  0.10429632  0.90756027  0.07946936  1
  H+  H37  1  0.36245496  0.64060581  0.67341506  1
  H+  H38  1  0.49717138  0.60919908  0.16625935  1
  H+  H39  1  0.88065773  0.12013900  0.00070903  1
  H+  H40  1  0.10509178  -0.03276430  0.82715314  1
  H+  H41  1  0.11029590  0.70087910  0.35057263  1
  H+  H42  1  0.12673272  0.86670007  0.67345150  1
  H+  H43  1  0.63305092  0.21643574  0.68884998  1
  H+  H44  1  0.01038582  0.37094234  0.01199487  1
  H+  H45  1  0.39582802  0.86885707  0.84094821  1
  H+  H46  1  0.53167089  0.45968533  0.86402174  1
  H+  H47  1  0.72298151  0.10809511  0.17056158  1
  H+  H48  1  0.60782076  -0.01748824  0.51295954  1
  H+  H49  1  0.15997535  0.83968757  0.61544824  1
  H+  H50  1  0.01484427  0.88079786  0.67530382  1
  H+  H51  1  0.88813426  0.86207472  0.16312473  1
  H+  H52  1  0.36666883  0.94308425  0.49596913  1
  H+  H53  1  0.09773147  0.47182271  0.16428596  1
  H+  H54  1  0.55583752  0.36659115  0.82548390  1
  H+  H55  1  0.37343858  1.01441804  -0.01714939  1
  H+  H56  1  0.38485440  0.86259593  0.98759939  1
  H+  H57  1  0.13583356  0.38426358  0.66230189  1
  H+  H58  1  0.87252325  0.44477557  0.17363786  1
  H+  H59  1  0.59956192  0.32355472  0.69125694  1
  H+  H60  1  0.27651470  0.38520860  0.68903815  1
  H+  H61  1  -0.04146666  0.84271001  0.50669325  1
  H+  H62  1  0.59976710  0.51647112  0.34797843  1
  H+  H63  1  0.33262662  0.12099759  0.30605832  1
  H+  H64  1  0.78171320  0.14220732  0.33857595  1
  H+  H65  1  0.36741110  0.00566854  0.83941543  1
  H+  H66  1  0.53472486  0.58055662  0.02292102  1
  H+  H67  1  0.62842085  0.60922016  0.66112339  1
  H+  H68  1  0.88075455  0.02446132  0.17071857  1
  H+  H69  1  0.03865383  0.78799403  0.22817801  1
  H+  H70  1  0.00662271  0.14254390  1.00980285  1
  H+  H71  1  0.48510194  0.60676981  0.31946774  1
  H+  H72  1  0.11040653  0.62921331  0.16605644  1
  H+  H73  1  0.42061231  0.83324902  0.93151999  1
  H+  H74  1  0.62427200  0.21953392  1.00496415  1
  H+  H75  1  0.36613388  0.09545948  0.83242716  1
  H+  H76  1  0.37441950  0.10950060  0.98238628  1
  H+  H77  1  0.37294718  0.81411483  0.51315079  1
  H+  H78  1  0.13588862  0.85990442  0.84400589  1
  H+  H79  1  0.23903164  0.60760942  0.31910702  1
  H+  H80  1  0.39048081  0.36525428  0.99236695  1
  H+  H81  1  0.10810122  0.22829262  0.15874947  1
  H+  H82  1  0.71945031  0.58469996  0.84263147  1
  H+  H83  1  0.53613370  0.12242528  0.32863842  1
  H+  H84  1  0.09963026  0.13071793  0.32969203  1
  H+  H85  1  0.13544699  0.47270840  0.64810310  1
  H+  H86  1  0.21842750  0.85220389  0.47598729  1
  H+  H87  1  0.08982646  0.48243528  0.45117767  1
  H+  H88  1  0.66195878  0.13011698  0.49707987  1
  H+  H89  1  0.35861471  0.13307600  0.15096888  1
  H+  H90  1  0.23229865  0.62360995  0.82761458  1
  H+  H91  1  0.65339926  0.18410964  0.84282014  1
  H+  H92  1  0.12778253  0.35627903  0.99533012  1
  H+  H93  1  0.87887760  0.34809858  0.82754329  1
  H+  H94  1  0.87614966  0.41582947  0.34514411  1
  H+  H95  1  0.40895653  -0.00211748  0.31045647  1
  H+  H96  1  0.87530980  0.77465431  0.31731244  1
  H+  H97  1  0.26975644  0.13408292  0.14890243  1
  H+  H98  1  0.63584763  0.85622026  0.17171859  1
  H+  H99  1  0.01989796  0.87330352  0.83043223  1
  H+  H100  1  0.63752632  0.76793951  0.17488345  1
  H+  H101  1  0.86153974  0.14380292  0.16374711  1
  H+  H102  1  0.68645642  0.38745413  0.52044306  1
  H+  H103  1  1.00848474  0.88402087  0.33449561  1
  H+  H104  1  0.89198857  0.53929211  -0.00341064  1
  H+  H105  1  0.32849226  1.00654909  0.47242846  1
  H+  H106  1  0.37388382  0.86476260  0.66931403  1
  H+  H107  1  0.73316466  0.34426537  0.18307571  1
  H+  H108  1  0.20250142  0.07196928  0.49497376  1
  H+  H109  1  0.61711916  0.73420336  0.33829953  1
  H+  H110  1  0.89440898  0.02084324  0.62105096  1
  H+  H111  1  0.08327112  0.69963263  0.18246988  1
  H+  H112  1  0.10650090  0.63131350  0.01438155  1
  H+  H113  1  0.60724305  0.47719381  0.67668449  1
  H+  H114  1  0.88338395  0.63303937  0.31764457  1
  H+  H115  1  0.65984894  0.52266122  0.00137956  1
  H+  H116  1  0.52123072  0.37244684  0.15860300  1
  H+  H117  1  0.60808173  0.25381634  0.31557182  1
  H+  H118  1  0.96145354  0.60950297  0.67103922  1
  H+  H119  1  0.35134726  0.21203452  0.81541814  1
  H+  H120  1  0.28859883  0.43555487  0.49448013  1
  H+  H121  1  0.09273425  0.86851534  0.47772198  1
  H+  H122  1  0.63069248  0.91019160  0.82566543  1
  H+  H123  1  0.14587412  0.77690437  1.00180456  1
  H+  H124  1  0.13418371  0.25945053  0.68900423  1
  H+  H125  1  0.61205032  0.12866076  0.16167449  1
  H+  H126  1  0.89260959  0.38822457  0.48932139  1
  H+  H127  1  0.01016035  0.70482252  0.26828411  1
  H+  H128  1  0.39869521  0.55333384  0.49793378  1
  H+  H129  1  0.27966644  0.87724582  0.14688183  1
  H+  H130  1  0.85148564  0.22879611  0.16326348  1
  H+  H131  1  -0.12099155  0.08301823  0.84156345  1
  H+  H132  1  0.10850140  0.13830718  0.15158216  1
  H+  H133  1  0.50886191  0.91262729  0.51171369  1
  H+  H134  1  0.21284045  0.10341386  0.82648928  1
  H+  H135  1  0.13087331  0.76846041  0.84572104  1
  H+  H136  1  0.52449323  0.88039307  0.15898356  1
  H+  H137  1  0.61677931  0.91179078  0.66749070  1
  H+  H138  1  0.46328965  0.36974730  0.50345997  1
  H+  H139  1  0.11727265  0.47520930  0.31470682  1
  H+  H140  1  0.99000851  0.35408538  0.47599780  1
  H+  H141  1  0.10440214  0.63585910  0.68057181  1
  H+  H142  1  1.00520178  0.36256172  0.62941567  1
  H+  H143  1  0.36860067  0.87883467  0.15342313  1
  H+  H144  1  0.71825620  0.61028743  0.66386451  1
  H+  H145  1  0.11331488  0.64166739  0.82514241  1
  H+  H146  1  0.36264266  0.63269041  0.15027374  1
  H+  H147  1  0.71569358  0.28292820  0.58168046  1
  H+  H148  1  0.44747572  0.33552115  0.33116318  1
  H+  H149  1  0.16287437  0.82363735  0.41624761  1
  H+  H150  1  0.67044625  0.06381637  0.83780030  1
  H+  H151  1  0.44540177  0.07702234  0.51166747  1
  H+  H152  1  0.16972747  0.59128993  0.61096405  1
  H+  H153  1  0.36588930  0.39085905  0.67223563  1
  H+  H154  1  0.02658865  0.40844887  0.87388860  1
  H+  H155  1  0.77356014  0.36007415  0.81182945  1
  H+  H156  1  0.39036681  0.52868471  0.84068500  1
  H+  H157  1  0.19833134  0.09816530  0.30561816  1
  H+  H158  1  0.87630851  0.26931896  0.99775090  1
  H+  H159  1  0.15688907  0.26178906  0.84311885  1
  H+  H160  1  0.37002601  0.71840199  0.57305758  1
  H+  H161  1  0.52458440  0.13287576  0.15397580  1
  H+  H162  1  0.92481126  0.57381641  0.32670835  1
  H+  H163  1  0.82200330  0.66981794  0.39604154  1
  H+  H164  1  0.67602828  0.49906764  0.34041725  1
  H+  H165  1  0.12286061  0.08948649  0.50017712  1
  H+  H166  1  0.39421652  0.27892486  0.98465948  1
  H+  H167  1  0.85448482  0.70478560  0.83168533  1
  H+  H168  1  0.12899023  0.02695547  0.14622370  1
  H+  H169  1  0.96718971  0.58365968  0.16988950  1
  H+  H170  1  0.15514147  0.31831442  0.74740146  1
  H+  H171  1  0.65298447  0.11956249  0.32142242  1
  H+  H172  1  0.63937410  1.01898874  -0.01015493  1
  H+  H173  1  0.45342404  0.61378939  0.99140631  1
  H+  H174  1  0.88814129  0.00895477  0.52264302  1
  H+  H175  1  0.26862411  0.89670486  0.68258116  1
  H+  H176  1  0.84324221  0.67332866  1.06410192  1
  H+  H177  1  0.10829602  0.12339300  0.66019726  1
  H+  H178  1  0.27598606  0.13957401  -0.00739507  1
  H+  H179  1  0.61162442  0.97463554  0.33128029  1
  H+  H180  1  0.64760724  0.56109840  0.57247868  1
  H+  H181  1  0.55363700  0.75348924  0.94145587  1
  H+  H182  1  0.83035684  0.91876495  0.09842502  1
  H+  H183  1  0.22307967  0.60633550  0.16639089  1
  H+  H184  1  0.14727765  0.60541619  0.32445919  1
  H+  H185  1  0.83817799  0.48693497  0.66938030  1
  H+  H186  1  0.75376546  0.17164512  0.64260887  1
  H+  H187  1  0.33557508  0.20684708  0.32669355  1
  H+  H188  1  0.52498872  0.64940707  0.82702772  1
  H+  H189  1  0.64438288  0.44929164  0.83616455  1
  H+  H190  1  0.46149129  0.16834886  0.53268291  1
  H+  H191  1  0.88695798  0.85973732  0.65683026  1
  H+  H192  1  0.77320234  0.88416421  0.15858867  1
  H+  H193  1  0.87759070  0.64846524  1.00367798  1
  H+  H194  1  0.51307835  0.63413929  0.66879418  1
  H+  H195  1  0.88510893  0.24132315  0.63835439  1
  H+  H196  1  0.87197666  0.95279360  0.82323015  1
  H+  H197  1  0.10935796  1.01290512  0.31329072  1
  H+  H198  1  0.13454768  0.26756961  0.32483018  1
  H+  H199  1  0.76186719  0.63553885  0.33813261  1
  H+  H200  1  0.10483024  0.72526238  0.68023426  1
  H+  H201  1  0.96949306  0.11323424  0.17140469  1
  H+  H202  1  0.86106370  0.98502667  0.00224177  1
  H+  H203  1  0.36331478  0.13801037  0.66755884  1
  H+  H204  1  0.76782688  0.13108490  0.00840576  1
  H+  H205  1  0.85367676  0.62952186  0.48360606  1
  H+  H206  1  0.22008542  0.61296983  0.67325916  1
  H+  H207  1  0.60082448  0.21735382  0.75584900  1
  H+  H208  1  0.39479726  0.51560851  0.31895895  1
  H+  H209  1  0.63889499  0.26130485  0.17308025  1
  H+  H210  1  0.35166083  0.46971518  1.00368884  1
  H+  H211  1  0.40202483  0.22765619  0.52959925  1
  H+  H212  1  0.08997570  0.47923823  0.92019825  1
  H+  H213  1  0.77173958  0.89805631  1.00093363  1
  H+  H214  1  0.91587673  0.17962793  0.85404328  1
  H+  H215  1  0.81177296  0.39007518  0.51394077  1
  H+  H216  1  0.38826199  0.67380691  0.51922171  1
  H+  H217  1  0.88375501  0.84022876  0.83999653  1
  H+  H218  1  0.37443413  0.42669548  0.49487486  1
  H+  H219  1  0.52246822  0.35959646  0.40069662  1
  H+  H220  1  0.90197131  0.26285185  0.48843617  1
  H+  H221  1  0.39613763  0.41404121  0.82922775  1
  H+  H222  1  0.77042353  0.44561698  0.36658723  1
  H+  H223  1  0.34241743  0.62982993  0.99885925  1
  H+  H224  1  0.00065496  0.91114101  0.02123102  1
  H+  H225  1  0.65929659  0.25589644  0.46969441  1
  H+  H226  1  0.36911618  0.62990579  0.32764826  1
  H+  H227  1  0.51708291  0.31722445  0.41118402  1
  H+  H228  1  0.60864692  0.88507514  0.33355961  1
  H+  H229  1  0.64081667  0.11024526  0.99470130  1
  H+  H230  1  0.36182274  0.38350672  0.15757816  1
  H+  H231  1  0.63595336  1.01561068  0.17109030  1
  H+  H232  1  0.13404262  0.04333215  0.99078264  1
  H+  H233  1  0.38206885  0.52440771  0.65734490  1
  H+  H234  1  0.36740223  0.71714499  0.32969557  1
  H+  H235  1  0.87390965  0.71693090  0.15652149  1
  H+  H236  1  0.58386066  0.97722814  0.67252477  1
  H+  H237  1  0.86805608  0.40237799  0.00746785  1
  H+  H238  1  0.88226121  0.50825268  0.81811334  1
  H+  H239  1  0.61265833  0.37621138  0.15978099  1
  H+  H240  1  0.63945710  0.35428111  -0.01095166  1
  H+  H241  1  0.63796273  0.78143253  0.82959367  1
  H+  H242  1  0.11776529  0.70740096  0.48383661  1
  H+  H243  1  0.87013523  0.12550680  0.49833692  1
  H+  H244  1  0.35044391  0.42647698  0.77026257  1
  H+  H245  1  0.26659204  0.37835943  0.00779595  1
  H+  H246  1  0.65757209  0.36106594  0.32762899  1
  H+  H247  1  0.85226279  0.61536139  0.81964585  1
  H+  H248  1  0.72708038  0.86485767  0.33031880  1
  H+  H249  1  0.63346660  0.61869902  1.01266588  1
  H+  H250  1  0.87791953  0.85940595  0.99095010  1
  H+  H251  1  0.02292315  0.14828196  0.81913060  1
  H+  H252  1  0.59667734  0.86933965  0.00468699  1
  H+  H253  1  0.86062439  0.89158681  0.34048314  1
  H+  H254  1  0.57165643  0.17560629  0.49153153  1
  H+  H255  1  0.42752354  0.24725875  0.50043503  1
  H+  H256  1  0.58103450  0.84112214  0.53342826  1
  H+  H257  1  0.13492854  0.88200814  0.34388535  1
  H+  H258  1  0.09098121  -0.04431470  0.49299532  1
  H+  H259  1  0.88970742  0.77600159  0.99809465  1
  H+  H260  1  0.13116156  1.01400540  0.65932124  1
  H+  H261  1  0.78649853  0.90693323  0.66248184  1
  H+  H262  1  0.33803049  0.14379566  0.47017647  1
  H+  H263  1  0.08599385  0.66972822  0.07367102  1
  H+  H264  1  0.06874451  0.15246620  0.75527293  1
  H+  H265  1  0.12435964  0.10407446  0.82891693  1
  H+  H266  1  0.60669778  0.76695457  0.52815065  1
  H+  H267  1  0.61926643  0.50445154  0.17889302  1
  H+  H268  1  0.38167822  0.73824183  0.82864823  1
  H+  H269  1  0.27145211  0.88508825  0.99991300  1
  H+  H270  1  0.27948976  0.89973544  0.34402600  1
  H+  H271  1  0.57349062  0.50306150  0.52633453  1
  H+  H272  1  0.65686789  0.11871740  0.66537315  1
  H+  H273  1  0.85910492  0.97904713  0.34323710  1
  H+  H274  1  0.36810478  0.35103203  0.32674916  1
  H+  H275  1  0.38109133  0.26749762  0.16633325  1
  H+  H276  1  0.66154037  0.86276785  0.59918683  1
  H+  H277  1  0.49219585  0.88266813  0.84029645  1
  H+  H278  1  0.86280636  0.88356339  0.50239250  1
  H+  H279  1  0.08834706  0.37928124  0.16910000  1
  H+  H280  1  0.81679141  0.65985767  0.73774914  1
  H+  H281  1  0.15834085  0.06401454  0.59523849  1
  H+  H282  1  0.60442538  0.72968462  0.98786503  1
  H+  H283  1  0.59762908  0.67640859  0.43686999  1
  H+  H284  1  0.15854225  0.42342955  0.49272565  1
  H+  H285  1  0.38622372  0.85266034  0.32321841  1
  H+  H286  1  0.39148737  0.51241080  0.16624490  1
  H+  H287  1  0.89141243  0.52891257  0.49905603  1
  H+  H288  1  0.40764930  0.32411825  0.22720570  1
  H+  H289  1  -0.02549214  0.61848053  0.49728040  1
  H+  H290  1  0.42589565  0.57406774  0.22916786  1
  H+  H291  1  0.82647502  0.16596856  0.06950382  1
  H+  H292  1  0.16270830  0.32726348  0.23122925  1
  H+  H293  1  0.20023314  0.59319208  -0.00642260  1
  H+  H294  1  0.65897213  0.45636497  0.50499592  1
  H+  H295  1  0.73714702  0.42380991  0.68279483  1
  H+  H296  1  0.65007786  0.33817344  0.83885164  1
  H+  H297  1  0.10573699  0.23641089  1.00686843  1
  H+  H298  1  0.67186243  0.83543239  0.89014662  1
  H+  H299  1  0.91624019  0.82223763  0.90312636  1
  H+  H300  1  0.34205984  0.92146433  0.05409622  1
  H+  H301  1  -0.03417187  0.60005551  0.83037910  1
  H+  H302  1  0.64001016  0.55253537  0.24320826  1
  H+  H303  1  0.90949492  0.08166109  0.26709921  1
  H+  H304  1  0.59582110  0.17312135  0.38856172  1
  H+  H305  1  0.84101389  0.16798219  0.39827940  1
  H+  H306  1  0.91962692  0.10430424  0.93928840  1
  H+  H307  1  0.33213100  0.42210556  0.39487674  1
  H+  H308  1  0.74889319  0.61804088  0.99875890  1
  H+  H309  1  -0.03766462  0.22772761  0.73357299  1
  H+  H310  1  0.46159288  0.38125051  0.90291539  1
  H+  H311  1  0.90588608  0.56635113  0.22637252  1
  H+  H312  1  0.35434424  0.94387342  0.39445706  1
  H+  H313  1  0.89547425  0.34004508  0.26924264  1
  H+  H314  1  0.47901653  0.86040955  0.31859520  1
  H+  H315  1  0.00900035  0.36537341  0.75569430  1
  H+  H316  1  0.39563277  0.07199946  0.91342955  1
  H+  H317  1  0.67081034  0.83294490  0.26861482  1
  H+  H318  1  0.58590730  0.64732192  0.10687380  1
  H+  H319  1  0.00292626  0.40384729  0.75450357  1
  H+  H320  1  0.46210623  0.86327269  0.66192953  1
  H+  H321  1  0.40433216  0.57839987  0.92810014  1
  H+  H322  1  0.01544840  0.13686279  0.33719513  1
  H+  H323  1  0.14777743  0.06944907  0.21326918  1
  H+  H324  1  0.34657731  0.67575137  0.77054783  1
  H+  H325  1  0.41499966  0.82736485  0.22770434  1
  H+  H326  1  0.16775809  0.08219256  0.92433978  1
  H+  H327  1  0.32416982  0.16012251  0.75319687  1
  H+  H328  1  0.68174836  0.11732057  0.56487766  1
  H+  H329  1  0.39271365  0.86595718  0.57284975  1
  H+  H330  1  0.02079599  0.38960872  0.31739649  1
  H+  H331  1  0.58929864  0.40946325  0.06449305  1
  H+  H332  1  0.13934127  0.81470854  0.30241598  1
  H+  H333  1  0.33236061  0.41592912  0.09866694  1
  H+  H334  1  0.16832990  0.83296033  0.94137302  1
  H+  H335  1  0.48741934  0.01613829  0.26854281  1
  H+  H336  1  0.13469771  0.35676612  0.31708933  1
  H+  H337  1  0.57898730  0.67647751  0.76541909  1
  H+  H338  1  0.69274038  0.42163136  0.41516718  1
  H+  H339  1  0.32803117  0.66243183  0.09313837  1
  H+  H340  1  0.97649534  0.86704656  0.15132478  1
  H+  H341  1  0.84436407  0.92128793  0.72078860  1
  H+  H342  1  0.80749207  0.20090162  0.84484399  1
  H+  H343  1  0.90471291  0.32537584  0.93744465  1
  H+  H344  1  0.07474640  0.67158905  0.77317863  1
  H+  H345  1  0.38478833  0.27723454  0.64991938  1
  H+  H346  1  0.84192669  0.92620492  0.44565654  1
  H+  H347  1  0.86678491  0.75748583  0.50822081  1
  H+  H348  1  0.17302126  0.42317916  0.56448095  1
  H+  H349  1  0.17180269  0.58114684  0.22960537  1
  H+  H350  1  0.94072795  0.33725856  0.57547243  1
  H+  H351  1  0.07700282  0.14931069  0.43260714  1
  H+  H352  1  0.41604162  0.58775696  0.59827704  1
  H+  H353  1  0.33522122  0.16726304  0.05266025  1
  H+  H354  1  0.16414595  0.32537667  0.93704390  1
  H+  H355  1  0.75977871  0.61946755  0.48798954  1
  H+  H356  1  0.42158558  0.07164360  0.21696883  1
  H+  H357  1  0.77532203  0.87662094  0.82005273  1
  H+  H358  1  0.58300546  0.90971807  0.09936315  1
  H+  H359  1  0.49200390  0.63545046  0.50689052  1
  H+  H360  1  0.32405440  0.90598304  0.77580868  1
  H+  H361  1  0.67431202  0.55637372  0.90682661  1
  H+  H362  1  0.64622242  0.31933923  0.25266041  1
  H+  H363  1  0.39065851  0.61978210  0.84182097  1
  H+  H364  1  0.91200945  0.81853204  0.60244347  1
  H+  H365  1  0.45123385  0.09851004  0.62009403  1
  H+  H366  1  0.06347153  0.39707832  0.07464160  1
  H+  H367  1  0.44117285  0.38346676  0.57003118  1
  H+  H368  1  0.82056747  0.39749517  0.74823713  1
  H+  H369  1  -0.06484233  0.18024197  0.73866909  1
  H+  H370  1  0.29545975  0.10466903  0.40761687  1
  H+  H371  1  0.07330407  0.91281848  0.73683753  1
  H+  H372  1  0.14338655  0.53734869  0.84162661  1
  H+  H373  1  0.08536416  0.42037076  0.39762243  1
  H+  H374  1  0.08592268  0.63618402  0.40477016  1
  H+  H375  1  0.91325687  0.83523277  0.25807043  1
  H+  H376  1  0.11608062  0.50534555  1.01048633  1
  H+  H377  1  0.86663671  0.44625893  0.41078083  1
  H+  H378  1  0.59537190  0.93821055  0.76948170  1
  H+  H379  1  0.26971586  0.38404429  0.33620309  1
  H+  H380  1  0.59579328  0.16133075  0.06400570  1
  H+  H381  1  0.67737983  0.08287655  0.26353796  1
  H+  H382  1  0.47378664  0.36468202  0.66159327  1
  H+  H383  1  0.07245277  0.17409142  0.07286379  1
  O2-  O384  1  0.07594575  0.16860791  0.14086724  1
  O2-  O385  1  0.08332945  0.14465332  0.47708227  1
  O2-  O386  1  0.07789062  0.16066260  0.80006340  1
  O2-  O387  1  0.05852667  0.40958596  0.15404996  1
  O2-  O388  1  0.08447709  0.42637079  0.44395212  1
  O2-  O389  1  0.08743380  0.44491712  0.88449512  1
  O2-  O390  1  0.07349329  0.65391968  0.15320162  1
  O2-  O391  1  0.08570439  0.64397099  0.48152086  1
  O2-  O392  1  0.07776757  0.67063770  0.81851053  1
  O2-  O393  1  0.06943896  0.93076652  0.09659865  1
  O2-  O394  1  0.05780009  0.89673209  0.47339554  1
  O2-  O395  1  0.07880621  0.90653556  0.81224063  1
  O2-  O396  1  0.33133243  0.16639329  0.13626753  1
  O2-  O397  1  0.29535814  0.08945634  0.45133922  1
  O2-  O398  1  0.32022784  0.15384041  0.79904842  1
  O2-  O399  1  0.33560233  0.41895328  0.14448069  1
  O2-  O400  1  0.34184548  0.44844425  0.47158770  1
  O2-  O401  1  0.35047550  0.42682298  0.81567239  1
  O2-  O402  1  0.33204145  0.66323264  0.13899490  1
  O2-  O403  1  0.35794939  0.70656143  0.52975151  1
  O2-  O404  1  0.35029759  0.67669235  0.81585558  1
  O2-  O405  1  0.34025972  0.91106826  0.13612200  1
  O2-  O406  1  0.37352918  0.99068049  0.46832788  1
  O2-  O407  1  0.32659889  0.90461531  0.82100322  1
  O2-  O408  1  0.58762049  0.16463850  0.14633729  1
  O2-  O409  1  0.62156851  0.19435084  0.46299395  1
  O2-  O410  1  0.62353862  0.21640371  0.83034912  1
  O2-  O411  1  0.58221892  0.40575596  0.14471150  1
  O2-  O412  1  0.66139324  0.40666396  0.48818091  1
  O2-  O413  1  0.61744061  0.38934047  0.81807945  1
  O2-  O414  1  0.57739028  0.64922255  0.15197675  1
  O2-  O415  1  0.59710925  0.67631017  0.48198093  1
  O2-  O416  1  0.58335208  0.68599741  0.80991532  1
  O2-  O417  1  0.58556395  0.91000676  0.14490721  1
  O2-  O418  1  0.56677007  0.92057688  0.50714042  1
  O2-  O419  1  0.60234128  0.94377004  0.81424352  1
  O2-  O420  1  0.82709869  0.16941663  0.14758735  1
  O2-  O421  1  0.84260783  0.15484894  0.47767858  1
  O2-  O422  1  0.86940604  0.23433118  0.83194563  1
  O2-  O423  1  0.84039311  0.38092095  0.16281449  1
  O2-  O424  1  0.86037906  0.42035750  0.48502901  1
  O2-  O425  1  0.83126308  0.39235955  0.79217236  1
  O2-  O426  1  0.84112143  0.65973548  0.13756918  1
  O2-  O427  1  0.81759343  0.65723514  0.47193787  1
  O2-  O428  1  0.81971787  0.64786902  0.81198911  1
  O2-  O429  1  0.83364961  0.91723066  0.14347712  1
  O2-  O430  1  0.84465411  0.92602474  0.49070714  1
  O2-  O431  1  0.83523217  0.89786747  0.80340325  1
  O2-  O432  1  0.15923260  0.08208434  0.16871279  1
  O2-  O433  1  0.14807978  0.05341751  0.51712224  1
  O2-  O434  1  0.15451566  0.07405899  0.84484565  1
  O2-  O435  1  0.15740663  0.32935372  0.18570373  1
  O2-  O436  1  0.20381391  0.44387989  0.52464379  1
  O2-  O437  1  0.18503669  0.31884543  0.86246608  1
  O2-  O438  1  0.16417730  0.57791579  0.18383254  1
  O2-  O439  1  0.18912440  0.59016566  0.53319698  1
  O2-  O440  1  0.16974943  0.59470710  0.82159540  1
  O2-  O441  1  0.06085809  0.75415415  0.24757585  1
  O2-  O442  1  0.15938411  0.81898782  0.46159643  1
  O2-  O443  1  0.16574844  0.83010900  0.86063766  1
  O2-  O444  1  0.41326630  0.07857591  0.17314817  1
  O2-  O445  1  0.48400134  0.12877739  0.53696008  1
  O2-  O446  1  0.39540158  0.06781849  0.85281131  1
  O2-  O447  1  0.41255137  0.32821323  0.18228057  1
  O2-  O448  1  0.45911771  0.41204128  0.52900108  1
  O2-  O449  1  0.47838766  0.40385554  0.86058076  1
  O2-  O450  1  0.42661806  0.57539029  0.18199688  1
  O2-  O451  1  0.43098015  0.60874398  0.52072012  1
  O2-  O452  1  0.41924432  0.58796803  0.85915188  1
  O2-  O453  1  0.41693938  0.82939714  0.18170727  1
  O2-  O454  1  0.38907161  0.87226876  0.52805591  1
  O2-  O455  1  0.43223671  0.84410573  0.85458146  1
  O2-  O456  1  0.66292322  0.07588503  0.18699714  1
  O2-  O457  1  0.68165805  0.09762994  0.52240952  1
  O2-  O458  1  0.69869087  0.11977549  0.85933218  1
  O2-  O459  1  0.67050900  0.32177347  0.19089016  1
  O2-  O460  1  0.73587109  0.34274482  0.57091410  1
  O2-  O461  1  0.68178952  0.30351031  0.85422005  1
  O2-  O462  1  0.63487931  0.56009155  0.19936624  1
  O2-  O463  1  0.63509496  0.54814478  0.52769539  1
  O2-  O464  1  0.66411393  0.54245233  0.86288460  1
  O2-  O465  1  0.66844664  0.82858094  0.18814093  1
  O2-  O466  1  0.59375708  0.80082675  0.55720974  1
  O2-  O467  1  0.67641085  0.84312381  0.84576572  1
  O2-  O468  1  0.90930209  0.08468343  0.18666768  1
  O2-  O469  1  0.92124901  0.07479387  0.53740031  1
  O2-  O470  1  0.92785490  0.13082021  0.86172834  1
  O2-  O471  1  0.88843290  0.34212138  0.19025970  1
  O2-  O472  1  0.93411106  0.32565579  0.49806047  1
  O2-  O473  1  0.90311644  0.32125805  0.85684817  1
  O2-  O474  1  0.90577475  0.54943487  0.18330320  1
  O2-  O475  1  0.91168002  0.59124369  0.50104996  1
  O2-  O476  1  0.90219798  0.56668136  0.83356174  1
  O2-  O477  1  0.92404416  0.83671394  0.17638386  1
  O2-  O478  1  0.90026475  0.81664139  0.52563788  1
  O2-  O479  1  0.91669972  0.81501903  0.85798559  1
  O2-  O480  1  0.13794277  0.06952618  0.29141209  1
  O2-  O481  1  0.16311147  0.07267215  0.64039857  1
  O2-  O482  1  0.17981337  0.09238947  0.96857444  1
  O2-  O483  1  0.16856862  0.32762052  0.30789960  1
  O2-  O484  1  0.16576039  0.32071274  0.70362721  1
  O2-  O485  1  0.15903279  0.32521849  0.98281117  1
  O2-  O486  1  0.17745765  0.57844755  0.30308802  1
  O2-  O487  1  0.16111451  0.58207075  0.65575844  1
  O2-  O488  1  0.13722780  0.56061727  0.98806104  1
  O2-  O489  1  0.16805608  0.85026174  0.33918142  1
  O2-  O490  1  0.16214390  0.83925492  0.65969669  1
  O2-  O491  1  0.17632635  0.83744613  0.98633703  1
  O2-  O492  1  0.45788931  0.04473381  0.28551484  1
  O2-  O493  1  0.43184478  0.09353229  0.66268372  1
  O2-  O494  1  0.39932896  0.07442315  0.96389275  1
  O2-  O495  1  0.39213567  0.31395640  0.31071560  1
  O2-  O496  1  0.41630997  0.33994124  0.64078629  1
  O2-  O497  1  0.42654486  0.34205591  0.97618694  1
  O2-  O498  1  0.42761237  0.57382486  0.29950823  1
  O2-  O499  1  0.41206485  0.58590261  0.64374494  1
  O2-  O500  1  0.39665012  0.57487446  0.97494716  1
  O2-  O501  1  0.41676290  0.82639526  0.30343734  1
  O2-  O502  1  0.40126783  0.83469054  0.64817044  1
  O2-  O503  1  0.41407293  0.82903234  0.97696569  1
  O2-  O504  1  0.68060970  0.08595989  0.30913749  1
  O2-  O505  1  0.69248575  0.16435975  0.63696686  1
  O2-  O506  1  0.67281313  0.08016007  0.97752466  1
  O2-  O507  1  0.61968824  0.31173514  0.29737857  1
  O2-  O508  1  0.61965396  0.37674014  0.66655132  1
  O2-  O509  1  0.67098435  0.32353787  0.97882375  1
  O2-  O510  1  0.65354108  0.53734164  0.32576919  1
  O2-  O511  1  0.65711622  0.57669502  0.64790640  1
  O2-  O512  1  0.68532441  0.58293987  0.98602699  1
  O2-  O513  1  0.66693233  0.83130829  0.31389417  1
  O2-  O514  1  0.69854470  0.90910156  0.63167199  1
  O2-  O515  1  0.60610414  0.77902110  0.96580059  1
  O2-  O516  1  0.91157544  0.08232195  0.31244455  1
  O2-  O517  1  0.91994072  0.08062619  0.60463161  1
  O2-  O518  1  0.91497072  0.09296386  0.98396683  1
  O2-  O519  1  0.90966750  0.34421603  0.31330076  1
  O2-  O520  1  0.94319100  0.33792529  0.62067248  1
  O2-  O521  1  0.91065039  0.32940865  0.98233167  1
  O2-  O522  1  0.92350984  0.61621901  0.29882819  1
  O2-  O523  1  0.90206865  0.58155696  0.65507219  1
  O2-  O524  1  0.92268495  0.60156821  0.98511842  1
  O2-  O525  1  0.91018845  0.83546777  0.30326525  1
  O2-  O526  1  0.91518889  0.82504594  0.64787712  1
  O2-  O527  1  0.91770291  0.83778423  0.98183826  1
  O2-  O528  1  0.06915706  0.17466905  0.02553430  1
  O2-  O529  1  0.07701670  0.16456930  0.35065685  1
  O2-  O530  1  0.07594735  0.15231153  0.67473091  1
  O2-  O531  1  0.06987634  0.39697505  0.02962574  1
  O2-  O532  1  0.08278669  0.41285351  0.32771947  1
  O2-  O533  1  0.12025072  0.41490946  0.63174369  1
  O2-  O534  1  0.08961516  0.67379077  0.02865262  1
  O2-  O535  1  0.08815066  0.64029969  0.35928882  1
  O2-  O536  1  0.07279191  0.66511621  0.69470032  1
  O2-  O537  1  0.04729485  0.96452391  0.04266737  1
  O2-  O538  1  0.06767979  0.91884782  0.35255753  1
  O2-  O539  1  0.07575501  0.91381256  0.69096875  1
  O2-  O540  1  0.33813609  0.16891504  0.00748681  1
  O2-  O541  1  0.30460694  0.14266606  0.33301178  1
  O2-  O542  1  0.32968713  0.16685413  0.67767587  1
  O2-  O543  1  0.32779376  0.41113290  0.02157247  1
  O2-  O544  1  0.33158472  0.41356447  0.34975366  1
  O2-  O545  1  0.33992191  0.42384619  0.69032805  1
  O2-  O546  1  0.31594969  0.66170129  0.01716949  1
  O2-  O547  1  0.33594649  0.65608844  0.34302406  1
  O2-  O548  1  0.33190129  0.66886515  0.69178968  1
  O2-  O549  1  0.33726294  0.92050481  0.00919768  1
  O2-  O550  1  0.34188771  0.92258284  0.35180262  1
  O2-  O551  1  0.32912285  0.92127815  0.69715764  1
  O2-  O552  1  0.59719242  0.15870540  0.01917900  1
  O2-  O553  1  0.59308815  0.17011417  0.34304759  1
  O2-  O554  1  0.58689691  0.21839662  0.71151399  1
  O2-  O555  1  0.59324562  0.41461703  0.01933656  1
  O2-  O556  1  0.70839988  0.43301289  0.37056140  1
  O2-  O557  1  0.57206800  0.41599164  0.69221490  1
  O2-  O558  1  0.58810693  0.63460767  0.02960087  1
  O2-  O559  1  0.58768916  0.67185176  0.35315432  1
  O2-  O560  1  0.57484045  0.66489171  0.68299186  1
  O2-  O561  1  0.57702138  0.90796230  0.02053856  1
  O2-  O562  1  0.57432736  0.91329563  0.34191001  1
  O2-  O563  1  0.57123339  0.92098804  0.68735353  1
  O2-  O564  1  0.82902985  0.16436461  0.02411696  1
  O2-  O565  1  0.84248662  0.17663857  0.35341062  1
  O2-  O566  1  0.83988880  0.17877853  0.64720619  1
  O2-  O567  1  0.83909764  0.43449999  0.01928078  1
  O2-  O568  1  0.86436585  0.45785570  0.36634662  1
  O2-  O569  1  0.79148549  0.42359311  0.67682709  1
  O2-  O570  1  0.84358251  0.67855091  0.01829706  1
  O2-  O571  1  0.82218829  0.67276963  0.35017462  1
  O2-  O572  1  0.81489499  0.66199022  0.69184926  1
  O2-  O573  1  0.83024089  0.92365048  0.01639206  1
  O2-  O574  1  0.83021646  0.91900558  0.35963821  1
  O2-  O575  1  0.84609337  0.92445960  0.67572969  1
