# generated using pymatgen
data_H2O
_symmetry_space_group_name_H-M   'P 1'
_cell_length_a   17.99181021
_cell_length_b   17.98815678
_cell_length_c   22.00042683
_cell_angle_alpha   90.03207985
_cell_angle_beta   89.97079193
_cell_angle_gamma   120.01976768
_symmetry_Int_Tables_number   1
_chemical_formula_structural   H2O
_chemical_formula_sum   'H384 O192'
_cell_volume   6165.05049370
_cell_formula_units_Z   192
loop_
 _symmetry_equiv_pos_site_id
 _symmetry_equiv_pos_as_xyz
  1  'x, y, z'
loop_
 _atom_type_symbol
 _atom_type_oxidation_number
  H+  1.0
  O2-  -2.0
loop_
 _atom_site_type_symbol
 _atom_site_label
 _atom_site_symmetry_multiplicity
 _atom_site_fract_x
 _atom_site_fract_y
 _atom_site_fract_z
 _atom_site_occupancy
  H+  H0  1  0.13136810  0.36135275  -0.01149249  1
  H+  H1  1  0.34965387  0.13352988  0.47640200  1
  H+  H2  1  0.57314737  0.39225772  0.52108296  1
  H+  H3  1  0.40808741  0.15886688  0.70456308  1
  H+  H4  1  0.50944647  0.16507907  0.48020710  1
  H+  H5  1  0.26894712  0.14241774  0.32079118  1
  H+  H6  1  0.87215851  0.22083061  0.49159692  1
  H+  H7  1  0.09174225  0.67688813  0.06053689  1
  H+  H8  1  0.37359391  0.76590750  0.50889745  1
  H+  H9  1  0.11331476  0.71974427  0.48958811  1
  H+  H10  1  0.63301074  0.52080963  0.00062408  1
  H+  H11  1  0.35999195  0.72633296  0.15673258  1
  H+  H12  1  0.87303862  0.73342670  0.34140655  1
  H+  H13  1  0.14200362  0.52849354  0.83868053  1
  H+  H14  1  0.88319351  0.77062142  0.84485104  1
  H+  H15  1  0.16689963  0.33440354  0.56299323  1
  H+  H16  1  0.59985715  0.10842230  -0.02073886  1
  H+  H17  1  0.22134434  0.10970375  0.49398563  1
  H+  H18  1  0.64314794  0.10822589  0.65934313  1
  H+  H19  1  0.91205286  0.29394602  0.32589574  1
  H+  H20  1  0.26464505  0.63413719  0.48820694  1
  H+  H21  1  0.47018393  0.62880063  0.49572297  1
  H+  H22  1  0.13064938  0.37283507  0.65620620  1
  H+  H23  1  0.87115165  0.86388070  0.32703690  1
  H+  H24  1  0.66735798  1.01752799  0.14604096  1
  H+  H25  1  0.10503903  0.13377186  0.14877008  1
  H+  H26  1  0.35947473  0.88056685  0.49463388  1
  H+  H27  1  0.85429830  -0.02920273  0.48638749  1
  H+  H28  1  0.57880884  0.37755966  0.64279882  1
  H+  H29  1  0.89007586  0.39555909  0.48510772  1
  H+  H30  1  0.53362691  0.13695692  0.82859131  1
  H+  H31  1  0.92770788  0.08399390  0.55902237  1
  H+  H32  1  0.35242918  0.38738655  0.66771764  1
  H+  H33  1  0.37897148  1.02610660  0.17221136  1
  H+  H34  1  0.87841693  0.09339916  0.96385698  1
  H+  H35  1  0.24004009  0.84753914  0.65056455  1
  H+  H36  1  0.14173522  0.27198557  0.17243818  1
  H+  H37  1  0.36339656  0.63270675  0.33686730  1
  H+  H38  1  0.35479385  0.63690824  0.48658723  1
  H+  H39  1  0.44460991  0.35498458  0.50646057  1
  H+  H40  1  0.22716393  0.87265371  0.83999788  1
  H+  H41  1  0.37761322  0.23386625  0.98864297  1
  H+  H42  1  0.12949765  0.61574054  0.98875876  1
  H+  H43  1  0.51972986  0.87084240  0.67032054  1
  H+  H44  1  0.13403489  0.51686407  0.50606264  1
  H+  H45  1  0.78424430  0.42807797  0.57131268  1
  H+  H46  1  0.51988839  0.89013766  1.00913482  1
  H+  H47  1  0.98398057  0.61922343  0.16362962  1
  H+  H48  1  0.23072336  0.36128204  0.17366532  1
  H+  H49  1  -0.03418118  0.60412219  0.66930551  1
  H+  H50  1  0.24836686  0.21779069  0.61436339  1
  H+  H51  1  0.02727492  0.13232350  0.48649824  1
  H+  H52  1  0.97359911  0.10935528  0.15189167  1
  H+  H53  1  0.81677097  0.65473696  0.07346470  1
  H+  H54  1  0.18873219  0.72197999  0.11079451  1
  H+  H55  1  0.57838158  0.20048883  0.66473008  1
  H+  H56  1  0.27011377  0.89177504  0.16335993  1
  H+  H57  1  0.12086694  0.10905832  -0.01226201  1
  H+  H58  1  0.14374151  0.61849663  0.84204914  1
  H+  H59  1  0.38447574  0.37051070  0.28280666  1
  H+  H60  1  0.12107596  0.99019978  0.82598254  1
  H+  H61  1  0.04096121  0.39512412  0.34412505  1
  H+  H62  1  0.22125351  0.37441254  0.65789526  1
  H+  H63  1  0.37930805  0.15972615  0.85321552  1
  H+  H64  1  0.16536659  0.74792983  0.31516386  1
  H+  H65  1  0.36565746  0.85347029  0.67307597  1
  H+  H66  1  0.11547763  0.22273892  0.48923219  1
  H+  H67  1  0.98124547  0.35598331  0.50580264  1
  H+  H68  1  0.61035853  0.76003386  0.49597911  1
  H+  H69  1  0.90027133  0.29820218  0.18525037  1
  H+  H70  1  0.71488409  0.61571273  0.83915149  1
  H+  H71  1  0.27609323  0.64827140  0.82543508  1
  H+  H72  1  0.60816672  0.47523297  0.65276198  1
  H+  H73  1  0.36239330  0.15710353  0.16823807  1
  H+  H74  1  0.39290508  0.38204082  0.00409311  1
  H+  H75  1  0.90242562  0.11353635  0.49747230  1
  H+  H76  1  -0.01279456  0.38847025  0.17137437  1
  H+  H77  1  -0.03354444  0.82533600  0.67227732  1
  H+  H78  1  0.05328974  0.72311446  0.70519804  1
  H+  H79  1  0.39612131  0.52642313  0.32271793  1
  H+  H80  1  0.36607353  0.48825189  0.15839676  1
  H+  H81  1  0.80080137  0.65044184  0.48996112  1
  H+  H82  1  0.11346795  0.49320310  0.15552552  1
  H+  H83  1  0.64317196  0.36748092  0.36402688  1
  H+  H84  1  0.85209787  0.47390150  0.67360561  1
  H+  H85  1  0.73039273  0.36490380  0.35395413  1
  H+  H86  1  0.14412664  0.77366926  0.16172948  1
  H+  H87  1  0.13252051  0.14486343  0.31889172  1
  H+  H88  1  0.24298821  0.08747350  0.68146103  1
  H+  H89  1  0.83054302  0.16014423  0.73399303  1
  H+  H90  1  0.69339176  0.12042226  0.98498025  1
  H+  H91  1  0.29328716  0.87284411  0.32807870  1
  H+  H92  1  0.75681529  0.62049174  0.66449316  1
  H+  H93  1  -0.03279593  0.35824827  0.66071595  1
  H+  H94  1  0.87549976  0.35143738  0.65794762  1
  H+  H95  1  1.03122261  0.64317939  0.83107753  1
  H+  H96  1  0.89644024  0.77716653  0.51888470  1
  H+  H97  1  0.67516545  0.16210564  0.46103501  1
  H+  H98  1  0.10820382  0.24139798  0.67279884  1
  H+  H99  1  0.40628097  0.07967289  0.54173315  1
  H+  H100  1  -0.00379153  0.12265461  0.31772304  1
  H+  H101  1  0.14863039  0.12046654  0.83639461  1
  H+  H102  1  0.87460340  0.06849276  0.13218689  1
  H+  H103  1  0.66546952  0.36110248  0.56740743  1
  H+  H104  1  0.22277921  0.36265032  0.50071547  1
  H+  H105  1  0.98744518  0.61641463  0.51486707  1
  H+  H106  1  0.89130695  0.15503960  0.33144718  1
  H+  H107  1  0.36371048  0.63818449  0.15997995  1
  H+  H108  1  0.87559419  0.95824356  0.14960868  1
  H+  H109  1  0.63502262  0.26660764  0.84752138  1
  H+  H110  1  1.02603885  0.62890086  0.33794981  1
  H+  H111  1  0.38880397  0.74779156  0.66315170  1
  H+  H112  1  0.11956181  0.73416487  0.83585503  1
  H+  H113  1  0.63550830  0.08398215  0.82508878  1
  H+  H114  1  0.36028034  0.48038178  0.66486821  1
  H+  H115  1  0.47772785  0.06528080  0.74144761  1
  H+  H116  1  0.02138818  0.38629318  0.00253674  1
  H+  H117  1  0.12062643  0.90296706  1.00807514  1
  H+  H118  1  0.62757928  0.59677183  0.19889951  1
  H+  H119  1  0.61560182  0.78775056  0.83493215  1
  H+  H120  1  0.63833932  0.35576436  0.83746025  1
  H+  H121  1  0.85779838  0.71920142  0.16145082  1
  H+  H122  1  0.38377484  0.62429966  0.83318870  1
  H+  H123  1  0.94084877  0.35909979  0.26901831  1
  H+  H124  1  0.38600294  0.38029682  0.17914748  1
  H+  H125  1  0.48424006  0.61796898  0.32978331  1
  H+  H126  1  0.63110975  0.51167197  0.18633869  1
  H+  H127  1  0.59889541  0.87258486  0.50501214  1
  H+  H128  1  0.92463456  0.60054842  0.77937034  1
  H+  H129  1  0.48035108  0.85925277  0.85145887  1
  H+  H130  1  -0.01370124  0.87061852  0.52859888  1
  H+  H131  1  0.14586103  0.26703835  0.32623604  1
  H+  H132  1  0.40087206  0.04643625  0.86653101  1
  H+  H133  1  0.22059909  0.36859654  0.83165809  1
  H+  H134  1  0.89876255  0.86838182  -0.01056813  1
  H+  H135  1  0.23228230  0.62133834  0.17382468  1
  H+  H136  1  1.02420920  0.89516518  1.00813555  1
  H+  H137  1  0.71178283  0.34774706  0.16256812  1
  H+  H138  1  0.73794170  0.61900189  0.34128725  1
  H+  H139  1  0.64237778  0.77909123  0.31685886  1
  H+  H140  1  0.87937494  0.64612506  0.34100112  1
  H+  H141  1  0.13392814  0.86037259  0.50525316  1
  H+  H142  1  0.43159108  0.59559281  0.23259249  1
  H+  H143  1  0.63792985  0.77927352  0.67786320  1
  H+  H144  1  0.86660985  0.12834963  0.81699957  1
  H+  H145  1  0.72196045  0.40569231  0.72847796  1
  H+  H146  1  0.35493534  0.48304792  0.00187472  1
  H+  H147  1  0.40496523  0.83307097  0.94367455  1
  H+  H148  1  0.52771368  0.39838725  0.01673411  1
  H+  H149  1  0.70874576  -0.01798443  0.53742867  1
  H+  H150  1  0.12230711  0.84498781  0.34258082  1
  H+  H151  1  0.77478854  0.12228468  0.82590043  1
  H+  H152  1  0.75240176  0.62346206  1.00885440  1
  H+  H153  1  0.15103976  0.76079907  0.64711204  1
  H+  H154  1  0.62978324  0.02143284  0.33272376  1
  H+  H155  1  0.85781272  0.63787434  0.00729313  1
  H+  H156  1  0.13229393  0.11247397  0.49603639  1
  H+  H157  1  0.72694455  0.86896865  0.68824257  1
  H+  H158  1  0.06708549  0.98076195  0.67693846  1
  H+  H159  1  0.60869282  0.64329408  0.67735956  1
  H+  H160  1  0.10991296  -0.01927868  0.51158160  1
  H+  H161  1  0.12374840  0.16494548  0.66220940  1
  H+  H162  1  0.27110965  0.88053128  0.48569839  1
  H+  H163  1  0.12540675  0.38745558  0.34671122  1
  H+  H164  1  0.63726478  0.77847373  0.99904834  1
  H+  H165  1  0.16643691  0.58661411  0.93264013  1
  H+  H166  1  0.37912914  0.53224805  0.83278696  1
  H+  H167  1  0.67953300  0.13041546  0.44139040  1
  H+  H168  1  0.86368533  0.15473429  0.19080005  1
  H+  H169  1  0.62526463  0.89282798  0.34627757  1
  H+  H170  1  0.11328528  0.38397687  0.49667597  1
  H+  H171  1  0.75840104  0.89108233  0.48562222  1
  H+  H172  1  0.36882936  0.89209990  0.83107840  1
  H+  H173  1  0.14124582  0.61573200  0.32450587  1
  H+  H174  1  0.89540877  0.61860412  0.16668366  1
  H+  H175  1  0.96331375  0.87368444  0.32388947  1
  H+  H176  1  0.37492028  0.10772153  0.31798242  1
  H+  H177  1  0.97959948  0.11984254  0.65427765  1
  H+  H178  1  0.29988893  0.29110908  0.89876032  1
  H+  H179  1  0.51418655  0.14026297  0.33749482  1
  H+  H180  1  1.02142335  0.88303161  0.16398785  1
  H+  H181  1  0.72983488  0.86823292  0.31562412  1
  H+  H182  1  0.10548402  0.22330416  0.99269033  1
  H+  H183  1  0.84812671  0.62706457  0.67754138  1
  H+  H184  1  0.89823772  0.01904822  0.80428968  1
  H+  H185  1  0.78574778  0.38695200  0.57263585  1
  H+  H186  1  0.82591670  0.91901998  0.39581860  1
  H+  H187  1  0.59291867  0.95753918  0.49943352  1
  H+  H188  1  0.46481591  0.85256962  0.51432282  1
  H+  H189  1  0.59161208  0.22739951  0.14833327  1
  H+  H190  1  0.37856885  0.61602909  -0.00968156  1
  H+  H191  1  0.47195599  0.61712490  0.65173895  1
  H+  H192  1  0.88825866  0.26628757  0.99383204  1
  H+  H193  1  0.27601112  0.15838332  0.16240171  1
  H+  H194  1  0.65317529  0.57556990  0.89545453  1
  H+  H195  1  0.41991552  0.35347454  0.94478753  1
  H+  H196  1  0.11868068  0.85984314  0.31099611  1
  H+  H197  1  0.34473802  0.22077491  0.48270572  1
  H+  H198  1  0.34409542  0.38918570  0.82627629  1
  H+  H199  1  1.01676019  0.13182462  0.98854569  1
  H+  H200  1  0.90272390  0.62303939  0.51333841  1
  H+  H201  1  0.12463691  1.04775794  0.30440170  1
  H+  H202  1  0.25143380  0.05605517  0.69838425  1
  H+  H203  1  0.11451174  0.73664849  0.00185832  1
  H+  H204  1  0.61506531  0.10247217  0.32653319  1
  H+  H205  1  0.79450967  0.12277704  0.49337840  1
  H+  H206  1  0.48652049  0.62384306  0.17098144  1
  H+  H207  1  0.61885292  0.48116717  0.35802342  1
  H+  H208  1  0.87372414  0.34662861  -0.00663544  1
  H+  H209  1  0.39705235  -0.00497515  0.70455587  1
  H+  H210  1  0.38411588  0.02189882  0.31961291  1
  H+  H211  1  0.63001610  0.60933346  -0.00596246  1
  H+  H212  1  0.38439149  0.29231753  0.19025905  1
  H+  H213  1  0.66455290  0.60173100  0.49727060  1
  H+  H214  1  0.03407757  0.13571266  0.81458396  1
  H+  H215  1  0.32097093  0.87202113  0.73007279  1
  H+  H216  1  0.37873731  0.85500641  0.16767495  1
  H+  H217  1  0.40509733  0.86629612  0.31667806  1
  H+  H218  1  0.62665886  0.75152633  0.14996155  1
  H+  H219  1  0.26493132  0.63436076  0.00839616  1
  H+  H220  1  0.35540037  0.26726440  0.85731306  1
  H+  H221  1  0.59984087  -0.01982219  0.99212708  1
  H+  H222  1  0.85924369  0.17924149  0.39076914  1
  H+  H223  1  0.88907961  0.26618733  0.83839705  1
  H+  H224  1  0.82489279  0.88433130  -0.08565009  1
  H+  H225  1  0.10491478  0.47794522  0.67088694  1
  H+  H226  1  0.10863853  0.84112368  0.67550057  1
  H+  H227  1  0.11278113  0.39054616  0.82242210  1
  H+  H228  1  0.60539944  0.26050512  0.99836501  1
  H+  H229  1  0.84725606  0.63410880  0.82462487  1
  H+  H230  1  0.89357899  0.52926527  0.32244245  1
  H+  H231  1  0.51605123  0.64224941  0.82600333  1
  H+  H232  1  0.88008980  0.40259173  0.33139135  1
  H+  H233  1  0.74451618  0.18077798  0.07081632  1
  H+  H234  1  0.97926327  0.63851732  0.99531287  1
  H+  H235  1  0.36322671  0.89554130  0.01272537  1
  H+  H236  1  0.51599597  0.39199748  0.17400730  1
  H+  H237  1  0.48776511  0.13178120  0.15826740  1
  H+  H238  1  0.75553276  0.35644579  0.00819579  1
  H+  H239  1  0.23410665  0.88469284  -0.00241530  1
  H+  H240  1  0.46115964  0.36760066  0.65121760  1
  H+  H241  1  0.12430738  0.93998495  0.36184592  1
  H+  H242  1  0.13470312  1.03137836  0.17011651  1
  H+  H243  1  0.51376343  0.63458069  0.99671118  1
  H+  H244  1  0.13618003  0.27495674  0.83193025  1
  H+  H245  1  0.04024391  -0.00597708  0.69531286  1
  H+  H246  1  0.58914132  0.23204033  0.44218314  1
  H+  H247  1  0.56684989  0.47711960  0.50863313  1
  H+  H248  1  0.74328984  0.09220688  0.07236182  1
  H+  H249  1  0.38693592  0.78211448  0.84129168  1
  H+  H250  1  0.86868396  0.74999810  0.66747925  1
  H+  H251  1  0.64223506  0.86968580  -0.00063085  1
  H+  H252  1  0.76942062  0.62779280  0.16618756  1
  H+  H253  1  0.86853432  0.97894339  0.33558204  1
  H+  H254  1  0.35570013  0.35147294  0.50120502  1
  H+  H255  1  0.58500631  0.28551402  0.53453327  1
  H+  H256  1  -0.02900565  0.85993501  0.84507013  1
  H+  H257  1  0.86479149  0.88073509  0.69474244  1
  H+  H258  1  0.23891002  0.62200027  0.32057775  1
  H+  H259  1  0.36531042  0.96723894  0.79125736  1
  H+  H260  1  0.14923390  0.63465028  0.16819397  1
  H+  H261  1  0.12054660  1.00776490  -0.00319664  1
  H+  H262  1  0.62119744  0.87988810  0.67971446  1
  H+  H263  1  0.85482302  0.21730576  0.67317239  1
  H+  H264  1  0.11308606  0.62965222  0.49517036  1
  H+  H265  1  0.32795416  0.41792368  0.42163801  1
  H+  H266  1  0.14296545  0.61478304  0.65925117  1
  H+  H267  1  0.39001498  0.15445188  -0.01223202  1
  H+  H268  1  0.10878625  0.47699997  -0.00023991  1
  H+  H269  1  0.45343262  0.11052694  0.91878217  1
  H+  H270  1  0.37693917  0.01510709  0.48641794  1
  H+  H271  1  0.08255511  0.65165834  0.39956321  1
  H+  H272  1  0.59527527  0.66345886  0.50202909  1
  H+  H273  1  0.37571083  0.77261650  1.00226619  1
  H+  H274  1  0.62405231  0.94219235  0.83310076  1
  H+  H275  1  0.32289278  0.16518665  0.38199195  1
  H+  H276  1  0.35650922  0.48003803  0.47970487  1
  H+  H277  1  0.23782644  0.11954401  0.84407467  1
  H+  H278  1  0.60683616  0.22398608  0.35005754  1
  H+  H279  1  0.13785739  0.87152274  0.83974418  1
  H+  H280  1  0.13425630  0.85894508  0.17550971  1
  H+  H281  1  0.62650070  0.35319571  0.17139214  1
  H+  H282  1  0.60933725  0.97129318  0.67369485  1
  H+  H283  1  0.88436301  0.84857683  0.16666285  1
  H+  H284  1  0.67714015  0.89716481  0.15795248  1
  H+  H285  1  0.88331086  0.39194252  0.82975017  1
  H+  H286  1  0.88026422  0.00586752  0.95733188  1
  H+  H287  1  0.64740430  0.67915930  0.13305328  1
  H+  H288  1  0.64313152  0.96215817  0.08267146  1
  H+  H289  1  0.69802914  0.04983562  0.57747573  1
  H+  H290  1  0.32611794  0.66021628  0.06752392  1
  H+  H291  1  0.38140103  0.61353535  0.64920150  1
  H+  H292  1  0.85708556  0.47440775  0.15286922  1
  H+  H293  1  0.17130345  0.82670668  0.55676944  1
  H+  H294  1  0.57573896  0.66842875  0.73729907  1
  H+  H295  1  0.67518516  0.58128655  0.28466643  1
  H+  H296  1  0.14116802  1.02494294  0.39256378  1
  H+  H297  1  0.17442837  0.85395414  0.93815278  1
  H+  H298  1  0.09504459  0.17860543  0.38630937  1
  H+  H299  1  0.84918100  0.41564105  0.77016406  1
  H+  H300  1  0.58848205  0.68653560  0.40088405  1
  H+  H301  1  0.93080254  0.08352680  0.26168263  1
  H+  H302  1  0.60548582  0.42297614  0.74616596  1
  H+  H303  1  0.85972864  0.43660249  0.39102066  1
  H+  H304  1  0.02440833  0.38953828  0.82603542  1
  H+  H305  1  0.54250127  0.15833535  0.08759866  1
  H+  H306  1  0.41091416  0.58512077  0.55365599  1
  H+  H307  1  0.05625764  0.94864830  0.77303929  1
  H+  H308  1  0.93260422  0.82838458  0.94322231  1
  H+  H309  1  0.06910433  0.92139625  0.45582793  1
  H+  H310  1  0.39351982  0.32446507  0.59680559  1
  H+  H311  1  0.41336377  0.82511340  0.22367416  1
  H+  H312  1  0.57176005  0.41910877  0.41303610  1
  H+  H313  1  0.66952603  0.26646544  0.68953459  1
  H+  H314  1  0.09872703  0.17466052  0.75987447  1
  H+  H315  1  0.39131253  0.77288234  0.31680960  1
  H+  H316  1  0.61100468  0.38835606  0.01811928  1
  H+  H317  1  0.33219096  0.67942598  0.76403652  1
  H+  H318  1  0.82964304  0.17857650  0.13257269  1
  H+  H319  1  0.64160041  0.06546897  0.23774938  1
  H+  H320  1  0.38084664  0.99200767  0.01474290  1
  H+  H321  1  0.89644895  0.52288400  0.82405111  1
  H+  H322  1  0.71135530  0.12680067  0.19227264  1
  H+  H323  1  0.91588787  0.58084228  0.60574648  1
  H+  H324  1  0.86463006  0.39178802  0.16161532  1
  H+  H325  1  0.91610957  0.60507051  0.93817686  1
  H+  H326  1  0.67684846  0.84891859  0.22112747  1
  H+  H327  1  0.34158915  0.91417695  0.39132519  1
  H+  H328  1  0.31038339  0.59193004  0.71134078  1
  H+  H329  1  0.58989388  0.91000895  0.40856140  1
  H+  H330  1  0.16224368  0.07911348  0.93136804  1
  H+  H331  1  0.91719286  0.82193081  0.59205833  1
  H+  H332  1  0.16108826  0.33343900  0.92801341  1
  H+  H333  1  0.43500802  0.11675349  0.62133808  1
  H+  H334  1  0.18554580  0.12959542  0.58239531  1
  H+  H335  1  0.57311231  0.66799240  0.05584593  1
  H+  H336  1  0.41252306  0.80900235  0.60300972  1
  H+  H337  1  0.64251942  0.48053531  0.80521092  1
  H+  H338  1  0.32847888  0.42345552  0.76166969  1
  H+  H339  1  0.33249116  0.42782041  0.09912290  1
  H+  H340  1  0.91935958  0.06766024  0.86991892  1
  H+  H341  1  0.19322031  0.80603674  0.25511778  1
  H+  H342  1  0.88963562  0.48439200  0.49176839  1
  H+  H343  1  0.59559884  0.17390556  0.76769258  1
  H+  H344  1  0.41335930  0.08615844  0.23275719  1
  H+  H345  1  0.07849392  0.85859906  0.73985846  1
  H+  H346  1  0.16662230  0.57910049  0.56483164  1
  H+  H347  1  0.64917799  0.58183355  0.57025851  1
  H+  H348  1  0.88754040  0.11000994  0.65197503  1
  H+  H349  1  0.48035559  0.12659036  0.61424431  1
  H+  H350  1  0.57603575  0.41949046  0.11343940  1
  H+  H351  1  0.32876433  0.66356853  0.39406769  1
  H+  H352  1  0.40116777  0.24197023  0.68959835  1
  H+  H353  1  0.07760425  0.16629473  0.08921430  1
  H+  H354  1  0.08767689  0.41481660  0.43589953  1
  H+  H355  1  0.65706335  0.06514849  0.88906940  1
  H+  H356  1  0.17603759  0.60045909  0.25373179  1
  H+  H357  1  0.92754777  0.59372103  0.26491758  1
  H+  H358  1  0.16255404  0.10277284  0.22255125  1
  H+  H359  1  0.08282252  0.92060821  0.10629790  1
  H+  H360  1  0.91807192  0.32401054  0.89870588  1
  H+  H361  1  0.86072012  0.68597004  0.43222363  1
  H+  H362  1  0.66732508  0.84390319  0.56534402  1
  H+  H363  1  0.08278267  0.43139829  0.09719147  1
  H+  H364  1  0.07635549  0.41921656  0.73083983  1
  H+  H365  1  0.23178962  0.60984964  0.66283519  1
  H+  H366  1  0.36977201  0.19195855  0.78754379  1
  H+  H367  1  0.17831110  0.33246709  0.26357757  1
  H+  H368  1  0.90752544  0.82194194  0.23074138  1
  H+  H369  1  0.60510621  0.64235215  0.82779543  1
  H+  H370  1  0.72765464  0.10273043  0.67059905  1
  H+  H371  1  0.62176606  0.64686534  0.34885089  1
  H+  H372  1  0.91650689  0.32431718  0.56292218  1
  H+  H373  1  0.82156774  0.39277370  0.06357985  1
  H+  H374  1  0.71334141  0.53661738  0.60425874  1
  H+  H375  1  0.81452656  0.66320034  0.76738739  1
  H+  H376  1  0.33124177  0.92629444  0.10467072  1
  H+  H377  1  0.64501038  0.32397328  0.94271416  1
  H+  H378  1  0.08127921  0.66891922  0.74380388  1
  H+  H379  1  0.40734463  0.58856906  0.92856515  1
  H+  H380  1  0.78351444  0.87712249  0.15021856  1
  H+  H381  1  0.76555542  0.87856343  -0.02836358  1
  H+  H382  1  0.25487410  0.37213284  0.32415279  1
  H+  H383  1  0.26866369  0.39071462  0.00329570  1
  O2-  O384  1  0.07251945  0.16310651  0.13413737  1
  O2-  O385  1  0.08896516  0.16389205  0.47143738  1
  O2-  O386  1  0.09725126  0.17010692  0.80583872  1
  O2-  O387  1  0.07847393  0.43296554  0.14193465  1
  O2-  O388  1  0.08391721  0.41556865  0.48248870  1
  O2-  O389  1  0.08414730  0.42351863  0.80943758  1
  O2-  O390  1  0.13002172  0.69244578  0.12655120  1
  O2-  O391  1  0.08044474  0.65756547  0.47895415  1
  O2-  O392  1  0.09376247  0.67393436  0.82051995  1
  O2-  O393  1  0.08280252  0.91831608  0.15130785  1
  O2-  O394  1  0.07453760  0.91671552  0.50054240  1
  O2-  O395  1  0.08258091  0.93252018  0.80562101  1
  O2-  O396  1  0.33901389  0.19475981  0.15779901  1
  O2-  O397  1  0.31651860  0.16191474  0.46416111  1
  O2-  O398  1  0.34513572  0.17969558  0.82999310  1
  O2-  O399  1  0.33485942  0.42744383  0.14440293  1
  O2-  O400  1  0.32379177  0.41861529  0.46702777  1
  O2-  O401  1  0.32454508  0.42672036  0.80693708  1
  O2-  O402  1  0.32910318  0.66261553  0.14338582  1
  O2-  O403  1  0.32460439  0.66781134  0.47193299  1
  O2-  O404  1  0.33632214  0.68338876  0.80980201  1
  O2-  O405  1  0.33187048  0.92525532  0.14994279  1
  O2-  O406  1  0.33286060  0.91112755  0.47378925  1
  O2-  O407  1  0.33026384  0.91195977  0.81329838  1
  O2-  O408  1  0.54906496  0.16512935  0.13370172  1
  O2-  O409  1  0.56557110  0.21810694  0.48363810  1
  O2-  O410  1  0.58847695  0.14883220  0.80878068  1
  O2-  O411  1  0.57705101  0.41839574  0.15886443  1
  O2-  O412  1  0.54597615  0.41718940  0.49452161  1
  O2-  O413  1  0.64229695  0.43304764  0.78242478  1
  O2-  O414  1  0.59897434  0.68883314  0.13703584  1
  O2-  O415  1  0.57535723  0.69757216  0.47896798  1
  O2-  O416  1  0.57692631  0.67387171  0.81105230  1
  O2-  O417  1  0.68991088  0.99344567  0.11276433  1
  O2-  O418  1  0.55800302  0.89626621  0.48923102  1
  O2-  O419  1  0.58716959  0.87900537  0.82621383  1
  O2-  O420  1  0.83869402  0.18926557  0.17664806  1
  O2-  O421  1  0.85002952  0.16249702  0.47340953  1
  O2-  O422  1  0.83453919  0.16007444  0.81058000  1
  O2-  O423  1  0.82765094  0.41287182  0.14213668  1
  O2-  O424  1  0.87961546  0.43796886  0.46354584  1
  O2-  O425  1  0.85873181  0.42722132  0.81421401  1
  O2-  O426  1  0.82602984  0.65799322  0.14509509  1
  O2-  O427  1  0.86074692  0.68765264  0.47901638  1
  O2-  O428  1  0.81849397  0.66661656  0.81286954  1
  O2-  O429  1  0.84358150  0.89788864  0.13617223  1
  O2-  O430  1  0.81698314  0.91455718  0.46663530  1
  O2-  O431  1  0.85926124  0.92245639  0.77322728  1
  O2-  O432  1  0.16083252  0.09419657  0.17671789  1
  O2-  O433  1  0.16244973  0.08163160  0.51355372  1
  O2-  O434  1  0.17502962  0.08781632  0.85516004  1
  O2-  O435  1  0.17392797  0.32741058  0.19369258  1
  O2-  O436  1  0.16356746  0.32833389  0.51775556  1
  O2-  O437  1  0.16085950  0.33470492  0.84841258  1
  O2-  O438  1  0.17244487  0.59910246  0.19041234  1
  O2-  O439  1  0.16397543  0.57908555  0.51948428  1
  O2-  O440  1  0.17501635  0.58837991  0.85506828  1
  O2-  O441  1  0.16795234  0.83066969  0.18551720  1
  O2-  O442  1  0.16485889  0.82816614  0.51171796  1
  O2-  O443  1  0.16720230  0.84236555  0.85635399  1
  O2-  O444  1  0.41063957  0.08808834  0.18619318  1
  O2-  O445  1  0.40103868  0.07762809  0.49753101  1
  O2-  O446  1  0.44175303  0.10723303  0.87306774  1
  O2-  O447  1  0.41467366  0.35454775  0.20329562  1
  O2-  O448  1  0.38203711  0.31844000  0.51833321  1
  O2-  O449  1  0.35276553  0.31824845  0.87497604  1
  O2-  O450  1  0.42754930  0.59393782  0.18705573  1
  O2-  O451  1  0.40931185  0.58734325  0.50839630  1
  O2-  O452  1  0.41153061  0.59200019  0.84933757  1
  O2-  O453  1  0.40553069  0.82030928  0.17808593  1
  O2-  O454  1  0.40286929  0.82283884  0.53018645  1
  O2-  O455  1  0.41947369  0.84069390  0.86034367  1
  O2-  O456  1  0.65391636  0.07578643  0.19177653  1
  O2-  O457  1  0.70944229  0.03726876  0.53595353  1
  O2-  O458  1  0.66509399  0.05641994  0.84533938  1
  O2-  O459  1  0.65066779  0.31447120  0.17500827  1
  O2-  O460  1  0.60296810  0.33375890  0.56610585  1
  O2-  O461  1  0.64505770  0.31922023  0.86794533  1
  O2-  O462  1  0.66613049  0.57354833  0.20244258  1
  O2-  O463  1  0.62108021  0.58622748  0.52854730  1
  O2-  O464  1  0.65295288  0.58049554  0.85065247  1
  O2-  O465  1  0.68210239  0.84895058  0.17543970  1
  O2-  O466  1  0.66404726  0.85275411  0.52193198  1
  O2-  O467  1  0.63990497  0.84604078  0.85346683  1
  O2-  O468  1  0.91130878  0.07500004  0.16675073  1
  O2-  O469  1  0.92984873  0.08043567  0.51329505  1
  O2-  O470  1  0.92456331  0.07731127  0.82539031  1
  O2-  O471  1  0.92876107  0.36106664  0.19254771  1
  O2-  O472  1  0.91886607  0.32405469  0.51787581  1
  O2-  O473  1  0.92161769  0.32674591  0.85335626  1
  O2-  O474  1  0.92679351  0.58986234  0.18201744  1
  O2-  O475  1  0.92777329  0.59094927  0.53254293  1
  O2-  O476  1  0.92082195  0.58901520  0.82294489  1
  O2-  O477  1  0.91291551  0.81728889  0.18609800  1
  O2-  O478  1  0.92334513  0.83217954  0.54333404  1
  O2-  O479  1  0.91814438  0.82440609  0.86808153  1
  O2-  O480  1  0.16355699  0.10823856  0.29568819  1
  O2-  O481  1  0.20032952  0.16061524  0.62228435  1
  O2-  O482  1  0.14980762  0.07443324  0.97635538  1
  O2-  O483  1  0.18263103  0.33508698  0.31042468  1
  O2-  O484  1  0.16161711  0.34311425  0.64117866  1
  O2-  O485  1  0.16070443  0.32971062  0.97338610  1
  O2-  O486  1  0.17783193  0.59519724  0.30252847  1
  O2-  O487  1  0.16869588  0.58179325  0.64423905  1
  O2-  O488  1  0.16023469  0.58415162  0.97793354  1
  O2-  O489  1  0.21512265  0.79143622  0.29208806  1
  O2-  O490  1  0.18006918  0.82104591  0.63332933  1
  O2-  O491  1  0.17289123  0.85454329  0.98323244  1
  O2-  O492  1  0.41045218  0.08179337  0.30347989  1
  O2-  O493  1  0.41707468  0.04432960  0.73314890  1
  O2-  O494  1  0.45638561  0.10104497  0.99185492  1
  O2-  O495  1  0.37438247  0.36707756  0.32765481  1
  O2-  O496  1  0.39826559  0.32958328  0.64224718  1
  O2-  O497  1  0.42976665  0.35875590  0.98918559  1
  O2-  O498  1  0.42556496  0.58891978  0.31119401  1
  O2-  O499  1  0.41372713  0.58474180  0.63365494  1
  O2-  O500  1  0.40884967  0.58605920  0.97393379  1
  O2-  O501  1  0.42577978  0.82984425  0.29801796  1
  O2-  O502  1  0.42030116  0.80873509  0.64890836  1
  O2-  O503  1  0.40536374  0.83401731  0.98880279  1
  O2-  O504  1  0.64208782  0.07188962  0.30712306  1
  O2-  O505  1  0.66606692  0.06903602  0.65430919  1
  O2-  O506  1  0.63841656  0.08646588  0.96383727  1
  O2-  O507  1  0.66925643  0.32975196  0.36511262  1
  O2-  O508  1  0.73288428  0.38075750  0.69147738  1
  O2-  O509  1  0.64498388  0.32187438  0.98849035  1
  O2-  O510  1  0.67654706  0.59103314  0.32913346  1
  O2-  O511  1  0.68375738  0.56315644  0.62411410  1
  O2-  O512  1  0.66387813  0.58077279  0.98258375  1
  O2-  O513  1  0.67120220  0.83678283  0.29733743  1
  O2-  O514  1  0.66956648  0.84245360  0.66830956  1
  O2-  O515  1  0.67693001  0.84102103  1.00191421  1
  O2-  O516  1  0.93348612  0.08491147  0.30606909  1
  O2-  O517  1  0.92272237  0.08751679  0.63423669  1
  O2-  O518  1  0.91618189  0.07141607  0.95251540  1
  O2-  O519  1  0.94069710  0.35667343  0.31448108  1
  O2-  O520  1  0.90725379  0.32275777  0.64471356  1
  O2-  O521  1  0.91308328  0.32420844  0.97737379  1
  O2-  O522  1  0.92550512  0.59293833  0.31008602  1
  O2-  O523  1  0.90706860  0.57451272  0.65147259  1
  O2-  O524  1  0.91733428  0.61309289  0.98198985  1
  O2-  O525  1  0.90421779  0.83396353  0.31179342  1
  O2-  O526  1  0.91008459  0.81282923  0.65516002  1
  O2-  O527  1  0.93553721  0.84199245  0.98770598  1
  O2-  O528  1  0.07546069  0.16171584  0.00669481  1
  O2-  O529  1  0.09681152  0.18376929  0.34150558  1
  O2-  O530  1  0.08591162  0.18071862  0.68606313  1
  O2-  O531  1  0.08280510  0.41672471  0.01508177  1
  O2-  O532  1  0.09734035  0.41697567  0.36525415  1
  O2-  O533  1  0.07237520  0.41695329  0.68533041  1
  O2-  O534  1  0.08053296  0.67545364  0.01411468  1
  O2-  O535  1  0.08574724  0.65171261  0.35425807  1
  O2-  O536  1  0.06563402  0.67512753  0.70091198  1
  O2-  O537  1  0.08869868  0.93276010  0.02250041  1
  O2-  O538  1  0.09542385  0.96681701  0.38251862  1
  O2-  O539  1  0.05775887  0.82380255  0.70251806  1
  O2-  O540  1  0.35174526  0.17496731  -0.02694019  1
  O2-  O541  1  0.32645496  0.15907785  0.33766124  1
  O2-  O542  1  0.41780117  0.21355180  0.72087070  1
  O2-  O543  1  0.32782579  0.42417559  0.02017047  1
  O2-  O544  1  0.33390354  0.41945299  0.34004666  1
  O2-  O545  1  0.32667925  0.42199873  0.68344570  1
  O2-  O546  1  0.32621054  0.66383198  0.02171767  1
  O2-  O547  1  0.32924037  0.66056704  0.34852062  1
  O2-  O548  1  0.31849184  0.64271272  0.68953100  1
  O2-  O549  1  0.33755707  0.93150025  0.02528599  1
  O2-  O550  1  0.34800874  0.91991002  0.34663007  1
  O2-  O551  1  0.33282341  0.88307571  0.68609600  1
  O2-  O552  1  0.53989148  0.14416351  0.01485923  1
  O2-  O553  1  0.57007368  0.16122486  0.35821864  1
  O2-  O554  1  0.62504354  0.20430588  0.68970742  1
  O2-  O555  1  0.58787212  0.42558618  0.03341106  1
  O2-  O556  1  0.58777883  0.42016471  0.37003189  1
  O2-  O557  1  0.56646731  0.41475563  0.66871381  1
  O2-  O558  1  0.57484603  0.66191785  0.01121012  1
  O2-  O559  1  0.58977893  0.67804059  0.35593130  1
  O2-  O560  1  0.57798097  0.67219072  0.69096373  1
  O2-  O561  1  0.58326104  0.92525597  0.01333929  1
  O2-  O562  1  0.62370500  0.93705364  0.37158211  1
  O2-  O563  1  0.58011497  0.90825726  0.68709182  1
  O2-  O564  1  0.77522567  0.15260905  0.05546523  1
  O2-  O565  1  0.86914095  0.19182857  0.34678549  1
  O2-  O566  1  0.82520739  0.15701951  0.68845474  1
  O2-  O567  1  0.81677230  0.38006932  0.01923034  1
  O2-  O568  1  0.84969500  0.43345717  0.34582106  1
  O2-  O569  1  0.82633173  0.41396047  0.69219164  1
  O2-  O570  1  0.81472782  0.65483010  0.02693227  1
  O2-  O571  1  0.85036550  0.67571139  0.36080579  1
  O2-  O572  1  0.81482452  0.65543087  0.68904536  1
  O2-  O573  1  0.82769161  0.90551971  -0.04430442  1
  O2-  O574  1  0.83200881  0.91828391  0.34921088  1
  O2-  O575  1  0.83771366  0.91296841  0.71126643  1
