# generated using pymatgen
data_H2O
_symmetry_space_group_name_H-M   'P 1'
_cell_length_a   17.99095438
_cell_length_b   17.99417345
_cell_length_c   22.01421445
_cell_angle_alpha   90.00215609
_cell_angle_beta   90.00435340
_cell_angle_gamma   119.99206669
_symmetry_Int_Tables_number   1
_chemical_formula_structural   H2O
_chemical_formula_sum   'H384 O192'
_cell_volume   6172.40819301
_cell_formula_units_Z   192
loop_
 _symmetry_equiv_pos_site_id
 _symmetry_equiv_pos_as_xyz
  1  'x, y, z'
loop_
 _atom_type_symbol
 _atom_type_oxidation_number
  H+  1.0
  O2-  -2.0
loop_
 _atom_site_type_symbol
 _atom_site_label
 _atom_site_symmetry_multiplicity
 _atom_site_fract_x
 _atom_site_fract_y
 _atom_site_fract_z
 _atom_site_occupancy
  H+  H0  1  0.85505683  0.71962809  0.98822520  1
  H+  H1  1  0.64020695  0.61660034  0.51478570  1
  H+  H2  1  0.64865264  0.02278549  0.52168937  1
  H+  H3  1  0.89189753  0.86323801  0.51801204  1
  H+  H4  1  0.86730800  0.13848296  0.15581413  1
  H+  H5  1  1.01808586  0.87919999  0.35191134  1
  H+  H6  1  0.61164823  0.87530423  0.33663933  1
  H+  H7  1  0.12233811  0.74375726  0.67270250  1
  H+  H8  1  0.14197793  0.63688841  0.65402985  1
  H+  H9  1  0.11781785  -0.02785774  0.67682029  1
  H+  H10  1  0.37207933  0.47285394  0.83779553  1
  H+  H11  1  0.03274210  0.38959560  0.14714912  1
  H+  H12  1  0.37375679  0.99801633  0.82195376  1
  H+  H13  1  0.40112668  0.37223965  0.98193597  1
  H+  H14  1  0.86843168  0.49312919  0.69627999  1
  H+  H15  1  0.60430597  0.36161861  0.49501172  1
  H+  H16  1  0.39531114  0.11089042  0.99287217  1
  H+  H17  1  0.86471885  0.38082207  0.49489393  1
  H+  H18  1  0.11246899  0.64432662  0.15840324  1
  H+  H19  1  0.11336365  0.96025505  0.35181188  1
  H+  H20  1  0.27316092  0.11993556  0.00396300  1
  H+  H21  1  0.22367081  0.11885252  0.50926856  1
  H+  H22  1  0.64748120  0.22269527  0.36514306  1
  H+  H23  1  0.60247953  0.70856678  0.33824802  1
  H+  H24  1  0.75465588  0.37263869  0.35078978  1
  H+  H25  1  0.14238522  0.10125823  0.34246668  1
  H+  H26  1  0.61150529  0.63300274  0.14676882  1
  H+  H27  1  0.47490687  0.84442832  0.35947708  1
  H+  H28  1  0.12235178  0.72836290  0.81845432  1
  H+  H29  1  0.09491651  0.67522986  0.72822268  1
  H+  H30  1  0.48620342  0.60233209  0.51851505  1
  H+  H31  1  0.66648746  0.07426145  0.22811168  1
  H+  H32  1  0.74955985  0.78307590  1.01792824  1
  H+  H33  1  0.36808106  0.13352526  0.15439667  1
  H+  H34  1  0.54931181  0.05673738  0.78034248  1
  H+  H35  1  0.39050620  0.59625516  0.86771194  1
  H+  H36  1  0.13821482  0.59566657  0.32105145  1
  H+  H37  1  0.13683850  0.52823845  0.17125754  1
  H+  H38  1  0.37814822  0.49262461  0.35913690  1
  H+  H39  1  0.39390519  0.74678607  0.36503664  1
  H+  H40  1  0.87430860  0.51933438  -0.01200193  1
  H+  H41  1  0.64032616  0.36838689  0.66498382  1
  H+  H42  1  0.10478027  0.82031015  0.37248387  1
  H+  H43  1  0.47272367  0.61524688  0.13559655  1
  H+  H44  1  0.16734456  0.84466350  0.61383901  1
  H+  H45  1  0.87794337  0.38981045  0.77812260  1
  H+  H46  1  0.87852709  0.85684007  0.33839051  1
  H+  H47  1  0.30703927  0.88184212  0.32436169  1
  H+  H48  1  0.97629649  0.62190904  0.16938356  1
  H+  H49  1  0.11104810  0.50079402  0.84186318  1
  H+  H50  1  0.38404122  0.87706871  0.64906920  1
  H+  H51  1  0.51762732  0.62355462  0.67999862  1
  H+  H52  1  0.39081351  0.04899294  0.52112331  1
  H+  H53  1  0.10544345  0.37281266  0.82554587  1
  H+  H54  1  0.24556381  0.37677670  0.16880964  1
  H+  H55  1  0.14672994  0.78016707  0.15593294  1
  H+  H56  1  0.63045063  0.14261301  0.15323633  1
  H+  H57  1  0.88687251  1.01930416  0.83225515  1
  H+  H58  1  0.14348959  0.02972262  0.19111750  1
  H+  H59  1  0.61966675  0.39803437  0.82556878  1
  H+  H60  1  0.62689228  0.76061968  0.16002800  1
  H+  H61  1  0.13126745  0.87797878  0.67527893  1
  H+  H62  1  0.77421715  0.63635527  0.34400152  1
  H+  H63  1  0.39229445  0.37690557  0.50277667  1
  H+  H64  1  0.70824627  0.34058356  0.83978317  1
  H+  H65  1  0.15444871  0.12398441  0.19774288  1
  H+  H66  1  0.10198573  0.49022922  0.48172414  1
  H+  H67  1  0.18752491  0.35206239  0.23078101  1
  H+  H68  1  -0.11384743  0.71948872  0.82361244  1
  H+  H69  1  0.11276196  0.98432035  0.50285631  1
  H+  H70  1  -0.01370979  0.36373664  0.00726431  1
  H+  H71  1  0.96203743  0.36226543  0.83745740  1
  H+  H72  1  0.79145481  0.86083326  1.06303461  1
  H+  H73  1  0.75516655  0.13889883  0.76657940  1
  H+  H74  1  0.12638198  0.14290172  -0.00905992  1
  H+  H75  1  0.78032218  0.92811567  0.38031067  1
  H+  H76  1  0.89006445  0.27362642  0.14515198  1
  H+  H77  1  0.37378496  0.38568292  0.15483398  1
  H+  H78  1  0.53383724  0.14310514  0.51355699  1
  H+  H79  1  0.37314291  0.47438031  0.13930561  1
  H+  H80  1  0.82830510  0.11226833  0.67992926  1
  H+  H81  1  0.67957599  0.34124407  0.57602312  1
  H+  H82  1  0.39116462  0.48984309  0.00607621  1
  H+  H83  1  0.38060398  1.03192075  0.65877738  1
  H+  H84  1  0.61546441  0.96633207  0.33725464  1
  H+  H85  1  0.65075904  0.27910567  0.98626444  1
  H+  H86  1  0.10446486  0.19624565  0.24255824  1
  H+  H87  1  0.76295474  0.63555602  -0.00715333  1
  H+  H88  1  0.38591803  0.61475416  0.65892355  1
  H+  H89  1  0.64985637  0.11308203  -0.02223774  1
  H+  H90  1  0.56160502  0.70815766  0.99083133  1
  H+  H91  1  0.14445782  0.86891491  0.83060459  1
  H+  H92  1  0.12565943  0.39719529  0.15875824  1
  H+  H93  1  0.86045794  0.97992047  0.33752143  1
  H+  H94  1  0.38400549  0.91633752  0.81568424  1
  H+  H95  1  0.37232266  0.00951942  0.33672414  1
  H+  H96  1  0.82886149  0.15498481  0.39583053  1
  H+  H97  1  0.28091194  0.13429894  0.17065012  1
  H+  H98  1  0.13706149  0.02515718  0.98108771  1
  H+  H99  1  0.92273974  0.33780889  0.09075513  1
  H+  H100  1  0.11162724  0.22464150  0.82616089  1
  H+  H101  1  0.22419142  0.87034709  0.51273309  1
  H+  H102  1  0.11923931  0.46497811  0.32986915  1
  H+  H103  1  0.38451518  0.76064089  0.14874743  1
  H+  H104  1  0.13643014  0.52596504  0.99344381  1
  H+  H105  1  0.42592662  0.82398183  0.20517425  1
  H+  H106  1  0.25610805  0.64501031  0.49875563  1
  H+  H107  1  0.18447963  0.33141096  0.55671767  1
  H+  H108  1  0.11050428  0.13963659  0.49313656  1
  H+  H109  1  0.41008645  0.87894320  -0.00113463  1
  H+  H110  1  0.37069725  0.88187148  0.14350823  1
  H+  H111  1  0.98160547  0.12228481  0.50979403  1
  H+  H112  1  0.10988998  0.22925340  0.67309730  1
  H+  H113  1  0.12880419  0.11345432  0.66109012  1
  H+  H114  1  0.88264041  0.77049084  0.33581175  1
  H+  H115  1  0.53073579  0.88569356  0.49436884  1
  H+  H116  1  0.64783033  0.52439084  0.32493473  1
  H+  H117  1  0.45005706  0.77571242  0.86885377  1
  H+  H118  1  0.10949155  0.74316220  0.51390096  1
  H+  H119  1  0.22057928  0.11994641  0.66141560  1
  H+  H120  1  0.15760826  0.28869553  -0.01350678  1
  H+  H121  1  0.64965625  0.27373055  0.52147583  1
  H+  H122  1  0.58222083  0.27419741  0.30892740  1
  H+  H123  1  0.16058628  0.59748083  0.56142770  1
  H+  H124  1  0.38026062  0.98323051  -0.00295929  1
  H+  H125  1  0.68630273  0.84867939  0.60354624  1
  H+  H126  1  0.17173630  0.08616813  0.92316591  1
  H+  H127  1  0.54155242  0.90780495  0.82259564  1
  H+  H128  1  0.87689315  0.90311961  0.67781243  1
  H+  H129  1  0.24513217  0.37986228  0.98547964  1
  H+  H130  1  0.08215955  0.89664496  0.04067447  1
  H+  H131  1  -0.02204544  0.36442462  0.49178972  1
  H+  H132  1  0.55288100  0.15468076  0.35338439  1
  H+  H133  1  0.64208725  0.87202933  0.82820725  1
  H+  H134  1  0.13416996  0.54432818  0.65569166  1
  H+  H135  1  0.62345556  0.39266141  1.00385050  1
  H+  H136  1  0.73823321  0.36934696  -0.00531826  1
  H+  H137  1  0.61867776  0.72723523  0.49726542  1
  H+  H138  1  0.52980645  0.64046126  0.83849450  1
  H+  H139  1  0.64623725  0.86480215  0.50685424  1
  H+  H140  1  0.77766599  0.39070520  0.16014491  1
  H+  H141  1  0.88360396  0.85864068  0.98214618  1
  H+  H142  1  0.26463369  0.64637284  -0.00347798  1
  H+  H143  1  0.85282828  0.71674224  0.18277788  1
  H+  H144  1  0.35922242  0.73304770  0.49559900  1
  H+  H145  1  0.78275195  0.13598611  -0.00385620  1
  H+  H146  1  0.51289272  0.36180059  0.49523933  1
  H+  H147  1  0.12081530  0.23339066  0.48980645  1
  H+  H148  1  0.63272502  0.52410265  0.83463826  1
  H+  H149  1  0.78014297  0.89939312  0.82311842  1
  H+  H150  1  0.89542830  0.86550572  0.82510416  1
  H+  H151  1  0.63215148  0.85337112  0.16310338  1
  H+  H152  1  0.34385429  0.66917538  0.80363133  1
  H+  H153  1  0.35554359  0.14356475  0.67245553  1
  H+  H154  1  0.42002283  0.58940727  0.07583935  1
  H+  H155  1  0.93863269  0.07075781  0.13234995  1
  H+  H156  1  0.43175446  0.09346658  0.93115804  1
  H+  H157  1  0.38838531  0.85893370  0.49575677  1
  H+  H158  1  0.60697830  0.23001611  0.66709843  1
  H+  H159  1  0.27819956  0.13857823  0.82551218  1
  H+  H160  1  0.87970320  0.73882755  0.67922090  1
  H+  H161  1  0.97961280  0.86270440  0.51728580  1
  H+  H162  1  0.86494986  0.13225650  0.33635387  1
  H+  H163  1  0.22268254  0.34352120  0.32693304  1
  H+  H164  1  0.26626995  0.89380149  0.67041079  1
  H+  H165  1  0.38389723  0.28477131  0.51195525  1
  H+  H166  1  0.38168681  0.27843220  0.66025100  1
  H+  H167  1  0.92139763  0.57776433  0.60818747  1
  H+  H168  1  0.36596052  0.15349012  0.50245312  1
  H+  H169  1  0.86298994  0.22000866  0.48373439  1
  H+  H170  1  0.54255600  0.14200449  0.14234518  1
  H+  H171  1  0.62217050  0.50862247  0.66015425  1
  H+  H172  1  -0.01206999  0.12388105  -0.02249640  1
  H+  H173  1  0.28198964  0.88693114  0.14487975  1
  H+  H174  1  0.31567402  0.66797589  0.08530329  1
  H+  H175  1  0.53098220  0.90104187  0.65952873  1
  H+  H176  1  0.61507277  0.73172405  0.82826751  1
  H+  H177  1  0.54450290  0.46125827  0.37453813  1
  H+  H178  1  0.77676228  0.38384071  0.50318142  1
  H+  H179  1  0.58233783  0.66150613  0.08414992  1
  H+  H180  1  0.11007956  0.63394942  0.82043595  1
  H+  H181  1  0.40289403  0.50956204  0.52500044  1
  H+  H182  1  0.64190169  0.10085075  0.32827487  1
  H+  H183  1  0.86652343  0.60548962  -0.01832337  1
  H+  H184  1  -0.01105440  0.61857040  0.66307681  1
  H+  H185  1  0.65389765  0.02540099  0.97630238  1
  H+  H186  1  0.15156924  0.87158870  0.16052398  1
  H+  H187  1  0.86620981  0.72701640  0.50010568  1
  H+  H188  1  0.13887023  0.87780402  0.51772123  1
  H+  H189  1  0.12722927  0.39498235  0.00217918  1
  H+  H190  1  0.87779657  0.98782215  0.50371180  1
  H+  H191  1  0.42750455  0.09306227  0.09329355  1
  H+  H192  1  0.62582710  0.52169963  0.17163250  1
  H+  H193  1  0.18180407  0.79915912  0.36873226  1
  H+  H194  1  0.88748065  0.35878308  0.33541972  1
  H+  H195  1  -0.02390148  0.86439029  -0.02197876  1
  H+  H196  1  1.01788139  0.40726494  0.66914592  1
  H+  H197  1  0.64547071  0.27753400  0.16880202  1
  H+  H198  1  0.36434735  0.39024073  0.67739645  1
  H+  H199  1  0.38571857  0.78862373  0.64576691  1
  H+  H200  1  0.88831621  0.32707441  0.67483915  1
  H+  H201  1  0.42858678  0.16385562  0.32762942  1
  H+  H202  1  0.63875062  0.98698511  0.81747601  1
  H+  H203  1  0.02180791  0.89332099  0.17697319  1
  H+  H204  1  0.83638958  0.94633231  0.14773363  1
  H+  H205  1  0.28327488  0.12695738  0.34757739  1
  H+  H206  1  0.87894589  0.65008409  0.67233603  1
  H+  H207  1  0.52389875  0.38408522  0.82329545  1
  H+  H208  1  0.57993465  0.41343903  0.73063110  1
  H+  H209  1  0.61628287  0.38935451  0.15530991  1
  H+  H210  1  0.13391499  0.63465502  0.50416710  1
  H+  H211  1  0.56994666  0.40024543  0.41025565  1
  H+  H212  1  0.88909905  0.52195904  0.51019119  1
  H+  H213  1  0.73586756  0.86586892  0.50726680  1
  H+  H214  1  0.35780689  0.95897560  0.45535534  1
  H+  H215  1  0.86791894  0.39122115  0.01276387  1
  H+  H216  1  0.48202305  0.36053209  0.16852172  1
  H+  H217  1  0.63492574  0.13663704  0.80025947  1
  H+  H218  1  0.98318015  0.11461458  0.83247529  1
  H+  H219  1  0.03620976  0.89209677  0.82097297  1
  H+  H220  1  0.39936382  1.01966124  0.14067798  1
  H+  H221  1  0.88907657  0.11511702  0.50644511  1
  H+  H222  1  0.48684916  0.36757193  -0.01531900  1
  H+  H223  1  0.97378682  0.61616838  0.51169616  1
  H+  H224  1  0.35525367  0.60047470  0.37076918  1
  H+  H225  1  0.02643711  0.37973450  0.33569988  1
  H+  H226  1  0.37530708  0.79480597  0.85859183  1
  H+  H227  1  0.12646341  0.73791422  1.00417948  1
  H+  H228  1  0.77398000  0.13112542  0.15732265  1
  H+  H229  1  0.33953350  0.82269167  0.35582788  1
  H+  H230  1  0.00071073  0.13627830  0.17957967  1
  H+  H231  1  0.72908064  0.37038462  0.67565738  1
  H+  H232  1  0.72859975  0.61622383  0.51803386  1
  H+  H233  1  0.62543936  0.37079358  0.32572249  1
  H+  H234  1  0.23435514  0.87119169  0.82908802  1
  H+  H235  1  0.75256203  0.85739809  0.15785284  1
  H+  H236  1  0.23407137  0.36626685  0.66376377  1
  H+  H237  1  0.71556482  0.84267232  0.31231682  1
  H+  H238  1  0.34960061  0.35674240  0.33822105  1
  H+  H239  1  0.10046431  0.42479782  0.06356654  1
  H+  H240  1  0.26777452  0.64659090  0.65311809  1
  H+  H241  1  0.61474040  0.62743298  0.34207336  1
  H+  H242  1  0.94833280  0.58387400  0.32860373  1
  H+  H243  1  0.41655414  0.83863781  0.55975399  1
  H+  H244  1  0.40649458  1.01740532  0.35979095  1
  H+  H245  1  0.24159867  0.36111417  0.49646640  1
  H+  H246  1  0.11888896  0.64626559  1.00583892  1
  H+  H247  1  0.41971784  0.10626426  0.57945764  1
  H+  H248  1  0.14169391  0.02233623  0.83141932  1
  H+  H249  1  0.07390064  0.67770729  0.35401669  1
  H+  H250  1  0.46777067  0.58347717  0.36561760  1
  H+  H251  1  0.36320245  0.22233943  0.34064132  1
  H+  H252  1  0.39231291  0.27058481  0.17026726  1
  H+  H253  1  0.08848947  0.67550420  0.09640806  1
  H+  H254  1  0.14877450  0.36920077  0.65124193  1
  H+  H255  1  0.77522432  0.13108311  0.49454105  1
  H+  H256  1  0.01580340  0.14481332  0.67494117  1
  H+  H257  1  0.63878786  0.61538036  0.83779389  1
  H+  H258  1  0.85214090  0.58838225  0.83454047  1
  H+  H259  1  0.54157251  0.14251269  -0.00342786  1
  H+  H260  1  0.47244379  0.35243672  0.32510185  1
  H+  H261  1  0.89618707  0.11787684  -0.01802933  1
  H+  H262  1  0.24024581  0.87454112  -0.01978120  1
  H+  H263  1  0.02066626  0.47114993  0.71545745  1
  H+  H264  1  0.35199634  0.63342550  0.13612282  1
  H+  H265  1  0.64026303  0.01947680  0.16600157  1
  H+  H266  1  0.20254659  0.58312056  0.84194836  1
  H+  H267  1  0.64734918  0.11007944  0.52661856  1
  H+  H268  1  0.86229149  0.63588012  0.49951975  1
  H+  H269  1  0.60298156  0.91427732  0.08730746  1
  H+  H270  1  0.65678166  0.88858802  0.65598114  1
  H+  H271  1  0.36244357  0.47880854  0.67860897  1
  H+  H272  1  0.08036488  0.16195951  0.40176191  1
  H+  H273  1  0.71597997  0.60926454  0.18150868  1
  H+  H274  1  0.08096213  0.91746169  0.44651031  1
  H+  H275  1  0.39671423  0.12618692  0.83534611  1
  H+  H276  1  0.22806529  0.36234209  0.83596389  1
  H+  H277  1  0.35795269  0.73341006  1.00326693  1
  H+  H278  1  0.39167050  0.36044075  0.83655477  1
  H+  H279  1  0.11314486  0.21776472  0.34069223  1
  H+  H280  1  0.13546042  0.34962382  0.32312773  1
  H+  H281  1  0.53002696  0.88003216  0.13880641  1
  H+  H282  1  0.48313389  0.11831525  0.83240959  1
  H+  H283  1  0.88245585  0.85601220  0.17853744  1
  H+  H284  1  0.51839686  0.38205760  0.67128229  1
  H+  H285  1  0.88791095  0.03349757  0.66507989  1
  H+  H286  1  0.13839059  0.11070948  0.83221220  1
  H+  H287  1  0.61347750  0.60045694  0.98105009  1
  H+  H288  1  0.66481675  0.33547125  0.22876378  1
  H+  H289  1  0.89197422  0.53086410  0.17094026  1
  H+  H290  1  0.17820422  0.58030990  0.26213037  1
  H+  H291  1  0.17523834  0.07471180  0.28422570  1
  H+  H292  1  0.42585404  0.33423144  0.89574416  1
  H+  H293  1  0.83081869  0.66401878  0.40722315  1
  H+  H294  1  0.83979365  0.93120560  0.76216680  1
  H+  H295  1  0.43916808  0.58502071  0.92514980  1
  H+  H296  1  0.89722554  0.36700794  0.88302273  1
  H+  H297  1  0.57715771  0.15745735  0.71741954  1
  H+  H298  1  0.41973662  0.32412326  0.26164791  1
  H+  H299  1  0.78583269  0.90376022  0.67284936  1
  H+  H300  1  0.30731786  0.57485121  0.78215251  1
  H+  H301  1  0.08184860  0.42560294  0.42507055  1
  H+  H302  1  0.07214670  0.40805152  0.76993349  1
  H+  H303  1  0.85177607  0.49749947  0.34271267  1
  H+  H304  1  0.66651447  0.58205393  0.26512769  1
  H+  H305  1  0.22369824  0.61744920  0.16761520  1
  H+  H306  1  0.91225189  0.09458824  0.60699816  1
  H+  H307  1  0.68722504  0.86185214  0.99629164  1
  H+  H308  1  0.88730426  0.27130621  0.33064616  1
  H+  H309  1  0.72289859  0.11446704  0.61915929  1
  H+  H310  1  0.92638991  0.31346514  0.55103874  1
  H+  H311  1  0.98278433  0.10787415  0.32604576  1
  H+  H312  1  0.83374325  0.15649442  0.05945802  1
  H+  H313  1  0.32832100  0.68977613  0.70908947  1
  H+  H314  1  0.61628967  0.47853602  0.00168770  1
  H+  H315  1  0.78780980  0.48225073  0.85619435  1
  H+  H316  1  0.65790889  0.57876249  0.59963080  1
  H+  H317  1  0.66230446  0.84991982  0.89327561  1
  H+  H318  1  -0.00835406  0.87382233  0.67148590  1
  H+  H319  1  0.33617050  0.17402711  0.43985155  1
  H+  H320  1  0.92835179  0.84340388  0.61346301  1
  H+  H321  1  0.89862095  0.36930548  0.61369541  1
  H+  H322  1  0.41436353  0.34190750  0.60182555  1
  H+  H323  1  0.58994168  0.93082130  0.71759061  1
  H+  H324  1  0.07709863  0.94584160  0.12077948  1
  H+  H325  1  0.58159569  0.65409836  0.73720434  1
  H+  H326  1  0.72955232  0.10140996  0.32218963  1
  H+  H327  1  0.42291327  0.93190783  0.25656889  1
  H+  H328  1  0.34064152  0.42359881  0.77275311  1
  H+  H329  1  0.81764407  0.40483506  0.41025080  1
  H+  H330  1  0.08745953  0.77580947  0.26177097  1
  H+  H331  1  0.08933164  0.71424801  0.44789363  1
  H+  H332  1  0.32102076  0.38152273  0.40360898  1
  H+  H333  1  0.36647644  0.46894659  0.45352314  1
  H+  H334  1  0.86601018  0.38946125  0.14902235  1
  H+  H335  1  0.92030580  0.83690859  0.88581721  1
  H+  H336  1  0.92217233  0.08576044  0.89662080  1
  H+  H337  1  0.32493081  0.14726488  0.06684346  1
  H+  H338  1  0.89503099  0.27260894  0.00593857  1
  H+  H339  1  0.65076767  0.81241786  0.25693899  1
  H+  H340  1  0.32949803  0.17383624  0.73248954  1
  H+  H341  1  0.58607190  0.41853936  0.09582849  1
  H+  H342  1  0.13688150  0.24865220  0.18391554  1
  H+  H343  1  0.34354339  0.91983760  0.05508066  1
  H+  H344  1  0.04121232  0.58891898  0.38690732  1
  H+  H345  1  0.40204382  0.60049365  0.25868861  1
  H+  H346  1  0.44120431  0.84574321  0.94355774  1
  H+  H347  1  0.36756854  0.22935510  0.82610571  1
  H+  H348  1  0.59438947  0.16134754  0.45606944  1
  H+  H349  1  0.07963623  0.16806750  0.76503388  1
  H+  H350  1  0.18057181  0.84082485  0.92007350  1
  H+  H351  1  0.07280811  0.80750550  0.25559947  1
  H+  H352  1  0.60684355  0.17226494  0.05273415  1
  H+  H353  1  0.42173941  0.57751901  0.60774144  1
  H+  H354  1  0.33810401  0.93002509  0.72299733  1
  H+  H355  1  0.32138714  0.65498662  0.43888668  1
  H+  H356  1  0.86599219  0.55033020  0.90709465  1
  H+  H357  1  0.46879620  0.14305064  0.26984572  1
  H+  H358  1  0.58682785  0.66326789  0.44011570  1
  H+  H359  1  0.85832049  0.66749852  0.76019435  1
  H+  H360  1  0.68672684  0.36153330  0.90563857  1
  H+  H361  1  0.30432539  0.87132871  0.42369955  1
  H+  H362  1  0.59376650  0.91810413  0.43793668  1
  H+  H363  1  0.16298736  0.08902417  0.56848564  1
  H+  H364  1  0.92514222  0.07852371  0.26511552  1
  H+  H365  1  0.85361805  0.62839017  0.18385513  1
  H+  H366  1  0.65492055  0.57715062  0.92466372  1
  H+  H367  1  0.34517812  0.41590830  0.05591029  1
  H+  H368  1  0.17144854  0.33701574  0.89557580  1
  H+  H369  1  0.61744657  0.60209726  0.66687846  1
  H+  H370  1  0.54630633  0.88319994  -0.00202052  1
  H+  H371  1  0.47162448  0.12381030  0.66132777  1
  H+  H372  1  0.44041817  0.59460205  0.25543480  1
  H+  H373  1  0.86453273  0.60222734  0.34168657  1
  H+  H374  1  0.27326226  0.61264000  0.34924015  1
  H+  H375  1  0.09562871  0.92046239  0.76010449  1
  H+  H376  1  0.43891791  0.90464145  0.27118085  1
  H+  H377  1  0.83371367  0.42458839  0.06713001  1
  H+  H378  1  0.09716178  0.17398756  0.04899200  1
  H+  H379  1  0.85893308  0.92876537  0.44512094  1
  H+  H380  1  0.12309029  0.88718484  -0.01871037  1
  H+  H381  1  0.15096217  0.57657117  0.93141048  1
  H+  H382  1  0.71069509  0.09276687  0.88494918  1
  H+  H383  1  0.91495405  0.83710428  0.24203219  1
  O2-  O384  1  0.10351573  0.18654221  0.19866888  1
  O2-  O385  1  0.08181572  0.17052816  0.47644445  1
  O2-  O386  1  0.07936610  0.16411379  0.81089980  1
  O2-  O387  1  0.09615599  0.42655665  0.14100594  1
  O2-  O388  1  0.06753390  0.43036028  0.46805409  1
  O2-  O389  1  0.07002960  0.39980776  0.81446606  1
  O2-  O390  1  0.08517302  0.67656790  0.14259466  1
  O2-  O391  1  0.08071650  0.68841689  0.48908355  1
  O2-  O392  1  0.09153543  0.67057118  0.79968045  1
  O2-  O393  1  0.08323770  0.92943184  0.16177447  1
  O2-  O394  1  0.08348217  0.92141510  0.49176040  1
  O2-  O395  1  0.09769691  0.92350804  0.80824540  1
  O2-  O396  1  0.33684757  0.16559231  0.14876319  1
  O2-  O397  1  0.33036893  0.17620009  0.48473144  1
  O2-  O398  1  0.33869433  0.16855251  0.81020355  1
  O2-  O399  1  0.34008202  0.41042221  0.13617171  1
  O2-  O400  1  0.34105014  0.41007819  0.46883251  1
  O2-  O401  1  0.33642360  0.41629542  0.81799708  1
  O2-  O402  1  0.32125435  0.66651593  0.13191814  1
  O2-  O403  1  0.31958932  0.66899835  0.48501745  1
  O2-  O404  1  0.31196124  0.60987643  0.81742116  1
  O2-  O405  1  0.34475449  0.91698606  0.13069460  1
  O2-  O406  1  0.32190563  0.89839475  0.46540165  1
  O2-  O407  1  0.34604159  0.93788448  0.80428997  1
  O2-  O408  1  0.60574249  0.17677171  0.13555071  1
  O2-  O409  1  0.59465202  0.16549270  0.50097183  1
  O2-  O410  1  0.57254066  0.11656627  0.79206203  1
  O2-  O411  1  0.58285986  0.41674831  0.14159849  1
  O2-  O412  1  0.55947254  0.36281219  0.46944898  1
  O2-  O413  1  0.58327180  0.41812413  0.80560302  1
  O2-  O414  1  0.58644381  0.66741581  0.12911519  1
  O2-  O415  1  0.58766042  0.66521764  0.48522873  1
  O2-  O416  1  0.58463454  0.67059772  0.81539281  1
  O2-  O417  1  0.59363858  0.91356611  0.13185998  1
  O2-  O418  1  0.59247879  0.91786591  0.48314595  1
  O2-  O419  1  0.59592416  0.92878969  0.80098315  1
  O2-  O420  1  0.83267531  0.16225449  0.13872851  1
  O2-  O421  1  0.83168004  0.15767757  0.47239831  1
  O2-  O422  1  0.73538103  0.15179598  0.80623617  1
  O2-  O423  1  0.83627657  0.42301371  0.14227316  1
  O2-  O424  1  0.83525991  0.41342766  0.48298439  1
  O2-  O425  1  0.88502958  0.40410819  0.73351800  1
  O2-  O426  1  0.81518795  0.65429789  0.18428114  1
  O2-  O427  1  0.83456345  0.66756438  0.48240614  1
  O2-  O428  1  0.87012828  0.66364897  0.80511648  1
  O2-  O429  1  0.81336644  0.88527400  0.14029611  1
  O2-  O430  1  0.84959471  0.92610278  0.48912325  1
  O2-  O431  1  0.84076310  0.93084889  0.80884379  1
  O2-  O432  1  0.18192232  0.08905890  0.20704192  1
  O2-  O433  1  0.16240768  0.08702053  0.52264435  1
  O2-  O434  1  0.17109862  0.08362767  0.84778958  1
  O2-  O435  1  0.18533750  0.35179303  0.18530449  1
  O2-  O436  1  0.18075639  0.32790196  0.51222263  1
  O2-  O437  1  0.16693920  0.33125195  0.85009973  1
  O2-  O438  1  0.16632629  0.58782127  0.18815855  1
  O2-  O439  1  0.16338390  0.60181872  0.51568348  1
  O2-  O440  1  0.14293310  0.56275733  0.85442508  1
  O2-  O441  1  0.18617745  0.84354514  0.16306349  1
  O2-  O442  1  0.16775104  0.84549495  0.53279588  1
  O2-  O443  1  0.17542620  0.83815684  0.84544686  1
  O2-  O444  1  0.43072335  0.08485583  0.13692363  1
  O2-  O445  1  0.42588667  0.10897518  0.53254047  1
  O2-  O446  1  0.42576818  0.09425762  0.85132047  1
  O2-  O447  1  0.42207167  0.33111770  0.18569178  1
  O2-  O448  1  0.41947084  0.34534121  0.52559281  1
  O2-  O449  1  0.42279527  0.33021022  0.84908709  1
  O2-  O450  1  0.41217988  0.58315154  0.12123641  1
  O2-  O451  1  0.42847271  0.56986890  0.53780217  1
  O2-  O452  1  0.43147364  0.57770060  0.87891128  1
  O2-  O453  1  0.42418197  0.82417387  0.16088804  1
  O2-  O454  1  0.41653079  0.82890280  0.51417869  1
  O2-  O455  1  0.43734393  0.82227556  0.86433357  1
  O2-  O456  1  0.66991256  0.07884722  0.18272747  1
  O2-  O457  1  0.68237307  0.08285221  0.53642449  1
  O2-  O458  1  0.72213461  0.07796846  0.84331723  1
  O2-  O459  1  0.67089092  0.33779242  0.18405812  1
  O2-  O460  1  0.67859175  0.33657685  0.53049752  1
  O2-  O461  1  0.69604768  0.38060578  0.86132525  1
  O2-  O462  1  0.65113155  0.58104214  0.18835181  1
  O2-  O463  1  0.66870979  0.58645542  0.53329228  1
  O2-  O464  1  0.66356041  0.58125494  0.85444721  1
  O2-  O465  1  0.65697936  0.81883589  0.18056675  1
  O2-  O466  1  0.67495192  0.83220811  0.52003955  1
  O2-  O467  1  0.67030391  0.84349941  0.84960744  1
  O2-  O468  1  0.93774152  0.09611722  0.17134673  1
  O2-  O469  1  0.92128162  0.08927929  0.52591150  1
  O2-  O470  1  0.92121750  0.08303559  0.84862385  1
  O2-  O471  1  0.92343149  0.33633397  0.13624408  1
  O2-  O472  1  0.91755437  0.32345190  0.50849094  1
  O2-  O473  1  0.90219652  0.35072618  0.84173135  1
  O2-  O474  1  0.91876844  0.58917405  0.18857393  1
  O2-  O475  1  0.91375641  0.58123908  0.52675795  1
  O2-  O476  1  0.84638177  0.53338900  0.85830882  1
  O2-  O477  1  0.92138058  0.83798236  0.19703177  1
  O2-  O478  1  0.91850241  0.82888254  0.53108332  1
  O2-  O479  1  0.92659741  0.83730717  0.84086257  1
  O2-  O480  1  0.17248245  0.06996834  0.32962877  1
  O2-  O481  1  0.16118989  0.08656890  0.64452235  1
  O2-  O482  1  0.16930809  0.08655985  0.96909428  1
  O2-  O483  1  0.16378652  0.31762899  0.30667350  1
  O2-  O484  1  0.17508183  0.33392466  0.64483628  1
  O2-  O485  1  0.18350725  0.34891007  0.97196178  1
  O2-  O486  1  0.17690216  0.57472062  0.30802207  1
  O2-  O487  1  0.16883998  0.60180012  0.63641786  1
  O2-  O488  1  0.16121435  0.58496729  0.97605240  1
  O2-  O489  1  0.12065130  0.77521865  0.38028699  1
  O2-  O490  1  0.16933505  0.84335237  0.65866883  1
  O2-  O491  1  0.17972374  0.84519975  0.96582903  1
  O2-  O492  1  0.48393562  0.17351254  0.30854468  1
  O2-  O493  1  0.40858611  0.09451487  0.64779136  1
  O2-  O494  1  0.43448694  0.09017562  0.97629834  1
  O2-  O495  1  0.41432391  0.31812747  0.30721163  1
  O2-  O496  1  0.41504647  0.34027224  0.64769883  1
  O2-  O497  1  0.42872508  0.34023968  0.96615412  1
  O2-  O498  1  0.40596226  0.55187202  0.37640641  1
  O2-  O499  1  0.41411048  0.58013272  0.65369512  1
  O2-  O500  1  0.45298054  0.59928944  0.99831264  1
  O2-  O501  1  0.41284902  0.80865343  0.36919015  1
  O2-  O502  1  0.41639830  0.84929293  0.63224153  1
  O2-  O503  1  0.44175373  0.84728558  0.98830115  1
  O2-  O504  1  0.66814893  0.07061377  0.30752004  1
  O2-  O505  1  0.75541249  0.15759414  0.65120093  1
  O2-  O506  1  0.68286562  0.08560415  0.96225752  1
  O2-  O507  1  0.63952045  0.32739128  0.31159944  1
  O2-  O508  1  0.67464342  0.34083642  0.65252814  1
  O2-  O509  1  0.67833976  0.34149392  0.97673550  1
  O2-  O510  1  0.67551656  0.58442734  0.31064705  1
  O2-  O511  1  0.64957651  0.57123097  0.64703135  1
  O2-  O512  1  0.65189638  0.57782196  0.97134269  1
  O2-  O513  1  0.65394079  0.81352822  0.30261230  1
  O2-  O514  1  0.69250742  0.86156215  0.64744504  1
  O2-  O515  1  0.63213108  0.84963540  0.97632493  1
  O2-  O516  1  0.92189537  0.07782044  0.30959489  1
  O2-  O517  1  0.91000263  0.09509680  0.65224349  1
  O2-  O518  1  0.92777205  0.09099193  0.96310685  1
  O2-  O519  1  0.92047752  0.33296862  0.31972809  1
  O2-  O520  1  0.91909984  0.33602070  0.63585438  1
  O2-  O521  1  0.92237924  0.33612307  1.01123350  1
  O2-  O522  1  0.88382859  0.55993242  0.32544514  1
  O2-  O523  1  0.92638843  0.58100962  0.65318930  1
  O2-  O524  1  0.89247426  0.57198300  0.96319892  1
  O2-  O525  1  0.91204446  0.83170326  0.32223435  1
  O2-  O526  1  0.92907696  0.84874579  0.65831338  1
  O2-  O527  1  0.91562847  0.83342724  0.96348115  1
  O2-  O528  1  0.09892713  0.17771290  0.00483575  1
  O2-  O529  1  0.08158100  0.15690376  0.35571224  1
  O2-  O530  1  0.07655908  0.16989891  0.68972011  1
  O2-  O531  1  0.09391689  0.42157548  0.01823133  1
  O2-  O532  1  0.08860037  0.40622783  0.34764383  1
  O2-  O533  1  0.05918542  0.45322237  0.69720787  1
  O2-  O534  1  0.09619170  0.68135075  0.02412326  1
  O2-  O535  1  0.04621563  0.61367578  0.34659015  1
  O2-  O536  1  0.09484781  0.67919612  0.68187150  1
  O2-  O537  1  0.08604678  0.91141674  -0.00217162  1
  O2-  O538  1  0.07681587  0.90129630  0.36879003  1
  O2-  O539  1  0.09034934  0.91344268  0.69338915  1
  O2-  O540  1  0.32571359  0.12867202  0.02474233  1
  O2-  O541  1  0.34450203  0.16491578  0.35977920  1
  O2-  O542  1  0.32609975  0.17509758  0.68710375  1
  O2-  O543  1  0.34921248  0.42677938  0.01126760  1
  O2-  O544  1  0.31568302  0.38120608  0.35578150  1
  O2-  O545  1  0.33250577  0.41829371  0.69468271  1
  O2-  O546  1  0.32269414  0.67302199  0.01575591  1
  O2-  O547  1  0.32684821  0.63751028  0.37409636  1
  O2-  O548  1  0.33080988  0.67777468  0.66633723  1
  O2-  O549  1  0.34827625  0.92131726  0.00940611  1
  O2-  O550  1  0.28898213  0.83523044  0.35360956  1
  O2-  O551  1  0.33237462  0.92666461  0.67816570  1
  O2-  O552  1  0.60395950  0.17022544  0.00751474  1
  O2-  O553  1  0.60594415  0.16256851  0.37368256  1
  O2-  O554  1  0.56915656  0.16762434  0.67443025  1
  O2-  O555  1  0.59012522  0.41926350  0.01938874  1
  O2-  O556  1  0.56926173  0.42476194  0.36615290  1
  O2-  O557  1  0.58014215  0.41281651  0.68471883  1
  O2-  O558  1  0.54861491  0.65131599  0.00601782  1
  O2-  O559  1  0.58105632  0.65270689  0.35928610  1
  O2-  O560  1  0.57834441  0.64546708  0.69240295  1
  O2-  O561  1  0.61067001  0.91132228  0.00574274  1
  O2-  O562  1  0.58799760  0.90847460  0.35689623  1
  O2-  O563  1  0.59134500  0.93092658  0.67287069  1
  O2-  O564  1  0.84141785  0.16278573  0.01443837  1
  O2-  O565  1  0.82965030  0.15720854  0.35007523  1
  O2-  O566  1  0.77449603  0.10947518  0.69602619  1
  O2-  O567  1  0.83472206  0.42086457  0.02138113  1
  O2-  O568  1  0.81481441  0.40690653  0.36399359  1
  O2-  O569  1  0.82865184  0.43956091  0.72020855  1
  O2-  O570  1  0.82380609  0.66136350  0.00561984  1
  O2-  O571  1  0.83393659  0.66282167  0.36109414  1
  O2-  O572  1  0.84821521  0.67705507  0.69065794  1
  O2-  O573  1  0.77509655  0.84538302  0.01951595  1
  O2-  O574  1  0.82275899  0.92168128  0.35670244  1
  O2-  O575  1  0.84667337  0.93468559  0.69103785  1
