# generated using pymatgen
data_H2O
_symmetry_space_group_name_H-M   'P 1'
_cell_length_a   17.98982530
_cell_length_b   17.99194479
_cell_length_c   22.00957426
_cell_angle_alpha   89.98839300
_cell_angle_beta   90.02329389
_cell_angle_gamma   119.99188443
_symmetry_Int_Tables_number   1
_chemical_formula_structural   H2O
_chemical_formula_sum   'H384 O192'
_cell_volume   6169.96646147
_cell_formula_units_Z   192
loop_
 _symmetry_equiv_pos_site_id
 _symmetry_equiv_pos_as_xyz
  1  'x, y, z'
loop_
 _atom_type_symbol
 _atom_type_oxidation_number
  H+  1.0
  O2-  -2.0
loop_
 _atom_site_type_symbol
 _atom_site_label
 _atom_site_symmetry_multiplicity
 _atom_site_fract_x
 _atom_site_fract_y
 _atom_site_fract_z
 _atom_site_occupancy
  H+  H0  1  0.73872247  0.63118388  0.66957458  1
  H+  H1  1  0.12006415  0.89134947  0.34391923  1
  H+  H2  1  0.49161899  0.38392249  0.65662830  1
  H+  H3  1  0.89705370  0.78434874  0.33050562  1
  H+  H4  1  0.41660657  1.09216743  0.56437273  1
  H+  H5  1  0.65364371  0.33160166  0.60985685  1
  H+  H6  1  0.64817749  0.00998545  0.31045615  1
  H+  H7  1  0.22150518  0.12096022  0.97317949  1
  H+  H8  1  0.38358996  0.52920508  0.83797711  1
  H+  H9  1  0.48631471  0.61012985  0.67509314  1
  H+  H10  1  0.88402486  0.53300172  0.31171669  1
  H+  H11  1  -0.02681826  0.84507526  0.18383700  1
  H+  H12  1  0.35843770  0.13335404  -0.00947832  1
  H+  H13  1  0.53398781  0.91823022  0.46757564  1
  H+  H14  1  0.40850532  0.11782782  0.16923209  1
  H+  H15  1  0.38658073  0.04293381  0.65934025  1
  H+  H16  1  0.60899303  0.88543145  0.67165913  1
  H+  H17  1  0.83729750  0.15753029  0.09233785  1
  H+  H18  1  0.36889682  0.98127858  0.49655650  1
  H+  H19  1  0.60311495  0.09262156  0.14665536  1
  H+  H20  1  0.89467347  1.01791864  0.84877346  1
  H+  H21  1  0.06779456  0.41355760  0.44683310  1
  H+  H22  1  0.13794700  0.02084074  0.51632009  1
  H+  H23  1  -0.02064152  0.34920942  -0.01206426  1
  H+  H24  1  0.46253257  0.53229530  0.49802369  1
  H+  H25  1  0.73686650  0.86693893  0.33727127  1
  H+  H26  1  0.76616149  0.13403248  0.68899318  1
  H+  H27  1  0.38227632  0.11261805  0.50294264  1
  H+  H28  1  0.86181220  0.88750413  0.83214511  1
  H+  H29  1  0.63198208  0.27512322  0.32376283  1
  H+  H30  1  0.76993631  0.38202741  0.83629930  1
  H+  H31  1  0.64375418  0.64997686  0.48578267  1
  H+  H32  1  0.37824322  0.26671937  0.98517152  1
  H+  H33  1  0.70923179  0.84713786  0.16864086  1
  H+  H34  1  0.10698632  0.38828187  0.16315804  1
  H+  H35  1  0.22130468  0.35727882  0.66324369  1
  H+  H36  1  0.07906681  -0.00802784  0.68776081  1
  H+  H37  1  0.38781893  0.85993908  0.17519420  1
  H+  H38  1  0.69902492  0.60907277  0.99732064  1
  H+  H39  1  0.08242129  0.40926170  0.34716072  1
  H+  H40  1  0.91057919  0.37767718  0.48879089  1
  H+  H41  1  0.63837555  0.77813822  0.85338207  1
  H+  H42  1  0.38732019  0.65110388  0.53475482  1
  H+  H43  1  0.64463797  0.11975212  0.99602003  1
  H+  H44  1  0.52970052  0.63240258  0.32642269  1
  H+  H45  1  0.12471085  0.85351343  0.19018977  1
  H+  H46  1  0.61048853  0.13412668  0.49062834  1
  H+  H47  1  0.09615601  0.86958056  0.81496145  1
  H+  H48  1  0.63562183  0.36684379  0.31967517  1
  H+  H49  1  0.97244495  0.04357802  0.19584002  1
  H+  H50  1  0.94691712  0.87082356  0.66275753  1
  H+  H51  1  0.52136197  0.13763418  1.00380765  1
  H+  H52  1  0.01144899  0.37891141  0.16279751  1
  H+  H53  1  -0.00668716  0.40301724  0.34378192  1
  H+  H54  1  0.17038747  0.83510037  0.27022259  1
  H+  H55  1  0.41049882  0.29013701  0.65525003  1
  H+  H56  1  0.88350680  0.11722835  0.31875608  1
  H+  H57  1  0.11114929  0.38414763  0.67751977  1
  H+  H58  1  0.35501603  0.61874356  0.15804271  1
  H+  H59  1  0.85195156  0.71860304  0.14648063  1
  H+  H60  1  0.63016008  0.61938368  0.17251477  1
  H+  H61  1  0.64734702  0.24207776  0.17292665  1
  H+  H62  1  0.65939250  0.50005864  0.51639585  1
  H+  H63  1  0.88575281  0.26249789  0.17184806  1
  H+  H64  1  0.64322446  0.61938666  0.83686692  1
  H+  H65  1  0.96556247  0.60337137  0.83565282  1
  H+  H66  1  0.62977567  0.48722341  0.33819743  1
  H+  H67  1  0.59034816  0.72294369  0.01510600  1
  H+  H68  1  0.06646184  0.14792104  0.47105380  1
  H+  H69  1  0.89957744  0.64381305  0.66742735  1
  H+  H70  1  0.26480913  0.36898409  0.31347920  1
  H+  H71  1  0.84437791  0.67112644  0.39285077  1
  H+  H72  1  0.10632615  0.13945878  0.30232656  1
  H+  H73  1  0.73779774  0.37420492  0.12399405  1
  H+  H74  1  0.45681160  0.51892398  0.53093693  1
  H+  H75  1  0.26404988  0.88312842  0.16348460  1
  H+  H76  1  0.75719197  0.38790980  0.31991068  1
  H+  H77  1  0.87264250  0.64554286  0.33036574  1
  H+  H78  1  0.13392608  0.12355625  -0.01991913  1
  H+  H79  1  0.31826961  0.15423158  0.39422052  1
  H+  H80  1  0.50009141  0.67827337  0.48648591  1
  H+  H81  1  0.40422892  0.77132787  0.85041119  1
  H+  H82  1  0.25486311  0.61723410  0.15610851  1
  H+  H83  1  0.38012342  0.35732568  0.98923630  1
  H+  H84  1  0.13596814  0.78754840  0.98796399  1
  H+  H85  1  0.79318329  0.62786387  0.49505356  1
  H+  H86  1  0.13193494  0.27229100  0.65628411  1
  H+  H87  1  0.87668845  0.22601231  0.83630125  1
  H+  H88  1  0.02970410  0.15417606  0.15317565  1
  H+  H89  1  0.09833018  0.62018077  0.82719435  1
  H+  H90  1  0.50553061  0.85089580  0.85061959  1
  H+  H91  1  0.62601041  0.89158632  0.83244165  1
  H+  H92  1  0.39524972  0.51604839  0.31952883  1
  H+  H93  1  0.00246296  0.12135825  0.52532213  1
  H+  H94  1  0.88171967  0.61346459  0.98902683  1
  H+  H95  1  0.63984802  1.02948176  0.67662065  1
  H+  H96  1  0.62181706  0.49368596  0.67730937  1
  H+  H97  1  0.90337151  0.11207355  0.84939886  1
  H+  H98  1  0.98015506  0.63637488  0.99195271  1
  H+  H99  1  0.23124879  0.37370995  0.15878641  1
  H+  H100  1  0.04892092  0.28945089  0.37126727  1
  H+  H101  1  0.64189837  0.52943138  0.83604655  1
  H+  H102  1  0.11961929  0.53680705  0.32451840  1
  H+  H103  1  0.77059811  0.63598190  0.82234619  1
  H+  H104  1  0.74540408  0.39237575  0.48366056  1
  H+  H105  1  0.21334870  0.61875763  0.32107408  1
  H+  H106  1  0.65293054  0.02682336  0.84854169  1
  H+  H107  1  -0.02375603  0.12379271  0.30731539  1
  H+  H108  1  0.52069441  0.88359695  0.68104248  1
  H+  H109  1  1.00961672  0.87161014  0.82870322  1
  H+  H110  1  0.26894851  0.13371358  0.49655294  1
  H+  H111  1  0.12379833  0.23431400  0.29463468  1
  H+  H112  1  0.74575313  0.10968393  0.85230099  1
  H+  H113  1  0.88427097  0.36154151  0.84137752  1
  H+  H114  1  0.65845620  0.83709554  0.91310279  1
  H+  H115  1  0.64108787  0.11901847  0.67763077  1
  H+  H116  1  0.38713410  1.01828779  0.32721896  1
  H+  H117  1  0.60586724  0.38621289  0.00950710  1
  H+  H118  1  0.52544051  0.14207922  0.67583628  1
  H+  H119  1  0.12238156  0.75888127  0.83033495  1
  H+  H120  1  0.86914196  0.12463597  0.14920237  1
  H+  H121  1  0.46272623  0.61111254  0.99543583  1
  H+  H122  1  0.46973056  0.61556380  0.16863915  1
  H+  H123  1  -0.02326177  0.36625025  0.84195350  1
  H+  H124  1  0.88968895  0.65405360  0.48939872  1
  H+  H125  1  0.71804663  0.36249939  0.66827501  1
  H+  H126  1  0.58100158  0.76247478  0.46753869  1
  H+  H127  1  0.11005296  0.65561971  0.14875871  1
  H+  H128  1  0.94441211  0.53920594  0.54994921  1
  H+  H129  1  0.38288784  0.35287619  0.50025956  1
  H+  H130  1  0.88992218  0.77842997  0.50208254  1
  H+  H131  1  0.90467963  0.03836397  0.60901972  1
  H+  H132  1  0.36362993  0.47760354  0.15136589  1
  H+  H133  1  0.76653657  0.12513575  0.31687986  1
  H+  H134  1  0.62842633  0.88677938  0.49773903  1
  H+  H135  1  0.99524013  0.33166913  0.53815696  1
  H+  H136  1  0.60234900  0.36546417  0.49198576  1
  H+  H137  1  0.47963592  0.37120809  0.16700111  1
  H+  H138  1  0.25594287  0.12954568  0.18434143  1
  H+  H139  1  0.11502556  0.38626677  0.49768690  1
  H+  H140  1  0.83402049  0.40424206  0.46662490  1
  H+  H141  1  0.87772576  0.89826641  0.34540213  1
  H+  H142  1  0.09913129  0.98670988  -0.04195271  1
  H+  H143  1  0.11958960  0.24092009  0.15215679  1
  H+  H144  1  0.27626165  0.39506808  0.83548899  1
  H+  H145  1  0.10472255  0.64766144  0.33437274  1
  H+  H146  1  0.66973746  0.67728016  0.51209639  1
  H+  H147  1  0.91280003  0.58320220  0.89769474  1
  H+  H148  1  0.13809502  0.52084712  0.84462113  1
  H+  H149  1  0.12536033  0.26465577  -0.00775803  1
  H+  H150  1  0.11650458  0.63824244  0.67288260  1
  H+  H151  1  0.13190002  0.10523091  0.52857827  1
  H+  H152  1  0.85766951  0.47087429  0.83063429  1
  H+  H153  1  0.61575362  0.40032724  0.67533515  1
  H+  H154  1  0.52879268  0.39403831  0.83077825  1
  H+  H155  1  0.40494325  0.24608039  0.14248100  1
  H+  H156  1  0.26672573  0.38031575  1.00041176  1
  H+  H157  1  0.35896940  0.22112491  0.49101874  1
  H+  H158  1  0.92632217  0.60051307  0.25527683  1
  H+  H159  1  0.27910384  0.88375242  0.34145705  1
  H+  H160  1  0.09515294  0.08375402  0.17033389  1
  H+  H161  1  -0.04954668  -0.02235364  0.70391895  1
  H+  H162  1  0.35589630  0.63379572  0.00463004  1
  H+  H163  1  0.86749329  0.01064769  0.50878073  1
  H+  H164  1  0.13360971  0.35825020  -0.00100529  1
  H+  H165  1  0.24439712  0.09193987  0.16378702  1
  H+  H166  1  0.60494749  0.48307021  0.15861229  1
  H+  H167  1  0.25535436  0.36117896  0.48894905  1
  H+  H168  1  1.02883789  0.88869640  0.34437017  1
  H+  H169  1  0.64892813  0.77787448  0.32869954  1
  H+  H170  1  0.86102932  0.22025463  0.00597498  1
  H+  H171  1  0.37703524  0.10213013  0.32584831  1
  H+  H172  1  0.11055855  0.66156681  0.01084783  1
  H+  H173  1  0.87300171  0.52165069  0.50235384  1
  H+  H174  1  0.02612875  0.64241180  0.48945592  1
  H+  H175  1  0.42132370  0.33627706  0.56119634  1
  H+  H176  1  0.76360275  0.63203963  0.15122356  1
  H+  H177  1  0.51350246  0.38043402  0.00565789  1
  H+  H178  1  0.62911442  0.24964734  0.50690976  1
  H+  H179  1  0.85636809  0.13557986  0.68264245  1
  H+  H180  1  0.63287840  0.27751842  1.00323948  1
  H+  H181  1  0.50631111  0.85071561  0.99925071  1
  H+  H182  1  0.99226499  0.63839295  0.16760875  1
  H+  H183  1  0.13827768  0.54439856  0.00100326  1
  H+  H184  1  0.23227944  0.86804034  0.50541915  1
  H+  H185  1  0.36009872  0.82136415  0.67711217  1
  H+  H186  1  0.37497463  0.25430662  0.31583858  1
  H+  H187  1  0.39870210  0.13610200  0.65925940  1
  H+  H188  1  0.14281010  0.77943009  0.50350859  1
  H+  H189  1  0.87903034  0.10536348  -0.00278449  1
  H+  H190  1  0.84022025  0.71483414  0.99844282  1
  H+  H191  1  0.27802447  0.89881771  0.66596503  1
  H+  H192  1  0.73159179  0.07622583  0.14671159  1
  H+  H193  1  0.71069561  0.87499090  1.01206871  1
  H+  H194  1  0.08169328  0.93235975  0.01573564  1
  H+  H195  1  0.35963309  0.36172267  0.68019758  1
  H+  H196  1  0.38610193  0.61947601  0.83828210  1
  H+  H197  1  0.37338734  0.09247824  0.83495486  1
  H+  H198  1  0.85896870  0.85619237  0.99406606  1
  H+  H199  1  0.63237105  0.02893787  0.49189607  1
  H+  H200  1  0.91260151  0.06773570  0.23215424  1
  H+  H201  1  0.38271855  1.02952117  -0.00604451  1
  H+  H202  1  0.82065750  0.42816981  0.08116416  1
  H+  H203  1  0.94999573  0.86359533  0.97995972  1
  H+  H204  1  0.76746312  0.13223854  0.00772993  1
  H+  H205  1  0.15611075  0.78083546  0.66284340  1
  H+  H206  1  -0.02281748  0.86810645  0.50645880  1
  H+  H207  1  0.12335003  0.26454991  0.52077501  1
  H+  H208  1  0.77948857  0.89666416  0.84171885  1
  H+  H209  1  0.84525929  0.37537189  0.67992151  1
  H+  H210  1  0.05993860  -0.01852857  0.18185729  1
  H+  H211  1  0.84569215  0.97092463  0.01413298  1
  H+  H212  1  0.13690443  0.78084787  0.33128053  1
  H+  H213  1  0.87206823  -0.01509749  0.34305972  1
  H+  H214  1  0.87159399  0.27733442  0.32639903  1
  H+  H215  1  0.83761688  0.76057355  0.21950489  1
  H+  H216  1  0.27309491  0.90184677  0.00255025  1
  H+  H217  1  0.60082760  0.23220475  0.83630921  1
  H+  H218  1  0.36442700  0.70699463  0.67570457  1
  H+  H219  1  0.85861911  0.73844788  0.67314882  1
  H+  H220  1  0.67213416  0.31254246  0.22456513  1
  H+  H221  1  0.38334980  0.35644322  0.16362093  1
  H+  H222  1  0.71065145  0.87027095  0.50028894  1
  H+  H223  1  0.22472037  0.60299739  0.66124595  1
  H+  H224  1  0.63237272  0.86447587  0.16594351  1
  H+  H225  1  0.36119388  0.61835081  0.68768142  1
  H+  H226  1  0.61145415  0.52103765  1.00421274  1
  H+  H227  1  0.88223247  0.27024017  0.68172748  1
  H+  H228  1  0.39709047  0.85665243  0.33436033  1
  H+  H229  1  0.25826954  0.63661794  0.49460007  1
  H+  H230  1  0.37964146  0.93017003  0.65622074  1
  H+  H231  1  0.71594580  0.30096741  0.54679241  1
  H+  H232  1  0.86978659  0.10112729  0.51114860  1
  H+  H233  1  0.39980968  0.37859098  0.84270326  1
  H+  H234  1  0.62241292  0.64937177  0.67790002  1
  H+  H235  1  0.37477506  -0.05994979  0.82756283  1
  H+  H236  1  0.12826960  0.61216192  0.50466940  1
  H+  H237  1  0.62413764  0.88788893  0.33989088  1
  H+  H238  1  0.73780933  0.62397378  0.32223643  1
  H+  H239  1  0.64646935  0.61935155  0.32605911  1
  H+  H240  1  0.86560578  0.36479890  0.32134198  1
  H+  H241  1  0.71750080  0.86193949  0.64303423  1
  H+  H242  1  0.03684350  0.86621522  0.12731231  1
  H+  H243  1  0.84981893  0.95451364  0.16249539  1
  H+  H244  1  0.13659364  0.87162890  -0.03587296  1
  H+  H245  1  0.91225369  0.41619133  1.01996553  1
  H+  H246  1  0.40085081  0.60807665  0.32973458  1
  H+  H247  1  0.91837720  0.50670336  1.01809620  1
  H+  H248  1  0.12704466  0.52039200  0.16856643  1
  H+  H249  1  0.11045236  0.47253734  0.67724785  1
  H+  H250  1  0.40551140  0.77154040  1.00145302  1
  H+  H251  1  0.61095286  0.23130904  0.68076431  1
  H+  H252  1  0.12813190  0.01785209  0.32981127  1
  H+  H253  1  0.46940459  0.11263573  0.83966494  1
  H+  H254  1  0.49057976  0.86583667  0.33061058  1
  H+  H255  1  0.87931989  0.22222311  0.51800530  1
  H+  H256  1  0.36875023  0.89208090  0.50067796  1
  H+  H257  1  0.37162092  0.76541194  0.51660185  1
  H+  H258  1  0.40373258  0.51556457  0.66943631  1
  H+  H259  1  0.89306030  0.61629773  0.16709411  1
  H+  H260  1  0.14548752  0.27750472  0.84671390  1
  H+  H261  1  0.40597929  0.73758215  0.35650233  1
  H+  H262  1  0.35417643  0.47219143  -0.00193111  1
  H+  H263  1  0.12833029  0.76709687  0.17260221  1
  H+  H264  1  0.85521617  0.88533821  0.49606664  1
  H+  H265  1  0.61039897  0.73121396  0.67049343  1
  H+  H266  1  0.97130634  0.36049578  0.67957845  1
  H+  H267  1  0.37809033  0.37046519  0.32569675  1
  H+  H268  1  0.08816143  0.92128493  0.43962101  1
  H+  H269  1  0.52104043  0.14311561  0.33841672  1
  H+  H270  1  0.52194892  0.10449553  0.16068781  1
  H+  H271  1  0.87415743  0.76484178  0.83710303  1
  H+  H272  1  0.23108261  0.11325251  0.67302044  1
  H+  H273  1  0.59551573  0.72548513  0.16033463  1
  H+  H274  1  0.35477032  -0.02986612  0.16225709  1
  H+  H275  1  0.11644283  0.88997679  0.49875611  1
  H+  H276  1  0.88770526  0.37081992  0.51895080  1
  H+  H277  1  0.03687903  0.13709702  0.66024320  1
  H+  H278  1  0.12834721  0.15170249  0.67185227  1
  H+  H279  1  0.27323218  0.64805768  0.00572537  1
  H+  H280  1  0.84176858  0.86132860  0.16668481  1
  H+  H281  1  0.11486983  0.38602506  0.83248966  1
  H+  H282  1  0.52326530  0.38091745  0.49322241  1
  H+  H283  1  0.12746937  0.52150427  0.50948224  1
  H+  H284  1  0.71768931  0.12274778  0.50301903  1
  H+  H285  1  0.08755510  0.31545649  0.39134951  1
  H+  H286  1  0.91238861  0.07239157  0.94051986  1
  H+  H287  1  0.64160778  0.37205019  0.85081212  1
  H+  H288  1  0.45079731  0.81591948  0.92846531  1
  H+  H289  1  0.40820922  0.31478565  0.25574952  1
  H+  H290  1  0.16390495  0.59409092  0.93811876  1
  H+  H291  1  0.16524635  0.82742370  0.88236561  1
  H+  H292  1  0.66815101  0.59253553  0.22935739  1
  H+  H293  1  0.32436543  0.65489195  0.09429292  1
  H+  H294  1  0.32174710  0.69084835  0.76642042  1
  H+  H295  1  0.58936933  0.91548797  0.77278531  1
  H+  H296  1  0.41784005  0.07942270  0.23366755  1
  H+  H297  1  0.42519263  0.33986209  0.89771441  1
  H+  H298  1  0.58861118  0.68158435  0.77268271  1
  H+  H299  1  0.33885495  0.91493093  0.40050574  1
  H+  H300  1  0.57739023  0.15405335  0.06432884  1
  H+  H301  1  0.17842311  0.37089977  0.32333275  1
  H+  H302  1  0.81542925  0.65387534  0.05593572  1
  H+  H303  1  0.21676881  0.61960216  0.84111346  1
  H+  H304  1  0.15082667  0.12236252  0.88167741  1
  H+  H305  1  0.52634260  0.64614500  0.82994996  1
  H+  H306  1  0.91630651  0.33046216  0.93292798  1
  H+  H307  1  0.57505259  0.42172422  0.10018049  1
  H+  H308  1  0.86020875  0.63482899  0.82402549  1
  H+  H309  1  0.16456324  0.58000156  0.60199191  1
  H+  H310  1  0.83558085  0.67787252  0.73507255  1
  H+  H311  1  0.90813228  0.32528145  0.22875144  1
  H+  H312  1  0.28357081  0.30167182  0.72238757  1
  H+  H313  1  0.16227734  0.58890432  0.22267458  1
  H+  H314  1  0.73240067  0.52399752  0.56458628  1
  H+  H315  1  0.08122228  0.16883584  0.05978375  1
  H+  H316  1  0.67885519  0.04815304  0.24363411  1
  H+  H317  1  0.11708606  0.17206948  0.40087329  1
  H+  H318  1  0.40671691  0.57900151  0.22708163  1
  H+  H319  1  0.16242837  0.97002739  0.07730959  1
  H+  H320  1  0.46722675  0.83924205  0.52949535  1
  H+  H321  1  0.33775456  0.67080318  0.44402775  1
  H+  H322  1  0.34239336  0.44776594  0.48034468  1
  H+  H323  1  0.09796213  0.20124260  0.40124357  1
  H+  H324  1  0.03555818  0.65434958  0.67347897  1
  H+  H325  1  0.09530309  0.42861521  0.07920148  1
  H+  H326  1  0.41345799  0.08222043  0.93070185  1
  H+  H327  1  0.16797859  0.33716587  0.57012657  1
  H+  H328  1  0.67968548  0.59537811  0.61015135  1
  H+  H329  1  0.70638712  0.36852415  1.02813820  1
  H+  H330  1  0.40819656  0.58497783  0.93316698  1
  H+  H331  1  0.92718348  0.61785812  0.60681663  1
  H+  H332  1  0.01374592  0.13043996  0.00441172  1
  H+  H333  1  0.81508426  0.90565395  0.07234999  1
  H+  H334  1  0.84524793  0.16299119  0.77940272  1
  H+  H335  1  0.91904578  0.84392537  0.27238420  1
  H+  H336  1  0.45104881  0.70171112  0.40198131  1
  H+  H337  1  0.08151229  0.67195871  0.42867625  1
  H+  H338  1  0.81343011  0.43196281  0.37858507  1
  H+  H339  1  0.57393052  0.17560243  0.77568709  1
  H+  H340  1  0.18393261  0.47200607  0.04603497  1
  H+  H341  1  0.31313999  0.76561050  0.79959143  1
  H+  H342  1  0.83250562  0.91959858  0.43596284  1
  H+  H343  1  0.17715573  0.08277029  0.61133232  1
  H+  H344  1  0.84046853  0.22173445  0.45379894  1
  H+  H345  1  0.39956465  0.81857850  0.61147162  1
  H+  H346  1  0.59247225  0.63254112  0.01292205  1
  H+  H347  1  0.67738836  0.08576232  0.94074781  1
  H+  H348  1  0.90318120  0.83108440  0.59866599  1
  H+  H349  1  0.02959487  0.12779240  0.84772919  1
  H+  H350  1  0.33797707  0.16881596  0.04942774  1
  H+  H351  1  0.15521142  0.92485705  0.07853360  1
  H+  H352  1  0.42224651  0.83394294  0.23163152  1
  H+  H353  1  0.89175025  0.82041270  0.89794057  1
  H+  H354  1  0.01376694  0.64331178  0.33503002  1
  H+  H355  1  0.67027046  0.34341796  0.91165885  1
  H+  H356  1  0.17886287  0.83604060  0.60131603  1
  H+  H357  1  0.57082633  0.67268830  0.38959744  1
  H+  H358  1  0.04196458  0.92706709  0.74455202  1
  H+  H359  1  0.33467725  0.41828322  0.09108394  1
  H+  H360  1  0.34344328  0.39908961  0.38618363  1
  H+  H361  1  0.33307473  0.41391109  0.77610469  1
  H+  H362  1  0.08583589  0.41633399  0.77296019  1
  H+  H363  1  0.35187520  0.91359427  0.76056514  1
  H+  H364  1  0.93540524  0.30078583  0.59738885  1
  H+  H365  1  0.08255812  0.69354033  0.07197795  1
  H+  H366  1  0.18267548  0.34654576  0.22171212  1
  H+  H367  1  0.25970395  0.12297708  0.33379651  1
  H+  H368  1  0.56325369  0.66025888  0.10334814  1
  H+  H369  1  0.58880457  0.42232555  0.77195847  1
  H+  H370  1  0.32534274  0.92595628  0.06523612  1
  H+  H371  1  0.81505086  0.40484619  0.73789242  1
  H+  H372  1  0.59886045  0.42600724  0.39645452  1
  H+  H373  1  0.52040765  0.13939624  0.49459343  1
  H+  H374  1  0.65284170  0.83687697  0.58708718  1
  H+  H375  1  0.13352117  0.05915179  0.26538924  1
  H+  H376  1  0.60060174  0.93180657  0.39568149  1
  H+  H377  1  0.46238987  0.22189374  0.10253414  1
  H+  H378  1  0.42893770  0.61901409  0.58605375  1
  H+  H379  1  0.16893696  0.33810079  0.90372089  1
  H+  H380  1  0.81223884  0.14598826  0.38233203  1
  H+  H381  1  0.07720805  0.65434592  0.76526273  1
  H+  H382  1  0.57906389  0.17589302  0.39749116  1
  H+  H383  1  0.63110957  0.92420335  0.05463116  1
  O2-  O384  1  0.08774736  0.18113667  0.13532696  1
  O2-  O385  1  0.06594273  0.15260776  0.51532277  1
  O2-  O386  1  0.09180862  0.17139725  0.83671334  1
  O2-  O387  1  0.07427193  0.41658832  0.14914432  1
  O2-  O388  1  0.08063318  0.41550660  0.49053995  1
  O2-  O389  1  0.08544509  0.41780187  0.81853348  1
  O2-  O390  1  0.08335776  0.69001827  0.13902385  1
  O2-  O391  1  0.08589520  0.67210916  0.47453629  1
  O2-  O392  1  0.06685577  0.64771996  0.81015271  1
  O2-  O393  1  0.03727076  0.87943319  0.17017238  1
  O2-  O394  1  0.08575400  0.92062983  0.48518836  1
  O2-  O395  1  0.06467945  0.90105422  0.80620474  1
  O2-  O396  1  0.40498052  0.19665602  0.11988560  1
  O2-  O397  1  0.32650167  0.16068527  0.47633502  1
  O2-  O398  1  0.36008919  0.20186176  0.75597267  1
  O2-  O399  1  0.33263166  0.41699679  0.13665115  1
  O2-  O400  1  0.31418189  0.38709763  0.46959265  1
  O2-  O401  1  0.33673661  0.42928178  0.81975628  1
  O2-  O402  1  0.31801395  0.64406184  0.14013094  1
  O2-  O403  1  0.32145381  0.67305361  0.48729152  1
  O2-  O404  1  0.31422630  0.71173806  0.80681882  1
  O2-  O405  1  0.32237027  0.91139717  0.14472019  1
  O2-  O406  1  0.33883316  0.92004639  0.48217388  1
  O2-  O407  1  0.36441426  0.89377276  0.79900163  1
  O2-  O408  1  0.57940965  0.13108540  0.14067738  1
  O2-  O409  1  0.58084640  0.17101232  0.47944082  1
  O2-  O410  1  0.56377591  0.17370552  0.81996565  1
  O2-  O411  1  0.57075913  0.42237205  0.14545084  1
  O2-  O412  1  0.58596244  0.40845377  0.48256556  1
  O2-  O413  1  0.59104615  0.42300346  0.81689692  1
  O2-  O414  1  0.56448544  0.66134930  0.14884986  1
  O2-  O415  1  0.53340370  0.70851451  0.44929388  1
  O2-  O416  1  0.58761195  0.67962998  0.81790661  1
  O2-  O417  1  0.64209336  0.95807659  0.12638417  1
  O2-  O418  1  0.59520660  0.93882107  0.46848897  1
  O2-  O419  1  0.59077408  0.91727160  0.81808456  1
  O2-  O420  1  0.83526439  0.15176571  0.13879006  1
  O2-  O421  1  0.83484632  0.18245326  0.48622377  1
  O2-  O422  1  0.85299182  0.16478396  0.82439032  1
  O2-  O423  1  0.75945435  0.41132510  0.08727642  1
  O2-  O424  1  0.80135424  0.43443687  0.46354936  1
  O2-  O425  1  0.82868908  0.40918363  0.81741823  1
  O2-  O426  1  0.82242123  0.65817694  0.13267618  1
  O2-  O427  1  0.84824257  0.67014292  0.47513138  1
  O2-  O428  1  0.83319066  0.66777829  0.80800628  1
  O2-  O429  1  0.81664270  0.89538376  0.14592233  1
  O2-  O430  1  0.82394382  0.91474817  0.48134889  1
  O2-  O431  1  0.83764369  0.92608957  0.82398921  1
  O2-  O432  1  0.06722798  0.03615127  0.19953258  1
  O2-  O433  1  0.17036766  0.08072113  0.53322331  1
  O2-  O434  1  0.14015125  0.12659564  0.83726234  1
  O2-  O435  1  0.17190056  0.34513146  0.17715267  1
  O2-  O436  1  0.16169110  0.32813174  0.52443912  1
  O2-  O437  1  0.17301748  0.33974928  0.85825704  1
  O2-  O438  1  0.16555596  0.58304926  0.17811928  1
  O2-  O439  1  0.15828519  0.58307657  0.52253032  1
  O2-  O440  1  0.16106285  0.58069033  0.86073973  1
  O2-  O441  1  0.16123121  0.82783805  0.19711240  1
  O2-  O442  1  0.17179272  0.83846253  0.52071684  1
  O2-  O443  1  0.15453848  0.82151620  0.83803343  1
  O2-  O444  1  0.42115515  0.07546040  0.18838762  1
  O2-  O445  1  0.41533290  0.08556017  0.51912435  1
  O2-  O446  1  0.40785714  0.07035994  0.85314037  1
  O2-  O447  1  0.41597493  0.32911585  0.17850415  1
  O2-  O448  1  0.41891081  0.32933129  0.51596753  1
  O2-  O449  1  0.43097331  0.34814202  0.85283905  1
  O2-  O450  1  0.40583327  0.58134121  0.18146470  1
  O2-  O451  1  0.44160127  0.65908584  0.55202069  1
  O2-  O452  1  0.41568259  0.59052534  0.85384603  1
  O2-  O453  1  0.42070014  0.83184471  0.18702436  1
  O2-  O454  1  0.40757370  0.82434338  0.53638764  1
  O2-  O455  1  0.45791546  0.80123312  0.87494493  1
  O2-  O456  1  0.66872217  0.03777229  0.15735839  1
  O2-  O457  1  0.65513091  0.09066901  0.50901214  1
  O2-  O458  1  0.68601599  0.08398975  0.86736996  1
  O2-  O459  1  0.68866103  0.30191261  0.18402952  1
  O2-  O460  1  0.67286700  0.31182789  0.52826269  1
  O2-  O461  1  0.67009877  0.34023760  0.86639688  1
  O2-  O462  1  0.66488938  0.59220927  0.18398343  1
  O2-  O463  1  0.70838989  0.55003878  0.53796249  1
  O2-  O464  1  0.67718397  0.59160271  0.84630979  1
  O2-  O465  1  0.64709561  0.82052553  0.17835156  1
  O2-  O466  1  0.65056746  0.84639660  0.51455328  1
  O2-  O467  1  0.66825409  0.83852847  0.86886443  1
  O2-  O468  1  0.92704763  0.05946532  0.18940767  1
  O2-  O469  1  0.89521324  0.06901607  0.52923772  1
  O2-  O470  1  0.93012448  0.07909653  0.86621271  1
  O2-  O471  1  0.91714463  0.32333804  0.18467735  1
  O2-  O472  1  0.95315198  0.28025995  0.56061480  1
  O2-  O473  1  0.91664282  0.33325287  0.85736429  1
  O2-  O474  1  0.93308688  0.60249384  0.18792199  1
  O2-  O475  1  0.92282663  0.56918754  0.52490315  1
  O2-  O476  1  0.90577795  0.57610184  0.85238949  1
  O2-  O477  1  0.88206623  0.81362225  0.20117032  1
  O2-  O478  1  0.91511732  0.83773165  0.51799977  1
  O2-  O479  1  0.90185825  0.82517361  0.85337824  1
  O2-  O480  1  0.15519156  0.07433915  0.30782239  1
  O2-  O481  1  0.17272973  0.08713407  0.65624166  1
  O2-  O482  1  0.16300282  0.09866841  0.95539413  1
  O2-  O483  1  0.20299230  0.34538724  0.29709171  1
  O2-  O484  1  0.16427805  0.33682726  0.64464594  1
  O2-  O485  1  0.15977158  0.32715596  0.97959825  1
  O2-  O486  1  0.15577076  0.59368404  0.30401006  1
  O2-  O487  1  0.16413157  0.57673135  0.64726841  1
  O2-  O488  1  0.16913873  0.60265724  0.98327335  1
  O2-  O489  1  0.17306934  0.84080173  0.31642369  1
  O2-  O490  1  0.18842082  0.84012823  0.64590371  1
  O2-  O491  1  0.17090970  0.84285175  0.96475803  1
  O2-  O492  1  0.41294110  0.07791385  0.31087442  1
  O2-  O493  1  0.42252636  0.10179178  0.64169444  1
  O2-  O494  1  0.41490081  0.09005138  0.97587352  1
  O2-  O495  1  0.40586812  0.31450145  0.30104843  1
  O2-  O496  1  0.43122714  0.34875308  0.63936650  1
  O2-  O497  1  0.41250462  0.32931430  0.97473312  1
  O2-  O498  1  0.41938853  0.57543785  0.30304640  1
  O2-  O499  1  0.42349951  0.57609590  0.66287491  1
  O2-  O500  1  0.40213967  0.58042263  0.97829038  1
  O2-  O501  1  0.42773162  0.82627913  0.32126855  1
  O2-  O502  1  0.40546183  0.81576341  0.65697476  1
  O2-  O503  1  0.44699374  0.82735058  0.98146683  1
  O2-  O504  1  0.68379650  0.06450763  0.28667677  1
  O2-  O505  1  0.67500132  0.09101226  0.66643096  1
  O2-  O506  1  0.67669332  0.08959730  0.98649621  1
  O2-  O507  1  0.66311757  0.33365934  0.30380090  1
  O2-  O508  1  0.65498473  0.33697175  0.65444103  1
  O2-  O509  1  0.66350115  0.33984848  0.99298663  1
  O2-  O510  1  0.67716572  0.59136356  0.30779408  1
  O2-  O511  1  0.67565877  0.60024226  0.65443557  1
  O2-  O512  1  0.63578416  0.58311740  0.99451959  1
  O2-  O513  1  0.67696844  0.84045916  0.32259916  1
  O2-  O514  1  0.65638029  0.83273783  0.63346503  1
  O2-  O515  1  0.64676497  0.84227617  0.99931763  1
  O2-  O516  1  0.91226241  0.08399740  0.30747202  1
  O2-  O517  1  0.95033389  0.03840147  0.63386490  1
  O2-  O518  1  0.90869824  0.07223999  0.98637609  1
  O2-  O519  1  0.90291653  0.33863197  0.31332101  1
  O2-  O520  1  0.91147320  0.32909958  0.66329544  1
  O2-  O521  1  0.91904161  0.32709221  0.97860879  1
  O2-  O522  1  0.92005736  0.59547735  0.30283278  1
  O2-  O523  1  0.93668548  0.62148555  0.65057656  1
  O2-  O524  1  0.92241815  0.59460988  0.97481844  1
  O2-  O525  1  0.92827815  0.84623982  0.31804074  1
  O2-  O526  1  0.89247674  0.82695108  0.64296964  1
  O2-  O527  1  0.88711949  0.82505389  0.97685574  1
  O2-  O528  1  0.07692781  0.16491579  0.01424505  1
  O2-  O529  1  0.07948613  0.17351358  0.28947514  1
  O2-  O530  1  0.09327421  0.18007023  0.67685721  1
  O2-  O531  1  0.12272974  0.44214290  0.03676145  1
  O2-  O532  1  0.05432839  0.44072463  0.36057301  1
  O2-  O533  1  0.08169920  0.41386828  0.69550311  1
  O2-  O534  1  0.08214535  0.69376366  0.02358381  1
  O2-  O535  1  0.07341479  0.67355658  0.35401165  1
  O2-  O536  1  0.09531929  0.67550780  0.68966701  1
  O2-  O537  1  0.06723073  0.92571241  -0.02733205  1
  O2-  O538  1  0.08873927  0.91954837  0.36150034  1
  O2-  O539  1  0.02503242  0.94701268  0.70598996  1
  O2-  O540  1  0.32484943  0.16211394  0.00532359  1
  O2-  O541  1  0.32010706  0.15148179  0.34917120  1
  O2-  O542  1  0.34762991  0.18828226  0.69831771  1
  O2-  O543  1  0.32789990  0.41233499  0.01414339  1
  O2-  O544  1  0.35317628  0.40930153  0.34213616  1
  O2-  O545  1  0.31212700  0.35987469  0.70567990  1
  O2-  O546  1  0.33250308  0.66951668  0.02309644  1
  O2-  O547  1  0.39639008  0.68427906  0.37942405  1
  O2-  O548  1  0.32973602  0.65010648  0.69553368  1
  O2-  O549  1  0.33119141  0.93557378  0.02050775  1
  O2-  O550  1  0.34025639  0.91270597  0.35542496  1
  O2-  O551  1  0.34087000  0.94002476  0.68133425  1
  O2-  O552  1  0.58122622  0.16717556  0.01995544  1
  O2-  O553  1  0.58100261  0.17919434  0.35266837  1
  O2-  O554  1  0.58361686  0.17040482  0.69436830  1
  O2-  O555  1  0.57240621  0.41471882  0.02293817  1
  O2-  O556  1  0.60175657  0.42655999  0.35194875  1
  O2-  O557  1  0.58552144  0.43181452  0.68852287  1
  O2-  O558  1  0.55765679  0.66174566  0.02627894  1
  O2-  O559  1  0.58592453  0.66328331  0.34778281  1
  O2-  O560  1  0.58698048  0.67516220  0.69202045  1
  O2-  O561  1  0.61220326  0.89961200  0.01196180  1
  O2-  O562  1  0.59401026  0.92129703  0.34990433  1
  O2-  O563  1  0.58144795  0.91384053  0.69365042  1
  O2-  O564  1  0.83174994  0.16030316  0.02142056  1
  O2-  O565  1  0.82408420  0.16487346  0.34014067  1
  O2-  O566  1  0.83036745  0.16532653  0.70257916  1
  O2-  O567  1  0.92144968  0.46472286  0.04573959  1
  O2-  O568  1  0.82028050  0.42429981  0.33511763  1
  O2-  O569  1  0.81016214  0.40107214  0.69267391  1
  O2-  O570  1  0.81291039  0.65349509  0.01040065  1
  O2-  O571  1  0.84364869  0.67665557  0.34811086  1
  O2-  O572  1  0.83268211  0.67671471  0.68907753  1
  O2-  O573  1  0.80892100  0.90930271  0.02675413  1
  O2-  O574  1  0.84574840  0.92644637  0.36142088  1
  O2-  O575  1  0.90895201  0.99791034  0.69121875  1
