# generated using pymatgen
data_H2O
_symmetry_space_group_name_H-M   'P 1'
_cell_length_a   17.99689104
_cell_length_b   18.00428648
_cell_length_c   22.00708203
_cell_angle_alpha   90.00521680
_cell_angle_beta   90.02761483
_cell_angle_gamma   120.01230092
_symmetry_Int_Tables_number   1
_chemical_formula_structural   H2O
_chemical_formula_sum   'H384 O192'
_cell_volume   6174.65317046
_cell_formula_units_Z   192
loop_
 _symmetry_equiv_pos_site_id
 _symmetry_equiv_pos_as_xyz
  1  'x, y, z'
loop_
 _atom_type_symbol
 _atom_type_oxidation_number
  H+  1.0
  O2-  -2.0
loop_
 _atom_site_type_symbol
 _atom_site_label
 _atom_site_symmetry_multiplicity
 _atom_site_fract_x
 _atom_site_fract_y
 _atom_site_fract_z
 _atom_site_occupancy
  H+  H0  1  0.36455490  0.97748723  0.49533847  1
  H+  H1  1  0.13636177  0.11434398  0.84622952  1
  H+  H2  1  0.26374238  0.88616291  0.34008564  1
  H+  H3  1  0.36035679  0.38292034  0.18037846  1
  H+  H4  1  0.53214473  0.39266961  0.66177401  1
  H+  H5  1  0.09512135  0.10204253  0.34228321  1
  H+  H6  1  0.23773858  0.62593588  0.65860882  1
  H+  H7  1  0.14850247  0.51440870  0.99363689  1
  H+  H8  1  0.74108349  0.37105978  0.32227512  1
  H+  H9  1  0.94082007  0.31853556  0.31509396  1
  H+  H10  1  0.77095837  0.14322529  0.49133207  1
  H+  H11  1  0.39226900  0.51555364  0.18844623  1
  H+  H12  1  0.40956275  0.31380623  0.88945589  1
  H+  H13  1  0.91081611  0.36151359  0.65927170  1
  H+  H14  1  0.63529934  0.11683385  0.50804374  1
  H+  H15  1  0.87585437  0.38363710  0.81659610  1
  H+  H16  1  0.63368643  0.14535827  0.34767793  1
  H+  H17  1  0.63191630  0.39923232  0.33131260  1
  H+  H18  1  0.88334305  0.28662463  0.46508419  1
  H+  H19  1  0.89338784  0.11481261  0.99203991  1
  H+  H20  1  0.47225274  0.78116097  0.54654569  1
  H+  H21  1  0.88538571  0.40218207  0.39110163  1
  H+  H22  1  0.39211138  0.29407083  0.61816772  1
  H+  H23  1  0.72277754  0.62807089  0.32379088  1
  H+  H24  1  0.63097266  0.02798565  0.66176640  1
  H+  H25  1  0.51595996  0.12903619  0.01070576  1
  H+  H26  1  0.84774125  0.88126474  0.30645274  1
  H+  H27  1  0.89305934  0.78679844  0.99725136  1
  H+  H28  1  0.45883555  0.05123083  0.35819293  1
  H+  H29  1  0.21929203  0.87635802  0.62920556  1
  H+  H30  1  0.79221458  0.38628804  0.79935800  1
  H+  H31  1  0.49243613  0.63681481  0.99498472  1
  H+  H32  1  0.64152069  0.23822613  0.34766056  1
  H+  H33  1  0.34855852  0.12151659  0.29032974  1
  H+  H34  1  0.14279803  0.36926049  0.50203525  1
  H+  H35  1  0.40060817  0.38058454  0.64608755  1
  H+  H36  1  0.36961300  0.64058718  0.01467247  1
  H+  H37  1  0.85837489  0.72969097  0.67566384  1
  H+  H38  1  0.26932724  0.38270660  0.33051801  1
  H+  H39  1  0.29535752  0.20086338  0.35278300  1
  H+  H40  1  0.12850017  1.03143020  0.65086066  1
  H+  H41  1  0.60379121  0.14401462  0.83582849  1
  H+  H42  1  0.07993659  0.74149435  0.99683009  1
  H+  H43  1  0.64012988  0.77287280  0.83987120  1
  H+  H44  1  0.73254535  0.87312748  0.99754125  1
  H+  H45  1  0.62019348  0.39208507  0.67256991  1
  H+  H46  1  0.61894802  1.00981029  0.32184089  1
  H+  H47  1  0.41643826  0.29936988  0.32863872  1
  H+  H48  1  0.32498241  0.16051931  0.11649736  1
  H+  H49  1  0.85052813  0.96374315  0.33161469  1
  H+  H50  1  0.88955029  0.10689850  0.84185978  1
  H+  H51  1  0.52687403  0.88902229  0.49049213  1
  H+  H52  1  0.40311806  0.02330873  1.00525338  1
  H+  H53  1  0.88004672  0.22930124  0.00410376  1
  H+  H54  1  0.97403305  0.10806403  0.17831060  1
  H+  H55  1  0.00890639  0.88562419  0.65287224  1
  H+  H56  1  0.16890426  0.09923312  0.59761792  1
  H+  H57  1  0.86704505  0.34022253  0.31452695  1
  H+  H58  1  0.48235338  0.61926304  0.33120903  1
  H+  H59  1  0.10650403  0.63592970  0.48292572  1
  H+  H60  1  0.35101475  0.11470022  1.02003981  1
  H+  H61  1  0.60422349  0.63504260  0.34070040  1
  H+  H62  1  0.48009385  0.38033024  0.48327074  1
  H+  H63  1  0.36735653  0.65094459  0.33242626  1
  H+  H64  1  0.33533317  0.14390804  0.18889264  1
  H+  H65  1  0.48729164  0.61099037  0.17876789  1
  H+  H66  1  0.02805058  0.34886149  0.68135535  1
  H+  H67  1  0.14139557  0.54976491  0.65775796  1
  H+  H68  1  0.38737911  0.53157921  0.32644825  1
  H+  H69  1  0.25439430  0.13021716  0.67573136  1
  H+  H70  1  0.87382549  0.01181883  0.65765637  1
  H+  H71  1  0.47385524  0.97615766  0.05475151  1
  H+  H72  1  0.39209372  0.48890759  0.66385383  1
  H+  H73  1  0.61865676  0.10409854  0.17719621  1
  H+  H74  1  0.89052999  0.60215136  0.32895916  1
  H+  H75  1  0.66064357  0.09070273  0.78974089  1
  H+  H76  1  0.88218871  0.52507941  0.17036793  1
  H+  H77  1  0.23036618  0.61514496  0.84296771  1
  H+  H78  1  0.72047120  0.60601644  0.84447375  1
  H+  H79  1  0.22543287  0.10939106  0.00248771  1
  H+  H80  1  0.86587495  0.98048851  0.01961025  1
  H+  H81  1  0.76634323  0.87059274  0.66993111  1
  H+  H82  1  0.11110564  0.98097758  0.84560688  1
  H+  H83  1  0.39142643  0.75756203  0.50563309  1
  H+  H84  1  0.26680002  0.38734799  0.48303050  1
  H+  H85  1  0.84302050  0.68291710  0.29266631  1
  H+  H86  1  0.13078485  0.90261760  0.48007085  1
  H+  H87  1  0.12840154  0.87186633  0.63441516  1
  H+  H88  1  0.47885076  0.85358455  0.99424868  1
  H+  H89  1  0.77336275  0.88518668  0.82728636  1
  H+  H90  1  0.37905635  0.11027123  0.65977746  1
  H+  H91  1  0.63694656  0.52631422  0.66616262  1
  H+  H92  1  0.73461694  0.36819049  0.65849893  1
  H+  H93  1  0.17331813  0.08998886  0.90794354  1
  H+  H94  1  0.41697579  0.54425540  0.97978124  1
  H+  H95  1  0.11078797  0.22201200  0.99766708  1
  H+  H96  1  0.65723981  0.07862182  0.23400927  1
  H+  H97  1  0.08331918  0.92448692  0.06507001  1
  H+  H98  1  0.07343030  0.67474920  0.07465472  1
  H+  H99  1  0.12674447  -0.00940540  0.31529634  1
  H+  H100  1  0.61083254  0.47567834  0.16059547  1
  H+  H101  1  0.18200089  0.60937878  0.15210427  1
  H+  H102  1  0.64265699  0.28086428  0.66550144  1
  H+  H103  1  0.15595277  0.34519190  0.65170822  1
  H+  H104  1  0.48206978  0.60410705  0.60228788  1
  H+  H105  1  0.88605889  0.62066025  0.66109274  1
  H+  H106  1  0.11793952  0.46828701  0.15732137  1
  H+  H107  1  0.39300465  0.02078673  0.84704123  1
  H+  H108  1  0.72265477  0.35845435  0.16979196  1
  H+  H109  1  0.13403084  0.52826535  0.50693965  1
  H+  H110  1  0.76840457  0.13361415  0.67558847  1
  H+  H111  1  0.65526392  0.33642887  0.57077595  1
  H+  H112  1  0.02171028  0.38459543  0.15462252  1
  H+  H113  1  0.14307771  0.89023888  0.17250978  1
  H+  H114  1  0.62076993  0.65848830  0.01016631  1
  H+  H115  1  0.86293077  0.74081911  0.34929467  1
  H+  H116  1  0.46711578  0.33316004  0.98802684  1
  H+  H117  1  0.47638799  0.36430163  0.17407546  1
  H+  H118  1  0.57821862  0.92156667  0.73384038  1
  H+  H119  1  0.36583177  0.89002868  0.49715314  1
  H+  H120  1  0.96810574  0.85829167  0.85626415  1
  H+  H121  1  -0.03380093  0.09981326  0.33049240  1
  H+  H122  1  0.66948836  0.82088578  0.59423965  1
  H+  H123  1  0.24487434  0.64872089  0.31039856  1
  H+  H124  1  0.14719472  0.26877626  0.83838191  1
  H+  H125  1  0.61163178  0.98209126  0.48766205  1
  H+  H126  1  0.61550529  0.88238634  0.82882533  1
  H+  H127  1  0.36760692  0.93213156  0.77512264  1
  H+  H128  1  0.97424765  0.35857288  0.83589398  1
  H+  H129  1  0.08286456  0.42941104  0.33089087  1
  H+  H130  1  0.12495943  0.85464673  0.84701959  1
  H+  H131  1  0.71671284  0.85416086  0.32462661  1
  H+  H132  1  0.36198540  0.43426864  0.03899910  1
  H+  H133  1  0.22353456  0.85737782  0.49375812  1
  H+  H134  1  0.66337206  0.56657149  1.00696587  1
  H+  H135  1  0.78672436  0.15333347  -0.00911518  1
  H+  H136  1  0.68791828  0.36548684  0.85883695  1
  H+  H137  1  0.64045579  0.86134386  0.17326430  1
  H+  H138  1  0.46688256  0.86256047  0.30678710  1
  H+  H139  1  0.65252369  0.13577841  0.98273932  1
  H+  H140  1  0.10701229  0.72485037  0.47876948  1
  H+  H141  1  0.86505143  0.78320119  0.22782119  1
  H+  H142  1  0.85838035  0.89563943  0.18772905  1
  H+  H143  1  0.62656905  0.52100198  0.84216745  1
  H+  H144  1  0.62182576  0.25076469  1.00399600  1
  H+  H145  1  0.60982755  0.26995784  0.84795089  1
  H+  H146  1  0.63420696  0.35907379  0.17401046  1
  H+  H147  1  0.61316531  0.89071133  -0.00058947  1
  H+  H148  1  0.27996010  0.90582332  0.70936596  1
  H+  H149  1  0.09317581  0.12747407  0.16856148  1
  H+  H150  1  0.72174155  0.61467679  0.17295602  1
  H+  H151  1  0.88744923  0.47393708  0.34399596  1
  H+  H152  1  0.71948034  0.62252047  0.67129173  1
  H+  H153  1  0.10567854  0.13978687  0.67485658  1
  H+  H154  1  0.25438007  0.12982425  0.83684553  1
  H+  H155  1  1.01303267  0.12588045  0.99531275  1
  H+  H156  1  0.35556578  0.22629355  0.82646816  1
  H+  H157  1  0.90448772  0.82679382  0.59812134  1
  H+  H158  1  -0.03880764  0.10166683  0.66078708  1
  H+  H159  1  0.18331487  0.33828031  0.55598864  1
  H+  H160  1  0.92254856  0.59614300  0.56551251  1
  H+  H161  1  0.88909604  0.60230584  0.98596761  1
  H+  H162  1  0.83314197  0.91066728  0.42675584  1
  H+  H163  1  0.86023534  0.88267181  0.82961470  1
  H+  H164  1  0.10553542  0.66812469  0.17913235  1
  H+  H165  1  0.60767457  0.72220003  0.48814167  1
  H+  H166  1  0.40311167  0.89749215  0.01983989  1
  H+  H167  1  0.36092130  0.98290875  0.67412120  1
  H+  H168  1  0.01455582  0.62185496  0.01747407  1
  H+  H169  1  0.02613176  0.63344481  0.82898257  1
  H+  H170  1  0.37121723  0.94304486  0.11958180  1
  H+  H171  1  0.59609584  0.35295635  1.01221339  1
  H+  H172  1  0.83629576  0.19843832  0.33383749  1
  H+  H173  1  0.57085060  0.41818468  0.76145746  1
  H+  H174  1  0.38417190  0.89510290  0.83572765  1
  H+  H175  1  0.38821760  0.52749672  0.83738598  1
  H+  H176  1  0.21626655  0.35215103  0.00124474  1
  H+  H177  1  0.88601218  0.01578501  0.84156398  1
  H+  H178  1  0.59128471  0.43581217  -0.00237432  1
  H+  H179  1  0.59992744  0.87812996  0.33444247  1
  H+  H180  1  0.36441681  0.39427184  0.33127604  1
  H+  H181  1  0.08912444  0.79438860  0.33936475  1
  H+  H182  1  0.86272586  0.68579910  -0.06825720  1
  H+  H183  1  0.17733406  0.33163015  0.89426784  1
  H+  H184  1  0.21466920  0.35340746  0.18579864  1
  H+  H185  1  0.85633038  0.48775546  0.50223620  1
  H+  H186  1  0.14443391  0.80505972  0.18236370  1
  H+  H187  1  0.63985920  0.52979388  0.49206812  1
  H+  H188  1  0.85308159  0.12545195  0.67377881  1
  H+  H189  1  0.27702710  0.14708711  0.49666410  1
  H+  H190  1  0.37919524  0.78682549  0.20601360  1
  H+  H191  1  0.57246095  0.15520381  0.07166038  1
  H+  H192  1  0.38273995  0.27578695  0.17751859  1
  H+  H193  1  0.71276455  0.09169608  0.32503996  1
  H+  H194  1  0.08677055  0.84127727  0.99148729  1
  H+  H195  1  0.20599997  0.07975095  0.33111658  1
  H+  H196  1  0.96539037  0.44312946  0.95330018  1
  H+  H197  1  0.61026008  0.63443353  0.16148460  1
  H+  H198  1  0.96989890  0.11399102  0.50531662  1
  H+  H199  1  0.15737067  0.56527470  0.31600913  1
  H+  H200  1  0.12304148  0.42579172  0.69024790  1
  H+  H201  1  0.36098556  0.63673184  0.82552181  1
  H+  H202  1  0.71458601  0.36743139  0.51272784  1
  H+  H203  1  0.54444869  0.40381514  0.33049085  1
  H+  H204  1  0.38701887  0.77118781  0.84184930  1
  H+  H205  1  0.77915453  0.12942065  0.82836262  1
  H+  H206  1  0.12161412  0.65720329  0.67300080  1
  H+  H207  1  0.87886615  0.77163281  0.50745832  1
  H+  H208  1  0.52313276  0.63834904  0.82932915  1
  H+  H209  1  0.62836178  0.01012930  0.83133958  1
  H+  H210  1  0.11443689  0.74091763  0.67233931  1
  H+  H211  1  0.12971870  0.35205826  0.99272411  1
  H+  H212  1  0.61103870  0.63501974  0.83149835  1
  H+  H213  1  0.85905405  -0.02448555  0.48338480  1
  H+  H214  1  0.13459905  0.02207560  0.99504982  1
  H+  H215  1  0.30941178  0.93786748  0.17252764  1
  H+  H216  1  1.01859349  0.89899787  1.00904574  1
  H+  H217  1  0.24121298  0.61105149  -0.00099698  1
  H+  H218  1  0.86008760  0.14372450  0.49056327  1
  H+  H219  1  0.26763704  0.64916071  0.48264320  1
  H+  H220  1  0.52407382  0.87904634  0.83261934  1
  H+  H221  1  0.11221949  0.22885509  0.48831622  1
  H+  H222  1  0.62576671  0.76646496  0.32934212  1
  H+  H223  1  0.88270158  0.86141982  0.66036222  1
  H+  H224  1  0.89367149  0.52229142  0.83498589  1
  H+  H225  1  0.58792455  0.38441686  0.82499119  1
  H+  H226  1  0.25267940  0.36769415  0.64581532  1
  H+  H227  1  0.95055619  0.89507206  0.24660859  1
  H+  H228  1  0.35545165  0.20348706  0.01417395  1
  H+  H229  1  0.37539867  0.85725288  0.65912113  1
  H+  H230  1  0.22812614  0.85521448  0.04660254  1
  H+  H231  1  0.57423496  0.66188997  0.40355031  1
  H+  H232  1  0.02446225  0.39314779  0.47757151  1
  H+  H233  1  0.09061087  0.21470957  0.16847037  1
  H+  H234  1  0.97820336  0.62696300  0.66153619  1
  H+  H235  1  0.21314028  0.11873654  0.17661214  1
  H+  H236  1  0.64373953  0.53328397  0.32434540  1
  H+  H237  1  0.88475403  0.26654700  0.83778012  1
  H+  H238  1  0.12645905  0.35490286  0.17532651  1
  H+  H239  1  0.60493819  0.38584566  0.48971480  1
  H+  H240  1  0.46309742  0.35106202  0.82678761  1
  H+  H241  1  0.87626009  0.10213509  0.33041721  1
  H+  H242  1  0.10953512  0.19636863  0.33601907  1
  H+  H243  1  0.63892294  0.99290263  0.15566637  1
  H+  H244  1  0.02250850  0.12615056  0.83458522  1
  H+  H245  1  0.51706660  0.89454704  0.67610549  1
  H+  H246  1  0.36639629  0.72978419  0.67434422  1
  H+  H247  1  0.12288790  0.67212417  0.32478487  1
  H+  H248  1  0.10987301  0.47383622  0.82944107  1
  H+  H249  1  0.76352140  0.14879119  0.15464521  1
  H+  H250  1  0.10398177  -0.01211672  0.15972105  1
  H+  H251  1  0.38724617  0.11379397  0.50679431  1
  H+  H252  1  0.47611729  0.11371150  0.50759744  1
  H+  H253  1  0.63650711  0.86583979  0.49741212  1
  H+  H254  1  0.69983717  0.97434788  0.11679108  1
  H+  H255  1  0.36936035  0.74093672  0.32466762  1
  H+  H256  1  0.34415097  0.21502471  0.69096660  1
  H+  H257  1  0.88120110  0.27747577  0.15691985  1
  H+  H258  1  0.86172028  0.39021164  0.15668412  1
  H+  H259  1  0.52127747  0.14342317  0.67544580  1
  H+  H260  1  0.37679598  0.32797788  0.98115161  1
  H+  H261  1  0.10762529  0.31046020  0.33254405  1
  H+  H262  1  0.72950958  0.61722094  0.49121253  1
  H+  H263  1  0.37808864  0.10236423  0.84793925  1
  H+  H264  1  0.36736801  0.39454806  0.47934235  1
  H+  H265  1  0.87370985  0.48284364  0.65908183  1
  H+  H266  1  0.03399181  0.39643927  0.00046918  1
  H+  H267  1  0.14069858  0.12293319  0.50591349  1
  H+  H268  1  -0.02316318  0.61635720  0.50250614  1
  H+  H269  1  0.17603424  0.44729461  0.33977469  1
  H+  H270  1  0.37355456  0.85261441  0.30916463  1
  H+  H271  1  0.76741571  0.88501204  0.16936539  1
  H+  H272  1  0.63753159  0.11976030  0.65979590  1
  H+  H273  1  0.45660425  0.05372110  0.32418113  1
  H+  H274  1  0.38448817  0.76855273  0.99804536  1
  H+  H275  1  0.60670619  0.72284871  0.16565633  1
  H+  H276  1  0.85944493  0.72187787  0.83690092  1
  H+  H277  1  0.60637785  0.22691137  0.50153470  1
  H+  H278  1  0.36606228  0.39214767  0.82051903  1
  H+  H279  1  0.31531307  0.48695076  0.04825909  1
  H+  H280  1  0.24310900  0.87471282  1.01566301  1
  H+  H281  1  0.58316834  0.67633713  0.07163634  1
  H+  H282  1  0.27834239  0.39077758  0.82016651  1
  H+  H283  1  0.87407052  0.50697467  -0.00438439  1
  H+  H284  1  0.51261900  0.13843755  0.83635785  1
  H+  H285  1  0.01293274  0.65215097  0.16770067  1
  H+  H286  1  0.79097330  0.65357295  -0.01933236  1
  H+  H287  1  0.85011352  0.37841237  0.00372107  1
  H+  H288  1  0.90605979  0.07866771  0.56167710  1
  H+  H289  1  0.87574263  0.85813153  0.50947288  1
  H+  H290  1  0.10589371  0.43682447  0.43577496  1
  H+  H291  1  0.31146090  0.15101128  0.76989137  1
  H+  H292  1  0.42696094  0.34573715  0.26508703  1
  H+  H293  1  0.08794635  0.39753686  0.78199871  1
  H+  H294  1  0.82988718  0.67050315  0.73556940  1
  H+  H295  1  0.81936122  0.15166894  0.39890100  1
  H+  H296  1  0.59148795  0.41968330  0.42457910  1
  H+  H297  1  0.09759075  0.93068955  0.42420162  1
  H+  H298  1  0.31895777  0.41438482  0.12941632  1
  H+  H299  1  0.56369020  0.63990942  0.74246344  1
  H+  H300  1  0.88350514  0.37297528  0.48099838  1
  H+  H301  1  0.90844909  0.07516590  0.24175168  1
  H+  H302  1  0.82634927  0.90853912  0.72997249  1
  H+  H303  1  0.65553390  0.82353158  0.23606399  1
  H+  H304  1  0.82096704  0.16926023  0.09446907  1
  H+  H305  1  0.67803457  0.33737231  0.26455234  1
  H+  H306  1  0.90519728  0.83555762  0.91174883  1
  H+  H307  1  0.86901178  0.64049024  0.48851579  1
  H+  H308  1  0.61928192  0.75963238  0.64994255  1
  H+  H309  1  0.42833069  0.58690843  0.24857206  1
  H+  H310  1  0.41010584  0.11039031  0.24417385  1
  H+  H311  1  0.41046606  0.07557508  0.94306920  1
  H+  H312  1  0.42742309  0.36603325  0.54400532  1
  H+  H313  1  0.86190833  0.64357265  0.17082054  1
  H+  H314  1  0.57666251  0.17238165  0.73627228  1
  H+  H315  1  0.36693066  0.23452203  0.48750651  1
  H+  H316  1  0.91179687  0.57775010  0.23274312  1
  H+  H317  1  0.59294532  0.17291796  0.44126399  1
  H+  H318  1  0.09828271  0.22206176  0.68301794  1
  H+  H319  1  0.35463023  0.43374566  0.72525193  1
  H+  H320  1  0.75584292  0.36814172  1.00761843  1
  H+  H321  1  0.88233581  0.87101558  1.00844588  1
  H+  H322  1  0.41957516  0.59359331  0.89457195  1
  H+  H323  1  0.15385789  0.82577608  0.54642302  1
  H+  H324  1  0.44390928  0.06647903  0.16420973  1
  H+  H325  1  0.38027562  0.64967485  0.67637571  1
  H+  H326  1  0.14129182  0.61571961  0.84813360  1
  H+  H327  1  0.57671649  0.40974526  0.10405734  1
  H+  H328  1  0.14991747  0.03880635  0.50251871  1
  H+  H329  1  0.07817561  0.15902236  0.43461084  1
  H+  H330  1  0.89336431  0.26626985  0.66765707  1
  H+  H331  1  0.11276248  0.12831178  0.99887720  1
  H+  H332  1  0.08896737  0.67065073  0.77155733  1
  H+  H333  1  0.67838642  0.10789542  0.92148024  1
  H+  H334  1  0.85606447  0.42504897  0.71674089  1
  H+  H335  1  0.60280752  0.60713614  0.67946648  1
  H+  H336  1  0.08238518  0.67552064  0.38877153  1
  H+  H337  1  0.32038718  0.15592903  0.40371411  1
  H+  H338  1  -0.01624889  0.61559023  0.32325941  1
  H+  H339  1  0.07927540  0.15464231  0.77397153  1
  H+  H340  1  0.12741906  0.76612372  0.84561742  1
  H+  H341  1  0.91803092  0.57095273  0.89922372  1
  H+  H342  1  0.58828535  0.91980989  0.05966917  1
  H+  H343  1  0.01869717  0.89531832  0.15677407  1
  H+  H344  1  0.08301265  0.91156445  0.70256836  1
  H+  H345  1  0.48704271  0.58621829  0.53378766  1
  H+  H346  1  0.66079162  0.58475164  0.23006296  1
  H+  H347  1  0.90979190  0.32895578  0.21835177  1
  H+  H348  1  0.33040223  0.66709118  0.76759536  1
  H+  H349  1  0.17296659  0.88696387  0.26640139  1
  H+  H350  1  0.83365971  0.92114113  0.08026473  1
  H+  H351  1  0.64003448  0.31158406  0.94456932  1
  H+  H352  1  0.15312469  0.07503796  0.23495880  1
  H+  H353  1  0.86272129  0.63336657  0.83271763  1
  H+  H354  1  0.16850808  0.59777287  0.56052729  1
  H+  H355  1  0.59828490  0.21958922  0.16495142  1
  H+  H356  1  0.14986367  0.31645700  0.26669703  1
  H+  H357  1  0.32098769  0.89156527  0.39604821  1
  H+  H358  1  0.32912771  0.68344840  0.42373613  1
  H+  H359  1  0.32670535  0.41879975  0.41768397  1
  H+  H360  1  0.31027998  0.64571602  0.16754985  1
  H+  H361  1  0.41836117  0.82644552  0.90378884  1
  H+  H362  1  0.41145053  0.82418767  0.60357815  1
  H+  H363  1  0.34077583  0.67358238  0.07443572  1
  H+  H364  1  0.72245205  0.86136518  0.49648119  1
  H+  H365  1  0.87468707  1.01127221  0.17962835  1
  H+  H366  1  0.56941004  0.91143376  0.39118266  1
  H+  H367  1  0.41329385  0.08399076  0.60049083  1
  H+  H368  1  0.61677958  0.63750310  0.48531639  1
  H+  H369  1  0.08666765  0.41426702  0.06397309  1
  H+  H370  1  0.66567004  0.59236443  0.93601682  1
  H+  H371  1  0.05971363  0.92438636  0.79047706  1
  H+  H372  1  0.10971027  0.80192599  0.92617656  1
  H+  H373  1  0.64276346  0.78647999  0.99700581  1
  H+  H374  1  0.92792600  0.35414826  0.92159253  1
  H+  H375  1  0.84323992  0.66756686  0.42684972  1
  H+  H376  1  0.66686157  0.08499346  0.56472426  1
  H+  H377  1  0.18044040  0.58249833  0.93059904  1
  H+  H378  1  0.91717177  0.07592283  0.93371810  1
  H+  H379  1  0.67239463  0.83428457  0.89902637  1
  H+  H380  1  0.82479884  0.41562805  0.09996838  1
  H+  H381  1  0.18845842  0.59212998  0.22254385  1
  H+  H382  1  0.81083861  0.43165116  0.44424455  1
  H+  H383  1  0.83551682  0.15888113  0.76817016  1
  O2-  O384  1  0.05805500  0.15372747  0.15549861  1
  O2-  O385  1  0.08056261  0.16628010  0.47956893  1
  O2-  O386  1  0.08330071  0.15393940  0.81939637  1
  O2-  O387  1  0.08327492  0.40892730  0.14074029  1
  O2-  O388  1  0.08870610  0.42245982  0.47872946  1
  O2-  O389  1  0.07131683  0.41241250  0.82077460  1
  O2-  O390  1  0.07492334  0.68985853  0.15525852  1
  O2-  O391  1  0.07430643  0.66301033  0.46560298  1
  O2-  O392  1  0.08794773  0.66526841  0.81672674  1
  O2-  O393  1  0.07755732  0.92789102  0.14172407  1
  O2-  O394  1  0.11621490  0.94636029  0.46618005  1
  O2-  O395  1  0.07474824  0.91981902  0.83221824  1
  O2-  O396  1  0.31756633  0.17483541  0.15883286  1
  O2-  O397  1  0.33630937  0.17217492  0.47846564  1
  O2-  O398  1  0.31753726  0.15887969  0.81609979  1
  O2-  O399  1  0.32722591  0.41442304  0.17387901  1
  O2-  O400  1  0.32811341  0.41846767  0.46405182  1
  O2-  O401  1  0.34017055  0.42585946  0.80581004  1
  O2-  O402  1  0.36309091  0.69418827  0.14964317  1
  O2-  O403  1  0.32802903  0.68165539  0.46890082  1
  O2-  O404  1  0.32823312  0.66567545  0.81296398  1
  O2-  O405  1  0.37003015  0.96269178  0.16129331  1
  O2-  O406  1  0.33382999  0.91626311  0.48116423  1
  O2-  O407  1  0.36121651  0.93169362  0.81937692  1
  O2-  O408  1  0.56543197  0.15835922  0.14989990  1
  O2-  O409  1  0.57867264  0.16672767  0.48623108  1
  O2-  O410  1  0.57385688  0.17410687  0.82122818  1
  O2-  O411  1  0.57901881  0.41329160  0.14896445  1
  O2-  O412  1  0.57889564  0.41697555  0.46900560  1
  O2-  O413  1  0.56178646  0.41672852  0.80690190  1
  O2-  O414  1  0.57567426  0.66211644  0.14874039  1
  O2-  O415  1  0.57862208  0.66188120  0.47307549  1
  O2-  O416  1  0.58360436  0.66637200  0.81370561  1
  O2-  O417  1  0.64130177  0.94539125  0.13251513  1
  O2-  O418  1  0.58315016  0.92295832  0.46992665  1
  O2-  O419  1  0.58389630  0.91238086  0.81593973  1
  O2-  O420  1  0.82288935  0.18019635  0.13850975  1
  O2-  O421  1  0.82978112  0.17240043  0.47264393  1
  O2-  O422  1  0.83941476  0.16096943  0.81421462  1
  O2-  O423  1  0.82822700  0.41906764  0.14518814  1
  O2-  O424  1  0.81986055  0.42645008  0.48754234  1
  O2-  O425  1  0.85442833  0.42156459  0.79829549  1
  O2-  O426  1  0.83227597  0.67802468  0.16604046  1
  O2-  O427  1  0.83928729  0.67008324  0.47106250  1
  O2-  O428  1  0.82767707  0.66081181  0.82300857  1
  O2-  O429  1  0.82951654  0.91948291  0.15787716  1
  O2-  O430  1  0.82958735  0.91396071  0.47137895  1
  O2-  O431  1  0.83451749  0.91589657  0.81266426  1
  O2-  O432  1  0.15159834  0.08253620  0.19012205  1
  O2-  O433  1  0.17521482  0.09735534  0.52187131  1
  O2-  O434  1  0.17206174  0.08776481  0.86176115  1
  O2-  O435  1  0.15200240  0.32216023  0.19491752  1
  O2-  O436  1  0.17702454  0.34030285  0.51019515  1
  O2-  O437  1  0.18340764  0.32967176  0.84999952  1
  O2-  O438  1  0.19388226  0.57407706  0.17965752  1
  O2-  O439  1  0.16189414  0.59084244  0.51584483  1
  O2-  O440  1  0.17221709  0.58596504  0.86347107  1
  O2-  O441  1  0.17574340  0.86651406  0.19326308  1
  O2-  O442  1  0.16044281  0.82758793  0.50154026  1
  O2-  O443  1  0.14650558  0.82096602  0.86848044  1
  O2-  O444  1  0.47828328  0.13102058  0.17195578  1
  O2-  O445  1  0.41496360  0.08215141  0.52326727  1
  O2-  O446  1  0.41556458  0.08196055  0.86406390  1
  O2-  O447  1  0.41727314  0.33709610  0.19250394  1
  O2-  O448  1  0.41872737  0.35486863  0.49947301  1
  O2-  O449  1  0.40310599  0.31362003  0.84423835  1
  O2-  O450  1  0.42728619  0.57883174  0.19939680  1
  O2-  O451  1  0.45274030  0.55881515  0.57034267  1
  O2-  O452  1  0.41838236  0.58961991  0.84974049  1
  O2-  O453  1  0.35017836  0.76683017  0.16592177  1
  O2-  O454  1  0.43813571  0.80634393  0.53254553  1
  O2-  O455  1  0.42200205  0.83050117  0.85819571  1
  O2-  O456  1  0.65793378  0.08256584  0.18811999  1
  O2-  O457  1  0.66715373  0.08633375  0.51930367  1
  O2-  O458  1  0.65819010  0.07620845  0.83278138  1
  O2-  O459  1  0.66288997  0.32643383  0.18670523  1
  O2-  O460  1  0.65311783  0.33491122  0.52542071  1
  O2-  O461  1  0.62700097  0.32808422  0.86699467  1
  O2-  O462  1  0.65946341  0.58133778  0.18454265  1
  O2-  O463  1  0.66890532  0.59063119  0.50436703  1
  O2-  O464  1  0.66041414  0.57903930  0.86085920  1
  O2-  O465  1  0.65939216  0.82212189  0.19026899  1
  O2-  O466  1  0.66223167  0.83138432  0.51174167  1
  O2-  O467  1  0.67150291  0.83386499  0.85357137  1
  O2-  O468  1  0.90911304  0.07427116  0.19517303  1
  O2-  O469  1  0.90808872  0.08358054  0.51639840  1
  O2-  O470  1  0.91810889  0.07579343  0.85890769  1
  O2-  O471  1  0.91747089  0.33843632  0.17386777  1
  O2-  O472  1  0.91496527  0.34998099  0.45777466  1
  O2-  O473  1  0.91175459  0.32834930  0.85009236  1
  O2-  O474  1  0.91137542  0.58451140  0.18776233  1
  O2-  O475  1  0.91763507  0.58924525  0.52029847  1
  O2-  O476  1  0.91946627  0.58003534  0.85423309  1
  O2-  O477  1  0.84102244  0.71115893  0.22820195  1
  O2-  O478  1  0.90260299  0.82748525  0.52868575  1
  O2-  O479  1  0.90619190  0.82544939  0.86694537  1
  O2-  O480  1  0.14763115  0.05237753  0.31263784  1
  O2-  O481  1  0.16401176  0.09459480  0.64350181  1
  O2-  O482  1  0.16723379  0.08451650  0.98188664  1
  O2-  O483  1  0.15821994  0.31496907  0.31268908  1
  O2-  O484  1  0.19405597  0.32914415  0.62949280  1
  O2-  O485  1  0.16029322  0.32059674  0.98055174  1
  O2-  O486  1  0.18410700  0.61954147  0.29320534  1
  O2-  O487  1  0.17845873  0.60787904  0.64293168  1
  O2-  O488  1  0.18176529  0.57645767  0.97833885  1
  O2-  O489  1  0.17776302  0.90616792  0.31046239  1
  O2-  O490  1  0.15735851  0.83747612  0.62547912  1
  O2-  O491  1  0.07628109  0.78772649  0.96911696  1
  O2-  O492  1  0.35211306  0.10150346  0.24952025  1
  O2-  O493  1  0.41190030  0.08272561  0.64643508  1
  O2-  O494  1  0.41300511  0.07951720  0.98834754  1
  O2-  O495  1  0.43142545  0.35494544  0.31099554  1
  O2-  O496  1  0.43190860  0.35510263  0.62361117  1
  O2-  O497  1  0.40926496  0.30121591  0.96713697  1
  O2-  O498  1  0.42178899  0.59109482  0.31072836  1
  O2-  O499  1  0.52367597  0.66699948  0.66459687  1
  O2-  O500  1  0.43151877  0.60406556  0.97771150  1
  O2-  O501  1  0.40805919  0.82958834  0.28928701  1
  O2-  O502  1  0.40625870  0.82639829  0.64879320  1
  O2-  O503  1  0.41669051  0.82645668  0.97985887  1
  O2-  O504  1  0.65422097  0.07128266  0.30825726  1
  O2-  O505  1  0.66660826  0.08871211  0.64537232  1
  O2-  O506  1  0.70154578  0.14344785  0.95779997  1
  O2-  O507  1  0.68058778  0.34387492  0.30989726  1
  O2-  O508  1  0.67179155  0.34070377  0.64937655  1
  O2-  O509  1  0.64934682  0.31308855  0.98922124  1
  O2-  O510  1  0.66304323  0.59275101  0.30896128  1
  O2-  O511  1  0.65781431  0.58848327  0.65858677  1
  O2-  O512  1  0.68077501  0.61469262  0.97927565  1
  O2-  O513  1  0.65487247  0.82563058  0.31156872  1
  O2-  O514  1  0.67368398  0.81281393  0.63825452  1
  O2-  O515  1  0.67515984  0.84385757  0.97743870  1
  O2-  O516  1  0.90753825  0.07360634  0.31259200  1
  O2-  O517  1  0.90284035  0.07287677  0.64294243  1
  O2-  O518  1  0.92305404  0.08217062  0.97960537  1
  O2-  O519  1  0.88492120  0.30004509  0.29685967  1
  O2-  O520  1  0.93757868  0.32545295  0.65546962  1
  O2-  O521  1  0.94313897  0.38269823  0.96331301  1
  O2-  O522  1  0.92131810  0.57405042  0.31292292  1
  O2-  O523  1  0.91954897  0.59499720  0.64386457  1
  O2-  O524  1  0.91478550  0.56523388  0.97880930  1
  O2-  O525  1  0.88906812  0.86365285  0.23893841  1
  O2-  O526  1  0.91346938  0.83122690  0.64478208  1
  O2-  O527  1  0.91798598  0.84884104  0.98838192  1
  O2-  O528  1  0.07858965  0.15837189  0.00934166  1
  O2-  O529  1  0.07251701  0.14026883  0.35543974  1
  O2-  O530  1  0.07136940  0.16190070  0.69577028  1
  O2-  O531  1  0.09260983  0.41765802  0.01813667  1
  O2-  O532  1  0.13434170  0.46229883  0.35546256  1
  O2-  O533  1  0.08790550  0.36457864  0.69777561  1
  O2-  O534  1  0.07283758  0.66808008  0.02972294  1
  O2-  O535  1  0.08124715  0.68569805  0.34392795  1
  O2-  O536  1  0.08868215  0.68284821  0.69065578  1
  O2-  O537  1  0.08126758  0.92291244  0.01946527  1
  O2-  O538  1  0.09062192  0.85021102  0.33519778  1
  O2-  O539  1  0.07580733  0.92096272  0.65998984  1
  O2-  O540  1  0.32153509  0.14689158  0.03393624  1
  O2-  O541  1  0.30871133  0.15517526  0.35854298  1
  O2-  O542  1  0.31267252  0.15311854  0.69762108  1
  O2-  O543  1  0.30725808  0.42908035  0.05081051  1
  O2-  O544  1  0.32909436  0.42004305  0.34523408  1
  O2-  O545  1  0.35733492  0.43055770  0.67994052  1
  O2-  O546  1  0.33048808  0.66084800  0.02935314  1
  O2-  O547  1  0.33645447  0.68136567  0.34391291  1
  O2-  O548  1  0.33894426  0.66771784  0.68813939  1
  O2-  O549  1  0.41309004  0.94911268  0.04433815  1
  O2-  O550  1  0.30613797  0.87052727  0.35405083  1
  O2-  O551  1  0.33355879  0.92145329  0.68850402  1
  O2-  O552  1  0.57658920  0.15607850  0.02635718  1
  O2-  O553  1  0.63267475  0.18991780  0.37365667  1
  O2-  O554  1  0.58100998  0.17434058  0.69134536  1
  O2-  O555  1  0.56205710  0.38374721  0.02194441  1
  O2-  O556  1  0.60348865  0.43138434  0.34710308  1
  O2-  O557  1  0.58631533  0.42006400  0.68559674  1
  O2-  O558  1  0.58528103  0.68242088  0.02605304  1
  O2-  O559  1  0.57167085  0.66266844  0.35633702  1
  O2-  O560  1  0.54648899  0.61162330  0.70087337  1
  O2-  O561  1  0.57533241  0.91163953  0.01561421  1
  O2-  O562  1  0.56744942  0.90769039  0.34581786  1
  O2-  O563  1  0.57620653  0.93347301  0.69020393  1
  O2-  O564  1  0.84276068  0.16826786  0.01206976  1
  O2-  O565  1  0.81664486  0.14202709  0.35339991  1
  O2-  O566  1  0.82798934  0.15873049  0.69263622  1
  O2-  O567  1  0.81696238  0.40352418  0.02119932  1
  O2-  O568  1  0.85526080  0.41217288  0.35705909  1
  O2-  O569  1  0.84720614  0.42169141  0.67213556  1
  O2-  O570  1  0.85390725  0.67714660  -0.02436822  1
  O2-  O571  1  0.83911662  0.68012383  0.33936293  1
  O2-  O572  1  0.82680224  0.66869363  0.69066801  1
  O2-  O573  1  0.83301995  0.92045409  0.03455883  1
  O2-  O574  1  0.82371584  0.90126335  0.33992206  1
  O2-  O575  1  0.82766808  0.90819789  0.68487107  1
