# generated using pymatgen
data_H2O
_symmetry_space_group_name_H-M   'P 1'
_cell_length_a   17.98455051
_cell_length_b   17.98562844
_cell_length_c   21.99802662
_cell_angle_alpha   89.99814703
_cell_angle_beta   90.00214448
_cell_angle_gamma   119.97495858
_symmetry_Int_Tables_number   1
_chemical_formula_structural   H2O
_chemical_formula_sum   'H384 O192'
_cell_volume   6163.80785231
_cell_formula_units_Z   192
loop_
 _symmetry_equiv_pos_site_id
 _symmetry_equiv_pos_as_xyz
  1  'x, y, z'
loop_
 _atom_type_symbol
 _atom_type_oxidation_number
  H+  1.0
  O2-  -2.0
loop_
 _atom_site_type_symbol
 _atom_site_label
 _atom_site_symmetry_multiplicity
 _atom_site_fract_x
 _atom_site_fract_y
 _atom_site_fract_z
 _atom_site_occupancy
  H+  H0  1  0.38630488  1.01410345  0.84388537  1
  H+  H1  1  0.10761374  0.13020763  0.33727688  1
  H+  H2  1  0.62928190  0.87452225  0.99909028  1
  H+  H3  1  0.89025562  0.63334553  -0.01750026  1
  H+  H4  1  0.29214313  0.63360706  0.16461665  1
  H+  H5  1  0.78153766  0.87525972  0.33987167  1
  H+  H6  1  0.01494629  0.12528195  0.85000219  1
  H+  H7  1  0.96729679  0.60393548  0.18951827  1
  H+  H8  1  0.85762510  0.47136101  0.18089882  1
  H+  H9  1  0.13586717  0.01067865  0.85537603  1
  H+  H10  1  0.89797515  1.02853315  0.50179141  1
  H+  H11  1  0.45225359  0.10616365  0.27204449  1
  H+  H12  1  0.78089035  0.39189848  0.49542367  1
  H+  H13  1  0.65331812  0.27590550  0.33677715  1
  H+  H14  1  0.39133494  0.02080224  1.00471004  1
  H+  H15  1  0.61451329  0.79716559  0.95552595  1
  H+  H16  1  0.11078474  0.47640655  0.67445317  1
  H+  H17  1  0.42880559  0.59048022  0.26978443  1
  H+  H18  1  0.89405564  0.90680046  0.82161364  1
  H+  H19  1  0.14602192  0.77567410  0.19108984  1
  H+  H20  1  0.59616371  0.21925909  0.67761055  1
  H+  H21  1  1.02524575  0.13945424  0.48993441  1
  H+  H22  1  0.14844325  0.53643138  0.14805138  1
  H+  H23  1  0.02227806  0.39919686  0.00448072  1
  H+  H24  1  0.03030977  0.89288229  0.00419781  1
  H+  H25  1  0.34718815  0.23564275  0.34638672  1
  H+  H26  1  0.92374661  0.08704588  0.56249606  1
  H+  H27  1  0.87133506  0.47967338  0.49527511  1
  H+  H28  1  0.46813136  0.10671693  0.51897172  1
  H+  H29  1  0.13834319  0.90976735  0.85032906  1
  H+  H30  1  0.14203719  0.86686461  -0.00667570  1
  H+  H31  1  0.78093188  0.14074833  0.50135914  1
  H+  H32  1  0.64577065  0.78884190  0.50127004  1
  H+  H33  1  0.89336208  0.86227012  0.16472973  1
  H+  H34  1  0.88097740  0.35918274  0.33022390  1
  H+  H35  1  0.42235107  0.79516598  0.32774380  1
  H+  H36  1  0.58459184  0.66953427  0.54591794  1
  H+  H37  1  0.23298736  0.86833501  0.84079391  1
  H+  H38  1  0.10464712  0.38609104  0.33033470  1
  H+  H39  1  0.10880121  0.48633158  0.82732025  1
  H+  H40  1  0.60901039  0.46126377  0.83613975  1
  H+  H41  1  0.35555243  0.46022193  0.71233358  1
  H+  H42  1  0.60700774  0.37199611  0.83066726  1
  H+  H43  1  0.14412284  0.85829363  0.47607534  1
  H+  H44  1  0.63161783  0.60231508  0.65100685  1
  H+  H45  1  0.42119058  0.07667994  0.94398588  1
  H+  H46  1  0.34823537  0.12561436  0.68628985  1
  H+  H47  1  0.23141493  0.12190669  0.18268906  1
  H+  H48  1  1.01229788  0.13971334  0.67742205  1
  H+  H49  1  0.63631562  0.51450672  0.50183212  1
  H+  H50  1  0.62610545  0.35600711  0.66518180  1
  H+  H51  1  0.43678704  0.27816735  0.62004323  1
  H+  H52  1  0.10501678  0.21841056  0.15873572  1
  H+  H53  1  0.13317160  0.11938228  0.84928848  1
  H+  H54  1  0.36109885  0.63931526  0.01413863  1
  H+  H55  1  0.89240145  0.36529584  0.50740303  1
  H+  H56  1  0.11101450  0.39964734  0.83359393  1
  H+  H57  1  0.62979386  0.89240022  0.16938819  1
  H+  H58  1  0.36665044  0.22194749  0.01439252  1
  H+  H59  1  0.16246570  0.42887725  0.16677922  1
  H+  H60  1  0.40846890  0.82538272  0.57112820  1
  H+  H61  1  0.64473292  0.03048983  0.52176167  1
  H+  H62  1  0.85271904  0.13595576  0.00822982  1
  H+  H63  1  0.86765416  0.64291523  0.66633655  1
  H+  H64  1  0.65156622  0.04373074  0.68552829  1
  H+  H65  1  0.13377799  0.52935493  0.99012724  1
  H+  H66  1  0.38293787  0.10109202  0.85004241  1
  H+  H67  1  0.66429242  0.53605558  0.18255262  1
  H+  H68  1  0.47414618  0.85961128  0.51540286  1
  H+  H69  1  0.97706337  0.12229486  0.98111123  1
  H+  H70  1  0.35704371  0.21812775  0.69098632  1
  H+  H71  1  0.02238123  0.13765392  0.33891992  1
  H+  H72  1  0.25519777  0.63329237  0.32695676  1
  H+  H73  1  0.09911317  0.68690289  0.72613107  1
  H+  H74  1  0.63540650  0.35613743  0.33542220  1
  H+  H75  1  0.17035549  0.83411480  0.58183454  1
  H+  H76  1  -0.08522779  0.79460819  0.84032854  1
  H+  H77  1  0.63569372  0.12168087  0.67417625  1
  H+  H78  1  0.37154733  0.01392144  0.66516728  1
  H+  H79  1  0.92716680  0.58498283  0.56424928  1
  H+  H80  1  0.47318574  0.35427173  0.84821199  1
  H+  H81  1  0.86917187  0.13958121  0.49433623  1
  H+  H82  1  -0.01647409  0.86085637  0.16383256  1
  H+  H83  1  0.36104775  0.97060157  0.49221993  1
  H+  H84  1  0.26815670  0.63621451  0.48840346  1
  H+  H85  1  0.37670623  0.52101891  0.48659252  1
  H+  H86  1  0.21839256  0.12366759  0.67688868  1
  H+  H87  1  0.88583422  0.02525267  0.65836870  1
  H+  H88  1  0.63142233  0.64358607  0.17564122  1
  H+  H89  1  0.62897495  0.73525795  0.03210838  1
  H+  H90  1  0.65790286  0.85238533  0.33545535  1
  H+  H91  1  0.41631383  0.07969961  0.33862278  1
  H+  H92  1  0.59926395  0.67319865  0.09013674  1
  H+  H93  1  0.12302714  0.36106322  0.67625538  1
  H+  H94  1  0.52649333  0.13837384  0.01687243  1
  H+  H95  1  0.13261537  0.60839044  0.49935603  1
  H+  H96  1  0.78567602  0.64405551  1.00861272  1
  H+  H97  1  0.76319873  0.13410048  0.00733138  1
  H+  H98  1  0.88961601  0.87024612  0.99589842  1
  H+  H99  1  0.83045302  0.44064695  0.64996064  1
  H+  H100  1  0.10880912  0.14092396  0.00897774  1
  H+  H101  1  0.02486466  0.63450592  0.48870701  1
  H+  H102  1  0.88822759  0.61992983  0.82489996  1
  H+  H103  1  0.61386167  0.87303952  0.66628299  1
  H+  H104  1  0.89190151  0.61300107  0.50555201  1
  H+  H105  1  0.88640679  0.27785852  0.84494421  1
  H+  H106  1  0.61130482  0.47310072  0.67700484  1
  H+  H107  1  0.36295768  0.87746053  0.82576558  1
  H+  H108  1  0.07905435  0.66135998  0.39518070  1
  H+  H109  1  0.48851862  0.61638003  0.32878973  1
  H+  H110  1  0.35434562  0.36576512  0.84024840  1
  H+  H111  1  0.59325323  0.43465904  -0.05239627  1
  H+  H112  1  0.88205797  0.10858474  0.33017192  1
  H+  H113  1  0.35267079  0.62660932  0.65941100  1
  H+  H114  1  0.86217136  0.88896283  0.66432837  1
  H+  H115  1  0.98090714  0.62377225  0.97515265  1
  H+  H116  1  0.35525591  0.87804982  0.67139174  1
  H+  H117  1  0.63863761  0.27378979  0.00093600  1
  H+  H118  1  0.38862572  0.36119379  0.00324475  1
  H+  H119  1  0.36098696  0.88168445  0.33362395  1
  H+  H120  1  0.58834987  0.93879912  0.64122635  1
  H+  H121  1  0.79243840  0.66043434  0.81888845  1
  H+  H122  1  0.02246611  0.38231378  0.48761711  1
  H+  H123  1  0.08734846  0.61470025  0.22043749  1
  H+  H124  1  0.78584000  0.40143734  0.01320766  1
  H+  H125  1  0.37421116  0.51714512  0.63498219  1
  H+  H126  1  0.36677535  0.71288271  0.82137931  1
  H+  H127  1  0.80060259  0.14924663  0.10328998  1
  H+  H128  1  0.35289764  0.38412118  0.48204331  1
  H+  H129  1  0.77778498  0.13954432  0.83963781  1
  H+  H130  1  0.75271977  0.61632574  0.31467626  1
  H+  H131  1  0.63637148  1.03118832  0.84006195  1
  H+  H132  1  0.04211510  0.90643099  0.85218513  1
  H+  H133  1  0.14455117  0.85627682  0.34760152  1
  H+  H134  1  0.10611380  0.14557036  0.68305685  1
  H+  H135  1  0.27111049  0.63885212  1.00739180  1
  H+  H136  1  0.62165915  0.38890058  0.17189879  1
  H+  H137  1  0.77733823  0.39387377  0.34346961  1
  H+  H138  1  0.63669243  0.76517681  0.65252336  1
  H+  H139  1  0.12581964  0.74162084  0.66301265  1
  H+  H140  1  0.64924471  0.78119268  0.18492965  1
  H+  H141  1  0.26278147  0.62524539  0.66476646  1
  H+  H142  1  0.64908749  0.53348394  1.00483875  1
  H+  H143  1  0.87276781  0.71987028  0.49262918  1
  H+  H144  1  1.01105540  0.37664653  0.33423161  1
  H+  H145  1  0.97645851  0.86855822  0.64217632  1
  H+  H146  1  0.10069889  0.97886207  0.36556459  1
  H+  H147  1  0.63187414  1.08614257  0.30920504  1
  H+  H148  1  0.52053819  0.88825471  1.01596694  1
  H+  H149  1  0.10503385  0.59779375  0.30827615  1
  H+  H150  1  0.22336170  0.37356500  0.85859642  1
  H+  H151  1  0.85307773  0.25874682  0.17862139  1
  H+  H152  1  0.77769164  0.88904262  0.16591875  1
  H+  H153  1  0.85494547  0.37113568  0.66878319  1
  H+  H154  1  0.12744904  0.35781847  0.48677666  1
  H+  H155  1  0.13602858  0.61483941  0.65445117  1
  H+  H156  1  0.97702595  0.36672563  0.66316863  1
  H+  H157  1  0.21227588  0.35486960  0.67301086  1
  H+  H158  1  0.87186513  0.40234150  0.01208432  1
  H+  H159  1  0.90110191  0.85873259  0.49624117  1
  H+  H160  1  0.39569141  0.36692075  0.17646772  1
  H+  H161  1  0.48267357  0.35621971  0.66423494  1
  H+  H162  1  0.57242124  0.39803831  0.40128711  1
  H+  H163  1  0.87735721  0.26739889  0.33236884  1
  H+  H164  1  0.88528537  0.27609984  0.99708302  1
  H+  H165  1  0.86160322  0.38974352  0.82773318  1
  H+  H166  1  0.62058944  0.89471769  0.50152203  1
  H+  H167  1  0.54277739  0.89851890  0.16639776  1
  H+  H168  1  0.88202655  1.02121001  0.17584321  1
  H+  H169  1  0.83002307  0.94289418  0.82595834  1
  H+  H170  1  0.61081802  0.13595485  0.82887984  1
  H+  H171  1  0.36577285  0.13238880  0.01353384  1
  H+  H172  1  0.11008864  0.63154681  -0.00784100  1
  H+  H173  1  0.78472561  0.63036918  0.49462076  1
  H+  H174  1  0.60976655  0.38177443  0.49488013  1
  H+  H175  1  0.26852677  0.88168170  0.66564078  1
  H+  H176  1  0.63090892  1.02525694  -0.00205462  1
  H+  H177  1  0.38763698  0.77614727  -0.00190215  1
  H+  H178  1  0.11639526  0.73866803  0.82497059  1
  H+  H179  1  0.09551628  0.95133423  0.58354462  1
  H+  H180  1  0.66929745  0.32670443  -0.06168380  1
  H+  H181  1  0.43561080  0.59391726  0.96084275  1
  H+  H182  1  0.36223710  0.38868054  0.33169671  1
  H+  H183  1  0.27678494  0.88728688  1.01398569  1
  H+  H184  1  0.88884050  0.52017758  0.33545443  1
  H+  H185  1  0.12629406  0.25840833  0.48745866  1
  H+  H186  1  0.36568920  0.48027599  0.33348448  1
  H+  H187  1  0.13525668  0.27230535  0.32304296  1
  H+  H188  1  0.58068388  0.67439558  0.81351200  1
  H+  H189  1  0.14207922  0.87304551  0.63441176  1
  H+  H190  1  0.08952095  0.50330616  0.30163309  1
  H+  H191  1  0.89243160  0.78180256  -0.00331391  1
  H+  H192  1  0.51630611  0.63603232  0.49501062  1
  H+  H193  1  0.87944249  0.73298815  0.15193206  1
  H+  H194  1  0.61346566  0.60231001  0.33716939  1
  H+  H195  1  0.48940431  0.62363926  0.02158271  1
  H+  H196  1  0.02932014  0.64825739  0.81909555  1
  H+  H197  1  0.38589784  0.49662964  0.79450771  1
  H+  H198  1  0.88303163  0.52674594  0.83111489  1
  H+  H199  1  0.05879198  0.15130160  0.78439563  1
  H+  H200  1  0.47735190  0.85976277  0.84060639  1
  H+  H201  1  0.85433857  0.36871391  0.18081628  1
  H+  H202  1  0.61593716  0.13829153  0.52492561  1
  H+  H203  1  0.63872660  0.59282456  0.84785667  1
  H+  H204  1  0.40296417  0.11823916  0.18056073  1
  H+  H205  1  0.11185874  0.40352117  0.01393152  1
  H+  H206  1  0.63912255  0.27310875  0.18377857  1
  H+  H207  1  0.35399005  0.38384672  0.67247214  1
  H+  H208  1  0.22882309  0.85737891  0.49221278  1
  H+  H209  1  0.77523447  0.89496039  1.00387062  1
  H+  H210  1  0.88361475  0.83906612  0.32018189  1
  H+  H211  1  0.27807643  0.39065302  0.02462891  1
  H+  H212  1  0.62780512  0.91184395  0.82348329  1
  H+  H213  1  -0.01379103  0.61877218  0.33246638  1
  H+  H214  1  0.48513734  0.36778692  0.17866731  1
  H+  H215  1  0.88955827  1.11962984  0.88521557  1
  H+  H216  1  0.51956001  0.38249373  0.49335292  1
  H+  H217  1  0.36348175  0.21973360  0.84211482  1
  H+  H218  1  0.92878468  0.84346093  0.90511204  1
  H+  H219  1  0.13472104  0.27861265  1.02130466  1
  H+  H220  1  0.70013368  0.84438909  0.84620773  1
  H+  H221  1  0.88920228  0.77823140  0.65516247  1
  H+  H222  1  0.76551570  0.15293583  0.34604688  1
  H+  H223  1  0.40068735  0.02843100  0.18165514  1
  H+  H224  1  0.63470688  0.26697710  0.84159024  1
  H+  H225  1  0.11439797  0.88083366  0.16139544  1
  H+  H226  1  0.86947338  0.96609663  0.33823250  1
  H+  H227  1  0.39940811  0.52998919  0.17620843  1
  H+  H228  1  0.63396962  0.73970188  0.33585805  1
  H+  H229  1  0.82598901  0.16587829  0.40333938  1
  H+  H230  1  0.37274276  0.89245854  0.16524408  1
  H+  H231  1  0.22285139  0.36357878  0.32112482  1
  H+  H232  1  0.63349483  0.11574829  -0.00119786  1
  H+  H233  1  0.17649537  0.83931660  0.90269763  1
  H+  H234  1  0.46982110  0.35286038  0.32955795  1
  H+  H235  1  0.38566805  0.57897819  0.77235859  1
  H+  H236  1  0.87408718  0.23152122  0.68200103  1
  H+  H237  1  0.28671500  0.39073566  0.16770439  1
  H+  H238  1  0.79266032  0.89819948  0.48953388  1
  H+  H239  1  0.88300767  0.61044903  0.17866963  1
  H+  H240  1  0.83472600  0.70336017  0.29126872  1
  H+  H241  1  0.64110810  0.60536486  0.50359740  1
  H+  H242  1  0.23312443  0.62094002  0.35735226  1
  H+  H243  1  0.68325920  1.04313352  0.15927355  1
  H+  H244  1  0.88687650  0.11503545  0.66270962  1
  H+  H245  1  0.20834628  0.09849629  0.33152961  1
  H+  H246  1  0.53810099  0.63896184  0.17456677  1
  H+  H247  1  0.28279124  0.89136665  0.17135992  1
  H+  H248  1  0.15667585  0.34903314  0.07191897  1
  H+  H249  1  0.11980411  0.98148153  0.00782424  1
  H+  H250  1  0.13944230  0.77613374  0.99112343  1
  H+  H251  1  0.46324742  0.84373827  0.66465422  1
  H+  H252  1  0.36970066  0.47910236  1.01987383  1
  H+  H253  1  0.11373710  0.98938808  0.64805426  1
  H+  H254  1  0.32851273  0.66092848  0.75975093  1
  H+  H255  1  0.62545755  0.96426672  0.26480609  1
  H+  H256  1  0.79023888  0.64481894  0.14962935  1
  H+  H257  1  0.77430891  0.63551145  0.66552985  1
  H+  H258  1  0.58038306  0.17392332  0.57429099  1
  H+  H259  1  0.50963861  0.62465653  0.65207213  1
  H+  H260  1  0.84956067  0.92167596  0.42938133  1
  H+  H261  1  0.10914575  0.72685073  0.33731373  1
  H+  H262  1  0.41424133  0.67031460  0.34650041  1
  H+  H263  1  0.38208003  0.27510824  0.50651008  1
  H+  H264  1  0.22877322  0.11783727  0.00676423  1
  H+  H265  1  0.45862969  0.10410286  0.66658620  1
  H+  H266  1  0.59454016  0.45711772  0.34305170  1
  H+  H267  1  -0.00283609  0.63571014  0.66018263  1
  H+  H268  1  0.47801092  0.36159228  0.99613313  1
  H+  H269  1  0.48905734  0.89298711  0.31127716  1
  H+  H270  1  0.01333413  0.13360812  0.16098657  1
  H+  H271  1  0.37766421  0.61213826  0.49001811  1
  H+  H272  1  0.91620692  0.55002420  0.67850702  1
  H+  H273  1  0.11466290  0.72365448  0.48343283  1
  H+  H274  1  0.40433962  0.62193632  0.17259856  1
  H+  H275  1  0.37361084  0.22685395  0.16692672  1
  H+  H276  1  0.16889349  0.10809334  0.61268855  1
  H+  H277  1  0.22805007  0.11773678  0.52062917  1
  H+  H278  1  0.53875407  0.13794956  0.17029191  1
  H+  H279  1  0.36235574  0.13763993  0.49999164  1
  H+  H280  1  0.73498637  0.61433017  0.22780259  1
  H+  H281  1  0.72325380  0.35790242  0.84113779  1
  H+  H282  1  0.63355070  0.14815502  0.16360679  1
  H+  H283  1  0.64881012  0.62253389  1.01263225  1
  H+  H284  1  0.64289951  0.27992544  0.51407105  1
  H+  H285  1  0.36446986  0.88314893  0.49394974  1
  H+  H286  1  0.78382384  0.14786627  0.68698250  1
  H+  H287  1  0.40309459  0.78376561  0.16960463  1
  H+  H288  1  0.59427913  0.68072030  0.39835136  1
  H+  H289  1  0.91316418  0.08322828  0.27002324  1
  H+  H290  1  0.66745447  0.57807970  0.91332901  1
  H+  H291  1  0.06595699  0.15964298  0.06530268  1
  H+  H292  1  0.13449789  0.52018774  0.49921844  1
  H+  H293  1  0.22694434  0.85113272  0.33053147  1
  H+  H294  1  0.91377949  0.82597509  0.55895964  1
  H+  H295  1  0.16579510  0.33205339  0.23095881  1
  H+  H296  1  0.59059965  0.17184697  0.07449171  1
  H+  H297  1  0.06434011  0.65172823  0.04722232  1
  H+  H298  1  0.03274076  0.89032998  0.73997414  1
  H+  H299  1  0.14002913  0.11664068  0.17684757  1
  H+  H300  1  0.26267379  0.20648698  0.38185676  1
  H+  H301  1  0.91434619  0.82131089  0.25693148  1
  H+  H302  1  0.42932953  0.84147175  0.22934249  1
  H+  H303  1  0.04664179  0.85736576  0.74101991  1
  H+  H304  1  0.58223625  0.92922757  0.45071776  1
  H+  H305  1  0.38914887  0.86547456  0.99909249  1
  H+  H306  1  0.41538104  0.32749470  0.90982454  1
  H+  H307  1  0.66976030  0.34396430  0.56761641  1
  H+  H308  1  0.58382272  0.92169009  0.76366545  1
  H+  H309  1  0.39467755  0.58678647  0.88262231  1
  H+  H310  1  0.15798146  0.57673115  0.59534406  1
  H+  H311  1  0.67712103  0.84149543  0.56239753  1
  H+  H312  1  0.58013965  0.41374703  0.73845388  1
  H+  H313  1  0.67025503  0.70717068  0.78317565  1
  H+  H314  1  0.66602705  0.56966732  0.59676598  1
  H+  H315  1  0.33049548  0.90720070  0.39411497  1
  H+  H316  1  0.32508243  0.41279342  0.41991191  1
  H+  H317  1  0.29679917  0.35949941  0.78422616  1
  H+  H318  1  0.35793685  0.72468962  0.49621249  1
  H+  H319  1  0.91575335  0.59943359  0.91258353  1
  H+  H320  1  0.66229969  0.08593879  0.90217720  1
  H+  H321  1  0.14467399  0.62609738  0.83519522  1
  H+  H322  1  0.08854593  0.90801671  0.09905217  1
  H+  H323  1  0.56194730  0.14634040  0.34091641  1
  H+  H324  1  0.68138930  0.83669113  0.24639486  1
  H+  H325  1  0.56959541  0.15960097  0.73722594  1
  H+  H326  1  0.16176300  0.54632170  0.21895887  1
  H+  H327  1  0.70401613  0.89671702  0.90324981  1
  H+  H328  1  -0.02710378  0.36943836  0.84151372  1
  H+  H329  1  0.37818270  0.69892886  0.40232251  1
  H+  H330  1  0.39817142  0.07211419  0.57048082  1
  H+  H331  1  0.70872308  0.34402696  0.66442275  1
  H+  H332  1  0.37233356  0.75715224  0.66079819  1
  H+  H333  1  0.34028795  0.67225957  0.10258912  1
  H+  H334  1  0.17251574  0.09634919  0.94648960  1
  H+  H335  1  0.23043078  0.12631981  0.85031785  1
  H+  H336  1  0.32708661  0.17034900  0.44408871  1
  H+  H337  1  0.11210035  0.25328462  0.68071127  1
  H+  H338  1  0.40998553  0.34490972  0.55924456  1
  H+  H339  1  0.07667541  0.41265351  0.42448125  1
  H+  H340  1  0.64258801  0.97122710  0.33452733  1
  H+  H341  1  0.51915455  0.13095569  0.83168321  1
  H+  H342  1  0.72749029  0.85630301  0.65850965  1
  H+  H343  1  0.90962962  0.58443898  0.27490456  1
  H+  H344  1  0.85356737  0.67184734  0.06357530  1
  H+  H345  1  0.41892702  0.82957595  0.90013117  1
  H+  H346  1  0.89126366  0.27539591  0.50765790  1
  H+  H347  1  0.87132321  0.10395355  0.17711595  1
  H+  H348  1  0.08341210  0.16443739  0.42790563  1
  H+  H349  1  0.59852220  0.42350946  0.11274562  1
  H+  H350  1  0.83235393  0.92145961  0.10362193  1
  H+  H351  1  0.17169171  0.84143312  0.24397836  1
  H+  H352  1  0.17041426  0.59155091  0.93056248  1
  H+  H353  1  0.89429660  0.31660326  0.23907798  1
  H+  H354  1  0.84064812  0.92091753  0.72577881  1
  H+  H355  1  0.34597159  0.42107446  0.10863255  1
  H+  H356  1  0.76155122  0.38050067  0.18140761  1
  H+  H357  1  0.33497776  0.91637626  0.07486582  1
  H+  H358  1  0.22216057  0.35839459  0.48549916  1
  H+  H359  1  0.82780883  0.41301659  0.76738312  1
  H+  H360  1  0.58730134  0.92065931  0.07364323  1
  H+  H361  1  0.32859809  0.15901705  0.78330179  1
  H+  H362  1  0.41487916  0.32878109  0.26784222  1
  H+  H363  1  0.22908174  0.61622736  0.83448036  1
  H+  H364  1  0.33085861  0.90738511  0.76680944  1
  H+  H365  1  0.84539968  0.16488988  0.78614424  1
  H+  H366  1  0.40506522  0.57904152  0.57726434  1
  H+  H367  1  0.91344527  0.33381734  0.93676245  1
  H+  H368  1  0.83882184  0.42179578  0.40244676  1
  H+  H369  1  0.86306208  0.98266825  0.00008317  1
  H+  H370  1  0.62333844  0.55964039  0.27727834  1
  H+  H371  1  0.13902827  0.11473057  0.51459116  1
  H+  H372  1  0.34154817  0.16396841  0.10982954  1
  H+  H373  1  0.08099942  0.42292258  0.73811112  1
  H+  H374  1  0.41461307  0.55840971  0.88521761  1
  H+  H375  1  0.62027444  0.38460226  -0.00769780  1
  H+  H376  1  0.84491409  0.68486422  0.75651660  1
  H+  H377  1  0.66495501  0.33073305  0.24561351  1
  H+  H378  1  0.10097539  0.63866036  0.15128813  1
  H+  H379  1  0.56709453  0.64408898  0.71165129  1
  H+  H380  1  0.68029306  0.09052836  0.58085745  1
  H+  H381  1  0.92052555  0.33321973  0.60182152  1
  H+  H382  1  0.16698310  0.36496283  0.91596878  1
  H+  H383  1  0.15423213  0.07323433  0.27068493  1
  O2-  O384  1  0.07156375  0.15967221  0.14217308  1
  O2-  O385  1  0.08623274  0.17111737  0.47389529  1
  O2-  O386  1  0.06995603  0.14960877  0.82795991  1
  O2-  O387  1  0.13445009  0.36811333  0.15247365  1
  O2-  O388  1  0.08198563  0.41017314  0.46992083  1
  O2-  O389  1  0.07873976  0.42520076  0.81329937  1
  O2-  O390  1  0.07871142  0.64924406  0.18861744  1
  O2-  O391  1  0.08402610  0.66160584  0.47057915  1
  O2-  O392  1  0.09036458  0.68039805  0.80617548  1
  O2-  O393  1  0.07946503  0.90365624  0.14347668  1
  O2-  O394  1  0.13558297  0.90956200  0.40832387  1
  O2-  O395  1  0.10648522  0.94293696  0.84363008  1
  O2-  O396  1  0.34439901  0.16512197  0.15514123  1
  O2-  O397  1  0.33418414  0.17188635  0.48929212  1
  O2-  O398  1  0.32937451  0.15828039  0.82876241  1
  O2-  O399  1  0.34781305  0.42397815  0.15421937  1
  O2-  O400  1  0.31984609  0.41105779  0.46601829  1
  O2-  O401  1  0.31909337  0.39005285  0.82251436  1
  O2-  O402  1  0.34946705  0.67364060  0.14760190  1
  O2-  O403  1  0.33003093  0.66709766  0.47633378  1
  O2-  O404  1  0.33234379  0.65417563  0.80436966  1
  O2-  O405  1  0.34134210  0.92288212  0.15280422  1
  O2-  O406  1  0.33417013  0.91133776  0.47557683  1
  O2-  O407  1  0.33333267  0.90921489  0.81220612  1
  O2-  O408  1  0.59841835  0.17463694  0.15342589  1
  O2-  O409  1  0.58167218  0.16810462  0.53020451  1
  O2-  O410  1  0.57793779  0.16365497  0.81315029  1
  O2-  O411  1  0.59655384  0.42478592  0.15701236  1
  O2-  O412  1  0.57964852  0.41132007  0.47790234  1
  O2-  O413  1  0.57603905  0.40311836  0.81739785  1
  O2-  O414  1  0.59954210  0.67241889  0.16070211  1
  O2-  O415  1  0.58050316  0.66877421  0.50162476  1
  O2-  O416  1  0.61500712  0.65558709  0.79077868  1
  O2-  O417  1  0.60475059  0.92813903  0.15386560  1
  O2-  O418  1  0.58624827  0.92493786  0.49465425  1
  O2-  O419  1  0.58468723  0.92669054  0.80829309  1
  O2-  O420  1  0.80031922  0.14635265  0.14949453  1
  O2-  O421  1  0.83843607  0.17071056  0.48163600  1
  O2-  O422  1  0.84064197  0.16740265  0.83091955  1
  O2-  O423  1  0.82514973  0.40895453  0.16892642  1
  O2-  O424  1  0.84084253  0.41852320  0.47987827  1
  O2-  O425  1  0.83048438  0.41971811  0.81199446  1
  O2-  O426  1  0.85141295  0.67074237  0.13672073  1
  O2-  O427  1  0.84503012  0.65721858  0.48147193  1
  O2-  O428  1  0.85090670  0.68850418  0.80233537  1
  O2-  O429  1  0.83738746  0.92052037  0.14835192  1
  O2-  O430  1  0.85266765  0.92885577  0.47532597  1
  O2-  O431  1  0.87048617  0.93790870  0.79883757  1
  O2-  O432  1  0.17402411  0.09848479  0.20130847  1
  O2-  O433  1  0.16999807  0.09303332  0.53916756  1
  O2-  O434  1  0.17007993  0.09587888  0.86733877  1
  O2-  O435  1  0.17891851  0.33055771  0.18587942  1
  O2-  O436  1  0.15933368  0.32600824  0.49982971  1
  O2-  O437  1  0.16557530  0.36115814  0.87180333  1
  O2-  O438  1  0.18622155  0.53768366  0.18037630  1
  O2-  O439  1  0.16319577  0.57907898  0.51658955  1
  O2-  O440  1  0.16988782  0.59215657  0.85191522  1
  O2-  O441  1  0.17630657  0.83781156  0.19859575  1
  O2-  O442  1  0.16629699  0.82922363  0.50338009  1
  O2-  O443  1  0.17292569  0.84421647  0.85723979  1
  O2-  O444  1  0.43541196  0.08954800  0.19506459  1
  O2-  O445  1  0.40491504  0.07551333  0.52534052  1
  O2-  O446  1  0.41668761  0.07307893  0.86178564  1
  O2-  O447  1  0.42402414  0.33443793  0.19135871  1
  O2-  O448  1  0.41059738  0.33909113  0.51479366  1
  O2-  O449  1  0.41293573  0.32434913  0.86411280  1
  O2-  O450  1  0.43250203  0.59101778  0.19030480  1
  O2-  O451  1  0.40916865  0.58090062  0.50249174  1
  O2-  O452  1  0.40878176  0.54111883  0.76213396  1
  O2-  O453  1  0.43368458  0.84460823  0.18353475  1
  O2-  O454  1  0.41221291  0.82799145  0.52563513  1
  O2-  O455  1  0.41705841  0.82580505  0.85486951  1
  O2-  O456  1  0.70943306  0.10572088  0.16834507  1
  O2-  O457  1  0.67755194  0.09137844  0.53572898  1
  O2-  O458  1  0.66747037  0.09058971  0.85671638  1
  O2-  O459  1  0.66618252  0.33370014  0.19966312  1
  O2-  O460  1  0.67310469  0.34276361  0.52246797  1
  O2-  O461  1  0.66360784  0.32721551  0.85764980  1
  O2-  O462  1  0.69325742  0.59850465  0.19099047  1
  O2-  O463  1  0.66860517  0.57377501  0.51959872  1
  O2-  O464  1  0.66554798  0.56398651  0.86919203  1
  O2-  O465  1  0.67861582  0.84174531  0.19912861  1
  O2-  O466  1  0.67667804  0.84826407  0.51722906  1
  O2-  O467  1  0.71062800  0.90096420  0.85840112  1
  O2-  O468  1  0.90899171  0.08203576  0.19121323  1
  O2-  O469  1  0.92608723  0.08987173  0.51729818  1
  O2-  O470  1  0.91766640  0.08736305  0.90046536  1
  O2-  O471  1  0.88689267  0.31848654  0.19377250  1
  O2-  O472  1  0.92368174  0.33601887  0.52297404  1
  O2-  O473  1  0.91211120  0.33982543  0.85610979  1
  O2-  O474  1  0.90534749  0.57603509  0.20032747  1
  O2-  O475  1  0.92434802  0.58136923  0.51954012  1
  O2-  O476  1  0.91584325  0.58897564  0.84363189  1
  O2-  O477  1  0.92051124  0.82821247  0.17693648  1
  O2-  O478  1  0.92134539  0.82209735  0.51477235  1
  O2-  O479  1  0.94200789  0.85176168  0.86015962  1
  O2-  O480  1  0.14838148  0.06818766  0.31689744  1
  O2-  O481  1  0.16058116  0.10244499  0.65844881  1
  O2-  O482  1  0.16823511  0.09059512  0.99151260  1
  O2-  O483  1  0.16212556  0.33204155  0.30628355  1
  O2-  O484  1  0.14911014  0.32348976  0.66443569  1
  O2-  O485  1  0.16805929  0.34230538  1.02871255  1
  O2-  O486  1  0.10309474  0.55595172  0.27763223  1
  O2-  O487  1  0.15917947  0.57734038  0.64098725  1
  O2-  O488  1  0.16721843  0.59233824  0.97602581  1
  O2-  O489  1  0.16326752  0.82403162  0.31978945  1
  O2-  O490  1  0.17080472  0.83862949  0.62737650  1
  O2-  O491  1  0.17412412  0.83727055  0.97908962  1
  O2-  O492  1  0.46609802  0.12204013  0.31588471  1
  O2-  O493  1  0.39809226  0.07566235  0.65200785  1
  O2-  O494  1  0.42201646  0.08136607  0.98911562  1
  O2-  O495  1  0.40990212  0.32945339  0.31332941  1
  O2-  O496  1  0.42512404  0.31672414  0.64431265  1
  O2-  O497  1  0.41554729  0.32848519  0.98640538  1
  O2-  O498  1  0.42703309  0.58625348  0.31506867  1
  O2-  O499  1  0.40651764  0.57829563  0.62321722  1
  O2-  O500  1  0.42927238  0.59264099  1.00517357  1
  O2-  O501  1  0.42949804  0.84723992  0.30401908  1
  O2-  O502  1  0.40439190  0.81978254  0.64857051  1
  O2-  O503  1  0.42090465  0.83671192  0.98334648  1
  O2-  O504  1  0.66835316  0.14939886  0.31319097  1
  O2-  O505  1  0.67360672  0.09711458  0.66244925  1
  O2-  O506  1  0.66123310  0.08424196  0.98046736  1
  O2-  O507  1  0.67462286  0.33525819  0.32023498  1
  O2-  O508  1  0.64963028  0.32036520  0.64770478  1
  O2-  O509  1  0.66690328  0.33299406  0.98317101  1
  O2-  O510  1  0.62565470  0.55617366  0.32150345  1
  O2-  O511  1  0.66494138  0.57286035  0.64247261  1
  O2-  O512  1  0.67954338  0.59523887  0.99306942  1
  O2-  O513  1  0.68414143  0.82352368  0.31479891  1
  O2-  O514  1  0.66725963  0.82712504  0.64107700  1
  O2-  O515  1  0.65929625  0.84496430  0.97862214  1
  O2-  O516  1  0.91653227  0.08325855  0.31545135  1
  O2-  O517  1  0.91856440  0.08708315  0.64556610  1
  O2-  O518  1  0.91462580  0.09196718  0.96756442  1
  O2-  O519  1  0.90794493  0.32650608  0.31377663  1
  O2-  O520  1  0.91681398  0.33336835  0.64741261  1
  O2-  O521  1  0.91907108  0.33560962  0.98182849  1
  O2-  O522  1  0.91974024  0.58286948  0.32033464  1
  O2-  O523  1  0.93346875  0.59818664  0.65074847  1
  O2-  O524  1  0.92098328  0.60534496  0.95935586  1
  O2-  O525  1  0.90143741  0.80149807  0.29977994  1
  O2-  O526  1  0.91274106  0.83767491  0.63948735  1
  O2-  O527  1  0.92141028  0.84168763  0.98054129  1
  O2-  O528  1  0.07291560  0.16720057  0.01988293  1
  O2-  O529  1  0.08379160  0.16715954  0.35295615  1
  O2-  O530  1  0.07185190  0.17384881  0.69674517  1
  O2-  O531  1  0.08302580  0.43765208  0.01792464  1
  O2-  O532  1  0.07305170  0.41454341  0.34590867  1
  O2-  O533  1  0.08079234  0.41707224  0.69221642  1
  O2-  O534  1  0.07471785  0.66073918  0.00367303  1
  O2-  O535  1  0.07468492  0.66291619  0.34937389  1
  O2-  O536  1  0.09685629  0.68216302  0.68080682  1
  O2-  O537  1  0.09150949  0.91846282  0.01652317  1
  O2-  O538  1  0.07831084  0.93848200  0.40124730  1
  O2-  O539  1  0.08925840  0.93339097  0.62620005  1
  O2-  O540  1  0.33510764  0.16180887  0.02965019  1
  O2-  O541  1  0.30214848  0.18620118  0.37120774  1
  O2-  O542  1  0.32217512  0.15822403  0.70535328  1
  O2-  O543  1  0.34151346  0.41763300  0.03186787  1
  O2-  O544  1  0.33040424  0.41816005  0.34590573  1
  O2-  O545  1  0.32267590  0.41442018  0.68052885  1
  O2-  O546  1  0.33036977  0.67042508  0.02514072  1
  O2-  O547  1  0.41890878  0.72109965  0.36792264  1
  O2-  O548  1  0.32382587  0.65516652  0.67954601  1
  O2-  O549  1  0.33706269  0.91602412  0.02918711  1
  O2-  O550  1  0.32563393  0.90591756  0.34916963  1
  O2-  O551  1  0.32580923  0.90919100  0.68631539  1
  O2-  O552  1  0.58844048  0.17067101  0.02902433  1
  O2-  O553  1  0.62224951  0.17205636  0.35841921  1
  O2-  O554  1  0.56888008  0.15796064  0.69121507  1
  O2-  O555  1  0.59083026  0.42152495  -0.00905747  1
  O2-  O556  1  0.57141719  0.39570274  0.35581770  1
  O2-  O557  1  0.57964047  0.41264360  0.69285387  1
  O2-  O558  1  0.59712582  0.67427812  0.04338236  1
  O2-  O559  1  0.59210888  0.67479638  0.35428235  1
  O2-  O560  1  0.57050865  0.65282771  0.66724777  1
  O2-  O561  1  0.58289224  0.91968179  0.02827454  1
  O2-  O562  1  0.60601335  0.97540530  0.30358465  1
  O2-  O563  1  0.58185082  0.90447573  0.67733995  1
  O2-  O564  1  0.82146777  0.16236149  0.02695696  1
  O2-  O565  1  0.82415378  0.16607306  0.35789388  1
  O2-  O566  1  0.84474548  0.17209235  0.69901242  1
  O2-  O567  1  0.84657393  0.43775303  0.02389855  1
  O2-  O568  1  0.83936859  0.42436595  0.35669454  1
  O2-  O569  1  0.81894341  0.39790563  0.68139537  1
  O2-  O570  1  0.84894804  0.67406100  0.01735126  1
  O2-  O571  1  0.79577285  0.63934888  0.28208906  1
  O2-  O572  1  0.83455290  0.67045723  0.68076669  1
  O2-  O573  1  0.83504909  0.92413981  0.01816361  1
  O2-  O574  1  0.84328740  0.90770425  0.35564793  1
  O2-  O575  1  0.82973895  0.91682509  0.68069213  1
