# generated using pymatgen
data_H2O
_symmetry_space_group_name_H-M   'P 1'
_cell_length_a   17.96905391
_cell_length_b   17.96450912
_cell_length_c   21.99148163
_cell_angle_alpha   89.98287348
_cell_angle_beta   90.06198624
_cell_angle_gamma   119.99336619
_symmetry_Int_Tables_number   1
_chemical_formula_structural   H2O
_chemical_formula_sum   'H384 O192'
_cell_volume   6148.29141773
_cell_formula_units_Z   192
loop_
 _symmetry_equiv_pos_site_id
 _symmetry_equiv_pos_as_xyz
  1  'x, y, z'
loop_
 _atom_type_symbol
 _atom_type_oxidation_number
  H+  1.0
  O2-  -2.0
loop_
 _atom_site_type_symbol
 _atom_site_label
 _atom_site_symmetry_multiplicity
 _atom_site_fract_x
 _atom_site_fract_y
 _atom_site_fract_z
 _atom_site_occupancy
  H+  H0  1  0.22446155  0.59458374  0.66288161  1
  H+  H1  1  0.88463148  0.27880949  0.31812927  1
  H+  H2  1  0.85314277  0.87645313  1.01294094  1
  H+  H3  1  0.26822412  0.87951447  0.59133032  1
  H+  H4  1  0.89798573  0.53191979  0.50373105  1
  H+  H5  1  0.11387215  0.13722825  0.49496943  1
  H+  H6  1  0.21462005  0.61040566  0.32926205  1
  H+  H7  1  0.36290436  0.23274538  0.35631617  1
  H+  H8  1  0.36286877  0.21893884  0.67412670  1
  H+  H9  1  0.49175804  0.13814219  0.84541412  1
  H+  H10  1  0.45915878  0.85415505  0.66596390  1
  H+  H11  1  0.13034340  0.50422111  0.83584886  1
  H+  H12  1  0.59963634  0.96810869  0.68779571  1
  H+  H13  1  0.59291615  0.36591222  0.15820741  1
  H+  H14  1  0.22415394  0.47576567  0.94376156  1
  H+  H15  1  0.48024124  0.87789283  0.99533856  1
  H+  H16  1  0.36722398  0.98415743  0.32323134  1
  H+  H17  1  0.63910731  0.11991559  -0.01430902  1
  H+  H18  1  0.14139353  0.61561040  0.50964313  1
  H+  H19  1  0.10351963  0.81079613  0.64286485  1
  H+  H20  1  0.10789232  0.97117841  0.00385632  1
  H+  H21  1  0.85505240  0.98371045  0.69729353  1
  H+  H22  1  0.01058024  0.88192210  0.83473733  1
  H+  H23  1  0.87142543  1.00995951  0.00143539  1
  H+  H24  1  0.73785692  0.35539880  0.32188880  1
  H+  H25  1  0.43935467  0.57000226  0.09148734  1
  H+  H26  1  0.87027653  0.39561421  0.33751158  1
  H+  H27  1  0.46566354  0.85573088  0.32751623  1
  H+  H28  1  0.12813328  0.62015149  0.18177465  1
  H+  H29  1  0.63223991  0.12127852  0.16713510  1
  H+  H30  1  0.89882290  0.78375385  0.31799338  1
  H+  H31  1  -0.01815697  0.62048977  0.33315345  1
  H+  H32  1  0.87537268  -0.00699658  0.16443099  1
  H+  H33  1  0.72255431  0.57723016  0.81953401  1
  H+  H34  1  0.10720850  0.48729586  0.49672060  1
  H+  H35  1  0.10231422  0.74685425  0.84213196  1
  H+  H36  1  0.66285998  0.65216291  0.16420758  1
  H+  H37  1  1.03880904  0.89939388  0.34371685  1
  H+  H38  1  0.15494076  0.36912526  0.16634991  1
  H+  H39  1  0.26706868  0.13040897  0.83009196  1
  H+  H40  1  0.62449093  0.48215613  0.48672387  1
  H+  H41  1  0.88094205  0.64779333  0.66732685  1
  H+  H42  1  0.87004040  0.11786615  0.73505377  1
  H+  H43  1  0.09311246  0.87254683  0.83199325  1
  H+  H44  1  0.11117227  0.64457727  0.35439987  1
  H+  H45  1  0.14664135  0.89391094  0.49832671  1
  H+  H46  1  0.63338425  0.74869217  0.82410468  1
  H+  H47  1  0.98509284  0.13984824  0.50961752  1
  H+  H48  1  0.61886443  0.72736857  0.00357749  1
  H+  H49  1  0.55711722  0.66018270  0.14282101  1
  H+  H50  1  0.64055746  0.86757602  0.49464681  1
  H+  H51  1  0.02597254  0.51745306  0.95095844  1
  H+  H52  1  0.86462067  0.88323849  0.49235839  1
  H+  H53  1  -0.04945521  0.12846498  0.69813542  1
  H+  H54  1  0.37974619  0.10104016  0.66673314  1
  H+  H55  1  0.07319957  0.15289225  0.09108511  1
  H+  H56  1  0.87355039  0.89100305  0.33481220  1
  H+  H57  1  0.12766726  0.12441955  0.68793819  1
  H+  H58  1  0.63360227  0.72660612  0.09860388  1
  H+  H59  1  0.11086224  0.13278551  0.84076327  1
  H+  H60  1  0.37282086  0.61010533  1.01461397  1
  H+  H61  1  0.21236638  0.10620138  0.99944364  1
  H+  H62  1  0.36999182  0.66437857  0.46744528  1
  H+  H63  1  0.61510927  0.13217425  0.49765929  1
  H+  H64  1  0.11035756  0.37258124  0.82095277  1
  H+  H65  1  0.35866592  0.88678279  0.00191072  1
  H+  H66  1  0.07428226  0.38972426  0.72905297  1
  H+  H67  1  0.23633050  0.12534962  0.33942049  1
  H+  H68  1  0.88093527  0.76797002  0.99772457  1
  H+  H69  1  0.06897842  0.39348502  0.20225879  1
  H+  H70  1  0.46942887  0.87137537  0.50711818  1
  H+  H71  1  0.35593863  0.97456164  0.00147125  1
  H+  H72  1  0.34147417  0.41593499  0.09970887  1
  H+  H73  1  0.86370710  0.10860287  0.46892041  1
  H+  H74  1  0.39254957  0.86672089  0.16790200  1
  H+  H75  1  0.59219472  0.12505889  0.34169766  1
  H+  H76  1  0.20441255  0.29142959  0.58092177  1
  H+  H77  1  0.08866744  0.23348159  0.69744094  1
  H+  H78  1  -0.02562102  0.59750543  0.66185702  1
  H+  H79  1  0.89678969  0.78977049  0.66095826  1
  H+  H80  1  0.85646432  0.63236783  1.00649995  1
  H+  H81  1  0.88871824  0.60582678  0.83838593  1
  H+  H82  1  0.62423785  0.38205433  0.66559549  1
  H+  H83  1  0.77908063  0.39100988  0.49076809  1
  H+  H84  1  0.41515458  0.99704535  0.73545811  1
  H+  H85  1  0.53115907  0.89413360  0.16136947  1
  H+  H86  1  0.38642004  0.37221403  0.33824238  1
  H+  H87  1  0.86784830  0.11819266  0.83366550  1
  H+  H88  1  0.58360771  0.66679532  0.43715260  1
  H+  H89  1  0.86727999  0.47214605  0.82728022  1
  H+  H90  1  0.72169143  0.12106427  0.17282710  1
  H+  H91  1  0.11219970  0.11018757  0.17366086  1
  H+  H92  1  0.26791270  0.88445605  0.33232288  1
  H+  H93  1  0.46398490  0.09946942  0.32418869  1
  H+  H94  1  0.53725654  0.39125910  0.48956613  1
  H+  H95  1  0.38728391  0.02111473  0.16544666  1
  H+  H96  1  0.37179985  0.00760822  0.51540209  1
  H+  H97  1  0.37743759  0.21875066  0.50609585  1
  H+  H98  1  0.61601154  -0.01370412  0.16006591  1
  H+  H99  1  0.14126287  0.37212370  0.32641169  1
  H+  H100  1  0.52012261  0.14143566  0.15405124  1
  H+  H101  1  0.42448321  0.62020906  0.14547388  1
  H+  H102  1  0.27836748  0.88464573  0.15888342  1
  H+  H103  1  0.65496077  0.75559820  0.34404517  1
  H+  H104  1  0.10989685  0.72872523  1.00803018  1
  H+  H105  1  0.88668552  0.53132620  0.17287655  1
  H+  H106  1  0.22187865  0.85735676  0.99082104  1
  H+  H107  1  0.51926893  0.13138026  0.68023591  1
  H+  H108  1  0.88101307  0.26380239  0.99519202  1
  H+  H109  1  0.92224873  0.58679580  0.23478858  1
  H+  H110  1  0.74043483  0.10692269  0.83393392  1
  H+  H111  1  0.67099354  0.59083742  0.25897188  1
  H+  H112  1  0.59774667  0.21505699  0.34593488  1
  H+  H113  1  0.60083968  0.97078241  0.33940964  1
  H+  H114  1  0.82931792  0.91259015  0.07176604  1
  H+  H115  1  0.42056467  0.89809206  0.83361030  1
  H+  H116  1  0.63418992  0.86784165  0.67093308  1
  H+  H117  1  0.72904247  0.62492799  0.50218631  1
  H+  H118  1  0.97030163  0.85783431  0.99665484  1
  H+  H119  1  0.37071375  0.62417890  0.82778359  1
  H+  H120  1  0.12282104  0.97590437  0.15339551  1
  H+  H121  1  0.75122657  0.36284717  0.84032499  1
  H+  H122  1  0.98327302  0.12849143  0.17415080  1
  H+  H123  1  0.32935618  0.16218755  0.73464214  1
  H+  H124  1  0.86289108  0.14629187  0.16637096  1
  H+  H125  1  0.79304209  0.64792946  0.66955848  1
  H+  H126  1  0.64278044  0.36061153  0.49918532  1
  H+  H127  1  0.88278514  0.35546290  0.65528436  1
  H+  H128  1  0.60851323  0.23222072  0.15277124  1
  H+  H129  1  0.11511661  0.72817572  0.16387482  1
  H+  H130  1  0.14229136  0.02751092  0.49997838  1
  H+  H131  1  0.88174508  0.65569168  0.16265665  1
  H+  H132  1  0.61695331  0.87721034  0.83106095  1
  H+  H133  1  0.73345576  0.10251056  0.48658515  1
  H+  H134  1  0.27387365  0.39020018  0.34815924  1
  H+  H135  1  0.63739220  0.26883201  0.50207523  1
  H+  H136  1  0.37821600  0.55444227  0.50467246  1
  H+  H137  1  0.38034731  0.11199664  -0.00728197  1
  H+  H138  1  0.24183908  0.36788670  0.17146996  1
  H+  H139  1  0.49410157  0.35757309  0.65600551  1
  H+  H140  1  0.37459530  0.34817020  0.17987978  1
  H+  H141  1  0.17616339  0.34412574  0.26761368  1
  H+  H142  1  0.36686482  0.84484476  0.64909057  1
  H+  H143  1  0.69329758  0.09407092  0.73760270  1
  H+  H144  1  -0.02952935  0.35059807  -0.00296793  1
  H+  H145  1  0.95877663  0.36799835  0.16481259  1
  H+  H146  1  0.59889115  0.67563732  0.60306243  1
  H+  H147  1  0.37241249  0.27000756  0.84165345  1
  H+  H148  1  0.90794562  0.82241383  0.90563455  1
  H+  H149  1  0.08140106  0.46841152  0.01471952  1
  H+  H150  1  0.86456392  0.38535595  0.00512836  1
  H+  H151  1  0.60982041  0.13370276  0.68925297  1
  H+  H152  1  0.72949380  0.36058692  0.99229489  1
  H+  H153  1  0.61005311  0.88701023  0.34107931  1
  H+  H154  1  0.41653680  0.83515977  0.26333103  1
  H+  H155  1  0.77844003  0.63840577  0.33029376  1
  H+  H156  1  0.33728846  0.20688362  0.17308471  1
  H+  H157  1  0.35405733  0.38202948  0.83581122  1
  H+  H158  1  0.60949738  0.98447849  0.00492593  1
  H+  H159  1  0.86660017  0.48281890  0.33763857  1
  H+  H160  1  0.34393453  0.71444848  0.31815094  1
  H+  H161  1  0.38841168  0.36975040  0.99750855  1
  H+  H162  1  0.35558563  0.74115099  0.47232057  1
  H+  H163  1  0.90794268  0.76111240  0.48600330  1
  H+  H164  1  0.83660585  0.21266109  0.62413448  1
  H+  H165  1  0.88861665  0.87544527  0.66616780  1
  H+  H166  1  1.00916610  0.38718963  0.49296108  1
  H+  H167  1  0.10676194  0.61185489  0.67625346  1
  H+  H168  1  0.90705975  0.62488442  0.50422181  1
  H+  H169  1  0.50711729  0.39440045  0.33731606  1
  H+  H170  1  1.00123464  0.12728304  0.33732741  1
  H+  H171  1  0.12792818  0.24127412  0.34175143  1
  H+  H172  1  0.63312270  0.76849247  0.49525513  1
  H+  H173  1  0.09040513  0.19376353  0.01124014  1
  H+  H174  1  0.45168979  0.32997937  0.18093442  1
  H+  H175  1  0.10925887  0.00340085  0.69257320  1
  H+  H176  1  0.84774858  0.95844895  0.84089504  1
  H+  H177  1  0.07983156  0.02937771  0.21755948  1
  H+  H178  1  0.03525319  0.88942769  0.15652686  1
  H+  H179  1  0.62915505  0.75058101  0.65213272  1
  H+  H180  1  0.41131975  0.04954389  0.83199630  1
  H+  H181  1  0.46800822  0.09122625  0.51322526  1
  H+  H182  1  0.65468555  0.79696660  0.17581181  1
  H+  H183  1  0.11039221  0.61967466  0.82781238  1
  H+  H184  1  0.22561135  0.36217696  0.83800616  1
  H+  H185  1  0.97004169  0.09530995  0.85324740  1
  H+  H186  1  0.83672944  0.12721341  0.64176777  1
  H+  H187  1  -0.02920023  0.61619044  -0.00379080  1
  H+  H188  1  0.21591131  0.11916200  0.67989922  1
  H+  H189  1  0.50054948  0.59571736  -0.01810991  1
  H+  H190  1  0.64857110  0.01904106  0.83616376  1
  H+  H191  1  0.36138460  0.14070473  0.82799095  1
  H+  H192  1  0.13691566  0.50386428  0.65985504  1
  H+  H193  1  0.86517582  0.47624364  0.00272353  1
  H+  H194  1  0.62274546  -0.02338752  0.49698205  1
  H+  H195  1  0.57508717  0.42102781  0.83397428  1
  H+  H196  1  0.38203697  0.47665409  0.15413075  1
  H+  H197  1  0.30256751  0.44176749  0.00327575  1
  H+  H198  1  0.48403796  0.62958380  0.65157374  1
  H+  H199  1  0.70536547  0.81290668  1.02614873  1
  H+  H200  1  0.71223305  0.60492761  0.01006811  1
  H+  H201  1  0.63907510  0.26974056  0.98906079  1
  H+  H202  1  0.60637510  0.37288633  -0.00469361  1
  H+  H203  1  0.02370320  0.38772164  0.33954337  1
  H+  H204  1  0.05450156  0.67047775  0.50725959  1
  H+  H205  1  0.11018883  0.48546876  0.17431660  1
  H+  H206  1  0.65651500  0.62715544  0.32250823  1
  H+  H207  1  0.17178636  0.83367415  0.23476812  1
  H+  H208  1  0.13041146  0.01964769  0.84944418  1
  H+  H209  1  -0.03373625  0.09431764  0.00566096  1
  H+  H210  1  0.77342071  0.13518805  1.00833432  1
  H+  H211  1  0.32714963  -0.04918751  0.64134440  1
  H+  H212  1  0.35975189  0.88150142  0.32940186  1
  H+  H213  1  0.79586122  0.66216563  0.16111438  1
  H+  H214  1  0.78666389  0.90482433  0.16873625  1
  H+  H215  1  0.45742983  0.61742862  0.33979404  1
  H+  H216  1  0.83039857  0.16751515  0.10428357  1
  H+  H217  1  0.27197123  0.90540417  0.85454788  1
  H+  H218  1  0.83533491  0.13646649  0.30273751  1
  H+  H219  1  0.41491537  0.08909144  0.93215527  1
  H+  H220  1  0.22839664  0.11683541  0.50157811  1
  H+  H221  1  0.46640187  0.35232582  0.99136302  1
  H+  H222  1  0.72214162  0.37423989  0.16541733  1
  H+  H223  1  0.64350513  0.78104575  0.89179197  1
  H+  H224  1  0.63978244  0.58372425  0.81154697  1
  H+  H225  1  0.08822811  0.59688594  0.99091981  1
  H+  H226  1  0.30752193  0.63217557  0.15090495  1
  H+  H227  1  0.90373231  0.88229175  0.17303003  1
  H+  H228  1  0.87690530  0.85054495  0.84634320  1
  H+  H229  1  0.73591252  0.88042888  0.32391632  1
  H+  H230  1  0.62468538  0.47097185  0.66957224  1
  H+  H231  1  0.01672378  0.90294568  0.68385432  1
  H+  H232  1  0.86556686  0.71731433  0.82747413  1
  H+  H233  1  0.47899794  0.59487826  0.88851424  1
  H+  H234  1  0.38803421  0.53202715  0.36908524  1
  H+  H235  1  0.34063677  0.63326790  0.34608656  1
  H+  H236  1  0.77685982  0.37962653  0.67270227  1
  H+  H237  1  0.65670732  0.62120229  0.65696058  1
  H+  H238  1  0.37845623  0.10517098  0.17163782  1
  H+  H239  1  0.87983306  0.98254651  0.34110766  1
  H+  H240  1  0.15834007  0.41325342  -0.00786934  1
  H+  H241  1  0.51694239  0.64010698  0.49467237  1
  H+  H242  1  0.89076203  0.37021706  0.49816430  1
  H+  H243  1  0.71125994  0.73373298  0.38652460  1
  H+  H244  1  0.01883672  0.36828435  0.82164768  1
  H+  H245  1  0.40623813  0.49720187  0.68014775  1
  H+  H246  1  0.59085819  0.60750361  0.96731207  1
  H+  H247  1  0.56404190  0.43559477  0.14655950  1
  H+  H248  1  0.34928248  0.22135636  0.01205210  1
  H+  H249  1  0.60966022  0.48849219  0.33266941  1
  H+  H250  1  0.88807025  0.34862730  0.83703083  1
  H+  H251  1  0.13973011  0.26033814  0.52632422  1
  H+  H252  1  0.87306194  0.20873014  0.82038966  1
  H+  H253  1  0.46247222  0.47421967  0.72229335  1
  H+  H254  1  0.39889866  0.78444200  0.98510540  1
  H+  H255  1  0.14376224  0.87114084  0.33007370  1
  H+  H256  1  0.29858083  0.63147302  0.99920582  1
  H+  H257  1  0.66929316  0.56923661  0.14977429  1
  H+  H258  1  0.10916355  0.47952341  0.34654291  1
  H+  H259  1  0.62730198  0.51276851  0.00731545  1
  H+  H260  1  0.13764676  0.77840922  0.33438784  1
  H+  H261  1  0.10767888  0.22100482  0.84389089  1
  H+  H262  1  0.65363417  0.26611509  0.84061501  1
  H+  H263  1  1.00090876  0.88128285  0.51262758  1
  H+  H264  1  0.63696148  0.61665351  0.50505289  1
  H+  H265  1  0.51858889  0.13688557  0.99915628  1
  H+  H266  1  0.25762584  0.39026131  0.51188779  1
  H+  H267  1  0.72776826  0.87471440  0.67425903  1
  H+  H268  1  0.35688230  0.43443426  0.52003375  1
  H+  H269  1  0.11607845  0.22349158  0.15142465  1
  H+  H270  1  0.70438900  0.11149398  0.31913477  1
  H+  H271  1  0.35455595  0.71213707  0.67661200  1
  H+  H272  1  0.89291392  0.61913411  0.32460671  1
  H+  H273  1  0.40722624  0.52215511  0.84428325  1
  H+  H274  1  0.62398422  0.13828224  0.82762163  1
  H+  H275  1  0.27247462  0.86387729  0.85251395  1
  H+  H276  1  0.85995274  0.12985351  0.01259120  1
  H+  H277  1  0.78837939  0.03239291  0.43014776  1
  H+  H278  1  0.11797997  0.09954600  1.00305984  1
  H+  H279  1  0.25242741  0.11614207  0.16820790  1
  H+  H280  1  0.87316665  0.27571073  0.16830879  1
  H+  H281  1  0.86433088  0.47034888  0.67292037  1
  H+  H282  1  0.08493228  0.90948649  0.06139488  1
  H+  H283  1  0.39910298  0.34542681  0.50740394  1
  H+  H284  1  0.14626639  0.86383384  0.17334312  1
  H+  H285  1  0.85161609  0.39332726  0.15658121  1
  H+  H286  1  0.36322559  0.12397903  0.50467226  1
  H+  H287  1  0.67271112  0.84712122  0.26649851  1
  H+  H288  1  0.53364088  0.62457890  0.80427139  1
  H+  H289  1  0.44583328  0.60132921  0.25320853  1
  H+  H290  1  0.83755050  0.42457747  0.43122473  1
  H+  H291  1  0.08099040  0.66921143  0.06917045  1
  H+  H292  1  0.19569324  0.83466231  0.66459743  1
  H+  H293  1  0.57903301  0.16592609  0.05801690  1
  H+  H294  1  0.64953094  0.88374707  0.17577316  1
  H+  H295  1  0.06993196  0.17052878  0.75444467  1
  H+  H296  1  0.16164093  0.08068227  0.90800370  1
  H+  H297  1  0.12683047  0.34486238  0.62549270  1
  H+  H298  1  0.34319212  0.42513614  0.77610315  1
  H+  H299  1  0.43635245  0.33360835  0.57161564  1
  H+  H300  1  0.43118536  0.86112542  0.89763232  1
  H+  H301  1  0.47336892  0.64956278  0.25040294  1
  H+  H302  1  0.33052519  0.65019559  0.73585958  1
  H+  H303  1  0.07831432  0.41510412  0.07469347  1
  H+  H304  1  0.64335841  0.07858739  0.26222904  1
  H+  H305  1  0.83566653  0.90739185  0.42892144  1
  H+  H306  1  0.84482085  0.68092350  0.38715189  1
  H+  H307  1  0.32581533  0.87069001  0.49855904  1
  H+  H308  1  0.17340737  0.35187215  0.89793386  1
  H+  H309  1  0.39812812  0.32432009  0.90358066  1
  H+  H310  1  0.13516105  0.57732430  0.28524945  1
  H+  H311  1  0.92672550  0.16440303  0.54978100  1
  H+  H312  1  0.10055885  0.69908918  0.68352300  1
  H+  H313  1  0.58981014  0.17291518  0.77244195  1
  H+  H314  1  0.91209317  0.11269444  0.35938525  1
  H+  H315  1  0.41109363  0.33655101  0.27664297  1
  H+  H316  1  0.32203528  0.41007017  0.41267290  1
  H+  H317  1  0.15630459  0.57004733  0.56820563  1
  H+  H318  1  0.84091789  0.67197331  0.06707590  1
  H+  H319  1  0.93475406  0.85305089  0.56849866  1
  H+  H320  1  0.09139467  0.18222167  0.44111585  1
  H+  H321  1  0.13204311  0.80764260  0.90151477  1
  H+  H322  1  0.95738708  0.73302022  0.44237276  1
  H+  H323  1  0.41348480  0.07033702  0.25880398  1
  H+  H324  1  0.57355493  0.15291567  0.44041208  1
  H+  H325  1  0.67171960  0.32322136  0.59715631  1
  H+  H326  1  0.82797773  0.91078937  0.74686909  1
  H+  H327  1  0.72107586  0.10476543  0.55625454  1
  H+  H328  1  0.58978385  0.65821649  0.74295191  1
  H+  H329  1  0.53522697  0.89253071  0.83427429  1
  H+  H330  1  0.90449417  0.79286483  0.17069679  1
  H+  H331  1  0.82955252  0.42709549  0.09639213  1
  H+  H332  1  0.12762795  0.98845430  0.34681582  1
  H+  H333  1  0.91503091  0.31789593  0.89690708  1
  H+  H334  1  0.38749973  0.61291802  0.66401207  1
  H+  H335  1  0.83657875  0.41214057  0.76660676  1
  H+  H336  1  0.93594526  0.85088203  0.26338989  1
  H+  H337  1  0.68287748  0.32988521  0.90468814  1
  H+  H338  1  0.40959715  0.82973756  0.56442517  1
  H+  H339  1  0.56389764  0.38168622  0.05641416  1
  H+  H340  1  0.93137293  0.10271715  0.23742736  1
  H+  H341  1  0.33242352  0.16701969  0.41205960  1
  H+  H342  1  0.97479190  0.59988639  0.84136006  1
  H+  H343  1  0.02380420  0.63905983  0.16391525  1
  H+  H344  1  0.58301504  0.42863229  0.39729595  1
  H+  H345  1  0.96266349  0.33913348  0.65253000  1
  H+  H346  1  0.41863605  0.60063883  0.56749087  1
  H+  H347  1  0.39979148  0.78113629  0.16766771  1
  H+  H348  1  0.90879191  0.06708871  0.91213125  1
  H+  H349  1  0.57177692  0.90283305  0.74126668  1
  H+  H350  1  0.91413684  0.34150001  0.26146983  1
  H+  H351  1  0.07886643  0.42110854  0.43301391  1
  H+  H352  1  0.35828407  0.67370825  0.09056104  1
  H+  H353  1  0.72178137  0.11023806  0.66775500  1
  H+  H354  1  0.33140589  0.91434796  0.09598275  1
  H+  H355  1  0.66780304  0.33512175  0.22651995  1
  H+  H356  1  0.68218404  0.58522545  0.60112473  1
  H+  H357  1  0.91710980  0.33526184  0.55636420  1
  H+  H358  1  0.67446200  0.08978196  0.92935683  1
  H+  H359  1  0.58547425  0.91880810  0.43614732  1
  H+  H360  1  0.41146086  0.36685877  0.66056472  1
  H+  H361  1  0.13262262  0.85816933  0.99211203  1
  H+  H362  1  0.58140567  0.92676433  0.06501498  1
  H+  H363  1  0.14298359  0.55762900  0.89692701  1
  H+  H364  1  0.09092094  0.68569489  0.41143094  1
  H+  H365  1  0.15028039  0.75624301  0.50281204  1
  H+  H366  1  0.13002908  0.15180267  0.34726266  1
  H+  H367  1  0.33334495  0.93047509  0.76945366  1
  H+  H368  1  0.75951618  0.86592968  0.83518115  1
  H+  H369  1  0.85158080  0.67068556  0.76340493  1
  H+  H370  1  0.17586353  0.09731428  0.27869708  1
  H+  H371  1  0.27710060  0.61389079  0.82986883  1
  H+  H372  1  0.07253079  0.92343859  0.75065183  1
  H+  H373  1  0.07352040  0.64023238  0.76799263  1
  H+  H374  1  0.31969746  0.15806409  0.06948340  1
  H+  H375  1  0.70732853  0.27080888  0.28569313  1
  H+  H376  1  0.81934211  0.14618370  0.37211363  1
  H+  H377  1  0.91439769  0.58213867  0.93434023  1
  H+  H378  1  0.10643024  0.91406801  0.43882589  1
  H+  H379  1  0.91927921  0.57829242  0.60076249  1
  H+  H380  1  0.73651506  0.85964036  0.49072168  1
  H+  H381  1  0.41526289  0.07205597  0.60995873  1
  H+  H382  1  0.21201265  0.62286014  0.21124946  1
  H+  H383  1  0.63865558  0.26617939  0.65854221  1
  O2-  O384  1  0.07785130  0.16207589  0.14198828  1
  O2-  O385  1  0.08637977  0.17412482  0.48601667  1
  O2-  O386  1  0.07594355  0.16037799  0.82903027  1
  O2-  O387  1  0.08054077  0.42270126  0.16298109  1
  O2-  O388  1  0.07522178  0.42222957  0.47887153  1
  O2-  O389  1  0.07786943  0.40000170  0.80350231  1
  O2-  O390  1  0.08497100  0.66704647  0.14893012  1
  O2-  O391  1  0.11099678  0.69519580  0.48725452  1
  O2-  O392  1  0.07448486  0.64414494  0.81373117  1
  O2-  O393  1  0.09584524  0.91493763  0.14100410  1
  O2-  O394  1  0.10422743  0.91141866  0.48398418  1
  O2-  O395  1  0.07130393  0.91279155  0.81850786  1
  O2-  O396  1  0.31211319  0.14866650  0.15400952  1
  O2-  O397  1  0.33954714  0.16048950  0.48955787  1
  O2-  O398  1  0.32534026  0.16367714  0.81125864  1
  O2-  O399  1  0.34288177  0.41413623  0.14518654  1
  O2-  O400  1  0.31373003  0.43111139  0.49153737  1
  O2-  O401  1  0.32950959  0.41888398  0.82002460  1
  O2-  O402  1  0.36236008  0.67854034  0.13639300  1
  O2-  O403  1  0.33837923  0.68909696  0.44802067  1
  O2-  O404  1  0.33379720  0.64469783  0.81001681  1
  O2-  O405  1  0.33763122  0.91628761  0.14148437  1
  O2-  O406  1  0.29511661  0.90253564  0.48901814  1
  O2-  O407  1  0.39470116  0.96945421  0.77516907  1
  O2-  O408  1  0.58037925  0.17171304  0.13801123  1
  O2-  O409  1  0.57858726  0.15668855  0.48569836  1
  O2-  O410  1  0.59746490  0.17444760  0.81789793  1
  O2-  O411  1  0.54653946  0.37546271  0.13980764  1
  O2-  O412  1  0.59427615  0.42355512  0.46835638  1
  O2-  O413  1  0.54564337  0.35837975  0.84391565  1
  O2-  O414  1  0.62072371  0.70230311  0.14242388  1
  O2-  O415  1  0.58030320  0.66654168  0.48213392  1
  O2-  O416  1  0.59397396  0.65598416  0.78707393  1
  O2-  O417  1  0.59168375  0.92550310  0.14633187  1
  O2-  O418  1  0.59150313  0.91629356  0.48145805  1
  O2-  O419  1  0.59559163  0.91538882  0.81662972  1
  O2-  O420  1  0.82965795  0.17291920  0.14981085  1
  O2-  O421  1  0.81757748  0.09467442  0.43536203  1
  O2-  O422  1  0.84280407  0.14724785  0.80803712  1
  O2-  O423  1  0.82584268  0.42814962  0.14190555  1
  O2-  O424  1  0.83986664  0.42564501  0.47663875  1
  O2-  O425  1  0.83853367  0.41069944  0.81235164  1
  O2-  O426  1  0.85613811  0.68957814  0.14577092  1
  O2-  O427  1  0.89995479  0.71153273  0.45940626  1
  O2-  O428  1  0.84446917  0.66005882  0.80800663  1
  O2-  O429  1  0.84663036  0.93141089  0.15223358  1
  O2-  O430  1  0.82413274  0.89950164  0.47368413  1
  O2-  O431  1  0.82114885  0.89993150  0.82219902  1
  O2-  O432  1  0.13192935  0.07211024  0.19688704  1
  O2-  O433  1  0.16549686  0.08920821  0.50840768  1
  O2-  O434  1  0.16337688  0.08110272  0.86206191  1
  O2-  O435  1  0.18044664  0.33799175  0.18590160  1
  O2-  O436  1  0.17583677  0.31216694  0.55359359  1
  O2-  O437  1  0.16522666  0.33211782  0.85515462  1
  O2-  O438  1  0.15099479  0.58477668  0.20321467  1
  O2-  O439  1  0.15087784  0.56820906  0.52303716  1
  O2-  O440  1  0.16209099  0.56293318  0.85422060  1
  O2-  O441  1  0.17397936  0.83138379  0.18937648  1
  O2-  O442  1  0.21544895  0.85790283  0.52651957  1
  O2-  O443  1  0.11042281  0.80142936  0.85927204  1
  O2-  O444  1  0.41628851  0.08112190  0.18231973  1
  O2-  O445  1  0.41005584  0.06689352  0.53182527  1
  O2-  O446  1  0.42942830  0.10318898  0.85524795  1
  O2-  O447  1  0.39543837  0.31249926  0.20102420  1
  O2-  O448  1  0.44067979  0.33166278  0.52467955  1
  O2-  O449  1  0.39635822  0.32901260  0.85853171  1
  O2-  O450  1  0.45234542  0.58574503  0.13765105  1
  O2-  O451  1  0.42404235  0.60848128  0.52216608  1
  O2-  O452  1  0.44862377  0.58509142  0.84889144  1
  O2-  O453  1  0.42467557  0.83956537  0.18573923  1
  O2-  O454  1  0.40918210  0.84307449  0.52051038  1
  O2-  O455  1  0.44142824  0.86301609  0.85301303  1
  O2-  O456  1  0.66035679  0.09078745  0.18624344  1
  O2-  O457  1  0.68832566  0.08764246  0.51751037  1
  O2-  O458  1  0.67818208  0.08279829  0.84463329  1
  O2-  O459  1  0.66192975  0.33936227  0.18180938  1
  O2-  O460  1  0.67152372  0.33005157  0.51563992  1
  O2-  O461  1  0.68932638  0.32758612  0.85793534  1
  O2-  O462  1  0.68809526  0.61468375  0.18008100  1
  O2-  O463  1  0.67066110  0.58810209  0.51712382  1
  O2-  O464  1  0.65931956  0.54276771  0.82106156  1
  O2-  O465  1  0.68184759  0.85648813  0.19373714  1
  O2-  O466  1  0.67057234  0.83240034  0.50464664  1
  O2-  O467  1  0.65461407  0.80200725  0.85003642  1
  O2-  O468  1  0.92371614  0.10149111  0.19302675  1
  O2-  O469  1  0.92419887  0.12193591  0.52101549  1
  O2-  O470  1  0.90847508  0.06402579  0.86617928  1
  O2-  O471  1  0.90049939  0.33768238  0.18240065  1
  O2-  O472  1  0.92195144  0.33965307  0.51111190  1
  O2-  O473  1  0.91697510  0.31695829  0.85155166  1
  O2-  O474  1  0.92245172  0.59092742  0.18931853  1
  O2-  O475  1  0.93078870  0.59070245  0.52200955  1
  O2-  O476  1  0.91400136  0.57188019  0.85700018  1
  O2-  O477  1  0.93685286  0.85355999  0.18626244  1
  O2-  O478  1  0.93836073  0.85300758  0.52315452  1
  O2-  O479  1  0.90958974  0.82193284  0.85995772  1
  O2-  O480  1  0.17410232  0.09411168  0.32351170  1
  O2-  O481  1  0.15217686  0.08810418  0.67483624  1
  O2-  O482  1  0.15247141  0.07343146  0.98365305  1
  O2-  O483  1  0.17454746  0.34409159  0.31292853  1
  O2-  O484  1  0.12233016  0.34408490  0.67038659  1
  O2-  O485  1  0.20757276  0.42236287  0.96545115  1
  O2-  O486  1  0.14844515  0.58064345  0.32918253  1
  O2-  O487  1  0.16380593  0.56468045  0.64714395  1
  O2-  O488  1  0.08337697  0.54433277  0.96889887  1
  O2-  O489  1  0.16962326  0.83649368  0.31421794  1
  O2-  O490  1  0.13346190  0.80041731  0.67574900  1
  O2-  O491  1  0.15973175  0.82354661  0.97914374  1
  O2-  O492  1  0.40730479  0.06276056  0.30410034  1
  O2-  O493  1  0.41054577  0.06926474  0.65555227  1
  O2-  O494  1  0.41218986  0.08343690  0.97756042  1
  O2-  O495  1  0.42168391  0.34680323  0.32176654  1
  O2-  O496  1  0.43102783  0.32910149  0.64195439  1
  O2-  O497  1  0.40311302  0.32645295  0.98364568  1
  O2-  O498  1  0.42136318  0.59487007  0.37581056  1
  O2-  O499  1  0.42196300  0.58825688  0.64456030  1
  O2-  O500  1  0.41170311  0.54587328  1.02594406  1
  O2-  O501  1  0.40784928  0.83128204  0.30854589  1
  O2-  O502  1  0.40252862  0.81701364  0.64585338  1
  O2-  O503  1  0.41954681  0.84521249  0.97659446  1
  O2-  O504  1  0.64257660  0.07703342  0.30804290  1
  O2-  O505  1  0.67061201  0.08492308  0.69609041  1
  O2-  O506  1  0.67319429  0.09194167  0.97440327  1
  O2-  O507  1  0.68601614  0.30801302  0.30038842  1
  O2-  O508  1  0.67490606  0.32561147  0.64235238  1
  O2-  O509  1  0.67122858  0.33034586  0.97286164  1
  O2-  O510  1  0.67008557  0.58422566  0.30424817  1
  O2-  O511  1  0.68551687  0.58833772  0.64601370  1
  O2-  O512  1  0.64880363  0.57514166  1.01109088  1
  O2-  O513  1  0.67389687  0.84605217  0.31287187  1
  O2-  O514  1  0.67042789  0.84512020  0.65406300  1
  O2-  O515  1  0.64527735  0.77003126  1.03670641  1
  O2-  O516  1  0.93712098  0.09467524  0.32689647  1
  O2-  O517  1  0.88647563  0.09998219  0.69680774  1
  O2-  O518  1  0.90577984  0.07122754  0.98792664  1
  O2-  O519  1  0.91932589  0.34049840  0.30670530  1
  O2-  O520  1  0.90599806  0.32176510  0.63413817  1
  O2-  O521  1  0.91218734  0.32429016  0.97867487  1
  O2-  O522  1  0.92368958  0.58767316  0.31356293  1
  O2-  O523  1  0.91423810  0.57495345  0.64601608  1
  O2-  O524  1  0.91119859  0.57999133  0.98003106  1
  O2-  O525  1  0.93153328  0.84641299  0.30900128  1
  O2-  O526  1  0.92471966  0.85203623  0.64925604  1
  O2-  O527  1  0.90896433  0.82911905  0.98320897  1
  O2-  O528  1  0.06429382  0.13760481  0.03076916  1
  O2-  O529  1  0.09839489  0.18239311  0.36015738  1
  O2-  O530  1  0.06373211  0.17229250  0.70890003  1
  O2-  O531  1  0.07550656  0.41295924  0.03007326  1
  O2-  O532  1  0.08246976  0.41641886  0.35765165  1
  O2-  O533  1  0.07270913  0.38762523  0.68247279  1
  O2-  O534  1  0.07534924  0.66745541  0.02400579  1
  O2-  O535  1  0.08319697  0.67891173  0.36602572  1
  O2-  O536  1  0.07118625  0.63551097  0.69295095  1
  O2-  O537  1  0.07948745  0.90861535  0.01633760  1
  O2-  O538  1  0.09884123  0.92633545  0.35895749  1
  O2-  O539  1  0.07583357  0.93500686  0.70380046  1
  O2-  O540  1  0.32128682  0.15955189  0.02443588  1
  O2-  O541  1  0.32811060  0.17173911  0.36709728  1
  O2-  O542  1  0.32791072  0.15884234  0.68889474  1
  O2-  O543  1  0.35582794  0.45023438  0.02392167  1
  O2-  O544  1  0.33152093  0.41385811  0.36799113  1
  O2-  O545  1  0.40559195  0.44875880  0.70365320  1
  O2-  O546  1  0.35606719  0.65671511  0.01633108  1
  O2-  O547  1  0.31271942  0.65086423  0.31488552  1
  O2-  O548  1  0.32841027  0.65087794  0.68970119  1
  O2-  O549  1  0.32567480  0.91442657  0.01754720  1
  O2-  O550  1  0.33205535  0.91656012  0.34258785  1
  O2-  O551  1  0.29508534  0.88833992  0.63378615  1
  O2-  O552  1  0.58038631  0.16718464  0.01262685  1
  O2-  O553  1  0.56359804  0.15525580  0.36065699  1
  O2-  O554  1  0.57922015  0.16673006  0.69584697  1
  O2-  O555  1  0.57038491  0.39555698  0.01261976  1
  O2-  O556  1  0.57501729  0.42845252  0.35086896  1
  O2-  O557  1  0.58956290  0.40885614  0.67753318  1
  O2-  O558  1  0.55162848  0.62968412  -0.04516486  1
  O2-  O559  1  0.65470798  0.70631673  0.36722298  1
  O2-  O560  1  0.59858043  0.68319360  0.64699995  1
  O2-  O561  1  0.57308414  0.92522130  0.02035324  1
  O2-  O562  1  0.57613905  0.91257252  0.35796591  1
  O2-  O563  1  0.56629280  0.90551993  0.69586787  1
  O2-  O564  1  0.83257241  0.16409337  0.02644085  1
  O2-  O565  1  0.81680370  0.16705934  0.33008787  1
  O2-  O566  1  0.80277815  0.14881383  0.61894465  1
  O2-  O567  1  0.83418367  0.41596802  0.01934170  1
  O2-  O568  1  0.83566335  0.42161542  0.35211517  1
  O2-  O569  1  0.83704850  0.41000703  0.68908875  1
  O2-  O570  1  0.82957715  0.66530457  0.02248042  1
  O2-  O571  1  0.83993277  0.67493532  0.34222701  1
  O2-  O572  1  0.85467754  0.68241987  0.68176682  1
  O2-  O573  1  0.81814333  0.90222489  0.02742284  1
  O2-  O574  1  0.84291472  0.92058683  0.35165269  1
  O2-  O575  1  0.83297376  0.92105732  0.70159281  1
