# generated using pymatgen
data_H2O
_symmetry_space_group_name_H-M   'P 1'
_cell_length_a   17.95618183
_cell_length_b   17.97513784
_cell_length_c   21.98251547
_cell_angle_alpha   90.01859451
_cell_angle_beta   89.97008692
_cell_angle_gamma   119.95245068
_symmetry_Int_Tables_number   1
_chemical_formula_structural   H2O
_chemical_formula_sum   'H384 O192'
_cell_volume   6147.55001510
_cell_formula_units_Z   192
loop_
 _symmetry_equiv_pos_site_id
 _symmetry_equiv_pos_as_xyz
  1  'x, y, z'
loop_
 _atom_type_symbol
 _atom_type_oxidation_number
  H+  1.0
  O2-  -2.0
loop_
 _atom_site_type_symbol
 _atom_site_label
 _atom_site_symmetry_multiplicity
 _atom_site_fract_x
 _atom_site_fract_y
 _atom_site_fract_z
 _atom_site_occupancy
  H+  H0  1  0.65272097  0.88471789  0.18414386  1
  H+  H1  1  0.87727066  0.76671653  0.47741933  1
  H+  H2  1  0.35088679  0.46698269  0.01174699  1
  H+  H3  1  0.13175368  0.90894218  0.15345093  1
  H+  H4  1  0.36895267  0.66405902  0.16926627  1
  H+  H5  1  -0.04203764  0.35292881  -0.01560234  1
  H+  H6  1  0.65253508  0.83528331  0.61216717  1
  H+  H7  1  0.35789092  0.39407156  0.33656684  1
  H+  H8  1  0.12254325  0.13308474  0.67118471  1
  H+  H9  1  0.91122745  0.88921251  0.32588949  1
  H+  H10  1  1.04761068  0.91623280  0.14966321  1
  H+  H11  1  0.23052031  0.88136107  0.32603958  1
  H+  H12  1  -0.02906718  0.61824185  0.50306370  1
  H+  H13  1  0.85653957  -0.01163890  0.66991525  1
  H+  H14  1  0.97374233  0.09852647  0.84366397  1
  H+  H15  1  0.85363495  0.03487443  1.02162664  1
  H+  H16  1  1.01138397  0.36829786  0.31900464  1
  H+  H17  1  0.23989098  0.34671937  0.84994438  1
  H+  H18  1  0.73457153  0.13224868  0.18157119  1
  H+  H19  1  0.22853927  0.37670189  0.52008929  1
  H+  H20  1  0.89481860  0.29308989  0.16151009  1
  H+  H21  1  0.53706128  0.90668869  0.17161143  1
  H+  H22  1  0.94775723  0.82185275  0.74613232  1
  H+  H23  1  0.21892940  0.84783699  0.65203008  1
  H+  H24  1  0.70346667  0.39207928  0.66280858  1
  H+  H25  1  0.15576555  0.03902983  0.31790195  1
  H+  H26  1  0.76494493  0.38305808  0.81738608  1
  H+  H27  1  0.47515002  0.37575286  -0.00952139  1
  H+  H28  1  0.14167928  0.98198947  -0.01578074  1
  H+  H29  1  -0.04330966  0.34844087  0.83523834  1
  H+  H30  1  0.36451592  0.74665830  0.15820457  1
  H+  H31  1  0.63297872  0.36051315  0.83353508  1
  H+  H32  1  0.28256770  0.14836032  0.14959491  1
  H+  H33  1  0.33551549  0.63305844  0.35246805  1
  H+  H34  1  0.14629647  0.27624397  0.66861886  1
  H+  H35  1  0.54171957  0.95351046  0.02982826  1
  H+  H36  1  0.40511308  0.57132662  0.94552786  1
  H+  H37  1  0.72285766  0.37843997  0.17411902  1
  H+  H38  1  0.85418525  0.21730941  0.82620775  1
  H+  H39  1  0.91807497  0.81104099  0.16944957  1
  H+  H40  1  0.63992245  1.01151970  0.84837054  1
  H+  H41  1  0.15747697  0.86389098  0.82072182  1
  H+  H42  1  0.51895496  0.85061908  0.81778449  1
  H+  H43  1  0.91316118  0.13225771  0.33890875  1
  H+  H44  1  0.12338947  0.14484537  0.53236626  1
  H+  H45  1  0.35749224  0.51340388  0.33586405  1
  H+  H46  1  0.63434689  0.25254456  0.32243723  1
  H+  H47  1  0.02307952  0.62186390  0.83209762  1
  H+  H48  1  0.37533278  0.48073307  0.65764059  1
  H+  H49  1  0.51361017  0.39361365  0.16752295  1
  H+  H50  1  0.85196570  0.85455068  0.79083211  1
  H+  H51  1  0.86117097  0.40201763  0.15572079  1
  H+  H52  1  0.50816225  0.14740710  1.00258494  1
  H+  H53  1  0.62301243  0.89377973  0.67887753  1
  H+  H54  1  0.92575220  0.86784366  0.57892769  1
  H+  H55  1  0.89448833  0.53426005  -0.00095047  1
  H+  H56  1  0.15256805  0.04330313  0.16151230  1
  H+  H57  1  0.92877188  0.87100215  1.02945902  1
  H+  H58  1  0.61115835  0.61766335  0.18412722  1
  H+  H59  1  0.26793006  0.84081040  0.80938727  1
  H+  H60  1  0.20771800  0.60020152  0.32585664  1
  H+  H61  1  0.35272462  0.45536668  0.84484814  1
  H+  H62  1  0.13141241  0.73151886  0.00070266  1
  H+  H63  1  0.36267865  -0.02430017  0.33495584  1
  H+  H64  1  0.01449469  0.63130018  0.67464466  1
  H+  H65  1  0.00565604  0.37552999  0.67349277  1
  H+  H66  1  0.38922648  0.28214268  0.98621158  1
  H+  H67  1  0.47992152  0.10881538  0.48610075  1
  H+  H68  1  0.33603644  0.71758698  0.67782707  1
  H+  H69  1  0.59969607  0.45902482  0.80103362  1
  H+  H70  1  0.90338104  0.63547808  0.16046464  1
  H+  H71  1  0.37583309  0.20778478  0.67691133  1
  H+  H72  1  0.60878685  0.19278788  0.06831721  1
  H+  H73  1  0.61873404  0.24154384  0.16214419  1
  H+  H74  1  0.62005174  0.13048999  0.49154453  1
  H+  H75  1  0.65207819  0.79564589  0.18571655  1
  H+  H76  1  1.00774226  0.61700744  0.33454781  1
  H+  H77  1  0.39069168  0.27586984  0.17220501  1
  H+  H78  1  0.12279006  0.93770782  0.05024187  1
  H+  H79  1  0.37004792  0.59961603  1.00328580  1
  H+  H80  1  0.17270261  0.87375730  0.98060653  1
  H+  H81  1  0.28781611  0.14645818  0.49144239  1
  H+  H82  1  0.41808811  0.06002128  1.00401827  1
  H+  H83  1  0.38945882  0.25870471  0.83936632  1
  H+  H84  1  0.38266494  0.13292309  0.33229301  1
  H+  H85  1  0.86784599  0.48505161  0.48707801  1
  H+  H86  1  0.21148976  0.34674462  0.99598552  1
  H+  H87  1  0.58309336  0.36959701  0.49021785  1
  H+  H88  1  0.14572790  0.24511684  0.85404568  1
  H+  H89  1  0.49001111  0.10164241  0.31981733  1
  H+  H90  1  0.83550301  0.67888927  -0.07197917  1
  H+  H91  1  0.63847104  0.38892385  0.99812352  1
  H+  H92  1  0.21744828  0.87204838  0.49689968  1
  H+  H93  1  0.88876463  0.01397159  0.82644638  1
  H+  H94  1  0.47675014  0.62517993  0.65996160  1
  H+  H95  1  0.82945084  0.27332972  0.28015944  1
  H+  H96  1  0.23214905  0.87220420  0.17557474  1
  H+  H97  1  0.91100500  0.75521218  0.08641578  1
  H+  H98  1  0.98149461  0.12984406  0.17966213  1
  H+  H99  1  0.13823515  0.62025832  0.16886200  1
  H+  H100  1  0.28814192  0.54721149  0.77807219  1
  H+  H101  1  0.07933337  0.19827762  0.00599412  1
  H+  H102  1  1.00598350  0.85513261  1.01373662  1
  H+  H103  1  0.11537878  0.14584458  0.16042613  1
  H+  H104  1  0.09442502  0.68037108  0.09933434  1
  H+  H105  1  0.46558838  0.80578646  0.95979461  1
  H+  H106  1  0.64300030  0.78123638  0.52329568  1
  H+  H107  1  0.17186499  0.34572445  0.22685854  1
  H+  H108  1  0.13094191  0.36210322  0.31635505  1
  H+  H109  1  0.86197517  0.35630803  0.32143724  1
  H+  H110  1  0.45386726  0.86910656  0.52269511  1
  H+  H111  1  0.79787088  0.14091811  0.35077339  1
  H+  H112  1  0.60626876  0.49984467  1.01382547  1
  H+  H113  1  1.03635626  0.64955989  1.00625339  1
  H+  H114  1  0.72282947  0.87265667  0.66577286  1
  H+  H115  1  0.67908393  0.77425090  0.35997275  1
  H+  H116  1  0.14509145  0.01684325  0.66470621  1
  H+  H117  1  0.87645455  0.23507036  0.35308795  1
  H+  H118  1  0.14870033  1.03662447  0.50873441  1
  H+  H119  1  0.60002879  0.66081530  1.02589400  1
  H+  H120  1  0.86383932  0.13108965  0.50893858  1
  H+  H121  1  0.23937261  0.10122637  0.66971288  1
  H+  H122  1  0.25640988  0.86895790  -0.04063843  1
  H+  H123  1  0.89157313  0.88406000  0.64094741  1
  H+  H124  1  0.28923051  0.39207149  0.66902948  1
  H+  H125  1  0.38890949  0.22437337  0.33184244  1
  H+  H126  1  0.12772633  0.11729575  0.86484543  1
  H+  H127  1  0.86980773  0.15081600  0.16504127  1
  H+  H128  1  0.61469618  0.87082676  0.82850207  1
  H+  H129  1  0.86092592  0.92837102  0.40483273  1
  H+  H130  1  0.35372189  0.89063737  -0.12458696  1
  H+  H131  1  0.11930237  0.23372207  0.53512133  1
  H+  H132  1  0.37031602  0.48339349  0.49288576  1
  H+  H133  1  0.13829713  0.89323438  0.32469163  1
  H+  H134  1  0.51133416  0.62093138  0.40735759  1
  H+  H135  1  0.09244733  0.61076082  0.33860113  1
  H+  H136  1  0.79186306  0.90903368  0.16683721  1
  H+  H137  1  0.14194728  0.37497892  0.16481118  1
  H+  H138  1  0.36078569  0.78651929  0.51737243  1
  H+  H139  1  0.39917313  0.88162684  0.17718888  1
  H+  H140  1  0.46734684  0.72213394  0.24483308  1
  H+  H141  1  0.15984924  0.57440161  0.26106941  1
  H+  H142  1  0.60103444  0.70552307  0.84076622  1
  H+  H143  1  0.46067490  0.59248166  0.84988637  1
  H+  H144  1  0.22424405  0.58775194  0.82798460  1
  H+  H145  1  0.67243211  0.57971369  0.60343213  1
  H+  H146  1  0.59751981  0.96845723  0.50930559  1
  H+  H147  1  0.38449028  0.71147073  0.81148557  1
  H+  H148  1  0.47913656  0.38140958  0.50206227  1
  H+  H149  1  0.56295619  0.76709222  1.00613758  1
  H+  H150  1  0.48103049  0.09441009  0.83649824  1
  H+  H151  1  0.08633133  0.16511067  0.62042173  1
  H+  H152  1  0.46071884  0.85473669  0.33586647  1
  H+  H153  1  0.75008353  0.90087151  0.33889398  1
  H+  H154  1  0.91572320  0.59162781  0.22134980  1
  H+  H155  1  0.48579492  0.12601354  0.16637616  1
  H+  H156  1  0.60945023  0.64219325  0.67793920  1
  H+  H157  1  0.75715103  0.82996035  -0.01016145  1
  H+  H158  1  1.03197534  0.39830180  0.15068377  1
  H+  H159  1  0.65801910  0.51269654  0.50362333  1
  H+  H160  1  0.33824682  0.65220585  0.50165449  1
  H+  H161  1  0.61553439  0.98918114  0.68210767  1
  H+  H162  1  0.34976529  0.89913224  0.49103360  1
  H+  H163  1  0.10128020  0.87602519  0.66298658  1
  H+  H164  1  0.04509872  0.88275176  0.82263995  1
  H+  H165  1  0.52480548  0.25080134  0.54614486  1
  H+  H166  1  0.43776725  0.60269694  0.35152609  1
  H+  H167  1  0.21112559  0.60025937  0.65969731  1
  H+  H168  1  0.09920350  0.47299354  0.50950889  1
  H+  H169  1  0.09543389  0.46253146  0.67246774  1
  H+  H170  1  0.91259951  0.89681127  0.17428930  1
  H+  H171  1  0.60955407  0.51832705  0.18307061  1
  H+  H172  1  0.34482538  0.34799453  0.15324633  1
  H+  H173  1  0.72381894  0.64021852  0.98667025  1
  H+  H174  1  1.00529571  0.37251681  0.51784639  1
  H+  H175  1  0.10126945  0.62631271  0.67338917  1
  H+  H176  1  0.10428119  0.46495485  0.99449124  1
  H+  H177  1  0.24948516  0.12266542  0.31668396  1
  H+  H178  1  0.35963574  -0.00820201  0.48240912  1
  H+  H179  1  0.13594056  0.36012660  0.67362025  1
  H+  H180  1  0.37798004  0.15942382  -0.00112854  1
  H+  H181  1  0.88503760  -0.00482972  0.34895089  1
  H+  H182  1  0.78200638  0.82454694  0.96424421  1
  H+  H183  1  0.86042739  0.49041471  0.15489032  1
  H+  H184  1  0.48185596  0.35945361  0.33250208  1
  H+  H185  1  0.72845427  0.10098110  0.83984054  1
  H+  H186  1  0.52808561  0.66922529  0.18553180  1
  H+  H187  1  0.77225477  0.86433006  0.81054279  1
  H+  H188  1  0.03049060  0.91477292  0.47797506  1
  H+  H189  1  0.83740879  0.13401888  0.07044613  1
  H+  H190  1  0.64662710  1.04261772  0.18243642  1
  H+  H191  1  0.60881836  0.88958639  0.35528658  1
  H+  H192  1  0.90590824  0.61680036  0.85005205  1
  H+  H193  1  0.87628723  0.00148421  0.17190456  1
  H+  H194  1  0.11806831  0.61298486  0.82360456  1
  H+  H195  1  0.85775693  0.74096163  0.73287112  1
  H+  H196  1  0.61279824  0.85272095  0.52358656  1
  H+  H197  1  0.77153874  0.62760163  0.84255186  1
  H+  H198  1  0.39532942  0.12494265  0.16509150  1
  H+  H199  1  0.94499584  0.86782308  0.26385393  1
  H+  H200  1  0.57265099  0.63703192  0.50469110  1
  H+  H201  1  0.87557924  0.51334754  0.31092609  1
  H+  H202  1  0.15819118  0.83347363  0.55568094  1
  H+  H203  1  0.84856411  0.14422580  0.67562725  1
  H+  H204  1  0.13264265  0.60610124  -0.01209478  1
  H+  H205  1  0.10083450  0.72321973  0.48311846  1
  H+  H206  1  0.40237976  0.84468123  0.94543650  1
  H+  H207  1  0.33889947  0.16804555  0.42887947  1
  H+  H208  1  0.86045603  0.27446775  0.66561077  1
  H+  H209  1  0.37354418  0.51341537  0.16694252  1
  H+  H210  1  0.31528769  0.64362015  0.72815519  1
  H+  H211  1  0.62424974  0.59350775  0.83601393  1
  H+  H212  1  0.11271856  0.17917462  0.38737849  1
  H+  H213  1  0.41257257  0.50939324  0.16064694  1
  H+  H214  1  0.14151369  0.78408492  0.17317287  1
  H+  H215  1  0.61142708  0.32683106  0.33000927  1
  H+  H216  1  -0.00038714  0.12828887  0.32656434  1
  H+  H217  1  0.37188676  0.12231823  0.83626492  1
  H+  H218  1  0.09351667  0.46005609  0.82690239  1
  H+  H219  1  0.39145244  0.00053040  0.66285514  1
  H+  H220  1  0.89362748  0.63539403  0.50163751  1
  H+  H221  1  0.59361494  0.96774513  0.36022899  1
  H+  H222  1  0.03593058  0.90948360  0.33070080  1
  H+  H223  1  0.87767514  0.36582322  -0.01309708  1
  H+  H224  1  0.52796427  0.60507683  0.38160012  1
  H+  H225  1  0.87019537  0.73584312  0.98897612  1
  H+  H226  1  0.66646899  0.65142943  0.33844238  1
  H+  H227  1  0.79820872  0.67290759  0.48659152  1
  H+  H228  1  0.75401559  0.61993497  0.68113381  1
  H+  H229  1  0.96977230  0.11820704  0.66921875  1
  H+  H230  1  0.64060690  0.17040838  0.00596890  1
  H+  H231  1  0.35814068  0.36857962  0.83387997  1
  H+  H232  1  0.64574226  0.30349414  0.99722122  1
  H+  H233  1  0.87890893  0.60335479  0.31606991  1
  H+  H234  1  0.51295135  0.36881030  0.80728175  1
  H+  H235  1  0.88772991  0.26954778  0.51841677  1
  H+  H236  1  0.76234409  0.37964458  0.34161094  1
  H+  H237  1  0.88111271  0.61470902  0.66003431  1
  H+  H238  1  0.38369302  0.37813812  0.50758122  1
  H+  H239  1  0.39748013  0.36850638  0.65156880  1
  H+  H240  1  0.14794814  0.28186373  0.31529032  1
  H+  H241  1  0.77645160  0.40980363  0.00373988  1
  H+  H242  1  0.45307514  0.63217939  0.49684215  1
  H+  H243  1  0.58066202  0.42314777  0.31934102  1
  H+  H244  1  0.21698781  0.59966710  -0.00808660  1
  H+  H245  1  0.72547905  0.10663252  0.51735691  1
  H+  H246  1  0.84278434  0.67222091  0.38893090  1
  H+  H247  1  0.12361270  0.35014158  0.98993338  1
  H+  H248  1  0.24466035  0.10443360  0.87426795  1
  H+  H249  1  0.07912439  0.64872142  0.76384883  1
  H+  H250  1  0.85925291  0.36314982  0.65959372  1
  H+  H251  1  0.12768991  0.76487707  0.65322826  1
  H+  H252  1  0.60786611  0.40124881  0.16793048  1
  H+  H253  1  0.12112754  0.48580978  0.14986484  1
  H+  H254  1  0.11029561  0.89725471  0.48586106  1
  H+  H255  1  0.34558898  0.81560709  0.80208837  1
  H+  H256  1  0.38519385  0.61966973  0.65101008  1
  H+  H257  1  0.62705067  0.11943684  0.33669055  1
  H+  H258  1  0.50039769  0.63259053  0.02484753  1
  H+  H259  1  0.20000828  0.60853912  0.50738711  1
  H+  H260  1  0.14136612  0.14964002  0.32795181  1
  H+  H261  1  0.09679866  0.45816639  0.32502031  1
  H+  H262  1  0.96519223  1.01185000  0.03278730  1
  H+  H263  1  0.66768077  0.65658431  0.51423933  1
  H+  H264  1  0.84682919  0.37232128  0.80906362  1
  H+  H265  1  -0.02100555  0.11229359  0.53232910  1
  H+  H266  1  0.11078036  0.23305526  0.16060332  1
  H+  H267  1  0.10888033  0.60237748  0.50475488  1
  H+  H268  1  0.60774600  0.11169339  0.81892519  1
  H+  H269  1  0.48555105  0.36176047  0.64725993  1
  H+  H270  1  1.03105175  0.64927444  0.15692892  1
  H+  H271  1  0.89338858  0.62226925  -0.01191843  1
  H+  H272  1  0.22827866  0.62316354  0.16910429  1
  H+  H273  1  0.58873795  0.86742141  1.00118155  1
  H+  H274  1  0.35718220  0.38164017  -0.00154542  1
  H+  H275  1  0.24688042  0.34988822  0.15017325  1
  H+  H276  1  0.36713375  0.58387480  0.84376429  1
  H+  H277  1  0.93695340  0.12306427  1.02071384  1
  H+  H278  1  0.74948793  0.14181454  0.98790884  1
  H+  H279  1  0.77181490  0.62657763  0.33800759  1
  H+  H280  1  0.62359902  0.15472656  0.16599011  1
  H+  H281  1  0.37295074  0.99375469  0.15977436  1
  H+  H282  1  0.11094251  0.38533310  0.51945209  1
  H+  H283  1  0.70375244  0.01800300  0.30880252  1
  H+  H284  1  0.85872290  0.71329161  0.82277929  1
  H+  H285  1  0.26581346  0.38921454  0.33911549  1
  H+  H286  1  0.34844640  0.70879683  -0.00041295  1
  H+  H287  1  0.70881196  0.11585857  0.67074712  1
  H+  H288  1  0.34042563  0.72434204  0.34574556  1
  H+  H289  1  0.89199565  0.95438701  0.08033391  1
  H+  H290  1  0.63870243  1.01719112  0.01601319  1
  H+  H291  1  0.56720781  0.40675267  0.42768465  1
  H+  H292  1  0.94139498  0.59153761  0.90737542  1
  H+  H293  1  0.65895112  0.08246502  0.57263056  1
  H+  H294  1  0.98567301  0.92928033  0.89880404  1
  H+  H295  1  0.10574104  0.13455122  0.79856923  1
  H+  H296  1  0.64116153  0.58464906  0.24793760  1
  H+  H297  1  0.61335089  0.31833080  0.57305098  1
  H+  H298  1  0.42488514  0.33007985  0.89213879  1
  H+  H299  1  0.83336503  0.41788557  0.39560845  1
  H+  H300  1  0.90980137  0.08853183  0.61104256  1
  H+  H301  1  0.17839735  0.35054254  0.58550215  1
  H+  H302  1  0.48491733  0.08046030  0.65885798  1
  H+  H303  1  0.92377370  0.35207893  0.21970840  1
  H+  H304  1  0.84154030  0.16729153  0.44980753  1
  H+  H305  1  0.34186175  0.17880608  0.09017839  1
  H+  H306  1  0.59635069  0.15268582  0.39342480  1
  H+  H307  1  0.90629855  0.33220622  0.57688013  1
  H+  H308  1  0.74787914  0.54984495  0.53568578  1
  H+  H309  1  0.61645376  0.54839349  0.34219115  1
  H+  H310  1  0.07921879  0.41126130  0.05553354  1
  H+  H311  1  0.44201853  0.59378211  0.56399464  1
  H+  H312  1  0.06647810  0.65441097  0.42708447  1
  H+  H313  1  0.57694044  0.11900819  0.75260779  1
  H+  H314  1  0.68296492  0.09728269  0.93336793  1
  H+  H315  1  0.64205379  0.62026712  0.94805122  1
  H+  H316  1  0.39694588  0.97870081  -0.09572758  1
  H+  H317  1  0.81732896  0.16678098  0.73653700  1
  H+  H318  1  0.69153651  0.08430211  0.26880733  1
  H+  H319  1  0.86036037  0.12969598  0.81999694  1
  H+  H320  1  0.34008497  0.28472087  0.31019686  1
  H+  H321  1  0.42286118  0.34633539  0.57290641  1
  H+  H322  1  0.32532472  0.92146681  0.39761884  1
  H+  H323  1  0.79785875  0.60211403  0.73740070  1
  H+  H324  1  0.83208486  0.91907240  0.72213876  1
  H+  H325  1  0.02932673  0.05400437  0.43723116  1
  H+  H326  1  0.56994209  0.67807615  0.11876019  1
  H+  H327  1  0.66208924  0.33900806  0.23326896  1
  H+  H328  1  0.89896891  0.01935686  0.51987092  1
  H+  H329  1  0.61216202  0.73265978  0.68306912  1
  H+  H330  1  0.39774244  0.12315027  0.49154202  1
  H+  H331  1  0.16423983  0.31366248  0.91095090  1
  H+  H332  1  0.33864556  0.92575595  0.10547820  1
  H+  H333  1  0.87342146  0.39955581  0.49021211  1
  H+  H334  1  0.37560931  0.84306107  0.61252727  1
  H+  H335  1  0.84298332  0.47744954  0.66785342  1
  H+  H336  1  0.41890731  0.62408941  0.25982363  1
  H+  H337  1  0.32664335  0.41911417  0.43626720  1
  H+  H338  1  0.92471582  0.10408508  0.24091412  1
  H+  H339  1  0.80906866  0.41289913  0.72673202  1
  H+  H340  1  0.17920620  0.82883238  0.88047282  1
  H+  H341  1  0.56058210  0.90459293  0.45318251  1
  H+  H342  1  0.60704750  0.21258847  0.48935269  1
  H+  H343  1  0.70520608  0.82622114  0.89712624  1
  H+  H344  1  0.59112506  0.92030572  0.74400993  1
  H+  H345  1  0.43008439  0.08368091  0.26057730  1
  H+  H346  1  0.41907609  0.84348853  0.23682635  1
  H+  H347  1  0.60124943  0.94461788  0.11475847  1
  H+  H348  1  0.61496638  0.80957587  0.91628087  1
  H+  H349  1  0.57683230  0.43714328  0.07102818  1
  H+  H350  1  0.16933976  0.85150857  0.26269911  1
  H+  H351  1  0.83210146  0.42885657  0.06400803  1
  H+  H352  1  0.91213110  0.59188591  0.59783811  1
  H+  H353  1  0.16829604  0.57529299  0.89197525  1
  H+  H354  1  0.30890250  0.67509986  0.43919921  1
  H+  H355  1  0.08618501  0.91091675  0.75655605  1
  H+  H356  1  0.32683715  0.66773815  0.06724495  1
  H+  H357  1  0.28243770  0.14445517  -0.01283666  1
  H+  H358  1  0.18427224  0.08398622  0.57313831  1
  H+  H359  1  0.63480841  0.51621049  0.65807214  1
  H+  H360  1  0.40434138  0.76929238  0.87067176  1
  H+  H361  1  0.68771664  0.86502152  0.28010946  1
  H+  H362  1  0.64045859  0.53264235  0.88153338  1
  H+  H363  1  0.18327031  0.10045962  0.22234835  1
  H+  H364  1  0.00840409  0.08114606  0.43640345  1
  H+  H365  1  0.05786472  0.15778809  0.07180359  1
  H+  H366  1  0.66785646  0.71596304  0.41879000  1
  H+  H367  1  0.14739028  0.57261458  0.60225899  1
  H+  H368  1  0.01842694  0.88961669  0.65548959  1
  H+  H369  1  0.40268120  0.33512399  0.23519998  1
  H+  H370  1  0.37463095  0.86016059  0.32994398  1
  H+  H371  1  0.82145374  0.69073434  0.11482861  1
  H+  H372  1  0.31029010  0.37427976  0.08435183  1
  H+  H373  1  0.45069258  0.10867399  0.90265807  1
  H+  H374  1  0.89304894  0.32013471  0.89245364  1
  H+  H375  1  0.57500565  0.65831517  0.77584867  1
  H+  H376  1  0.67020511  0.35621281  0.89839595  1
  H+  H377  1  0.94822540  0.88651910  0.88992427  1
  H+  H378  1  0.09901488  0.93753119  0.39182106  1
  H+  H379  1  0.33132667  0.87456673  0.72578316  1
  H+  H380  1  0.06234943  0.40094075  0.76877905  1
  H+  H381  1  0.33522758  0.14737384  0.77866468  1
  H+  H382  1  0.58977410  0.39554982  0.71510717  1
  H+  H383  1  0.37706998  0.11967123  0.68083556  1
  O2-  O384  1  0.07853993  0.17118369  0.14915771  1
  O2-  O385  1  0.08708182  0.17112871  0.54366314  1
  O2-  O386  1  0.09789628  0.14399563  0.84118554  1
  O2-  O387  1  0.09248256  0.42459371  0.13587791  1
  O2-  O388  1  0.07227991  0.40794377  0.50333144  1
  O2-  O389  1  0.05804102  0.39964398  0.81363920  1
  O2-  O390  1  0.09328532  0.68171342  0.14496301  1
  O2-  O391  1  0.06923137  0.66076977  0.47359819  1
  O2-  O392  1  0.08250203  0.64230847  0.80946200  1
  O2-  O393  1  0.10810807  0.94277371  0.13418637  1
  O2-  O394  1  0.09233980  0.93714359  0.46769043  1
  O2-  O395  1  0.09929226  0.91274399  0.80075296  1
  O2-  O396  1  0.34413751  0.17680687  0.13570225  1
  O2-  O397  1  0.34614126  0.17503743  0.47331805  1
  O2-  O398  1  0.33870449  0.15141989  0.82381415  1
  O2-  O399  1  0.29485803  0.34512597  0.12695135  1
  O2-  O400  1  0.33078590  0.42220184  0.48195283  1
  O2-  O401  1  0.32110804  0.39533683  0.82884636  1
  O2-  O402  1  0.33606004  0.68507511  0.14576936  1
  O2-  O403  1  0.30608165  0.67810361  0.48528463  1
  O2-  O404  1  0.30624241  0.60244085  0.79758929  1
  O2-  O405  1  0.34162901  0.92985664  0.14975428  1
  O2-  O406  1  0.32260093  0.92824651  0.46937704  1
  O2-  O407  1  0.32936165  0.86004422  0.79515235  1
  O2-  O408  1  0.59271016  0.18147716  0.14619243  1
  O2-  O409  1  0.59388547  0.15935171  0.46766763  1
  O2-  O410  1  0.56746285  0.12410823  0.79678346  1
  O2-  O411  1  0.57597152  0.43170243  0.15543793  1
  O2-  O412  1  0.57383091  0.41608024  0.47259811  1
  O2-  O413  1  0.57122920  0.39869695  0.78734539  1
  O2-  O414  1  0.58180212  0.68056527  0.16373614  1
  O2-  O415  1  0.63354268  0.67954435  0.49616359  1
  O2-  O416  1  0.57371780  0.64830674  0.82082429  1
  O2-  O417  1  0.59928813  0.93886745  0.15993116  1
  O2-  O418  1  0.55903054  0.90679774  0.49820951  1
  O2-  O419  1  0.58103563  0.89655866  0.81319197  1
  O2-  O420  1  0.83809575  0.18277638  0.15396715  1
  O2-  O421  1  0.83568701  0.16418602  0.49493266  1
  O2-  O422  1  0.82455354  0.15611710  0.80929405  1
  O2-  O423  1  0.82556049  0.42797008  0.14397722  1
  O2-  O424  1  0.84490766  0.42698998  0.46939934  1
  O2-  O425  1  0.81953703  0.40485282  0.79352194  1
  O2-  O426  1  0.88280616  0.71845228  0.12333875  1
  O2-  O427  1  0.85600273  0.70453892  0.46913867  1
  O2-  O428  1  0.83442700  0.66234650  0.84998125  1
  O2-  O429  1  0.85329474  0.94229381  0.15469512  1
  O2-  O430  1  0.88190866  0.92206541  0.48007602  1
  O2-  O431  1  0.83268219  0.89695542  0.79928489  1
  O2-  O432  1  0.18050671  0.10405995  0.17719894  1
  O2-  O433  1  0.18104572  0.09404109  0.52861389  1
  O2-  O434  1  0.18496081  0.07748229  0.89083400  1
  O2-  O435  1  0.16900314  0.34129026  0.18097744  1
  O2-  O436  1  0.17074445  0.34834322  0.53952239  1
  O2-  O437  1  0.17264710  0.30847673  0.86474998  1
  O2-  O438  1  0.16714521  0.58747991  0.18194632  1
  O2-  O439  1  0.13957352  0.57259519  0.52182272  1
  O2-  O440  1  0.16434748  0.57224783  0.84672386  1
  O2-  O441  1  0.17142489  0.84471316  0.18950542  1
  O2-  O442  1  0.15611007  0.83735741  0.51055387  1
  O2-  O443  1  0.18256413  0.82888054  0.83568755  1
  O2-  O444  1  0.42466801  0.09367940  0.18101696  1
  O2-  O445  1  0.42141116  0.08487049  0.50286033  1
  O2-  O446  1  0.42939724  0.07753827  0.86392841  1
  O2-  O447  1  0.41038347  0.33589280  0.18679268  1
  O2-  O448  1  0.42090361  0.35413634  0.52308952  1
  O2-  O449  1  0.41986708  0.32249428  0.84701054  1
  O2-  O450  1  0.44507022  0.66624293  0.22525633  1
  O2-  O451  1  0.45386334  0.58616768  0.51976438  1
  O2-  O452  1  0.40230445  0.56317018  0.86784171  1
  O2-  O453  1  0.42786805  0.84958379  0.19169704  1
  O2-  O454  1  0.39202174  0.84567215  0.53382465  1
  O2-  O455  1  0.41387857  0.77208407  0.82579856  1
  O2-  O456  1  0.67565590  0.10245903  0.19961216  1
  O2-  O457  1  0.66302724  0.07766480  0.52780636  1
  O2-  O458  1  0.67026354  0.07226431  0.86069159  1
  O2-  O459  1  0.66142706  0.34725772  0.18839477  1
  O2-  O460  1  0.58387450  0.29132213  0.53379816  1
  O2-  O461  1  0.67166871  0.34507995  0.85459605  1
  O2-  O462  1  0.63629979  0.58083921  0.20090265  1
  O2-  O463  1  0.70264766  0.56355681  0.52679080  1
  O2-  O464  1  0.65755383  0.56231324  0.84248302  1
  O2-  O465  1  0.68425722  0.85598848  0.19989120  1
  O2-  O466  1  0.65094144  0.83408609  0.54270982  1
  O2-  O467  1  0.64859894  0.80813001  0.87968172  1
  O2-  O468  1  0.92078469  0.10433738  0.19538444  1
  O2-  O469  1  0.91492327  0.07748209  0.53576490  1
  O2-  O470  1  0.91101771  0.07306045  0.84072452  1
  O2-  O471  1  0.92569793  0.35455242  0.17481604  1
  O2-  O472  1  0.91836517  0.33153005  0.53140803  1
  O2-  O473  1  0.89393716  0.31499983  0.84699307  1
  O2-  O474  1  0.92306447  0.59643895  0.17558952  1
  O2-  O475  1  0.91040952  0.59481324  0.51885529  1
  O2-  O476  1  0.94294581  0.59319770  0.86188167  1
  O2-  O477  1  0.94874377  0.87066269  0.18551288  1
  O2-  O478  1  0.92118257  0.87810043  0.49732701  1
  O2-  O479  1  0.88942406  0.78915885  0.76263662  1
  O2-  O480  1  0.18914117  0.09938141  0.30176231  1
  O2-  O481  1  0.18026012  0.07833652  0.65254942  1
  O2-  O482  1  0.19260642  0.07843838  0.95754972  1
  O2-  O483  1  0.17299134  0.34280166  0.30212557  1
  O2-  O484  1  0.17503573  0.33913580  0.65922421  1
  O2-  O485  1  0.15239068  0.31573341  0.97880450  1
  O2-  O486  1  0.15138918  0.56383403  0.30582626  1
  O2-  O487  1  0.14895021  0.56985861  0.64744025  1
  O2-  O488  1  0.15940863  0.57275318  0.97208853  1
  O2-  O489  1  0.16953275  0.85760703  0.30888452  1
  O2-  O490  1  0.15913112  0.82459950  0.63719027  1
  O2-  O491  1  0.19358237  0.83492071  0.96533109  1
  O2-  O492  1  0.42933066  0.07777389  0.30579337  1
  O2-  O493  1  0.42311542  0.06309171  0.65688971  1
  O2-  O494  1  0.44664872  0.11802990  0.98752497  1
  O2-  O495  1  0.39490987  0.33635570  0.30193458  1
  O2-  O496  1  0.42480174  0.33470760  0.63336888  1
  O2-  O497  1  0.41768282  0.34361935  0.97081726  1
  O2-  O498  1  0.38471215  0.57822316  0.32732461  1
  O2-  O499  1  0.42197526  0.59589842  0.63645731  1
  O2-  O500  1  0.40430226  0.57134399  0.99128040  1
  O2-  O501  1  0.40347423  0.82746810  0.31565084  1
  O2-  O502  1  0.36819431  0.83093776  0.65734818  1
  O2-  O503  1  0.40611006  0.79131843  0.94887340  1
  O2-  O504  1  0.69840043  0.06954496  0.31261790  1
  O2-  O505  1  0.64846171  0.07613983  0.65463827  1
  O2-  O506  1  0.68798439  0.10938551  0.97879975  1
  O2-  O507  1  0.65413634  0.31390564  0.31198428  1
  O2-  O508  1  0.64189774  0.36392610  0.64529202  1
  O2-  O509  1  0.67196119  0.36335542  0.98150016  1
  O2-  O510  1  0.65616788  0.59539446  0.31606544  1
  O2-  O511  1  0.66038193  0.57844149  0.64753631  1
  O2-  O512  1  0.65889398  0.61382970  0.98902306  1
  O2-  O513  1  0.68821133  0.87386476  0.32498784  1
  O2-  O514  1  0.65847442  0.83956987  0.65893212  1
  O2-  O515  1  0.56451329  0.81203961  0.97846604  1
  O2-  O516  1  0.93693154  0.09968917  0.31736374  1
  O2-  O517  1  0.90890898  0.09356698  0.65658268  1
  O2-  O518  1  0.87263544  0.09625594  1.01994121  1
  O2-  O519  1  0.88120780  0.31728531  0.30038430  1
  O2-  O520  1  0.89271901  0.33408375  0.64848407  1
  O2-  O521  1  0.89788553  0.32769697  0.97044308  1
  O2-  O522  1  0.90732421  0.57325718  0.29566607  1
  O2-  O523  1  0.91249755  0.58703958  0.64324988  1
  O2-  O524  1  0.92985680  0.59566430  0.98422584  1
  O2-  O525  1  0.94845072  0.86780604  0.30909469  1
  O2-  O526  1  0.92525621  0.85916723  0.62355402  1
  O2-  O527  1  0.94370656  0.82418884  1.02583730  1
  O2-  O528  1  0.03988906  0.14546159  0.02841437  1
  O2-  O529  1  0.10977874  0.17974422  0.34309419  1
  O2-  O530  1  0.09008863  0.16443103  0.66601504  1
  O2-  O531  1  0.07540760  0.40483576  0.01046648  1
  O2-  O532  1  0.06883942  0.39612494  0.33681818  1
  O2-  O533  1  0.06679290  0.40136975  0.68587195  1
  O2-  O534  1  0.09720917  0.67402713  0.02015516  1
  O2-  O535  1  0.06419208  0.64154940  0.35550390  1
  O2-  O536  1  0.07486419  0.65962132  0.69044359  1
  O2-  O537  1  0.11589905  0.92373531  0.00627343  1
  O2-  O538  1  0.10086293  0.93813542  0.34578185  1
  O2-  O539  1  0.07258126  0.90680274  0.67992335  1
  O2-  O540  1  0.33967747  0.18265864  0.00966275  1
  O2-  O541  1  0.35198632  0.16453242  0.34472667  1
  O2-  O542  1  0.34565753  0.15020383  0.69491273  1
  O2-  O543  1  0.32156556  0.40324075  0.01972475  1
  O2-  O544  1  0.32533448  0.42001910  0.35753913  1
  O2-  O545  1  0.35277963  0.42014774  0.66937882  1
  O2-  O546  1  0.32037980  0.65379560  0.02294193  1
  O2-  O547  1  0.30692825  0.66624663  0.36491649  1
  O2-  O548  1  0.31726899  0.65591523  0.68270508  1
  O2-  O549  1  0.36976088  0.91698800  -0.08345283  1
  O2-  O550  1  0.32492775  0.91626068  0.35097440  1
  O2-  O551  1  0.32848381  0.88091555  0.67884631  1
  O2-  O552  1  0.60877152  0.19791223  0.02299119  1
  O2-  O553  1  0.59492602  0.14850092  0.34746648  1
  O2-  O554  1  0.59851262  0.11695846  0.67392644  1
  O2-  O555  1  0.57788575  0.43862016  0.02589201  1
  O2-  O556  1  0.54363761  0.37957697  0.34865842  1
  O2-  O557  1  0.59786323  0.40873848  0.66948420  1
  O2-  O558  1  0.55813677  0.67664967  0.04197219  1
  O2-  O559  1  0.68739630  0.72752807  0.37593462  1
  O2-  O560  1  0.57991542  0.67090495  0.69611904  1
  O2-  O561  1  0.59840706  0.95974100  0.03590180  1
  O2-  O562  1  0.56645895  0.90655295  0.37023956  1
  O2-  O563  1  0.59314368  0.92638322  0.69757063  1
  O2-  O564  1  0.80144196  0.15502480  0.09317595  1
  O2-  O565  1  0.85515706  0.17670980  0.37004509  1
  O2-  O566  1  0.81354519  0.16945779  0.69051322  1
  O2-  O567  1  0.83680302  0.43369239  0.01882723  1
  O2-  O568  1  0.82509346  0.41061861  0.34984342  1
  O2-  O569  1  0.80222619  0.41719882  0.67979238  1
  O2-  O570  1  0.82793550  0.67712048  -0.02687228  1
  O2-  O571  1  0.83308483  0.65066412  0.34669498  1
  O2-  O572  1  0.81071569  0.64089848  0.70292349  1
  O2-  O573  1  0.91191474  0.95650222  0.03768984  1
  O2-  O574  1  0.85093307  0.93343853  0.36034324  1
  O2-  O575  1  0.82751606  0.92464654  0.67753416  1
