# generated using pymatgen
data_H2O
_symmetry_space_group_name_H-M   'P 1'
_cell_length_a   17.97737136
_cell_length_b   17.97320900
_cell_length_c   22.00077904
_cell_angle_alpha   90.05291988
_cell_angle_beta   89.95922705
_cell_angle_gamma   119.96821714
_symmetry_Int_Tables_number   1
_chemical_formula_structural   H2O
_chemical_formula_sum   'H384 O192'
_cell_volume   6158.27817295
_cell_formula_units_Z   192
loop_
 _symmetry_equiv_pos_site_id
 _symmetry_equiv_pos_as_xyz
  1  'x, y, z'
loop_
 _atom_type_symbol
 _atom_type_oxidation_number
  H+  1.0
  O2-  -2.0
loop_
 _atom_site_type_symbol
 _atom_site_label
 _atom_site_symmetry_multiplicity
 _atom_site_fract_x
 _atom_site_fract_y
 _atom_site_fract_z
 _atom_site_occupancy
  H+  H0  1  0.49076375  0.61283885  0.49400494  1
  H+  H1  1  0.59691856  0.66806136  0.75472601  1
  H+  H2  1  0.52187271  0.89729428  1.01395449  1
  H+  H3  1  0.12352199  0.87385983  0.66631655  1
  H+  H4  1  0.13259124  0.75315713  0.15523952  1
  H+  H5  1  0.97101766  0.85830248  1.03763073  1
  H+  H6  1  0.41493872  0.82801410  0.93294141  1
  H+  H7  1  0.02872647  0.88780977  0.80965146  1
  H+  H8  1  0.91878244  0.83719467  0.87287609  1
  H+  H9  1  0.13064342  0.22808716  0.49972564  1
  H+  H10  1  0.75675814  0.61660764  0.33123870  1
  H+  H11  1  0.39137070  0.86723375  0.66932392  1
  H+  H12  1  0.06946731  0.63790664  0.53905375  1
  H+  H13  1  0.77902733  0.17186694  0.35124656  1
  H+  H14  1  0.74161751  0.37971258  0.98159133  1
  H+  H15  1  0.88648211  0.27618215  0.51072868  1
  H+  H16  1  0.86954001  0.40220726  0.50458247  1
  H+  H17  1  0.88273674  0.53528780  0.51117083  1
  H+  H18  1  0.13686062  0.85858894  0.15878314  1
  H+  H19  1  0.10807000  0.46831605  0.80491688  1
  H+  H20  1  0.86456204  0.87464249  0.66142298  1
  H+  H21  1  0.24359744  0.93000383  0.34911356  1
  H+  H22  1  0.09684174  0.21147030  0.66731379  1
  H+  H23  1  0.85246878  0.61875032  0.67814302  1
  H+  H24  1  0.61898839  0.23002640  0.16749142  1
  H+  H25  1  0.13566117  0.35358380  0.00033099  1
  H+  H26  1  0.48441172  0.36020560  0.84448141  1
  H+  H27  1  0.36613095  0.72460506  0.17139336  1
  H+  H28  1  0.13543537  0.02417940  0.50815936  1
  H+  H29  1  0.20069223  0.62197827  0.39013116  1
  H+  H30  1  0.78046361  0.15172521  1.00582124  1
  H+  H31  1  0.62163003  0.50900207  0.17111613  1
  H+  H32  1  0.14702056  0.47503962  0.03136316  1
  H+  H33  1  1.02377527  0.38967881  0.64606487  1
  H+  H34  1  0.24435244  0.36054495  0.50506814  1
  H+  H35  1  0.86621130  0.24820316  0.15732286  1
  H+  H36  1  0.64190893  0.89928873  0.84193485  1
  H+  H37  1  0.85016826  0.88844482  1.02646861  1
  H+  H38  1  0.24106415  0.10328680  0.65584878  1
  H+  H39  1  0.39016399  0.27741786  1.00018779  1
  H+  H40  1  0.85124895  0.11242656  0.32935361  1
  H+  H41  1  1.01935969  0.37563314  0.50902538  1
  H+  H42  1  0.57453750  0.75697302  0.18382904  1
  H+  H43  1  0.90367652  0.04634269  0.49402377  1
  H+  H44  1  0.64310626  0.02772918  0.51571863  1
  H+  H45  1  0.10152536  0.63601979  0.99583153  1
  H+  H46  1  0.24615851  0.10920896  0.17890798  1
  H+  H47  1  0.47665417  0.60434793  0.31822522  1
  H+  H48  1  0.83675061  0.19012712  0.09543230  1
  H+  H49  1  0.52367488  0.89854225  0.50064220  1
  H+  H50  1  0.86945187  0.61782937  0.84599672  1
  H+  H51  1  0.44203977  0.13597166  0.83313267  1
  H+  H52  1  0.88684087  0.60104480  0.03818655  1
  H+  H53  1  0.36580811  0.87939563  0.15482207  1
  H+  H54  1  0.71579386  0.61273587  0.99028807  1
  H+  H55  1  0.23017506  0.85947822  0.15705879  1
  H+  H56  1  0.64258456  0.36715138  0.17862461  1
  H+  H57  1  0.86487759  0.03609669  0.84273659  1
  H+  H58  1  0.60726381  0.85700983  0.17734766  1
  H+  H59  1  0.14997414  0.88252202  0.50932029  1
  H+  H60  1  0.87289100  0.14780462  0.49838732  1
  H+  H61  1  0.32759616  0.72930308  0.35190213  1
  H+  H62  1  0.61236689  0.72660902  0.65824641  1
  H+  H63  1  0.67139836  0.08062069  0.26325859  1
  H+  H64  1  0.08587107  0.76254041  0.46588816  1
  H+  H65  1  0.12089919  0.97660510  0.80836335  1
  H+  H66  1  0.03537386  0.14371092  0.49887967  1
  H+  H67  1  0.86781676  0.12431050  0.67264035  1
  H+  H68  1  0.62639842  0.49642377  0.32694557  1
  H+  H69  1  0.16659842  0.57798036  0.47498867  1
  H+  H70  1  0.34785794  0.93547365  0.40753259  1
  H+  H71  1  0.85957135  0.88851542  0.80968814  1
  H+  H72  1  0.37188887  0.46788296  0.48529038  1
  H+  H73  1  0.13855557  0.86595143  0.83697072  1
  H+  H74  1  0.97718221  0.62146213  0.17122004  1
  H+  H75  1  0.37689310  0.13792562  0.14920761  1
  H+  H76  1  0.10049402  0.12868971  0.02432954  1
  H+  H77  1  0.48228675  0.10394456  0.50970975  1
  H+  H78  1  0.81170436  0.13206539  0.83950432  1
  H+  H79  1  0.38456941  0.60301622  0.17313835  1
  H+  H80  1  0.46447867  0.86221293  0.33492454  1
  H+  H81  1  0.26647979  0.67844858  0.04608040  1
  H+  H82  1  -0.00650652  0.68507774  0.47670953  1
  H+  H83  1  0.36623494  0.01998339  0.98345576  1
  H+  H84  1  0.85644973  0.73335621  0.16123598  1
  H+  H85  1  0.61682181  0.47684039  0.67839049  1
  H+  H86  1  0.85086237  0.46136687  0.67857795  1
  H+  H87  1  0.89640307  0.29203552  0.98811107  1
  H+  H88  1  0.39156471  0.09432924  0.93442539  1
  H+  H89  1  0.81056529  0.28915119  0.81365045  1
  H+  H90  1  0.30409805  0.61535000  0.84840759  1
  H+  H91  1  0.52864288  0.38939449  0.01283822  1
  H+  H92  1  0.11986349  0.14327608  0.80927027  1
  H+  H93  1  0.66233452  0.03707886  0.16818392  1
  H+  H94  1  0.73416409  0.11694604  0.51632693  1
  H+  H95  1  0.64867956  0.37370339  0.99901182  1
  H+  H96  1  0.60305683  -0.02235996  0.34511314  1
  H+  H97  1  0.61518560  0.38180102  0.50003888  1
  H+  H98  1  0.88988245  0.27047002  0.66463644  1
  H+  H99  1  0.40880368  0.82981905  0.24202826  1
  H+  H100  1  0.26411988  0.87932482  0.99545733  1
  H+  H101  1  0.66632394  0.58217152  0.56246492  1
  H+  H102  1  0.13435461  0.86601710  0.99512556  1
  H+  H103  1  0.71797227  0.86996020  0.99880902  1
  H+  H104  1  0.60949662  0.89136150  0.49473363  1
  H+  H105  1  0.60930834  0.89676049  0.00466902  1
  H+  H106  1  0.39300323  0.51722322  0.79955928  1
  H+  H107  1  0.02192591  0.39522411  0.16664970  1
  H+  H108  1  0.56434653  0.97759456  0.79453523  1
  H+  H109  1  -0.03499283  0.62249044  0.85053527  1
  H+  H110  1  0.51126727  0.61963485  0.16231207  1
  H+  H111  1  0.27155330  0.37136750  0.67482642  1
  H+  H112  1  0.86794378  0.61599464  0.50943995  1
  H+  H113  1  0.53529182  0.37672124  0.34183717  1
  H+  H114  1  0.47450277  0.09917380  0.66580657  1
  H+  H115  1  0.38744371  0.64650058  0.49244111  1
  H+  H116  1  0.72804441  0.06074054  0.30605893  1
  H+  H117  1  0.36623734  0.97961272  0.68180722  1
  H+  H118  1  0.61345667  0.63165567  0.81598652  1
  H+  H119  1  0.63177039  0.38697171  0.35055698  1
  H+  H120  1  0.38227524  0.22703890  0.83772563  1
  H+  H121  1  0.57296403  0.91246533  0.75335567  1
  H+  H122  1  0.11760276  0.46096368  0.50743908  1
  H+  H123  1  0.02896237  0.89513531  0.48444879  1
  H+  H124  1  0.33551531  0.39562734  0.76753137  1
  H+  H125  1  0.64395471  0.26032629  0.01312990  1
  H+  H126  1  0.72514821  0.60925858  0.65774394  1
  H+  H127  1  0.77463590  0.64158120  0.16727593  1
  H+  H128  1  0.88740594  0.92006960  0.45874012  1
  H+  H129  1  0.63864663  0.15932936  0.01583292  1
  H+  H130  1  0.20736665  0.60539574  0.96583708  1
  H+  H131  1  0.82504260  0.65130556  0.76903760  1
  H+  H132  1  0.61079324  0.12956689  0.68265965  1
  H+  H133  1  0.35243215  0.46391682  0.02511608  1
  H+  H134  1  0.55994477  0.15892936  0.34524017  1
  H+  H135  1  0.82437572  0.01195040  0.31833016  1
  H+  H136  1  0.14787990  0.32108568  0.27479456  1
  H+  H137  1  0.87913291  0.01123459  0.64863989  1
  H+  H138  1  0.73632575  0.13343491  0.17045399  1
  H+  H139  1  0.25916651  0.86915804  0.82886408  1
  H+  H140  1  0.72642635  0.85507209  0.64859078  1
  H+  H141  1  0.35785920  0.46070595  0.67581936  1
  H+  H142  1  0.83406988  0.94371434  0.41421051  1
  H+  H143  1  0.56557618  0.12768195  0.83881417  1
  H+  H144  1  0.17936211  0.32433940  0.59956668  1
  H+  H145  1  0.38048836  0.86271377  0.98680659  1
  H+  H146  1  0.10881129  0.93306587  0.43717507  1
  H+  H147  1  0.85562141  0.71052580  0.01780566  1
  H+  H148  1  0.64023988  0.14448668  0.34399931  1
  H+  H149  1  0.62367245  0.26176635  0.66369872  1
  H+  H150  1  0.28275464  0.38078625  0.82927945  1
  H+  H151  1  0.38305148  0.75618300  0.83755775  1
  H+  H152  1  0.63636662  0.03689521  1.00697145  1
  H+  H153  1  0.63108304  0.77793205  0.49395768  1
  H+  H154  1  0.77399205  0.89355854  0.81390634  1
  H+  H155  1  0.05841388  0.91379540  -0.01804625  1
  H+  H156  1  0.41677449  0.05240700  0.34074541  1
  H+  H157  1  0.89188186  0.37874799  0.17433377  1
  H+  H158  1  0.86631471  0.12457998  0.16864799  1
  H+  H159  1  0.37301031  0.98096714  0.49443714  1
  H+  H160  1  0.37825774  0.62070800  0.80331737  1
  H+  H161  1  0.87618122  1.02382344  0.00022291  1
  H+  H162  1  0.29545295  0.63714142  0.50160484  1
  H+  H163  1  0.38898411  0.15961310  0.36032839  1
  H+  H164  1  0.66316419  0.85091616  0.93802469  1
  H+  H165  1  0.59907374  0.73503574  0.33480029  1
  H+  H166  1  0.86962267  0.40303036  0.97258039  1
  H+  H167  1  0.10501621  0.21750744  1.00546297  1
  H+  H168  1  0.11890037  0.96886800  0.16056090  1
  H+  H169  1  0.63881910  0.27286978  0.51118055  1
  H+  H170  1  0.26884717  0.14264976  0.02562367  1
  H+  H171  1  0.22247138  0.35053098  0.00012896  1
  H+  H172  1  0.09430435  0.90648211  0.72421825  1
  H+  H173  1  0.12783769  0.77227094  0.99182162  1
  H+  H174  1  0.86840738  0.48428827  0.15821284  1
  H+  H175  1  0.39335733  0.77910361  0.51123704  1
  H+  H176  1  0.36140880  0.60353349  0.65558141  1
  H+  H177  1  0.93486728  0.57288122  0.32732115  1
  H+  H178  1  0.35993502  0.46606795  0.16735667  1
  H+  H179  1  0.40057242  0.27243795  0.17615121  1
  H+  H180  1  0.52661012  0.88571017  0.66637896  1
  H+  H181  1  0.08499989  0.63626047  0.81881694  1
  H+  H182  1  0.13781340  0.11888937  0.51300447  1
  H+  H183  1  0.92259282  0.34609549  0.23346304  1
  H+  H184  1  0.29797490  0.15530459  0.35515325  1
  H+  H185  1  0.71110977  0.33265661  0.84134557  1
  H+  H186  1  0.37888835  0.34292825  0.65283252  1
  H+  H187  1  0.12645312  0.52343511  0.39147932  1
  H+  H188  1  0.76150427  0.63977509  0.48450911  1
  H+  H189  1  -0.03228615  0.11006149  -0.00456296  1
  H+  H190  1  0.06928992  0.13216152  0.23353889  1
  H+  H191  1  -0.03340324  0.10336625  0.65622282  1
  H+  H192  1  0.62076899  0.63683687  0.48464121  1
  H+  H193  1  0.61767323  0.58125864  0.33047960  1
  H+  H194  1  0.34465408  0.73271389  0.00083230  1
  H+  H195  1  0.11598486  0.52090431  0.95683545  1
  H+  H196  1  0.11385358  0.38079430  0.35262667  1
  H+  H197  1  0.21650264  0.34796759  0.32586798  1
  H+  H198  1  0.88892849  0.62299681  0.17047906  1
  H+  H199  1  0.11603799  0.28374158  0.17306978  1
  H+  H200  1  0.13360157  0.53630508  0.64533630  1
  H+  H201  1  0.51769878  0.65018432  0.02161342  1
  H+  H202  1  0.13419689  0.01273987  1.01852833  1
  H+  H203  1  0.08602845  0.41006442  0.59107103  1
  H+  H204  1  0.24509881  0.11326834  0.82051277  1
  H+  H205  1  0.86671085  0.14697792  0.00732585  1
  H+  H206  1  0.21606050  0.35775875  0.18179061  1
  H+  H207  1  -0.01044503  0.37590170  0.33593699  1
  H+  H208  1  0.09606872  0.72932983  0.83088080  1
  H+  H209  1  0.28037477  0.88471883  0.67432683  1
  H+  H210  1  0.85029707  0.46558433  0.92781922  1
  H+  H211  1  0.63742917  0.61134550  0.65239960  1
  H+  H212  1  0.38873127  0.51403329  0.31339116  1
  H+  H213  1  0.98640661  0.84881836  0.65874682  1
  H+  H214  1  0.21511150  0.77162995  0.62141929  1
  H+  H215  1  0.35447990  0.13946997  0.01223311  1
  H+  H216  1  0.63944113  0.85989163  0.65342639  1
  H+  H217  1  0.73282738  0.87716835  0.33060761  1
  H+  H218  1  0.96002851  0.60273271  0.66183699  1
  H+  H219  1  0.23537790  0.87534423  0.49859184  1
  H+  H220  1  0.22542115  0.61759709  0.17090653  1
  H+  H221  1  0.61639161  0.60570809  0.17610430  1
  H+  H222  1  0.61318654  0.48140470  0.01056089  1
  H+  H223  1  0.63350733  0.51881742  0.50524453  1
  H+  H224  1  0.14787163  0.36547203  0.83920686  1
  H+  H225  1  0.38547078  0.77551962  0.66620974  1
  H+  H226  1  0.46346639  0.85180532  0.83035874  1
  H+  H227  1  0.03669531  0.08586977  0.23956176  1
  H+  H228  1  0.82106001  0.87538377  0.32553040  1
  H+  H229  1  0.15192401  0.01310797  0.65161427  1
  H+  H230  1  0.60803144  0.82287251  0.27259371  1
  H+  H231  1  0.93223973  0.84481710  0.32953898  1
  H+  H232  1  0.26302431  0.64366012  0.67604612  1
  H+  H233  1  0.01529914  0.63078224  0.02359652  1
  H+  H234  1  0.87886066  0.77602886  0.48211991  1
  H+  H235  1  0.52454635  0.63647876  0.66394360  1
  H+  H236  1  0.68500311  0.10952627  0.85073709  1
  H+  H237  1  0.36404702  0.88677308  0.48967781  1
  H+  H238  1  0.38730479  0.10317262  0.66341668  1
  H+  H239  1  0.78272641  0.39347488  0.15682165  1
  H+  H240  1  0.47391757  0.83433371  0.19244229  1
  H+  H241  1  0.87904563  0.35483807  0.66403508  1
  H+  H242  1  0.38601707  0.87623529  0.32962623  1
  H+  H243  1  0.36313109  0.38129674  0.01470763  1
  H+  H244  1  0.39258290  0.35433900  0.84313879  1
  H+  H245  1  0.40384196  0.57912249  0.96512964  1
  H+  H246  1  0.87166478  0.25515325  0.34916968  1
  H+  H247  1  0.16814697  0.00170344  0.34884744  1
  H+  H248  1  0.48347790  0.60797169  0.79364923  1
  H+  H249  1  0.71360363  0.34873698  0.66360849  1
  H+  H250  1  0.77859598  0.39613403  0.50572976  1
  H+  H251  1  0.15788606  0.10742999  0.18708955  1
  H+  H252  1  0.86225512  0.71228644  0.67947054  1
  H+  H253  1  0.15079339  0.35429024  0.51140399  1
  H+  H254  1  0.71549161  0.94437887  0.13301676  1
  H+  H255  1  0.62468161  0.67822777  0.29916610  1
  H+  H256  1  0.36569905  0.21652701  0.66815215  1
  H+  H257  1  0.60683845  0.73709265  0.01257343  1
  H+  H258  1  0.68370141  0.29458933  0.34943636  1
  H+  H259  1  0.14217952  0.35727514  0.65137974  1
  H+  H260  1  0.84712310  0.99248199  0.16294601  1
  H+  H261  1  0.13375063  0.53135651  0.17085278  1
  H+  H262  1  0.60371677  0.02103089  0.87257888  1
  H+  H263  1  0.11145562  0.66884712  0.52434227  1
  H+  H264  1  0.85512854  0.75140108  0.31853879  1
  H+  H265  1  0.72881817  0.11237257  0.66783180  1
  H+  H266  1  0.61794684  0.97452290  0.66887587  1
  H+  H267  1  0.85132561  0.65344917  -0.03775739  1
  H+  H268  1  0.61507371  0.38600231  0.83093935  1
  H+  H269  1  0.36214608  0.61054068  1.01388636  1
  H+  H270  1  0.42367594  0.08458084  0.07511947  1
  H+  H271  1  0.11614637  0.22720996  0.82192091  1
  H+  H272  1  0.11031526  0.89938019  0.34104799  1
  H+  H273  1  0.11713393  0.21167358  0.34571846  1
  H+  H274  1  0.63795170  0.51821798  0.83906518  1
  H+  H275  1  0.36840096  0.96737473  0.13717024  1
  H+  H276  1  0.60169309  0.86036181  0.33806187  1
  H+  H277  1  0.89874485  0.18537331  0.72876702  1
  H+  H278  1  0.98220650  0.37884699  0.99582341  1
  H+  H279  1  0.20049567  0.61754238  0.80497181  1
  H+  H280  1  0.89100681  0.51933196  1.01790661  1
  H+  H281  1  0.52854023  0.38942073  0.16238381  1
  H+  H282  1  0.32158495  0.39369354  0.26323495  1
  H+  H283  1  0.69554394  0.34964212  0.23044718  1
  H+  H284  1  0.12388457  0.64235179  0.15766301  1
  H+  H285  1  0.62884842  0.61719083  -0.00577730  1
  H+  H286  1  0.85250193  0.38814262  0.83107156  1
  H+  H287  1  0.40587677  0.27903017  0.33297417  1
  H+  H288  1  0.42099527  0.06842937  0.56801224  1
  H+  H289  1  0.56985411  0.15757922  0.73830237  1
  H+  H290  1  0.17292011  0.08445934  0.86884399  1
  H+  H291  1  0.10114722  0.15916700  0.40677292  1
  H+  H292  1  0.80432896  0.44724179  0.30111338  1
  H+  H293  1  0.83663784  0.18037979  0.44354130  1
  H+  H294  1  0.46091434  0.55076507  0.90451223  1
  H+  H295  1  0.32630095  0.39787450  0.11335685  1
  H+  H296  1  0.61136817  0.19290807  0.07932656  1
  H+  H297  1  0.60914565  0.38475549  0.68088877  1
  H+  H298  1  0.36855083  0.37699569  0.31644481  1
  H+  H299  1  0.59075641  0.42430593  0.10243580  1
  H+  H300  1  0.58406882  0.22236555  0.83108059  1
  H+  H301  1  0.58791466  0.41211310  0.43933881  1
  H+  H302  1  0.32354441  0.66005622  0.73434202  1
  H+  H303  1  0.59964642  0.17085261  0.44076922  1
  H+  H304  1  0.16233596  0.83498530  0.90025415  1
  H+  H305  1  0.48288995  0.35050201  0.50012968  1
  H+  H306  1  0.44369502  0.11691097  0.28546412  1
  H+  H307  1  0.65958872  0.32917329  0.57149679  1
  H+  H308  1  0.81858319  0.38954266  0.73261146  1
  H+  H309  1  0.42366120  0.33586323  0.94049145  1
  H+  H310  1  0.73401266  0.95993158  0.87019395  1
  H+  H311  1  0.76472167  0.62927994  0.82985243  1
  H+  H312  1  0.42987878  0.58232914  0.55315799  1
  H+  H313  1  0.62218082  0.14082053  0.16260358  1
  H+  H314  1  0.66112599  0.58165925  0.89639903  1
  H+  H315  1  0.10087278  0.72456539  0.67112551  1
  H+  H316  1  0.88667889  0.84782272  0.52820024  1
  H+  H317  1  0.06021055  0.59928718  0.37461607  1
  H+  H318  1  0.08351520  0.91598115  0.09880596  1
  H+  H319  1  0.07775611  0.39259959  0.41563623  1
  H+  H320  1  0.65729307  0.09557897  0.94791447  1
  H+  H321  1  0.06207981  0.67556536  0.73470645  1
  H+  H322  1  0.15893002  0.11829540  0.33816456  1
  H+  H323  1  0.81920672  0.66044111  0.42381121  1
  H+  H324  1  0.09111991  0.67108048  0.09556700  1
  H+  H325  1  0.12234851  0.61642194  0.66408109  1
  H+  H326  1  0.90900515  0.38947065  0.32833025  1
  H+  H327  1  0.48567233  0.11100856  0.13167613  1
  H+  H328  1  0.11177357  0.39509277  0.17142842  1
  H+  H329  1  0.34679327  0.16370702  0.73136830  1
  H+  H330  1  0.83589403  0.89755270  0.16325669  1
  H+  H331  1  0.41460023  0.83971219  0.56938610  1
  H+  H332  1  0.83127226  0.90757715  0.71719449  1
  H+  H333  1  0.34899557  0.67419047  0.10897692  1
  H+  H334  1  0.37708438  0.22674972  0.44863959  1
  H+  H335  1  0.19568474  0.09060330  0.27923289  1
  H+  H336  1  0.96397451  0.87138431  0.17183584  1
  H+  H337  1  0.32701680  0.90670468  0.05279362  1
  H+  H338  1  0.17204520  0.33326146  0.90039622  1
  H+  H339  1  0.32795144  0.67999617  0.41132757  1
  H+  H340  1  0.67303778  0.08646663  0.60691542  1
  H+  H341  1  0.32395766  0.90324757  0.76343026  1
  H+  H342  1  0.91297300  0.83608385  0.98175407  1
  H+  H343  1  0.17529818  0.08115982  0.57501176  1
  H+  H344  1  0.89994243  0.83809396  0.22824778  1
  H+  H345  1  -0.00763369  0.16342312  0.15720438  1
  H+  H346  1  0.09930930  0.40162683  0.75562933  1
  H+  H347  1  0.58775311  0.41913000  0.77105036  1
  H+  H348  1  0.92177163  0.08853391  0.56130153  1
  H+  H349  1  0.81564254  0.92742186  0.07514671  1
  H+  H350  1  0.18581189  0.82809795  0.58513057  1
  H+  H351  1  0.92682225  0.80410450  0.60256950  1
  H+  H352  1  0.16723053  0.09052553  0.96956646  1
  H+  H353  1  0.64357764  0.56478967  0.23890974  1
  H+  H354  1  0.87448803  0.08525239  0.23114106  1
  H+  H355  1  0.88365971  0.76694068  0.82204135  1
  H+  H356  1  0.62221161  0.13872643  0.50181538  1
  H+  H357  1  0.40487812  0.31088687  0.59300201  1
  H+  H358  1  0.89702849  0.56995088  0.26104234  1
  H+  H359  1  0.34942033  0.85917675  0.82528522  1
  H+  H360  1  0.57416277  0.92683518  0.40970901  1
  H+  H361  1  0.41683635  0.57433227  0.23223932  1
  H+  H362  1  0.89929250  0.57542768  0.60333451  1
  H+  H363  1  0.47793251  0.59849654  0.90194084  1
  H+  H364  1  0.63434684  0.93572808  0.09519059  1
  H+  H365  1  0.58195966  0.66508475  0.10821788  1
  H+  H366  1  0.05015992  0.18743827  0.09681909  1
  H+  H367  1  0.84546908  0.61752990  0.32945201  1
  H+  H368  1  0.65976107  0.32453233  0.90275668  1
  H+  H369  1  0.91462310  0.33286807  0.57092920  1
  H+  H370  1  0.02926343  0.66535302  0.38802510  1
  H+  H371  1  0.87076286  0.07276743  0.90991394  1
  H+  H372  1  0.08411474  0.41334324  0.07966819  1
  H+  H373  1  0.65983078  0.83190013  0.55489366  1
  H+  H374  1  0.31965751  0.52885461  0.60916132  1
  H+  H375  1  0.39362890  0.35827665  0.17883462  1
  H+  H376  1  0.33914069  0.17690537  0.10485333  1
  H+  H377  1  0.15113622  0.58558966  0.86777225  1
  H+  H378  1  0.16821778  0.58964190  0.54944135  1
  H+  H379  1  0.06360889  0.15942845  0.72890566  1
  H+  H380  1  0.43848632  0.33103151  0.26868280  1
  H+  H381  1  0.59617432  0.66609415  0.42252666  1
  H+  H382  1  0.36738913  0.37695401  0.48428398  1
  H+  H383  1  0.78210529  0.14631781  0.77565097  1
  O2-  O384  1  0.04140888  0.21070990  0.13535661  1
  O2-  O385  1  0.09695943  0.16600314  0.48641157  1
  O2-  O386  1  0.08232089  0.16817113  0.80529616  1
  O2-  O387  1  0.08346032  0.42486863  0.15159661  1
  O2-  O388  1  0.08302648  0.39690549  0.50280237  1
  O2-  O389  1  0.09381350  0.40819037  0.79906644  1
  O2-  O390  1  0.09388531  0.67640942  0.14132628  1
  O2-  O391  1  0.02941753  0.72896013  0.44632704  1
  O2-  O392  1  0.05560529  0.67073326  0.81424209  1
  O2-  O393  1  0.08253856  0.90997009  0.14397058  1
  O2-  O394  1  0.09259074  0.93030904  0.48109579  1
  O2-  O395  1  0.09057272  0.91346211  0.79867627  1
  O2-  O396  1  0.34565220  0.17065389  0.15010877  1
  O2-  O397  1  0.38748975  0.22988972  0.49323221  1
  O2-  O398  1  0.35258373  0.16694967  0.81799456  1
  O2-  O399  1  0.33007404  0.40242884  0.15877883  1
  O2-  O400  1  0.33542122  0.40688829  0.47380240  1
  O2-  O401  1  0.34225553  0.40520450  0.81257182  1
  O2-  O402  1  0.33859943  0.66510428  0.15264812  1
  O2-  O403  1  0.35490500  0.67785331  0.48733970  1
  O2-  O404  1  0.34016813  0.65158247  0.81533128  1
  O2-  O405  1  0.33339409  0.90357264  0.13403562  1
  O2-  O406  1  0.33781375  0.92080762  0.47385036  1
  O2-  O407  1  0.31997672  0.89255470  0.81115425  1
  O2-  O408  1  0.59370989  0.17291991  0.14602273  1
  O2-  O409  1  0.59098446  0.16736892  0.48546123  1
  O2-  O410  1  0.54589348  0.16185149  0.81578354  1
  O2-  O411  1  0.59038311  0.42595450  0.14868752  1
  O2-  O412  1  0.58342215  0.41151000  0.48445179  1
  O2-  O413  1  0.58571536  0.41778377  0.81788303  1
  O2-  O414  1  0.57559942  0.65475987  0.15324957  1
  O2-  O415  1  0.59174486  0.66744120  0.46697724  1
  O2-  O416  1  0.58552835  0.66265875  0.79903894  1
  O2-  O417  1  0.66098942  0.94512193  0.13620349  1
  O2-  O418  1  0.58357595  0.92909472  0.48441846  1
  O2-  O419  1  0.56280705  0.92255981  0.79776679  1
  O2-  O420  1  0.83129907  0.18799032  0.14097519  1
  O2-  O421  1  0.83635081  0.17439170  0.48870221  1
  O2-  O422  1  0.78037369  0.15841199  0.81904935  1
  O2-  O423  1  0.84408198  0.42304723  0.14622183  1
  O2-  O424  1  0.83921897  0.43313850  0.49300353  1
  O2-  O425  1  0.86541992  0.50272470  0.86463720  1
  O2-  O426  1  0.83224633  0.67201997  0.14968995  1
  O2-  O427  1  0.82173881  0.67211197  0.46836349  1
  O2-  O428  1  0.82745685  0.65876383  0.81494977  1
  O2-  O429  1  0.81104898  0.93178433  0.14679926  1
  O2-  O430  1  0.86384062  0.95848669  0.45396405  1
  O2-  O431  1  0.83103184  0.91960288  0.79424610  1
  O2-  O432  1  0.18655782  0.07484043  0.19647192  1
  O2-  O433  1  0.16763631  0.08442869  0.52624098  1
  O2-  O434  1  0.18064648  0.08238260  0.82526125  1
  O2-  O435  1  0.15725441  0.33710492  0.19736574  1
  O2-  O436  1  0.18457402  0.32711004  0.52442210  1
  O2-  O437  1  0.17788756  0.33569383  0.85538384  1
  O2-  O438  1  0.16378956  0.59435353  0.17997572  1
  O2-  O439  1  0.18677316  0.56652151  0.51605289  1
  O2-  O440  1  0.14312454  0.58392608  0.82271121  1
  O2-  O441  1  0.16823903  0.82689854  0.17019550  1
  O2-  O442  1  0.17673547  0.84660716  0.51785258  1
  O2-  O443  1  0.16548569  0.83318329  0.85423290  1
  O2-  O444  1  0.42381926  0.07849920  0.11942293  1
  O2-  O445  1  0.42165374  0.06777927  0.52304941  1
  O2-  O446  1  0.38340325  0.11619681  0.85097926  1
  O2-  O447  1  0.43116986  0.33390570  0.19032986  1
  O2-  O448  1  0.41850774  0.31988911  0.50911148  1
  O2-  O449  1  0.42393003  0.32608630  0.86082034  1
  O2-  O450  1  0.41398369  0.57071512  0.18520966  1
  O2-  O451  1  0.42950336  0.58214043  0.50843635  1
  O2-  O452  1  0.41926157  0.57743924  0.78435573  1
  O2-  O453  1  0.41524422  0.82485223  0.19648966  1
  O2-  O454  1  0.41619194  0.84038847  0.52423286  1
  O2-  O455  1  0.40528781  0.81799496  0.84920395  1
  O2-  O456  1  0.67589462  0.09347181  0.18593430  1
  O2-  O457  1  0.67426271  0.08750387  0.53317099  1
  O2-  O458  1  0.62848399  0.08327657  0.87381943  1
  O2-  O459  1  0.66999447  0.33283917  0.18893449  1
  O2-  O460  1  0.66523208  0.33340630  0.52612191  1
  O2-  O461  1  0.65405087  0.31889353  0.85772094  1
  O2-  O462  1  0.64659505  0.57182845  0.19199661  1
  O2-  O463  1  0.66317409  0.58108718  0.51673628  1
  O2-  O464  1  0.66882535  0.58104741  0.85166132  1
  O2-  O465  1  0.56955945  0.80448663  0.20210202  1
  O2-  O466  1  0.65435811  0.83655460  0.51042043  1
  O2-  O467  1  0.68892412  0.89877802  0.86466617  1
  O2-  O468  1  0.89067527  0.09021591  0.18721214  1
  O2-  O469  1  0.93173266  0.10256336  0.51690259  1
  O2-  O470  1  0.83959506  0.06099510  0.86991707  1
  O2-  O471  1  0.92204066  0.34597622  0.18844331  1
  O2-  O472  1  0.91991797  0.33730744  0.52574405  1
  O2-  O473  1  0.80646192  0.34125356  0.80756497  1
  O2-  O474  1  0.91741982  0.59088346  0.18588198  1
  O2-  O475  1  0.90547756  0.59580833  0.52720367  1
  O2-  O476  1  0.90685575  0.59835782  0.87212149  1
  O2-  O477  1  0.90257102  0.84429412  0.18321430  1
  O2-  O478  1  0.91535344  0.83899749  0.49370490  1
  O2-  O479  1  0.91814588  0.83110793  0.82886971  1
  O2-  O480  1  0.19767818  0.09399083  0.32428480  1
  O2-  O481  1  0.18255474  0.07296799  0.63679235  1
  O2-  O482  1  0.16399652  0.08193393  1.01338731  1
  O2-  O483  1  0.15340987  0.32035917  0.32015035  1
  O2-  O484  1  0.17191227  0.32419475  0.64511849  1
  O2-  O485  1  0.16383806  0.32342662  0.98190143  1
  O2-  O486  1  0.14161918  0.58036848  0.40826704  1
  O2-  O487  1  0.16254395  0.60009753  0.64517824  1
  O2-  O488  1  0.15029928  0.58177998  0.94608267  1
  O2-  O489  1  0.28004349  0.91127706  0.32732179  1
  O2-  O490  1  0.19409953  0.81163881  0.62879054  1
  O2-  O491  1  0.16023788  0.83241378  0.97568789  1
  O2-  O492  1  0.45034273  0.11549253  0.32933949  1
  O2-  O493  1  0.41335516  0.06663657  0.65150533  1
  O2-  O494  1  0.39379218  0.08324940  0.97825718  1
  O2-  O495  1  0.43938662  0.33802195  0.31374265  1
  O2-  O496  1  0.40080548  0.30573758  0.63762282  1
  O2-  O497  1  0.42311441  0.33845468  0.98600593  1
  O2-  O498  1  0.41784537  0.57555485  0.30164313  1
  O2-  O499  1  0.37271661  0.56232456  0.63213689  1
  O2-  O500  1  0.39725327  0.58257327  1.00907873  1
  O2-  O501  1  0.40612266  0.83634100  0.31639169  1
  O2-  O502  1  0.41865971  0.83597001  0.65108248  1
  O2-  O503  1  0.41086652  0.82926814  0.97795067  1
  O2-  O504  1  0.67940900  0.07317142  0.30760607  1
  O2-  O505  1  0.66938076  0.08216759  0.65318789  1
  O2-  O506  1  0.66876658  0.09818747  0.99257695  1
  O2-  O507  1  0.70876796  0.35846031  0.34846100  1
  O2-  O508  1  0.65335286  0.32212083  0.64880430  1
  O2-  O509  1  0.67517667  0.34030316  0.98292710  1
  O2-  O510  1  0.64702356  0.55653054  0.30755480  1
  O2-  O511  1  0.66710836  0.57981202  0.63883356  1
  O2-  O512  1  0.65403458  0.58286880  0.97830461  1
  O2-  O513  1  0.62656786  0.82776790  0.31635398  1
  O2-  O514  1  0.66481913  0.82650282  0.63577852  1
  O2-  O515  1  0.65750617  0.84119249  0.98284734  1
  O2-  O516  1  0.82595314  0.06383039  0.30025963  1
  O2-  O517  1  0.90551051  0.07328801  0.63800123  1
  O2-  O518  1  0.90598263  0.08277710  0.98238066  1
  O2-  O519  1  0.93099995  0.35173363  0.31646098  1
  O2-  O520  1  0.91471349  0.32969784  0.64875609  1
  O2-  O521  1  0.92771113  0.35223798  0.97343761  1
  O2-  O522  1  0.87832977  0.55201025  0.30410530  1
  O2-  O523  1  0.89899769  0.56777928  0.64889300  1
  O2-  O524  1  0.92266428  0.57415896  1.04177751  1
  O2-  O525  1  0.87854593  0.81383870  0.30708937  1
  O2-  O526  1  0.92457796  0.81672265  0.64548556  1
  O2-  O527  1  0.90894918  0.82757624  1.02567714  1
  O2-  O528  1  0.06756612  0.15985308  0.02425410  1
  O2-  O529  1  0.10209526  0.15423605  0.36181249  1
  O2-  O530  1  0.05704476  0.15382186  0.68369028  1
  O2-  O531  1  0.09513071  0.41902521  0.03365534  1
  O2-  O532  1  0.08314739  0.40850799  0.37217554  1
  O2-  O533  1  0.08641935  0.42090078  0.63522251  1
  O2-  O534  1  0.08179280  0.66899186  0.01995396  1
  O2-  O535  1  0.02557614  0.62280513  0.35719000  1
  O2-  O536  1  0.06450618  0.66766447  0.68997965  1
  O2-  O537  1  0.08877788  0.92037650  0.02010431  1
  O2-  O538  1  0.15394265  0.94345822  0.36709978  1
  O2-  O539  1  0.09150567  0.90222181  0.67838014  1
  O2-  O540  1  0.33292123  0.17604961  0.03139567  1
  O2-  O541  1  0.35803135  0.19080297  0.37090001  1
  O2-  O542  1  0.34052280  0.15629720  0.68694713  1
  O2-  O543  1  0.32594963  0.40195137  0.03408375  1
  O2-  O544  1  0.32934117  0.40018378  0.30725359  1
  O2-  O545  1  0.33259893  0.40075109  0.68965324  1
  O2-  O546  1  0.30315228  0.67180358  0.01628306  1
  O2-  O547  1  0.29745987  0.67295649  0.37222937  1
  O2-  O548  1  0.32419377  0.66787887  0.68977123  1
  O2-  O549  1  0.32654563  0.91109615  0.00767311  1
  O2-  O550  1  0.36172350  0.95178854  0.36094632  1
  O2-  O551  1  0.33427629  0.91688969  0.69852054  1
  O2-  O552  1  0.61497538  0.19715462  0.03223309  1
  O2-  O553  1  0.62012312  0.18264636  0.35996507  1
  O2-  O554  1  0.57543313  0.15623604  0.69324273  1
  O2-  O555  1  0.58950539  0.42214964  0.02780585  1
  O2-  O556  1  0.59479005  0.41270725  0.35964300  1
  O2-  O557  1  0.59014132  0.42184124  0.70088368  1
  O2-  O558  1  0.57988441  0.67780742  0.03018227  1
  O2-  O559  1  0.59128754  0.67396516  0.33537655  1
  O2-  O560  1  0.58554146  0.66555063  0.67379965  1
  O2-  O561  1  0.58391210  0.92981257  0.02413346  1
  O2-  O562  1  0.56733912  0.92018840  0.36402345  1
  O2-  O563  1  0.58701341  0.91273072  0.68207726  1
  O2-  O564  1  0.84126958  0.18340956  0.01921391  1
  O2-  O565  1  0.83764138  0.19609549  0.36716484  1
  O2-  O566  1  0.85313280  0.16344360  0.69825468  1
  O2-  O567  1  0.83774338  0.43573185  -0.02922726  1
  O2-  O568  1  0.76295110  0.38346994  0.29378735  1
  O2-  O569  1  0.82169389  0.39864912  0.68804450  1
  O2-  O570  1  0.82528640  0.65100061  0.00167244  1
  O2-  O571  1  0.81763359  0.65169035  0.34387530  1
  O2-  O572  1  0.82615166  0.65288477  0.69507088  1
  O2-  O573  1  0.81879331  0.92036727  0.02941586  1
  O2-  O574  1  0.79591926  0.91024960  0.33964071  1
  O2-  O575  1  0.83205960  0.90402536  0.67173163  1
