# generated using pymatgen
data_H2O
_symmetry_space_group_name_H-M   'P 1'
_cell_length_a   17.99501695
_cell_length_b   17.99002347
_cell_length_c   22.01320647
_cell_angle_alpha   89.97851051
_cell_angle_beta   90.00235736
_cell_angle_gamma   119.98956189
_symmetry_Int_Tables_number   1
_chemical_formula_structural   H2O
_chemical_formula_sum   'H384 O192'
_cell_volume   6172.25076446
_cell_formula_units_Z   192
loop_
 _symmetry_equiv_pos_site_id
 _symmetry_equiv_pos_as_xyz
  1  'x, y, z'
loop_
 _atom_type_symbol
 _atom_type_oxidation_number
  H+  1.0
  O2-  -2.0
loop_
 _atom_site_type_symbol
 _atom_site_label
 _atom_site_symmetry_multiplicity
 _atom_site_fract_x
 _atom_site_fract_y
 _atom_site_fract_z
 _atom_site_occupancy
  H+  H0  1  0.10756545  -0.02774061  0.35222599  1
  H+  H1  1  0.61881191  0.13818522  0.33695342  1
  H+  H2  1  0.64365242  0.78072657  0.84049923  1
  H+  H3  1  0.96862180  0.10204440  0.99486688  1
  H+  H4  1  0.72079598  0.85951008  0.99257854  1
  H+  H5  1  0.87727255  0.64130051  0.00936822  1
  H+  H6  1  0.52056780  0.38391132  0.49521880  1
  H+  H7  1  0.43228454  0.83827197  0.89093380  1
  H+  H8  1  0.53361553  0.13632197  0.14763046  1
  H+  H9  1  0.88581697  0.76489190  0.50508992  1
  H+  H10  1  0.34946056  0.63197179  0.66767522  1
  H+  H11  1  0.59584875  0.16779679  0.05118688  1
  H+  H12  1  0.38733948  0.62284425  0.83833250  1
  H+  H13  1  0.01657817  0.13136643  0.33975484  1
  H+  H14  1  0.12521560  0.10033104  0.34109262  1
  H+  H15  1  0.87231622  0.65515194  0.33282405  1
  H+  H16  1  0.91417330  0.82093727  0.92582075  1
  H+  H17  1  0.48954752  0.06540452  0.21681891  1
  H+  H18  1  0.11785440  0.22124431  0.83229057  1
  H+  H19  1  0.85185359  0.51915108  0.67055174  1
  H+  H20  1  0.95342814  0.33840902  0.65518472  1
  H+  H21  1  0.88179593  0.27408312  -0.00856639  1
  H+  H22  1  0.88382334  0.22946429  0.34782031  1
  H+  H23  1  0.80263982  0.37306708  0.33925174  1
  H+  H24  1  0.89065021  0.76150916  -0.00300266  1
  H+  H25  1  0.61783202  0.59006411  0.97587380  1
  H+  H26  1  0.11182445  0.86645619  -0.00164620  1
  H+  H27  1  0.64602257  0.12227505  0.50395122  1
  H+  H28  1  1.02087574  0.88159447  0.34965179  1
  H+  H29  1  0.62562359  0.13202268  0.99479867  1
  H+  H30  1  0.15039733  0.11056112  0.18344503  1
  H+  H31  1  0.42017450  0.93525643  0.82457446  1
  H+  H32  1  0.26455630  0.62774967  0.33254158  1
  H+  H33  1  0.43797112  0.13566673  0.87169004  1
  H+  H34  1  0.89082112  0.52399129  0.17294602  1
  H+  H35  1  0.15809766  0.05590220  0.92887224  1
  H+  H36  1  0.80337943  0.47186289  0.73072948  1
  H+  H37  1  0.86883137  0.20044718  0.66435646  1
  H+  H38  1  0.64507621  0.35160092  0.17083919  1
  H+  H39  1  0.91275253  0.35029780  0.87885719  1
  H+  H40  1  0.14606909  0.23441114  0.15504951  1
  H+  H41  1  0.35229289  0.37984466  1.00479918  1
  H+  H42  1  0.65491046  0.43702651  0.29958033  1
  H+  H43  1  0.37482667  0.76677789  0.50242227  1
  H+  H44  1  0.57637680  0.85664372  0.68526672  1
  H+  H45  1  0.73197031  0.62798405  0.32616210  1
  H+  H46  1  0.37339510  0.74601405  0.15397170  1
  H+  H47  1  0.10921586  0.46576544  -0.00803966  1
  H+  H48  1  -0.02917472  0.36065161  -0.01331285  1
  H+  H49  1  0.99167261  0.61089011  0.48211711  1
  H+  H50  1  0.14508611  0.62859594  0.16285730  1
  H+  H51  1  0.27885750  0.65343410  0.83266013  1
  H+  H52  1  0.39287269  0.75954277  -0.02983316  1
  H+  H53  1  0.77344014  0.13657568  0.49585690  1
  H+  H54  1  0.73623031  0.11870668  0.83518570  1
  H+  H55  1  0.77364200  0.88716084  0.34587438  1
  H+  H56  1  0.14367994  0.77527279  0.33898749  1
  H+  H57  1  0.61473532  0.64208588  0.48963883  1
  H+  H58  1  0.46651100  0.35318105  0.65787902  1
  H+  H59  1  0.36266569  0.47637833  0.49082763  1
  H+  H60  1  0.26550890  0.38135563  0.01377150  1
  H+  H61  1  0.38895238  0.52884404  0.65316438  1
  H+  H62  1  0.12214714  0.55825681  0.65147458  1
  H+  H63  1  0.22454563  0.11443080  0.66105468  1
  H+  H64  1  0.50525345  0.87119083  0.47982854  1
  H+  H65  1  0.14618790  0.37196793  0.67000389  1
  H+  H66  1  0.83702894  0.45907883  0.87215515  1
  H+  H67  1  0.39280260  0.00275681  0.17945813  1
  H+  H68  1  0.83432637  0.36025208  0.63766157  1
  H+  H69  1  0.65515353  1.03730041  0.32361458  1
  H+  H70  1  0.10314950  0.97448011  0.67445282  1
  H+  H71  1  0.08838345  0.73841227  0.50470398  1
  H+  H72  1  0.00393092  0.88255392  0.15800776  1
  H+  H73  1  0.60097693  0.41268134  0.32724169  1
  H+  H74  1  0.89562457  0.02783793  0.84312760  1
  H+  H75  1  0.27357439  0.38871204  0.49498254  1
  H+  H76  1  0.39811985  0.79081164  0.82755605  1
  H+  H77  1  0.32139065  0.40758394  0.39892437  1
  H+  H78  1  0.45898132  0.84500361  0.32542207  1
  H+  H79  1  0.28266754  0.39754128  0.67259351  1
  H+  H80  1  0.65793258  0.46987455  0.15236673  1
  H+  H81  1  0.35947010  0.22147867  0.66822888  1
  H+  H82  1  0.25736148  0.62446359  0.99154455  1
  H+  H83  1  0.14155152  0.61182280  0.32176847  1
  H+  H84  1  0.86428587  0.47509112  0.49209855  1
  H+  H85  1  0.72502161  0.10251655  0.66097675  1
  H+  H86  1  0.20432212  0.15592280  0.93309249  1
  H+  H87  1  1.02351293  0.39805518  0.15159774  1
  H+  H88  1  0.87553648  0.40015134  0.62954768  1
  H+  H89  1  0.39201177  0.22609586  0.15462857  1
  H+  H90  1  0.75676974  0.37338804  0.84999423  1
  H+  H91  1  0.64834215  0.02831058  0.83600854  1
  H+  H92  1  0.16223709  0.56836770  1.03557796  1
  H+  H93  1  0.89748598  1.01024174  0.66188042  1
  H+  H94  1  0.59569802  0.70020046  0.12287340  1
  H+  H95  1  0.48234577  0.12433830  0.65631927  1
  H+  H96  1  0.41083757  0.58179689  0.89538053  1
  H+  H97  1  0.13497462  0.01237149  0.51320272  1
  H+  H98  1  0.61978941  0.51226442  0.82741604  1
  H+  H99  1  0.09943429  -0.16955870  0.52299354  1
  H+  H100  1  0.02882377  0.64494300  0.15019329  1
  H+  H101  1  0.38298640  0.87396554  0.17175696  1
  H+  H102  1  0.65999223  0.27460302  0.32482430  1
  H+  H103  1  0.32827210  0.15845447  0.44243737  1
  H+  H104  1  0.77774215  0.38165149  0.49164063  1
  H+  H105  1  -0.01595836  0.11758688  0.84072849  1
  H+  H106  1  0.61506462  0.12622119  0.82057571  1
  H+  H107  1  0.88609847  1.01899846  0.33006862  1
  H+  H108  1  0.62996538  0.38309976  1.00902898  1
  H+  H109  1  0.28262058  0.12961991  0.00395153  1
  H+  H110  1  1.02630420  0.46165774  0.70484454  1
  H+  H111  1  0.87158025  0.22559631  0.16387915  1
  H+  H112  1  0.65700015  0.26838581  0.98191280  1
  H+  H113  1  0.23025283  0.35852150  0.85709911  1
  H+  H114  1  0.91361665  0.58444719  0.90616216  1
  H+  H115  1  0.89318872  0.27944175  0.82970984  1
  H+  H116  1  0.48786563  0.36629418  0.17686347  1
  H+  H117  1  0.78430730  0.38359736  0.16665436  1
  H+  H118  1  0.36309802  0.13281770  0.66792040  1
  H+  H119  1  0.14369259  0.87411026  0.15723935  1
  H+  H120  1  0.38708423  0.04591348  0.83825171  1
  H+  H121  1  0.10469031  0.47660148  0.48117617  1
  H+  H122  1  0.11799424  0.63055093  -0.00133737  1
  H+  H123  1  0.34212166  0.37302423  0.33768151  1
  H+  H124  1  0.87150561  0.38687935  0.01282902  1
  H+  H125  1  0.61044073  0.73267669  0.66670231  1
  H+  H126  1  0.91559523  0.64709112  0.64551247  1
  H+  H127  1  0.13772428  0.12055439  0.65930123  1
  H+  H128  1  0.63164564  0.01972444  0.66015226  1
  H+  H129  1  0.79932771  0.58779985  0.69377498  1
  H+  H130  1  0.64176763  0.62777688  0.32638437  1
  H+  H131  1  0.35358529  0.63396675  0.48641222  1
  H+  H132  1  0.78528906  0.63568065  0.48723120  1
  H+  H133  1  0.83835414  0.16499724  0.40380538  1
  H+  H134  1  0.76386485  0.88367432  0.48804380  1
  H+  H135  1  0.85513354  0.63042738  0.83412683  1
  H+  H136  1  0.87468089  0.10306348  0.51177616  1
  H+  H137  1  0.56735149  0.63293745  0.04211395  1
  H+  H138  1  0.38071927  0.61156703  0.18297924  1
  H+  H139  1  0.35363745  0.21987045  0.50155044  1
  H+  H140  1  0.87779896  0.85729385  0.17249184  1
  H+  H141  1  0.59418589  0.47150091  0.67108753  1
  H+  H142  1  0.70383170  0.60906118  0.66955196  1
  H+  H143  1  0.12958316  0.28671097  0.50093535  1
  H+  H144  1  0.61517571  0.46316820  0.00575727  1
  H+  H145  1  0.62148688  0.13581887  0.14761183  1
  H+  H146  1  0.63518537  0.27116572  0.49824166  1
  H+  H147  1  0.01230947  0.22552051  0.45609294  1
  H+  H148  1  0.62241968  0.89201375  0.82683572  1
  H+  H149  1  0.40180130  0.85053417  -0.02408216  1
  H+  H150  1  0.73792319  0.87417047  0.18335422  1
  H+  H151  1  0.35877148  0.49315408  0.82049328  1
  H+  H152  1  0.34146620  0.92861247  0.43601942  1
  H+  H153  1  0.36812181  0.47491198  0.16142634  1
  H+  H154  1  0.52738576  0.13933599  0.49114354  1
  H+  H155  1  0.51203149  0.88874344  0.15484996  1
  H+  H156  1  1.09577693  0.73563811  0.82832820  1
  H+  H157  1  0.10677615  0.35446134  0.83658797  1
  H+  H158  1  0.51826025  0.63526335  0.33769563  1
  H+  H159  1  0.48646828  0.09589393  0.98966084  1
  H+  H160  1  0.67916133  0.84549570  0.27537080  1
  H+  H161  1  0.11655039  0.34936412  0.32205388  1
  H+  H162  1  0.91056785  0.82978781  0.23253566  1
  H+  H163  1  -0.01450800  0.85316374  -0.01006179  1
  H+  H164  1  0.52296565  0.64305737  0.82705476  1
  H+  H165  1  0.59906107  0.24399348  0.83334784  1
  H+  H166  1  0.14471239  0.65354508  0.63484002  1
  H+  H167  1  0.88726883  0.86599045  0.32596223  1
  H+  H168  1  0.58018146  0.91499318  0.73983074  1
  H+  H169  1  0.47301629  0.62039945  0.18319342  1
  H+  H170  1  0.87241773  0.87186964  0.67921762  1
  H+  H171  1  0.32298450  0.16092512  0.75071030  1
  H+  H172  1  0.87116910  0.62473172  0.48869810  1
  H+  H173  1  0.37353564  -0.01016906  0.67125360  1
  H+  H174  1  0.44737957  0.34531461  0.33075342  1
  H+  H175  1  0.51645533  0.08446160  0.80494516  1
  H+  H176  1  0.58651185  0.16650340  0.72774007  1
  H+  H177  1  0.98884283  0.71379424  0.27865033  1
  H+  H178  1  0.37126245  0.75598215  0.32291594  1
  H+  H179  1  0.61860887  0.14318474  0.66747084  1
  H+  H180  1  0.88342838  0.77554421  0.32730383  1
  H+  H181  1  0.13767221  0.01783409  0.19045702  1
  H+  H182  1  0.78942213  0.87957692  0.69333672  1
  H+  H183  1  0.61639327  0.85614635  0.47942204  1
  H+  H184  1  0.64756973  0.26470309  0.16451840  1
  H+  H185  1  -0.03582413  0.11030849  0.50563659  1
  H+  H186  1  0.06064538  0.18310609  0.42406783  1
  H+  H187  1  0.04959099  0.44831352  0.68263532  1
  H+  H188  1  0.88412272  0.85651546  0.85208280  1
  H+  H189  1  0.73214133  0.11221873  0.99207328  1
  H+  H190  1  0.32392964  0.66285956  0.42661131  1
  H+  H191  1  0.38783684  1.01952505  0.33246494  1
  H+  H192  1  0.11704054  0.73639391  0.14666340  1
  H+  H193  1  0.15944788  0.58509608  0.55304134  1
  H+  H194  1  0.23238468  0.35919837  0.17669242  1
  H+  H195  1  0.85986196  -0.02974992  1.00335286  1
  H+  H196  1  0.67409485  0.08606847  0.22667887  1
  H+  H197  1  0.14213633  0.87131046  0.70233005  1
  H+  H198  1  0.86467543  0.13587792  1.00594135  1
  H+  H199  1  0.10178212  0.22685384  0.66946064  1
  H+  H200  1  1.02162088  0.88087184  0.67374384  1
  H+  H201  1  0.40222515  0.14409886  0.15635668  1
  H+  H202  1  0.12682164  0.26184492  0.00166164  1
  H+  H203  1  0.97834533  0.36274224  0.49983877  1
  H+  H204  1  0.39033135  0.11448058  0.50913117  1
  H+  H205  1  0.18153661  0.07990442  0.81249108  1
  H+  H206  1  1.03658465  0.64655777  0.32926341  1
  H+  H207  1  0.70968644  0.38053602  0.65553125  1
  H+  H208  1  0.60210225  0.64055413  0.66932020  1
  H+  H209  1  0.89431850  0.52382060  0.00066110  1
  H+  H210  1  0.62798746  0.60580566  0.83070387  1
  H+  H211  1  0.36756188  0.89752446  0.67409318  1
  H+  H212  1  0.23078107  0.62321217  0.16048735  1
  H+  H213  1  0.61328324  0.65046932  0.17618596  1
  H+  H214  1  0.40689355  0.69680234  0.11364175  1
  H+  H215  1  1.01901363  0.89161367  0.50339766  1
  H+  H216  1  0.37502782  0.26515373  -0.01393604  1
  H+  H217  1  0.57841096  0.36654352  0.82188419  1
  H+  H218  1  0.78181160  0.88928155  0.83390881  1
  H+  H219  1  0.46461222  0.85966885  0.66296134  1
  H+  H220  1  0.34647828  0.42725321  0.72661412  1
  H+  H221  1  0.58790758  0.90963709  1.05027787  1
  H+  H222  1  0.63517978  0.77874827  0.33162324  1
  H+  H223  1  0.36794673  0.89622190  0.49451080  1
  H+  H224  1  0.35522889  0.88118457  0.34053996  1
  H+  H225  1  0.21068224  0.35895857  0.32950923  1
  H+  H226  1  1.00069493  0.64278646  0.64227598  1
  H+  H227  1  0.85573780  0.96935849  0.49763783  1
  H+  H228  1  0.58035221  0.67433038  0.76741135  1
  H+  H229  1  0.64025656  0.02412452  0.16768317  1
  H+  H230  1  0.14439448  0.63457526  0.85013208  1
  H+  H231  1  0.11211275  0.39231355  0.48413469  1
  H+  H232  1  0.50425164  0.62450073  -0.01028363  1
  H+  H233  1  0.08741159  0.15623090  0.06255841  1
  H+  H234  1  0.87368124  0.75369112  0.66109222  1
  H+  H235  1  0.61764583  0.88808091  0.32866081  1
  H+  H236  1  0.57000767  0.92308463  0.28715374  1
  H+  H237  1  0.37514041  0.95947422  -0.00313457  1
  H+  H238  1  0.34109101  0.22470667  0.81233172  1
  H+  H239  1  0.23055106  0.85143387  0.98319638  1
  H+  H240  1  0.63550974  0.28007457  0.65756208  1
  H+  H241  1  0.26923531  0.88686710  0.34552193  1
  H+  H242  1  0.87601491  0.76185385  0.84928656  1
  H+  H243  1  0.73409199  0.85634722  0.60691386  1
  H+  H244  1  0.37922405  0.51265859  0.33327349  1
  H+  H245  1  0.37160811  0.13456927  0.35424324  1
  H+  H246  1  0.39473471  0.02714421  0.50622048  1
  H+  H247  1  0.88702693  0.10876773  0.32935719  1
  H+  H248  1  0.72721959  0.53748841  0.54907232  1
  H+  H249  1  0.86180840  0.88237618  0.00491081  1
  H+  H250  1  0.27374225  0.43925637  0.78026241  1
  H+  H251  1  0.76403327  0.62761454  0.82980832  1
  H+  H252  1  0.21978625  0.50493423  0.71988571  1
  H+  H253  1  0.47191768  0.61338614  0.50012446  1
  H+  H254  1  0.47106632  0.62237454  0.65512959  1
  H+  H255  1  0.59765456  0.38330015  0.66596400  1
  H+  H256  1  0.14007041  0.76266757  -0.01415342  1
  H+  H257  1  0.86598221  0.22327508  0.49516239  1
  H+  H258  1  0.35479795  0.62695338  0.33919420  1
  H+  H259  1  0.78111092  0.13897407  0.15845604  1
  H+  H260  1  0.86496509  0.97454572  0.16075596  1
  H+  H261  1  0.87129447  0.13925926  0.82699394  1
  H+  H262  1  0.91114319  0.57729000  0.55067863  1
  H+  H263  1  0.12726179  0.35278855  -0.00195629  1
  H+  H264  1  0.76392348  0.63429443  0.16083655  1
  H+  H265  1  0.26324305  0.64001266  0.66563749  1
  H+  H266  1  0.91561707  0.06795407  0.60089553  1
  H+  H267  1  0.60788339  0.37929883  0.48941485  1
  H+  H268  1  0.88614052  0.10406985  0.17215280  1
  H+  H269  1  0.21658597  0.60990658  0.49328099  1
  H+  H270  1  0.88144179  0.60852080  0.16427452  1
  H+  H271  1  0.13079312  0.75953593  0.66927032  1
  H+  H272  1  0.85402282  0.72094061  0.16212356  1
  H+  H273  1  0.96424278  0.60777524  0.84330485  1
  H+  H274  1  0.38562654  0.36226301  0.50437442  1
  H+  H275  1  0.10497211  0.73885513  0.59890615  1
  H+  H276  1  0.35446835  0.21373033  0.35097605  1
  H+  H277  1  0.10556767  0.12781783  -0.00208725  1
  H+  H278  1  0.44981978  0.35313512  0.82588351  1
  H+  H279  1  0.89541152  0.36169208  0.18565866  1
  H+  H280  1  0.36141128  0.35460890  0.82454836  1
  H+  H281  1  0.68656058  0.90154452  0.63398041  1
  H+  H282  1  1.02331867  0.13181563  0.67272027  1
  H+  H283  1  0.15302534  0.83048956  0.89758396  1
  H+  H284  1  0.74280739  0.12651280  0.32462471  1
  H+  H285  1  0.64126144  0.50211389  0.51274601  1
  H+  H286  1  0.08789809  0.61934844  0.48353069  1
  H+  H287  1  0.34616912  0.13109585  0.82266803  1
  H+  H288  1  0.07384348  0.41463071  0.05338351  1
  H+  H289  1  0.07535495  0.65351874  0.39543587  1
  H+  H290  1  0.16877176  0.08112574  0.57460310  1
  H+  H291  1  0.91163831  0.36773804  0.34300003  1
  H+  H292  1  0.05780491  0.31405140  0.63502367  1
  H+  H293  1  0.78585093  0.39104184  0.02111473  1
  H+  H294  1  0.93754796  0.62212871  0.24939593  1
  H+  H295  1  0.41845615  0.08092148  0.27419188  1
  H+  H296  1  0.10727529  0.49070685  0.14606625  1
  H+  H297  1  0.85737103  0.10965620  0.67313022  1
  H+  H298  1  0.83122670  0.91239258  0.10130248  1
  H+  H299  1  0.42303270  0.09086377  0.59636954  1
  H+  H300  1  0.02723990  0.37076594  0.81957029  1
  H+  H301  1  0.53189911  0.89236365  0.82663945  1
  H+  H302  1  0.90911870  0.45884537  0.74665602  1
  H+  H303  1  0.41268017  0.58683008  0.55920581  1
  H+  H304  1  0.55889518  0.40337980  0.76144791  1
  H+  H305  1  0.41240605  0.33038811  0.56427078  1
  H+  H306  1  0.88820249  0.35992585  0.50935202  1
  H+  H307  1  0.39834552  0.36341592  0.17034633  1
  H+  H308  1  0.91183298  0.07195842  0.23150933  1
  H+  H309  1  0.16987386  0.32153057  0.91670401  1
  H+  H310  1  0.85174007  0.40346118  0.40398020  1
  H+  H311  1  0.66520591  0.59641854  0.24282927  1
  H+  H312  1  0.14832022  0.42294079  0.76093031  1
  H+  H313  1  0.90488591  0.81380118  0.60099794  1
  H+  H314  1  0.17369268  0.58983192  0.26051119  1
  H+  H315  1  0.34250971  0.88193637  0.04607882  1
  H+  H316  1  0.67195975  0.08976040  0.56329837  1
  H+  H317  1  0.73059417  0.35063731  0.94084945  1
  H+  H318  1  0.65675982  0.57578984  0.60580227  1
  H+  H319  1  0.67081323  0.83986765  0.90025530  1
  H+  H320  1  0.83897531  0.16099382  0.76525773  1
  H+  H321  1  0.33836521  0.41692172  0.10122316  1
  H+  H322  1  0.98406826  0.61179677  0.99327730  1
  H+  H323  1  0.10548592  0.22161238  0.33874749  1
  H+  H324  1  0.37579729  0.77170078  0.66208308  1
  H+  H325  1  0.83652734  0.91505278  0.40295362  1
  H+  H326  1  0.65201150  0.55809303  0.92292967  1
  H+  H327  1  0.13730081  0.86100235  0.34392002  1
  H+  H328  1  0.40938704  0.82601292  0.56227393  1
  H+  H329  1  0.17358918  0.60135996  0.90680969  1
  H+  H330  1  0.16467565  0.32145348  0.23083876  1
  H+  H331  1  0.07521067  0.88846175  0.05792989  1
  H+  H332  1  0.08869146  0.66720574  0.05588484  1
  H+  H333  1  0.58594375  0.16701531  0.43061091  1
  H+  H334  1  0.52734977  0.13477047  0.33880170  1
  H+  H335  1  0.23177735  0.87467336  0.16585352  1
  H+  H336  1  0.39615724  0.31823709  0.26911063  1
  H+  H337  1  0.64478891  0.79329947  0.19143008  1
  H+  H338  1  0.67704606  0.08457830  0.93120502  1
  H+  H339  1  0.91443230  0.08021316  0.93363528  1
  H+  H340  1  0.69536644  0.32690318  0.26369900  1
  H+  H341  1  0.87571151  0.84954067  0.50898195  1
  H+  H342  1  0.23546964  0.10967810  0.51108987  1
  H+  H343  1  0.37172028  0.60238679  0.98493889  1
  H+  H344  1  0.60141263  0.41407921  0.09593054  1
  H+  H345  1  0.40686122  0.83182991  0.22883519  1
  H+  H346  1  0.66074512  0.33103651  0.55747268  1
  H+  H347  1  0.15583915  0.34051541  0.56268812  1
  H+  H348  1  0.56245700  0.40143106  0.39880871  1
  H+  H349  1  0.83997853  0.67000790  0.06590034  1
  H+  H350  1  0.64220064  0.83072385  0.54235296  1
  H+  H351  1  0.38562771  0.31863460  0.92600937  1
  H+  H352  1  0.05620811  0.96441360  0.11645374  1
  H+  H353  1  0.41033204  0.57300890  0.27456236  1
  H+  H354  1  0.32834382  0.67156932  0.04403321  1
  H+  H355  1  0.07776917  0.67381875  0.77219528  1
  H+  H356  1  0.85059873  0.91596274  0.77972612  1
  H+  H357  1  0.63069384  0.77429010  0.98703955  1
  H+  H358  1  0.62383300  0.30421442  0.89171104  1
  H+  H359  1  0.55778111  0.90591285  0.41727535  1
  H+  H360  1  0.61305648  0.53411996  0.18615923  1
  H+  H361  1  0.32750694  0.66866771  0.76873411  1
  H+  H362  1  0.37819258  0.35307634  0.65702281  1
  H+  H363  1  0.08585440  0.17046805  0.76940935  1
  H+  H364  1  0.37381821  0.51290938  -0.01042075  1
  H+  H365  1  0.90594070  0.42201323  0.76505366  1
  H+  H366  1  0.84117280  0.66966110  0.39859174  1
  H+  H367  1  0.23367679  0.87579178  0.70156668  1
  H+  H368  1  0.57948407  0.66748013  0.39517541  1
  H+  H369  1  0.15832165  0.07178570  0.28381475  1
  H+  H370  1  0.19933003  0.20513991  0.11532733  1
  H+  H371  1  0.93738894  0.30741715  0.58703981  1
  H+  H372  1  0.83968177  0.16896429  0.06570888  1
  H+  H373  1  0.84950548  0.41707783  0.11091618  1
  H+  H374  1  0.08022975  0.91893892  0.44491253  1
  H+  H375  1  0.35266494  0.16194396  0.05763002  1
  H+  H376  1  0.93559626  0.33395474  0.24009895  1
  H+  H377  1  0.34372779  0.94978547  0.11505847  1
  H+  H378  1  0.12895551  0.87726150  0.84767219  1
  H+  H379  1  0.39563022  0.09041577  0.99091350  1
  H+  H380  1  0.39193931  0.96506477  0.76478705  1
  H+  H381  1  0.60984697  0.72863385  0.48419105  1
  H+  H382  1  0.81579141  0.65751582  0.74307375  1
  H+  H383  1  0.03781684  0.39091630  0.38917026  1
  O2-  O384  1  0.14130156  0.18272864  0.13100790  1
  O2-  O385  1  0.04670692  0.19910491  0.46626641  1
  O2-  O386  1  0.08281985  0.16350776  0.81405772  1
  O2-  O387  1  0.07076892  0.43632586  0.12413228  1
  O2-  O388  1  0.07525443  0.41470506  0.46792335  1
  O2-  O389  1  0.08511760  0.38025774  0.80663404  1
  O2-  O390  1  0.08853166  0.67386540  0.13433942  1
  O2-  O391  1  0.05529412  0.64554212  0.46666321  1
  O2-  O392  1  0.07114995  0.67260873  0.81616102  1
  O2-  O393  1  0.06189712  0.92011327  0.13791463  1
  O2-  O394  1  0.08054810  0.92195815  0.49097992  1
  O2-  O395  1  0.14243337  0.99108233  0.87114788  1
  O2-  O396  1  0.37614165  0.17175682  0.13324398  1
  O2-  O397  1  0.32254925  0.15790830  0.48973679  1
  O2-  O398  1  0.31472890  0.16222796  0.79791116  1
  O2-  O399  1  0.34201750  0.41506507  0.14666110  1
  O2-  O400  1  0.33313944  0.41465537  0.47851837  1
  O2-  O401  1  0.32104602  0.43475450  0.80085129  1
  O2-  O402  1  0.35578828  0.68718400  0.13566316  1
  O2-  O403  1  0.32239960  0.66357404  0.47246989  1
  O2-  O404  1  0.33736703  0.67655375  0.81317866  1
  O2-  O405  1  0.34239555  0.93241451  0.15715955  1
  O2-  O406  1  0.34571566  0.93394759  0.48113763  1
  O2-  O407  1  0.41857799  0.98527545  0.80605027  1
  O2-  O408  1  0.59345465  0.16749454  0.13108901  1
  O2-  O409  1  0.58804155  0.17014247  0.47617837  1
  O2-  O410  1  0.57144017  0.14050231  0.80346850  1
  O2-  O411  1  0.60372399  0.41794171  0.14373278  1
  O2-  O412  1  0.58073258  0.41501722  0.47926206  1
  O2-  O413  1  0.55373826  0.40226057  0.80675845  1
  O2-  O414  1  0.58206213  0.68280850  0.16517420  1
  O2-  O415  1  0.57943357  0.66503227  0.47420882  1
  O2-  O416  1  0.58372989  0.67172740  0.81224697  1
  O2-  O417  1  0.57141204  0.91660488  0.13653478  1
  O2-  O418  1  0.56252451  0.89349554  0.45982267  1
  O2-  O419  1  0.59323064  0.92276146  0.81015180  1
  O2-  O420  1  0.84194158  0.16740143  0.14483963  1
  O2-  O421  1  0.83591758  0.16210159  0.48143549  1
  O2-  O422  1  0.83972745  0.16762607  0.81014029  1
  O2-  O423  1  0.84698278  0.41792104  0.15649052  1
  O2-  O424  1  0.83975692  0.41043675  0.48139666  1
  O2-  O425  1  0.80100951  0.39712924  0.88147054  1
  O2-  O426  1  0.82380961  0.66072988  0.14590886  1
  O2-  O427  1  0.84569050  0.66636050  0.47429928  1
  O2-  O428  1  0.82599647  0.66175153  0.81759610  1
  O2-  O429  1  0.83348584  0.91176117  0.14653966  1
  O2-  O430  1  0.82685040  0.90871363  0.48237560  1
  O2-  O431  1  0.84478980  0.91693493  0.82445273  1
  O2-  O432  1  0.16821756  0.07577153  0.20770978  1
  O2-  O433  1  0.17130231  0.07611302  0.52795286  1
  O2-  O434  1  0.12744664  0.02570899  0.81944553  1
  O2-  O435  1  0.17077955  0.32103789  0.18608387  1
  O2-  O436  1  0.16789941  0.34520095  0.51827683  1
  O2-  O437  1  0.17124466  0.31947660  0.87069448  1
  O2-  O438  1  0.17297405  0.59562305  0.17779736  1
  O2-  O439  1  0.15578130  0.57725846  0.50823978  1
  O2-  O440  1  0.18217522  0.61227998  0.86301191  1
  O2-  O441  1  0.16789061  0.83735461  0.16595042  1
  O2-  O442  1  0.10913065  0.78400546  0.53661878  1
  O2-  O443  1  0.14016053  0.82965512  0.85351895  1
  O2-  O444  1  0.44564251  0.07363782  0.19713131  1
  O2-  O445  1  0.42557552  0.08907500  0.52270478  1
  O2-  O446  1  0.38164744  0.09546756  0.85526777  1
  O2-  O447  1  0.42676791  0.33286842  0.18805969  1
  O2-  O448  1  0.41495334  0.33065696  0.51899150  1
  O2-  O449  1  0.38680032  0.31962283  0.83706631  1
  O2-  O450  1  0.41208737  0.58203947  0.19545233  1
  O2-  O451  1  0.41115737  0.58346264  0.51392850  1
  O2-  O452  1  0.41580112  0.58880523  0.84991379  1
  O2-  O453  1  0.41172828  0.83890762  0.18367521  1
  O2-  O454  1  0.40989749  0.82722815  0.51720495  1
  O2-  O455  1  0.43386363  0.84939477  0.84485882  1
  O2-  O456  1  0.67204368  0.08484604  0.18138815  1
  O2-  O457  1  0.67917993  0.09511950  0.51872798  1
  O2-  O458  1  0.67520445  0.08922211  0.84970848  1
  O2-  O459  1  0.67797413  0.32330585  0.18354881  1
  O2-  O460  1  0.66442403  0.33290895  0.51246141  1
  O2-  O461  1  0.61912532  0.30380558  0.84701026  1
  O2-  O462  1  0.65660941  0.59352242  0.19501169  1
  O2-  O463  1  0.68627561  0.55504501  0.53625830  1
  O2-  O464  1  0.65657619  0.57235764  0.84179474  1
  O2-  O465  1  0.68241905  0.85243950  0.20575655  1
  O2-  O466  1  0.65152921  0.83007124  0.49852806  1
  O2-  O467  1  0.67556238  0.84161417  0.85413717  1
  O2-  O468  1  0.91054154  0.06833542  0.18653536  1
  O2-  O469  1  0.90683173  0.07277567  0.52453325  1
  O2-  O470  1  0.92270475  0.08888656  0.85614898  1
  O2-  O471  1  0.92598442  0.32968037  0.19564644  1
  O2-  O472  1  0.92047941  0.32877989  0.51977556  1
  O2-  O473  1  0.92750365  0.34215198  0.83738927  1
  O2-  O474  1  0.92000258  0.58779613  0.17973982  1
  O2-  O475  1  0.90197712  0.57048785  0.50663668  1
  O2-  O476  1  0.90505798  0.57827848  0.86086928  1
  O2-  O477  1  0.90818550  0.82582523  0.18685047  1
  O2-  O478  1  0.90894940  0.82307653  0.52496008  1
  O2-  O479  1  0.90834717  0.82049807  0.86777834  1
  O2-  O480  1  0.15102817  0.06548705  0.32884678  1
  O2-  O481  1  0.16519195  0.08717907  0.64412425  1
  O2-  O482  1  0.17700970  0.10533673  0.95910804  1
  O2-  O483  1  0.15194067  0.32322063  0.31170371  1
  O2-  O484  1  0.11814091  0.32585791  0.63872621  1
  O2-  O485  1  0.16162002  0.32335280  0.98909348  1
  O2-  O486  1  0.17449848  0.58508824  0.30524673  1
  O2-  O487  1  0.16679362  0.61025791  0.63183746  1
  O2-  O488  1  0.16612260  0.57818460  0.99181713  1
  O2-  O489  1  0.17204142  0.83685229  0.32728865  1
  O2-  O490  1  0.17150432  0.83716869  0.70840257  1
  O2-  O491  1  0.16879415  0.82459154  0.97259072  1
  O2-  O492  1  0.42060679  0.08159232  0.31952188  1
  O2-  O493  1  0.42130877  0.09324332  0.64252272  1
  O2-  O494  1  0.42504626  0.05918460  0.97768236  1
  O2-  O495  1  0.38722596  0.31686356  0.31368859  1
  O2-  O496  1  0.40557872  0.31991339  0.64263148  1
  O2-  O497  1  0.38733727  0.32213012  0.97050100  1
  O2-  O498  1  0.41215097  0.57442418  0.31976406  1
  O2-  O499  1  0.41139472  0.58879357  0.63881300  1
  O2-  O500  1  0.40376353  0.57220066  0.97146275  1
  O2-  O501  1  0.40115549  0.81761329  0.30762933  1
  O2-  O502  1  0.40614495  0.83082215  0.64504022  1
  O2-  O503  1  0.43142148  0.82098305  0.95933950  1
  O2-  O504  1  0.68322571  0.09644765  0.30728615  1
  O2-  O505  1  0.66488466  0.07968036  0.64600926  1
  O2-  O506  1  0.67234788  0.08162635  0.97612245  1
  O2-  O507  1  0.70373761  0.33116259  0.30841697  1
  O2-  O508  1  0.65323714  0.33762636  0.63902151  1
  O2-  O509  1  0.68333867  0.33120897  0.97145544  1
  O2-  O510  1  0.67274223  0.59980481  0.30890787  1
  O2-  O511  1  0.64577397  0.58046662  0.64993850  1
  O2-  O512  1  0.64547443  0.55585129  0.96765076  1
  O2-  O513  1  0.67044010  0.84137446  0.32173438  1
  O2-  O514  1  0.68215608  0.84543190  0.62845567  1
  O2-  O515  1  0.66233386  0.83526776  0.97496835  1
  O2-  O516  1  0.91689904  0.07871663  0.31322291  1
  O2-  O517  1  0.91935909  0.06956263  0.64648034  1
  O2-  O518  1  0.90856180  0.07354897  0.97898421  1
  O2-  O519  1  0.94562808  0.33408509  0.32610366  1
  O2-  O520  1  0.95194717  0.29394617  0.62898984  1
  O2-  O521  1  0.90847824  0.33460504  0.97675908  1
  O2-  O522  1  0.95317204  0.65351065  0.28974032  1
  O2-  O523  1  0.93547022  0.60625732  0.63874622  1
  O2-  O524  1  0.92105913  0.58272559  0.98282490  1
  O2-  O525  1  0.91606936  0.83493805  0.30959907  1
  O2-  O526  1  0.90568719  0.81370853  0.64683607  1
  O2-  O527  1  0.92074902  0.82455000  0.97767250  1
  O2-  O528  1  0.07327631  0.15271741  0.01828443  1
  O2-  O529  1  0.07503805  0.16408227  0.35924296  1
  O2-  O530  1  0.08429061  0.16885088  0.68587139  1
  O2-  O531  1  0.07646710  0.40546122  0.00813551  1
  O2-  O532  1  0.03691289  0.38370837  0.34417657  1
  O2-  O533  1  0.19999108  0.44479419  0.72938780  1
  O2-  O534  1  0.08681406  0.66358627  0.01048690  1
  O2-  O535  1  0.09090428  0.66258415  0.35072125  1
  O2-  O536  1  0.10171409  0.70831284  0.63871238  1
  O2-  O537  1  0.07498843  0.89023782  0.01331371  1
  O2-  O538  1  0.07790273  0.91076785  0.36960281  1
  O2-  O539  1  0.07882776  0.91629873  0.69158832  1
  O2-  O540  1  0.34471944  0.15848970  0.01234941  1
  O2-  O541  1  0.34557965  0.16429624  0.37608559  1
  O2-  O542  1  0.33011505  0.16071249  0.68441932  1
  O2-  O543  1  0.32815687  0.41458891  0.02368854  1
  O2-  O544  1  0.31655637  0.40812613  0.35376891  1
  O2-  O545  1  0.34377399  0.42183534  0.68118160  1
  O2-  O546  1  0.32591945  0.65856462  0.00061354  1
  O2-  O547  1  0.32573649  0.65963572  0.35095808  1
  O2-  O548  1  0.31868792  0.65876506  0.68747448  1
  O2-  O549  1  0.33968884  0.89448070  0.00339151  1
  O2-  O550  1  0.33306785  0.91754784  0.35692790  1
  O2-  O551  1  0.34934907  0.93505574  0.69474570  1
  O2-  O552  1  0.59588965  0.16617840  0.00597635  1
  O2-  O553  1  0.58835450  0.16706021  0.35352741  1
  O2-  O554  1  0.59021621  0.17523526  0.68253215  1
  O2-  O555  1  0.59858085  0.40872507  0.02835415  1
  O2-  O556  1  0.54555652  0.38765310  0.35553406  1
  O2-  O557  1  0.56503500  0.41000871  0.68387947  1
  O2-  O558  1  0.56717941  0.65520609  0.00190747  1
  O2-  O559  1  0.57996414  0.67162209  0.35011955  1
  O2-  O560  1  0.57541888  0.67501643  0.68387913  1
  O2-  O561  1  0.55045391  0.92486958  0.07305311  1
  O2-  O562  1  0.58320277  0.91980922  0.32972287  1
  O2-  O563  1  0.57198599  0.90750669  0.69336813  1
  O2-  O564  1  0.83721607  0.16907851  0.02032595  1
  O2-  O565  1  0.84264299  0.16798605  0.35824176  1
  O2-  O566  1  0.83022680  0.14462600  0.68457490  1
  O2-  O567  1  0.84669166  0.42052749  0.03365985  1
  O2-  O568  1  0.86072199  0.40077124  0.35927224  1
  O2-  O569  1  0.79343500  0.48592059  0.68980466  1
  O2-  O570  1  0.85149250  0.67717186  0.02155126  1
  O2-  O571  1  0.83519723  0.67404112  0.35332305  1
  O2-  O572  1  0.80575632  0.64592555  0.69776208  1
  O2-  O573  1  0.83015241  0.91015803  0.02028646  1
  O2-  O574  1  0.83579822  0.91652213  0.35767488  1
  O2-  O575  1  0.85167220  0.91010153  0.69803947  1
