# generated using pymatgen
data_H2O
_symmetry_space_group_name_H-M   'P 1'
_cell_length_a   18.00173528
_cell_length_b   18.00342554
_cell_length_c   22.01687304
_cell_angle_alpha   89.99153407
_cell_angle_beta   89.98886620
_cell_angle_gamma   120.00590743
_symmetry_Int_Tables_number   1
_chemical_formula_structural   H2O
_chemical_formula_sum   'H384 O192'
_cell_volume   6179.16662796
_cell_formula_units_Z   192
loop_
 _symmetry_equiv_pos_site_id
 _symmetry_equiv_pos_as_xyz
  1  'x, y, z'
loop_
 _atom_type_symbol
 _atom_type_oxidation_number
  H+  1.0
  O2-  -2.0
loop_
 _atom_site_type_symbol
 _atom_site_label
 _atom_site_symmetry_multiplicity
 _atom_site_fract_x
 _atom_site_fract_y
 _atom_site_fract_z
 _atom_site_occupancy
  H+  H0  1  0.42402109  0.08325133  0.59332377  1
  H+  H1  1  0.88698103  0.76875114  0.31274062  1
  H+  H2  1  0.62222448  0.96960013  0.33462515  1
  H+  H3  1  0.77252779  0.38975987  0.34175590  1
  H+  H4  1  0.85797686  0.87211464  0.83221307  1
  H+  H5  1  0.89868351  0.50389697  0.66895035  1
  H+  H6  1  0.36351719  0.90841160  0.50134395  1
  H+  H7  1  0.08281878  0.49624896  0.20805193  1
  H+  H8  1  0.77047085  0.64889427  0.15897790  1
  H+  H9  1  0.39130678  0.77303106  0.85274989  1
  H+  H10  1  0.81213992  0.65440284  0.75820389  1
  H+  H11  1  0.14278671  0.77339215  0.66802006  1
  H+  H12  1  0.86466240  -0.02632513  0.16197164  1
  H+  H13  1  0.10886558  0.66465580  0.73791787  1
  H+  H14  1  0.71530495  0.35679573  0.82065422  1
  H+  H15  1  0.63034080  0.52910761  0.32466378  1
  H+  H16  1  0.14095458  0.62606913  0.86102967  1
  H+  H17  1  0.37616834  0.86099231  0.66120844  1
  H+  H18  1  0.14093230  0.10401724  0.83404163  1
  H+  H19  1  0.22785103  0.62949267  0.16388595  1
  H+  H20  1  0.52461156  0.13288348  0.16233227  1
  H+  H21  1  0.64437676  -0.00010316  0.64968306  1
  H+  H22  1  0.60367996  0.72177369  0.32556661  1
  H+  H23  1  0.97935544  0.35406000  0.33197283  1
  H+  H24  1  0.16266792  0.83905791  0.87971376  1
  H+  H25  1  0.96983662  0.36032039  0.83166737  1
  H+  H26  1  0.13402602  0.85883554  0.66706198  1
  H+  H27  1  0.14271931  0.27677523  0.66087812  1
  H+  H28  1  0.59833394  -0.08221971  0.77165618  1
  H+  H29  1  0.88743153  0.92727094  0.39240441  1
  H+  H30  1  0.40857769  0.53708306  0.99119975  1
  H+  H31  1  0.37069120  0.60319098  0.84572870  1
  H+  H32  1  0.77245325  0.64100989  0.33673360  1
  H+  H33  1  0.40204524  0.65384840  0.15320051  1
  H+  H34  1  0.39283470  0.52221668  0.32227457  1
  H+  H35  1  0.35184680  0.22412356  0.34679643  1
  H+  H36  1  0.47097190  0.07020357  0.88173281  1
  H+  H37  1  0.92017338  0.08573340  0.58001583  1
  H+  H38  1  0.57807130  0.41970664  0.72767522  1
  H+  H39  1  0.15876308  0.40219534  -0.01141017  1
  H+  H40  1  0.53814685  0.12388766  0.34165929  1
  H+  H41  1  0.38236593  0.25595918  0.50463039  1
  H+  H42  1  0.22350355  0.86526913  0.16998220  1
  H+  H43  1  0.86180557  0.38862768  0.16259541  1
  H+  H44  1  0.50215589  0.62392637  0.17012458  1
  H+  H45  1  0.22608941  0.09830199  0.83857805  1
  H+  H46  1  0.88231115  0.26980246  0.50986395  1
  H+  H47  1  0.83134069  0.91465544  0.09993145  1
  H+  H48  1  0.71851518  0.10898782  -0.02467272  1
  H+  H49  1  0.10345388  0.37552928  0.49087220  1
  H+  H50  1  0.61157729  0.63077893  0.32860250  1
  H+  H51  1  0.64481235  0.54672328  0.47524421  1
  H+  H52  1  0.14614790  0.86132660  0.33497917  1
  H+  H53  1  1.08888084  0.43387691  0.77775895  1
  H+  H54  1  0.71956111  0.61839380  0.68063108  1
  H+  H55  1  0.13848881  0.10547206  0.50849423  1
  H+  H56  1  0.13409206  0.02671707  0.33082171  1
  H+  H57  1  0.09462925  0.93165410  0.06559815  1
  H+  H58  1  0.89086150  0.85914916  0.31182771  1
  H+  H59  1  0.27139912  0.88283402  0.67415294  1
  H+  H60  1  0.02463136  0.13028019  0.50547267  1
  H+  H61  1  0.11325648  0.48262760  0.84298637  1
  H+  H62  1  0.90509753  0.63605825  0.00293708  1
  H+  H63  1  0.90168486  0.03431887  0.32590944  1
  H+  H64  1  0.10797879  0.88206587  0.49790931  1
  H+  H65  1  0.63950928  0.76300746  0.84532368  1
  H+  H66  1  0.86361220  0.89139085  0.01375063  1
  H+  H67  1  0.90051845  0.53236083  0.33531213  1
  H+  H68  1  0.16600866  0.57058992  0.38692838  1
  H+  H69  1  0.64514385  0.53313767  0.17816539  1
  H+  H70  1  0.11631732  0.88598508  0.15301264  1
  H+  H71  1  0.85071368  0.36057356  0.67143456  1
  H+  H72  1  0.15290789  0.61234198  0.65888920  1
  H+  H73  1  0.54205519  0.64027021  0.80078445  1
  H+  H74  1  0.66059471  0.66699235  0.52339107  1
  H+  H75  1  0.53361640  0.71269230  0.71353489  1
  H+  H76  1  0.94185159  0.71326288  0.45535539  1
  H+  H77  1  0.37872916  0.13209500  0.83042433  1
  H+  H78  1  0.12560880  0.50949022  0.50199029  1
  H+  H79  1  0.37661000  0.89975441  0.34748697  1
  H+  H80  1  0.61242306  0.98259849  0.04255764  1
  H+  H81  1  0.88465170  0.36029296  0.51112361  1
  H+  H82  1  0.86540863  0.60369960  0.16420105  1
  H+  H83  1  0.56601679  0.58667984  0.66149964  1
  H+  H84  1  0.77486630  0.38345650  0.49871791  1
  H+  H85  1  0.61363875  0.39920189  0.32706945  1
  H+  H86  1  0.87997954  0.10176553  0.17956009  1
  H+  H87  1  1.03885221  0.40386672  0.99615817  1
  H+  H88  1  0.55317661  0.67824973  -0.01118918  1
  H+  H89  1  0.27333301  0.21299023  0.72071748  1
  H+  H90  1  0.37961025  0.37687083  0.48001164  1
  H+  H91  1  0.60743536  0.22209933  1.01224069  1
  H+  H92  1  0.72141901  0.87336235  0.52263027  1
  H+  H93  1  0.88972892  0.60900135  0.80462001  1
  H+  H94  1  0.86086752  0.39913583  0.00499821  1
  H+  H95  1  0.63810080  0.02700422  0.16161737  1
  H+  H96  1  0.52797721  0.88480558  0.33858176  1
  H+  H97  1  0.89087175  0.74740738  0.49255992  1
  H+  H98  1  0.63341806  0.11261497  0.82896728  1
  H+  H99  1  1.01428416  0.37715648  0.49063699  1
  H+  H100  1  0.01289299  0.12505225  0.15390933  1
  H+  H101  1  0.40157194  0.00553784  0.83058633  1
  H+  H102  1  0.72487012  0.85200188  0.85119871  1
  H+  H103  1  0.10077625  0.46450803  0.34254532  1
  H+  H104  1  0.11202509  0.24239685  0.34830940  1
  H+  H105  1  0.87509671  0.86980204  0.16379911  1
  H+  H106  1  0.13101372  0.36128622  0.83655179  1
  H+  H107  1  0.24829451  0.65969821  0.19015148  1
  H+  H108  1  0.88015790  0.25235980  0.32896325  1
  H+  H109  1  0.59987252  0.38441295  0.81334073  1
  H+  H110  1  0.10613574  0.46852999  0.67469829  1
  H+  H111  1  0.28444390  0.39069963  0.33392181  1
  H+  H112  1  0.61252016  0.89448296  0.13702760  1
  H+  H113  1  0.02857497  0.88271029  0.33655907  1
  H+  H114  1  0.88861414  0.11498787  0.51959888  1
  H+  H115  1  0.22185665  0.10784539  0.65913525  1
  H+  H116  1  0.97455733  0.36169754  0.17893509  1
  H+  H117  1  0.82513889  0.15564561  1.02836397  1
  H+  H118  1  0.94973310  0.60217328  0.18192357  1
  H+  H119  1  0.39151507  0.81176467  0.50407419  1
  H+  H120  1  0.11024553  0.96942811  0.66916011  1
  H+  H121  1  0.92530957  0.58046434  0.75012909  1
  H+  H122  1  0.72462708  0.35483787  0.65785325  1
  H+  H123  1  0.78990949  0.66098307  0.00169137  1
  H+  H124  1  0.02680571  0.64005304  0.51500296  1
  H+  H125  1  0.85279032  0.46942273  0.80872206  1
  H+  H126  1  0.86714231  0.13755032  0.33415004  1
  H+  H127  1  0.52660832  0.12460998  0.80578556  1
  H+  H128  1  0.59713657  0.51495216  0.65758281  1
  H+  H129  1  0.35671573  0.45146893  0.48953876  1
  H+  H130  1  0.61180620  0.21842941  0.80322991  1
  H+  H131  1  0.48268117  0.85649507  0.84180115  1
  H+  H132  1  0.38845000  0.37072780  0.32097741  1
  H+  H133  1  0.64157683  0.62141685  0.17026602  1
  H+  H134  1  0.02234641  0.12427692  0.82102343  1
  H+  H135  1  0.85762336  0.72198435  0.81249491  1
  H+  H136  1  0.39591071  0.62046410  0.98540985  1
  H+  H137  1  1.01674485  0.88508521  0.66638062  1
  H+  H138  1  0.98431086  0.86291051  0.83844210  1
  H+  H139  1  0.27242346  0.12798596  0.49629099  1
  H+  H140  1  0.34065700  0.91622532  0.10992543  1
  H+  H141  1  0.36585393  0.63805458  0.33274123  1
  H+  H142  1  0.39424034  0.77964168  0.32887447  1
  H+  H143  1  0.61213263  0.87014926  0.82821105  1
  H+  H144  1  0.14970886  0.89273832  0.97246998  1
  H+  H145  1  0.41341595  0.35652344  0.17512274  1
  H+  H146  1  0.51046342  0.35056624  0.48465110  1
  H+  H147  1  0.37105453  0.39619530  0.67209652  1
  H+  H148  1  0.39022809  0.10584245  0.17898723  1
  H+  H149  1  0.38915299  0.01637393  0.17695259  1
  H+  H150  1  0.63826194  0.20126295  0.35509798  1
  H+  H151  1  0.58568516  0.92229595  0.43028346  1
  H+  H152  1  0.70612856  0.84701176  0.29938202  1
  H+  H153  1  0.65977922  0.64088255  0.98327175  1
  H+  H154  1  0.36557048  0.96857385  0.66932305  1
  H+  H155  1  0.77099100  0.13694288  0.51046836  1
  H+  H156  1  0.96157267  0.34153708  0.66615932  1
  H+  H157  1  0.36577456  0.96322234  0.01704614  1
  H+  H158  1  0.85978749  0.96260398  0.68126082  1
  H+  H159  1  0.63572388  0.11426075  0.17115832  1
  H+  H160  1  0.38176097  0.28105969  0.66258183  1
  H+  H161  1  0.63512026  0.41071911  0.01882102  1
  H+  H162  1  0.72769247  0.35922965  0.17156178  1
  H+  H163  1  0.79732131  0.90443855  0.36776994  1
  H+  H164  1  0.40830294  0.78488517  0.17336029  1
  H+  H165  1  0.88423303  0.00608278  0.83695622  1
  H+  H166  1  0.73263244  0.37135885  1.01285260  1
  H+  H167  1  0.14548816  0.36791365  0.32339917  1
  H+  H168  1  0.03556968  0.62901692  0.82247080  1
  H+  H169  1  0.48081937  0.36947185  0.32188837  1
  H+  H170  1  0.26565322  0.38350793  0.82283593  1
  H+  H171  1  0.76537016  0.09076283  0.69011233  1
  H+  H172  1  0.81524627  0.93844105  0.46035874  1
  H+  H173  1  0.85214636  0.20953540  0.83099809  1
  H+  H174  1  0.85697358  0.38324307  0.34319478  1
  H+  H175  1  0.84921054  0.37928668  0.82377264  1
  H+  H176  1  0.62109333  0.73767999  0.14684959  1
  H+  H177  1  0.10709076  0.21617855  0.82126252  1
  H+  H178  1  0.72527664  0.85221711  0.68688320  1
  H+  H179  1  0.28798234  0.64469548  -0.01038581  1
  H+  H180  1  0.11592678  0.84545648  0.82103327  1
  H+  H181  1  0.43423073  0.31021733  0.98741654  1
  H+  H182  1  0.37174511  0.21807371  0.83464127  1
  H+  H183  1  0.34345029  0.93184370  0.40411564  1
  H+  H184  1  0.62427483  0.85602618  0.31938555  1
  H+  H185  1  0.37287860  0.50979767  0.84174905  1
  H+  H186  1  0.81317324  0.66040690  0.65493242  1
  H+  H187  1  0.61317266  0.39343643  0.66851987  1
  H+  H188  1  0.65876518  0.61904057  0.59540262  1
  H+  H189  1  0.43618918  0.57009309  0.53563482  1
  H+  H190  1  0.37395924  0.25471153  0.18205351  1
  H+  H191  1  0.63277213  0.34285423  0.50144132  1
  H+  H192  1  0.76543745  0.13211846  0.17453302  1
  H+  H193  1  0.07135471  0.40130096  0.40023673  1
  H+  H194  1  0.11322120  0.63988535  0.50343436  1
  H+  H195  1  0.64091351  0.26005448  0.50862756  1
  H+  H196  1  0.36392205  0.88806931  0.17240338  1
  H+  H197  1  0.88981832  0.10235466  0.67153295  1
  H+  H198  1  0.15240137  0.64191181  -0.04241730  1
  H+  H199  1  0.65986788  0.55251707  0.99578783  1
  H+  H200  1  0.12288774  0.10160848  0.17087090  1
  H+  H201  1  0.89120900  0.61284007  0.52010816  1
  H+  H202  1  1.02592977  0.88650107  0.14967985  1
  H+  H203  1  0.38499472  0.03074335  0.50783892  1
  H+  H204  1  0.37587296  0.88099956  1.02077583  1
  H+  H205  1  0.40161079  0.10815808  0.65777171  1
  H+  H206  1  0.60642204  0.47564292  0.82353500  1
  H+  H207  1  0.35405834  0.56960419  0.51257704  1
  H+  H208  1  0.87408480  0.76902568  0.16121317  1
  H+  H209  1  0.62061589  0.74022366  0.49419608  1
  H+  H210  1  0.32195093  0.18596643  0.99711635  1
  H+  H211  1  0.11481356  0.13285028  0.66591882  1
  H+  H212  1  0.37655625  0.88474105  0.82961517  1
  H+  H213  1  0.98993052  0.89095707  1.00082427  1
  H+  H214  1  0.62170959  0.23952237  0.65983733  1
  H+  H215  1  0.18505250  0.05352432  1.00493353  1
  H+  H216  1  0.88151153  0.09391206  0.83845488  1
  H+  H217  1  0.66716430  0.33902437  0.25966224  1
  H+  H218  1  0.32567629  0.40488315  0.16249850  1
  H+  H219  1  0.90329736  0.54713718  1.00445076  1
  H+  H220  1  0.06976594  0.91225579  0.76001019  1
  H+  H221  1  0.48714704  0.88793435  0.50484628  1
  H+  H222  1  0.15312110  0.48134033  0.14203469  1
  H+  H223  1  0.37287517  0.09533234  0.99647532  1
  H+  H224  1  0.39093567  0.12181763  0.50806135  1
  H+  H225  1  0.10807322  0.97098001  0.82111766  1
  H+  H226  1  0.41238286  0.03757148  0.33202515  1
  H+  H227  1  0.19604757  0.33555389  0.16373726  1
  H+  H228  1  0.26014982  0.13893672  0.34626040  1
  H+  H229  1  0.64609068  0.13172603  0.53045624  1
  H+  H230  1  0.89970986  0.78754465  0.66204000  1
  H+  H231  1  0.24591472  0.13135167  0.15827821  1
  H+  H232  1  0.60695633  0.88545486  0.48982855  1
  H+  H233  1  0.90155697  0.61984242  0.32794640  1
  H+  H234  1  0.92207109  0.33338889  1.03492503  1
  H+  H235  1  0.13096897  0.27204001  0.51106650  1
  H+  H236  1  0.72706664  0.60483927  0.83513914  1
  H+  H237  1  0.07108626  0.61403416  0.20059845  1
  H+  H238  1  0.88431151  0.86451910  0.51639771  1
  H+  H239  1  0.11050167  0.23607026  1.00405227  1
  H+  H240  1  0.47494656  0.36395542  0.65622680  1
  H+  H241  1  0.76646663  0.87155542  0.01543715  1
  H+  H242  1  0.61834138  0.99603230  0.53631565  1
  H+  H243  1  0.26601960  0.63258175  0.85229773  1
  H+  H244  1  0.10924301  0.25051755  0.16938040  1
  H+  H245  1  0.86103595  -0.01192612  0.51909143  1
  H+  H246  1  0.15324012  0.80751630  0.96985007  1
  H+  H247  1  -0.01835784  0.10762989  0.66470038  1
  H+  H248  1  0.67066684  0.93845454  0.68084274  1
  H+  H249  1  0.03915292  0.64181397  0.33845777  1
  H+  H250  1  0.37909884  0.72885817  -0.00015732  1
  H+  H251  1  -0.01845353  0.12978994  0.32834102  1
  H+  H252  1  0.10708610  0.38241739  0.68069791  1
  H+  H253  1  0.13277764  0.77863098  0.18024134  1
  H+  H254  1  0.53035737  0.13642870  0.65659855  1
  H+  H255  1  0.64320503  0.09548766  0.32761605  1
  H+  H256  1  0.26874821  0.89665583  0.49919234  1
  H+  H257  1  0.04049779  0.66100263  -0.00626973  1
  H+  H258  1  0.36174605  0.68676104  0.49134135  1
  H+  H259  1  0.49055038  0.86136955  1.00646619  1
  H+  H260  1  0.88468389  0.02240887  0.99092157  1
  H+  H261  1  0.93240808  0.78341689  0.88333935  1
  H+  H262  1  0.88605542  0.52207649  0.52011925  1
  H+  H263  1  0.04346401  0.62876208  0.68249542  1
  H+  H264  1  0.86609688  0.87652844  0.67396520  1
  H+  H265  1  0.21743007  0.59353504  0.49982588  1
  H+  H266  1  0.32796308  0.17441456  0.74452175  1
  H+  H267  1  0.61433742  0.28798424  0.31757852  1
  H+  H268  1  0.42156687  0.53087146  0.17034862  1
  H+  H269  1  0.73478898  0.63905137  0.54209897  1
  H+  H270  1  0.38011310  0.76451701  0.64899136  1
  H+  H271  1  0.72471675  0.10786336  0.83862131  1
  H+  H272  1  0.11293680  0.38365415  0.15900440  1
  H+  H273  1  0.72100547  0.86794122  0.16563508  1
  H+  H274  1  0.55580469  0.42619333  0.02155082  1
  H+  H275  1  0.28393143  0.63570872  0.65306234  1
  H+  H276  1  0.52354406  0.13074457  0.49864113  1
  H+  H277  1  0.59835891  0.67971335  0.08843919  1
  H+  H278  1  0.22796077  0.36893842  0.66127837  1
  H+  H279  1  0.87783988  0.75010857  0.01019017  1
  H+  H280  1  0.62552719  0.39946656  0.17013884  1
  H+  H281  1  0.13559827  0.01483606  0.50527800  1
  H+  H282  1  0.56180187  0.64419260  0.46703650  1
  H+  H283  1  0.60341283  0.53141703  0.49290153  1
  H+  H284  1  0.37662140  0.35543882  0.83687735  1
  H+  H285  1  0.13880659  0.77661520  0.51552981  1
  H+  H286  1  0.45925341  0.62070158  0.63390060  1
  H+  H287  1  0.36505179  0.38609210  0.00360251  1
  H+  H288  1  0.07857012  0.91122778  0.40017765  1
  H+  H289  1  0.91348562  0.83366243  0.22333097  1
  H+  H290  1  0.85296319  0.47449063  0.15831154  1
  H+  H291  1  0.63625107  0.27129552  0.17289965  1
  H+  H292  1  0.83556320  0.41906818  0.44087421  1
  H+  H293  1  0.58171381  0.16071945  0.10195437  1
  H+  H294  1  0.92194684  0.07718531  0.23287491  1
  H+  H295  1  0.01942366  0.88433190  0.49960944  1
  H+  H296  1  0.34468747  0.91183294  0.76887598  1
  H+  H297  1  0.35014507  0.41830935  0.39214451  1
  H+  H298  1  0.65374926  0.08080463  0.89886426  1
  H+  H299  1  0.37807998  0.66213609  0.68469865  1
  H+  H300  1  0.08174009  0.16255393  0.44564707  1
  H+  H301  1  0.92676853  0.58056622  0.62346698  1
  H+  H302  1  0.39268550  0.05967901  0.93800520  1
  H+  H303  1  0.27583963  0.63721800  0.34132006  1
  H+  H304  1  0.83675474  0.42227775  0.07013616  1
  H+  H305  1  0.84040740  0.67763420  0.39194021  1
  H+  H306  1  0.33409084  0.42026710  0.76738542  1
  H+  H307  1  0.41549194  0.32411382  0.25496816  1
  H+  H308  1  0.08776271  0.16175161  0.72736735  1
  H+  H309  1  0.66360114  0.59120867  0.26485285  1
  H+  H310  1  0.91445630  0.33488663  0.88997221  1
  H+  H311  1  0.07641614  0.16480921  0.09571151  1
  H+  H312  1  0.36908754  0.68089219  0.09470555  1
  H+  H313  1  0.88703407  0.27065828  0.18240090  1
  H+  H314  1  0.04056443  0.23229573  0.39255885  1
  H+  H315  1  0.83476649  0.16226398  0.12270751  1
  H+  H316  1  0.66911852  0.07293608  0.26257993  1
  H+  H317  1  0.81929885  0.39376901  0.72873164  1
  H+  H318  1  0.42722693  0.84166811  0.27096065  1
  H+  H319  1  0.65763020  0.79725265  0.94215296  1
  H+  H320  1  0.77554257  0.13369010  0.33108196  1
  H+  H321  1  0.88583653  0.27037885  0.98137503  1
  H+  H322  1  0.83886184  0.19231731  0.67891680  1
  H+  H323  1  0.91775023  0.06976243  0.92595763  1
  H+  H324  1  0.63108150  0.11214426  0.98674035  1
  H+  H325  1  0.90742294  0.31486222  0.60504317  1
  H+  H326  1  0.10890167  0.54823661  0.26936187  1
  H+  H327  1  0.23327436  0.44237393  0.94172871  1
  H+  H328  1  0.41849716  0.32393430  0.56081970  1
  H+  H329  1  0.23782517  0.86832845  0.33602133  1
  H+  H330  1  0.92889284  0.86241497  0.94288646  1
  H+  H331  1  0.81810954  0.15346850  0.44545038  1
  H+  H332  1  0.16827573  0.07533979  0.59647060  1
  H+  H333  1  0.13342581  0.73461508  0.33889993  1
  H+  H334  1  0.30971579  0.13931839  0.06033864  1
  H+  H335  1  0.38313265  0.48877000  0.68194644  1
  H+  H336  1  0.42822395  0.58405575  0.26233223  1
  H+  H337  1  0.64652473  0.83252194  0.21580437  1
  H+  H338  1  0.58739083  0.14627379  0.44245185  1
  H+  H339  1  0.57518930  0.40728689  0.38984335  1
  H+  H340  1  0.16900022  0.83946220  0.57259218  1
  H+  H341  1  0.13531592  0.62932863  0.34387322  1
  H+  H342  1  0.48319816  0.87919863  0.17071898  1
  H+  H343  1  0.12430999  0.70600925  0.03527010  1
  H+  H344  1  0.11747132  0.72643528  0.82944503  1
  H+  H345  1  0.64506972  0.84208159  0.57050842  1
  H+  H346  1  0.43956145  0.84054949  0.94193253  1
  H+  H347  1  0.62217376  0.63308615  0.82381453  1
  H+  H348  1  0.06954311  0.64454906  0.13429847  1
  H+  H349  1  0.42198462  0.84796662  0.59868978  1
  H+  H350  1  0.31257279  0.65495237  0.78847383  1
  H+  H351  1  0.59161974  0.16411532  0.71809938  1
  H+  H352  1  0.67226514  0.58236613  0.89617143  1
  H+  H353  1  0.83013298  0.89962854  0.77109212  1
  H+  H354  1  0.46854856  0.36227597  0.83761461  1
  H+  H355  1  0.36804396  0.42414952  0.09713711  1
  H+  H356  1  0.02528873  0.14584451  0.00023767  1
  H+  H357  1  0.44612700  0.09152943  0.27102407  1
  H+  H358  1  0.33295267  0.64731306  0.42512558  1
  H+  H359  1  0.91768405  0.32656893  0.26871316  1
  H+  H360  1  0.16903760  0.57452090  0.59705049  1
  H+  H361  1  0.15925993  0.33803132  0.56532772  1
  H+  H362  1  0.29182317  0.40983727  0.00992684  1
  H+  H363  1  0.64906455  0.78324012  0.64833516  1
  H+  H364  1  0.66466444  0.32783130  0.59733732  1
  H+  H365  1  0.51050298  0.62625215  0.32876442  1
  H+  H366  1  0.59919941  0.43585013  0.48059877  1
  H+  H367  1  0.82172478  0.14597131  0.77395178  1
  H+  H368  1  0.16389577  0.32966302  0.89147147  1
  H+  H369  1  0.12973023  0.01577706  0.17048891  1
  H+  H370  1  0.16084378  0.08361801  0.27217400  1
  H+  H371  1  0.60739415  0.43974242  0.11255188  1
  H+  H372  1  0.63760230  0.31168441  0.86773480  1
  H+  H373  1  0.08736062  0.42540121  0.05963666  1
  H+  H374  1  0.83110349  0.67988554  0.09715495  1
  H+  H375  1  0.91541035  0.83577855  0.57834817  1
  H+  H376  1  0.39019583  0.31289511  0.92670347  1
  H+  H377  1  0.28283075  0.21143835  0.11548867  1
  H+  H378  1  0.67128768  0.34394647  0.95708630  1
  H+  H379  1  0.41464575  0.57804534  0.90650043  1
  H+  H380  1  0.51903011  0.13193230  0.00539462  1
  H+  H381  1  0.86321563  0.12806269  -0.02460348  1
  H+  H382  1  0.32792528  0.16165341  0.43438770  1
  H+  H383  1  0.16691323  0.32911671  0.26549290  1
  O2-  O384  1  0.07443548  0.15947365  0.14158052  1
  O2-  O385  1  0.08494349  0.15856377  0.49022583  1
  O2-  O386  1  0.08232661  0.15694707  0.80539522  1
  O2-  O387  1  0.09794844  0.42784095  0.14496669  1
  O2-  O388  1  0.07280027  0.40497006  0.47168773  1
  O2-  O389  1  0.08482150  0.42565315  0.82275434  1
  O2-  O390  1  0.06378194  0.65747108  0.17637218  1
  O2-  O391  1  0.08529671  0.67473069  0.49819298  1
  O2-  O392  1  0.09899170  0.66141044  0.82139863  1
  O2-  O393  1  0.08654175  0.91967520  0.13770595  1
  O2-  O394  1  0.07752769  0.91097397  0.48035354  1
  O2-  O395  1  0.06973982  0.91041913  0.80569295  1
  O2-  O396  1  0.30190664  0.17605971  0.13645585  1
  O2-  O397  1  0.33292003  0.16053732  0.48085240  1
  O2-  O398  1  0.34513037  0.15902653  0.81746731  1
  O2-  O399  1  0.38049309  0.42471194  0.14219617  1
  O2-  O400  1  0.36007516  0.41304687  0.45899195  1
  O2-  O401  1  0.32867609  0.41684152  0.81315306  1
  O2-  O402  1  0.39382122  0.69946011  0.13545401  1
  O2-  O403  1  0.32407124  0.63338426  0.47038647  1
  O2-  O404  1  0.32446324  0.65516323  0.83170257  1
  O2-  O405  1  0.33624113  0.91989535  0.15601716  1
  O2-  O406  1  0.32942434  0.93211190  0.48335208  1
  O2-  O407  1  0.35326022  0.92089851  0.81315698  1
  O2-  O408  1  0.58557131  0.16456395  0.14713192  1
  O2-  O409  1  0.58545419  0.15623995  0.48688398  1
  O2-  O410  1  0.58822688  0.15716075  0.79021756  1
  O2-  O411  1  0.60176126  0.43628196  0.15721195  1
  O2-  O412  1  0.56986827  0.37713177  0.46457066  1
  O2-  O413  1  0.57008040  0.41705908  0.80463903  1
  O2-  O414  1  0.59716776  0.67671156  0.13340298  1
  O2-  O415  1  0.61976199  0.68717234  0.47927470  1
  O2-  O416  1  0.60413349  0.67269235  0.80619646  1
  O2-  O417  1  0.58596356  0.92970069  0.12383411  1
  O2-  O418  1  0.58053437  0.91947170  0.47565282  1
  O2-  O419  1  0.57710791  0.89423459  0.81205619  1
  O2-  O420  1  0.83062931  0.16305642  0.16676177  1
  O2-  O421  1  0.82799346  0.15948326  0.48948334  1
  O2-  O422  1  0.81902056  0.14774618  0.82012742  1
  O2-  O423  1  0.82803096  0.41175636  0.14353067  1
  O2-  O424  1  0.83630442  0.41735092  0.48605711  1
  O2-  O425  1  0.81563365  0.40490484  0.80714596  1
  O2-  O426  1  0.83127136  0.68227061  0.14321981  1
  O2-  O427  1  0.88343289  0.69539411  0.46868738  1
  O2-  O428  1  0.82729326  0.66029329  0.80253246  1
  O2-  O429  1  0.83288727  0.91245995  0.14663622  1
  O2-  O430  1  0.82306358  0.92671532  0.50231631  1
  O2-  O431  1  0.82895018  0.90242470  0.81698185  1
  O2-  O432  1  0.15706404  0.07617147  0.18673061  1
  O2-  O433  1  0.16933308  0.07484519  0.52163166  1
  O2-  O434  1  0.16463265  0.06816491  0.84875684  1
  O2-  O435  1  0.14130334  0.31322281  0.18470198  1
  O2-  O436  1  0.15315137  0.33334150  0.52052337  1
  O2-  O437  1  0.16008404  0.32774796  0.84668768  1
  O2-  O438  1  0.06698047  0.52852105  0.23586157  1
  O2-  O439  1  0.15946176  0.56952196  0.51774143  1
  O2-  O440  1  0.17143164  0.59341660  0.88003880  1
  O2-  O441  1  0.16090542  0.84137413  0.17610061  1
  O2-  O442  1  0.16871798  0.83959596  0.52728465  1
  O2-  O443  1  0.14738612  0.81733706  0.83685112  1
  O2-  O444  1  0.42431567  0.07966662  0.19030253  1
  O2-  O445  1  0.42138143  0.09103244  0.52391172  1
  O2-  O446  1  0.43963418  0.07238109  0.84612107  1
  O2-  O447  1  0.41762535  0.31193233  0.19929843  1
  O2-  O448  1  0.42044614  0.31902558  0.51590049  1
  O2-  O449  1  0.40822246  0.32722478  0.85294115  1
  O2-  O450  1  0.44369989  0.58844574  0.18858539  1
  O2-  O451  1  0.37407245  0.53936801  0.54006164  1
  O2-  O452  1  0.40329211  0.57197752  0.85801683  1
  O2-  O453  1  0.42892878  0.84293343  0.19250263  1
  O2-  O454  1  0.42874105  0.86543220  0.52504688  1
  O2-  O455  1  0.42553358  0.83444238  0.86308691  1
  O2-  O456  1  0.66603758  0.08233462  0.18458450  1
  O2-  O457  1  0.68553752  0.11810741  0.55456458  1
  O2-  O458  1  0.66091999  0.08309160  0.85146866  1
  O2-  O459  1  0.66787186  0.33142112  0.18867430  1
  O2-  O460  1  0.66764761  0.32138559  0.52236115  1
  O2-  O461  1  0.64992073  0.32168982  0.82451173  1
  O2-  O462  1  0.67289330  0.59611205  0.19135941  1
  O2-  O463  1  0.69825936  0.65988419  0.55921600  1
  O2-  O464  1  0.66689390  0.57429374  0.85111417  1
  O2-  O465  1  0.65771046  0.83930253  0.17143244  1
  O2-  O466  1  0.65686228  0.83747725  0.52767587  1
  O2-  O467  1  0.66512397  0.81970081  0.86715028  1
  O2-  O468  1  0.91309724  0.07206971  0.18773669  1
  O2-  O469  1  0.91915739  0.08476116  0.53365663  1
  O2-  O470  1  0.91615515  0.06770675  0.85107495  1
  O2-  O471  1  0.91692368  0.33171449  0.19710899  1
  O2-  O472  1  0.91491048  0.32955542  0.52556316  1
  O2-  O473  1  0.90892412  0.32730079  0.84597523  1
  O2-  O474  1  0.88640859  0.56596021  0.17911598  1
  O2-  O475  1  0.91405162  0.57943154  0.54019385  1
  O2-  O476  1  0.91844919  0.57529427  0.79479047  1
  O2-  O477  1  0.90791336  0.83477680  0.17686832  1
  O2-  O478  1  0.91438804  0.83409085  0.52905849  1
  O2-  O479  1  0.92601479  0.82668770  0.86093887  1
  O2-  O480  1  0.15957673  0.08698732  0.31684513  1
  O2-  O481  1  0.16339960  0.07537564  0.64220436  1
  O2-  O482  1  0.12219445  0.02810803  1.00944364  1
  O2-  O483  1  0.17673424  0.33828964  0.30991394  1
  O2-  O484  1  0.16721128  0.33803129  0.64848281  1
  O2-  O485  1  0.20320357  0.39150340  0.96739893  1
  O2-  O486  1  0.16741223  0.58052576  0.34319491  1
  O2-  O487  1  0.17927308  0.57909799  0.64197309  1
  O2-  O488  1  0.18343147  0.61009043  0.94627408  1
  O2-  O489  1  0.17724309  0.83094148  0.32376538  1
  O2-  O490  1  0.17044477  0.83393107  0.65331984  1
  O2-  O491  1  0.17908243  0.86574042  0.95249762  1
  O2-  O492  1  0.45483260  0.09536927  0.31564503  1
  O2-  O493  1  0.43006295  0.07924268  0.63994443  1
  O2-  O494  1  0.41070005  0.07341150  0.98038299  1
  O2-  O495  1  0.41861616  0.33718037  0.30741112  1
  O2-  O496  1  0.41450972  0.33726569  0.64142154  1
  O2-  O497  1  0.38051737  0.30391361  0.97217243  1
  O2-  O498  1  0.42451428  0.58416976  0.30829874  1
  O2-  O499  1  0.47756188  0.60207596  0.67046494  1
  O2-  O500  1  0.43033020  0.59271682  0.96954021  1
  O2-  O501  1  0.42819351  0.84101070  0.31657316  1
  O2-  O502  1  0.41039767  0.83316179  0.64328788  1
  O2-  O503  1  0.43351896  0.83229817  0.98702237  1
  O2-  O504  1  0.67704344  0.07121472  0.30745856  1
  O2-  O505  1  0.62567903  0.02938982  0.57404165  1
  O2-  O506  1  0.65576291  0.07893797  0.96703722  1
  O2-  O507  1  0.66314483  0.34321240  0.30599514  1
  O2-  O508  1  0.66257429  0.32656632  0.64341443  1
  O2-  O509  1  0.66881642  0.33970536  1.00120414  1
  O2-  O510  1  0.65992164  0.59063335  0.31112157  1
  O2-  O511  1  0.61340675  0.57647395  0.64878278  1
  O2-  O512  1  0.68792886  0.60706503  0.97234490  1
  O2-  O513  1  0.64375665  0.81820693  0.29683636  1
  O2-  O514  1  0.66191946  0.82799000  0.67806203  1
  O2-  O515  1  0.65639174  0.79455862  0.98849554  1
  O2-  O516  1  0.92408004  0.09234191  0.30855211  1
  O2-  O517  1  0.91970298  0.07441845  0.65209316  1
  O2-  O518  1  0.91545170  0.07955782  0.97106908  1
  O2-  O519  1  0.91596694  0.32076831  0.31522926  1
  O2-  O520  1  0.90199020  0.30831106  0.65026319  1
  O2-  O521  1  0.91596430  0.33346262  0.99075730  1
  O2-  O522  1  0.93615389  0.59213080  0.32174283  1
  O2-  O523  1  0.93480458  0.56746226  0.66594820  1
  O2-  O524  1  0.93712483  0.60696227  0.99057730  1
  O2-  O525  1  0.91851124  0.82853124  0.29465610  1
  O2-  O526  1  0.91884903  0.84306067  0.64324175  1
  O2-  O527  1  0.92777478  0.85866766  0.98772350  1
  O2-  O528  1  0.08074681  0.17901399  0.02185732  1
  O2-  O529  1  0.06195671  0.19839972  0.37230383  1
  O2-  O530  1  0.08828147  0.16633162  0.68196523  1
  O2-  O531  1  0.09573566  0.43038426  0.01528444  1
  O2-  O532  1  0.07059534  0.40179800  0.35327943  1
  O2-  O533  1  0.07601315  0.41202322  0.69547820  1
  O2-  O534  1  0.10584712  0.69409817  -0.00692007  1
  O2-  O535  1  0.10169450  0.67044976  0.35000841  1
  O2-  O536  1  0.10570287  0.66556949  0.69273771  1
  O2-  O537  1  0.09290800  0.93654800  0.01932121  1
  O2-  O538  1  0.08582891  0.91520774  0.35510977  1
  O2-  O539  1  0.07730514  0.90916583  0.68402698  1
  O2-  O540  1  0.30537260  0.12978566  0.01575743  1
  O2-  O541  1  0.31958849  0.16640174  0.36391655  1
  O2-  O542  1  0.31015253  0.19136131  0.70591872  1
  O2-  O543  1  0.35162927  0.42778513  0.02355772  1
  O2-  O544  1  0.34654958  0.42104078  0.34497524  1
  O2-  O545  1  0.34406936  0.42753349  0.69126121  1
  O2-  O546  1  0.34512146  0.66491974  0.00799564  1
  O2-  O547  1  0.33910075  0.66848056  0.35249362  1
  O2-  O548  1  0.34853581  0.67606904  0.65285005  1
  O2-  O549  1  0.34545289  0.90871489  0.03876993  1
  O2-  O550  1  0.34904643  0.93358079  0.35904967  1
  O2-  O551  1  0.33456030  0.90901224  0.68528604  1
  O2-  O552  1  0.57930583  0.15971501  0.02083368  1
  O2-  O553  1  0.59743794  0.14128019  0.36408680  1
  O2-  O554  1  0.59200013  0.17209921  0.67212104  1
  O2-  O555  1  0.61648823  0.45254759  0.03151067  1
  O2-  O556  1  0.57847480  0.42252362  0.34555441  1
  O2-  O557  1  0.57942136  0.42033465  0.68192432  1
  O2-  O558  1  0.61263800  0.70209831  0.00456888  1
  O2-  O559  1  0.57656485  0.66143603  0.34265011  1
  O2-  O560  1  0.47615686  0.66040125  0.71792666  1
  O2-  O561  1  0.58756440  0.92276087  0.05668142  1
  O2-  O562  1  0.58998199  0.91022666  0.35238331  1
  O2-  O563  1  0.66828175  0.99130477  0.68785604  1
  O2-  O564  1  0.83075702  0.16070859  -0.01566027  1
  O2-  O565  1  0.83626606  0.16844239  0.34777797  1
  O2-  O566  1  0.82404769  0.13857547  0.70098070  1
  O2-  O567  1  0.83214192  0.42730178  0.02453792  1
  O2-  O568  1  0.83071674  0.41545590  0.35957995  1
  O2-  O569  1  0.82227713  0.39461026  0.68345208  1
  O2-  O570  1  0.84626116  0.68892117  0.02349461  1
  O2-  O571  1  0.83443339  0.67375933  0.34693632  1
  O2-  O572  1  0.77669013  0.62521669  0.68798496  1
  O2-  O573  1  0.82554996  0.91373469  0.02904054  1
  O2-  O574  1  0.85706216  0.92723276  0.35554277  1
  O2-  O575  1  0.83123792  0.90204005  0.69509505  1
