# generated using pymatgen
data_H2O
_symmetry_space_group_name_H-M   'P 1'
_cell_length_a   17.98314476
_cell_length_b   17.98698013
_cell_length_c   22.00019467
_cell_angle_alpha   90.03903060
_cell_angle_beta   89.96559552
_cell_angle_gamma   120.00291753
_symmetry_Int_Tables_number   1
_chemical_formula_structural   H2O
_chemical_formula_sum   'H384 O192'
_cell_volume   6162.65934220
_cell_formula_units_Z   192
loop_
 _symmetry_equiv_pos_site_id
 _symmetry_equiv_pos_as_xyz
  1  'x, y, z'
loop_
 _atom_type_symbol
 _atom_type_oxidation_number
  H+  1.0
  O2-  -2.0
loop_
 _atom_site_type_symbol
 _atom_site_label
 _atom_site_symmetry_multiplicity
 _atom_site_fract_x
 _atom_site_fract_y
 _atom_site_fract_z
 _atom_site_occupancy
  H+  H0  1  0.27231078  0.13912090  0.35465700  1
  H+  H1  1  0.53431224  0.40090983  0.83242481  1
  H+  H2  1  0.62651124  0.14268711  0.49245345  1
  H+  H3  1  0.37882031  0.12689597  0.80486344  1
  H+  H4  1  0.27440145  0.63493352  0.50843128  1
  H+  H5  1  0.95632756  0.28138493  0.75212643  1
  H+  H6  1  0.36213416  0.24212831  0.82820025  1
  H+  H7  1  0.01867194  0.38195192  0.01303837  1
  H+  H8  1  0.85590918  0.62107967  0.48561657  1
  H+  H9  1  0.10844628  0.63251318  0.00607609  1
  H+  H10  1  0.62350596  0.13723181  0.33875966  1
  H+  H11  1  0.27995642  0.67279525  0.33603114  1
  H+  H12  1  0.50943579  0.63320771  0.15352062  1
  H+  H13  1  0.23203346  0.36343880  0.64907515  1
  H+  H14  1  0.77261700  0.63672625  0.82119768  1
  H+  H15  1  0.24768922  0.36024792  0.85265388  1
  H+  H16  1  0.88418462  0.51941444  0.17222182  1
  H+  H17  1  0.13511056  0.11422011  0.84054938  1
  H+  H18  1  0.12736397  0.76730499  0.99266769  1
  H+  H19  1  0.66258392  0.33044920  0.55906519  1
  H+  H20  1  0.42271439  0.33957998  0.90448069  1
  H+  H21  1  0.82301232  0.40013013  0.76669114  1
  H+  H22  1  -0.02507583  0.10574600  0.16922364  1
  H+  H23  1  0.85798967  0.47794809  1.00710685  1
  H+  H24  1  0.59835491  0.63838120  0.00770550  1
  H+  H25  1  0.86316985  0.89025308  0.48704348  1
  H+  H26  1  -0.03546980  0.11415948  0.49959079  1
  H+  H27  1  0.12768159  0.60517781  0.17038977  1
  H+  H28  1  0.72553598  0.36357330  0.65681281  1
  H+  H29  1  0.64556816  0.76582624  0.82494707  1
  H+  H30  1  0.52233343  0.90099285  0.52535758  1
  H+  H31  1  0.61881926  0.88348430  0.30624830  1
  H+  H32  1  0.64150166  0.78398991  0.65499403  1
  H+  H33  1  0.50782360  0.13844776  0.81387600  1
  H+  H34  1  0.60840638  0.47313852  0.01713583  1
  H+  H35  1  0.39456888  0.12060976  0.67271098  1
  H+  H36  1  0.62553149  0.27482657  0.84131269  1
  H+  H37  1  0.13448536  0.86610760  0.33158032  1
  H+  H38  1  0.97787574  0.85921851  0.32415512  1
  H+  H39  1  0.11880992  -0.01545511  1.00484437  1
  H+  H40  1  0.72629537  0.85937357  0.82971277  1
  H+  H41  1  0.62784011  0.49327187  0.82775352  1
  H+  H42  1  0.11000015  0.68005196  0.73055939  1
  H+  H43  1  0.89226418  0.02113909  0.32255846  1
  H+  H44  1  0.13420296  0.35593472  0.00086699  1
  H+  H45  1  0.53936781  0.48318858  0.70887921  1
  H+  H46  1  0.40301400  0.38127686  0.84707979  1
  H+  H47  1  0.10704134  0.22427038  0.16194984  1
  H+  H48  1  0.63436001  0.36892343  0.83882097  1
  H+  H49  1  0.10971635  0.88392388  0.67598412  1
  H+  H50  1  0.15864940  0.05023410  0.52529581  1
  H+  H51  1  0.08667149  0.42087338  0.55149860  1
  H+  H52  1  0.56192829  0.92338824  0.63121626  1
  H+  H53  1  0.37092404  0.62507008  0.84411493  1
  H+  H54  1  0.36846800  0.63776108  0.66975368  1
  H+  H55  1  0.35101464  0.63271172  0.01691304  1
  H+  H56  1  0.15740715  0.07223606  0.23727450  1
  H+  H57  1  0.53665799  0.89013597  0.32311062  1
  H+  H58  1  0.65151299  0.53608301  0.17672389  1
  H+  H59  1  0.13699958  0.86296959  0.84013031  1
  H+  H60  1  0.14745380  0.78061693  0.50744268  1
  H+  H61  1  0.23902011  0.86932755  0.50631298  1
  H+  H62  1  0.63566774  0.61067097  0.32611942  1
  H+  H63  1  0.87397544  0.88994327  0.82490067  1
  H+  H64  1  0.33904626  0.36430717  0.16505839  1
  H+  H65  1  0.57686886  0.29039896  0.19163342  1
  H+  H66  1  0.98696759  0.61882586  0.67742264  1
  H+  H67  1  0.27047797  0.15208850  0.82670537  1
  H+  H68  1  0.87016968  0.65346300  0.66763472  1
  H+  H69  1  0.21532620  0.60287028  0.17462908  1
  H+  H70  1  0.23214830  0.61732700  0.65846880  1
  H+  H71  1  0.88193994  0.89567871  0.67496617  1
  H+  H72  1  0.60812499  0.22557858  0.00384153  1
  H+  H73  1  0.77054095  0.89211965  0.01604572  1
  H+  H74  1  0.37650239  0.85267611  0.99092128  1
  H+  H75  1  -0.00889063  0.38045885  0.16726633  1
  H+  H76  1  0.47768530  0.09922788  0.17358721  1
  H+  H77  1  0.86075919  0.38468265  0.48677726  1
  H+  H78  1  0.48746463  0.36749204  0.50363142  1
  H+  H79  1  0.88690766  0.10413774  0.85293975  1
  H+  H80  1  0.21384190  0.58344720  0.84487075  1
  H+  H81  1  0.13426301  0.53135782  0.50465982  1
  H+  H82  1  0.86002145  0.38947629  0.01035703  1
  H+  H83  1  0.13594049  0.26725740  1.00254962  1
  H+  H84  1  0.37322269  0.60405529  0.17541485  1
  H+  H85  1  0.38377539  0.88277047  0.49396150  1
  H+  H86  1  0.35463779  0.72151099  0.17088999  1
  H+  H87  1  0.37914467  0.69963380  0.32789995  1
  H+  H88  1  0.86323401  0.46893201  0.67281056  1
  H+  H89  1  0.86315363  0.87985893  0.16234847  1
  H+  H90  1  0.72355301  0.86591198  0.49772647  1
  H+  H91  1  0.36082261  0.23521910  0.02061621  1
  H+  H92  1  0.29592938  0.77499517  0.61252565  1
  H+  H93  1  0.38795889  0.22799705  0.49757382  1
  H+  H94  1  0.22257026  0.04492581  0.29761151  1
  H+  H95  1  0.46594311  0.65492126  0.86695067  1
  H+  H96  1  0.72205119  0.36336862  0.99358051  1
  H+  H97  1  0.11416924  0.97506963  0.68383550  1
  H+  H98  1  0.14424661  0.62231062  0.65873237  1
  H+  H99  1  0.37553312  0.11169953  1.03706408  1
  H+  H100  1  0.37443325  0.51470753  0.17861170  1
  H+  H101  1  0.14633361  0.11271624  0.66906314  1
  H+  H102  1  0.64779373  0.53766452  0.65453586  1
  H+  H103  1  0.14098480  0.02846873  0.84212394  1
  H+  H104  1  0.32492221  0.66286335  0.77182411  1
  H+  H105  1  0.12416594  0.98994267  0.32852571  1
  H+  H106  1  0.86485054  0.88288216  0.33290114  1
  H+  H107  1  0.88106160  0.51571680  0.50316351  1
  H+  H108  1  0.50840029  0.87683931  1.00635557  1
  H+  H109  1  0.21808252  0.36030663  0.17110278  1
  H+  H110  1  0.35703738  0.72763653  0.83518463  1
  H+  H111  1  0.62125264  0.89824385  0.66436800  1
  H+  H112  1  0.89609267  0.02386327  1.00080859  1
  H+  H113  1  0.98345341  0.35092034  0.83110438  1
  H+  H114  1  -0.01821996  0.11645344  0.84116221  1
  H+  H115  1  0.88230595  0.27000081  0.48916463  1
  H+  H116  1  0.87713772  0.98223222  0.82841409  1
  H+  H117  1  0.46843845  0.85934375  0.18043013  1
  H+  H118  1  0.60840494  0.38414750  1.00532954  1
  H+  H119  1  0.63559476  0.86923797  1.00719841  1
  H+  H120  1  0.13768195  0.11406982  -0.00038745  1
  H+  H121  1  0.86272470  0.47534869  0.33541273  1
  H+  H122  1  0.98342942  0.87495384  0.66481157  1
  H+  H123  1  0.60362305  0.96117893  0.16327879  1
  H+  H124  1  0.53447482  0.64023421  0.66513431  1
  H+  H125  1  0.48095627  0.60920288  0.50412179  1
  H+  H126  1  0.64029314  0.36942135  0.65756374  1
  H+  H127  1  0.92970933  0.07985627  0.94103179  1
  H+  H128  1  0.63521374  0.78129389  1.00200227  1
  H+  H129  1  0.39645717  0.02799445  0.67327741  1
  H+  H130  1  0.04441595  0.93428579  0.38743534  1
  H+  H131  1  0.10001907  0.22464245  0.48477735  1
  H+  H132  1  0.13402822  0.86178995  0.17467917  1
  H+  H133  1  0.92045579  0.85237815  0.56253246  1
  H+  H134  1  0.76006836  0.37685535  0.82441905  1
  H+  H135  1  0.51976232  0.37902045  0.32893048  1
  H+  H136  1  0.98425410  0.10738856  0.32129420  1
  H+  H137  1  0.35974371  0.80584381  0.33332051  1
  H+  H138  1  0.61621907  0.38453919  0.48435746  1
  H+  H139  1  0.36092538  0.36300971  0.67513831  1
  H+  H140  1  0.37596072  0.22789145  0.66832718  1
  H+  H141  1  0.77403758  0.13952447  0.48117730  1
  H+  H142  1  0.73114470  0.85905539  0.31757635  1
  H+  H143  1  0.60685266  -0.02376356  0.83931303  1
  H+  H144  1  0.85366180  0.25081746  0.86271338  1
  H+  H145  1  0.21964321  0.85589463  0.17530501  1
  H+  H146  1  0.61590000  0.63899510  0.48667500  1
  H+  H147  1  0.63105653  0.40688275  0.15895091  1
  H+  H148  1  0.58256324  0.41323578  0.42542845  1
  H+  H149  1  0.17926669  0.33491532  0.58545476  1
  H+  H150  1  0.12163799  0.39470538  0.63734379  1
  H+  H151  1  0.12172188  0.12591544  0.33650407  1
  H+  H152  1  0.12828499  0.89562325  0.50649907  1
  H+  H153  1  0.85680337  0.11496825  0.14686141  1
  H+  H154  1  0.75187556  0.10486110  0.83913079  1
  H+  H155  1  0.12344736  0.21565643  0.33235869  1
  H+  H156  1  0.72671658  0.36505036  0.32433823  1
  H+  H157  1  0.38628541  0.25931950  0.32418271  1
  H+  H158  1  0.88715621  0.76894648  0.32444265  1
  H+  H159  1  0.84947550  0.85008712  0.99209262  1
  H+  H160  1  0.70299728  0.10804516  0.98445833  1
  H+  H161  1  0.63768239  0.09814951  0.16612613  1
  H+  H162  1  0.37280569  0.36754839  0.33015152  1
  H+  H163  1  0.75258456  0.20562865  0.04978227  1
  H+  H164  1  0.76576739  0.10982548  0.15403233  1
  H+  H165  1  0.18309503  0.32295216  0.90903319  1
  H+  H166  1  0.27231405  0.14775418  0.02615646  1
  H+  H167  1  0.58972487  0.13069122  0.83604183  1
  H+  H168  1  0.64265793  1.03149000  0.52011152  1
  H+  H169  1  0.35249435  0.72232251  0.01206257  1
  H+  H170  1  0.63816452  0.51920578  0.49644916  1
  H+  H171  1  0.11823788  0.98304072  0.16110670  1
  H+  H172  1  0.39553391  0.36144843  0.50398048  1
  H+  H173  1  0.71545496  0.12739064  0.66833441  1
  H+  H174  1  0.77144167  0.38549219  0.48967547  1
  H+  H175  1  0.90604165  0.33073805  0.94628759  1
  H+  H176  1  0.85521873  0.62524151  0.33683060  1
  H+  H177  1  0.87241299  0.27758189  0.00744057  1
  H+  H178  1  0.60871578  0.89435357  0.52677106  1
  H+  H179  1  0.02521758  0.38845749  0.49568749  1
  H+  H180  1  0.89045782  0.78916434  0.65940621  1
  H+  H181  1  0.38127468  0.45950215  0.32723651  1
  H+  H182  1  0.46242100  0.60952188  0.99759895  1
  H+  H183  1  0.86086972  0.13665573  0.48181691  1
  H+  H184  1  1.02660363  0.13190146  1.01003249  1
  H+  H185  1  0.76396113  0.62636239  0.33842614  1
  H+  H186  1  0.49277274  0.12386226  0.67482631  1
  H+  H187  1  0.87378448  0.63875504  0.16202418  1
  H+  H188  1  0.77983414  0.64978072  0.66186121  1
  H+  H189  1  0.38335947  0.36291555  -0.00232580  1
  H+  H190  1  0.60017327  0.71996268  0.15128514  1
  H+  H191  1  0.88227698  0.35923427  0.31962942  1
  H+  H192  1  0.87382603  0.13861533  0.32936277  1
  H+  H193  1  0.60288900  0.86690371  0.83890496  1
  H+  H194  1  0.59361378  0.96850045  0.00536894  1
  H+  H195  1  0.12998742  0.85862800  -0.00776686  1
  H+  H196  1  0.87506133  0.51459271  0.84087600  1
  H+  H197  1  0.23131103  0.10652657  0.66915808  1
  H+  H198  1  0.26895868  0.38012548  0.01375509  1
  H+  H199  1  0.50505094  0.85840930  0.84617093  1
  H+  H200  1  0.42251783  0.82305914  0.47008713  1
  H+  H201  1  0.97635359  0.60714819  0.17232330  1
  H+  H202  1  0.35921331  0.88846850  0.67137651  1
  H+  H203  1  0.22983107  0.87220765  0.66436730  1
  H+  H204  1  0.10727923  0.72353140  0.16151316  1
  H+  H205  1  0.38465812  0.99450606  0.48772971  1
  H+  H206  1  0.12094653  0.48554765  0.63926286  1
  H+  H207  1  0.12401250  0.22723011  0.83029171  1
  H+  H208  1  0.60998752  0.23035777  0.67655650  1
  H+  H209  1  0.35529738  0.47170192  0.01385098  1
  H+  H210  1  -0.02848688  0.61485426  0.32718875  1
  H+  H211  1  0.74210490  0.62197108  0.18029311  1
  H+  H212  1  0.22003359  0.12905306  0.18411635  1
  H+  H213  1  1.02788707  0.89810716  1.00594129  1
  H+  H214  1  0.36235499  0.72099917  0.51869791  1
  H+  H215  1  0.63690408  0.06386700  0.79642044  1
  H+  H216  1  0.88717323  0.77130166  0.83440340  1
  H+  H217  1  0.88399059  0.60954528  0.99395023  1
  H+  H218  1  0.25144299  0.12548216  0.51769159  1
  H+  H219  1  0.63390709  0.77798278  0.50004099  1
  H+  H220  1  0.12329610  0.23741501  0.66168743  1
  H+  H221  1  0.37933900  0.50112521  0.83343289  1
  H+  H222  1  0.91481415  0.33929721  0.23025064  1
  H+  H223  1  0.63335866  0.62541469  0.81666400  1
  H+  H224  1  0.58327637  0.66796363  0.42893586  1
  H+  H225  1  0.46210651  0.10943955  1.02651480  1
  H+  H226  1  0.72234325  0.85560481  0.16615925  1
  H+  H227  1  0.39318730  0.52662319  0.65877960  1
  H+  H228  1  1.02651974  0.88643208  0.83167286  1
  H+  H229  1  0.36513818  0.94357870  0.85817532  1
  H+  H230  1  0.15471079  0.74222424  0.82274072  1
  H+  H231  1  0.64585349  0.02466422  0.30958788  1
  H+  H232  1  0.38516667  1.01727000  0.16714518  1
  H+  H233  1  0.39048311  0.60582992  0.51384891  1
  H+  H234  1  0.64931862  0.58691669  1.07573929  1
  H+  H235  1  0.86296317  0.96908503  0.16203937  1
  H+  H236  1  0.10469639  0.47844988  0.16289756  1
  H+  H237  1  0.87916865  0.60528715  0.83955027  1
  H+  H238  1  0.35113979  0.87592876  0.15990629  1
  H+  H239  1  0.86070330  0.38011628  0.66182753  1
  H+  H240  1  0.98210857  0.37413176  0.63254130  1
  H+  H241  1  0.80543221  0.16163455  0.06957377  1
  H+  H242  1  0.14114350  0.62689452  0.32870716  1
  H+  H243  1  0.08969535  0.92386674  0.10156464  1
  H+  H244  1  0.11967136  0.73401643  0.67048425  1
  H+  H245  1  0.85843215  0.34223348  0.85023545  1
  H+  H246  1  0.98326903  0.86677206  0.17243589  1
  H+  H247  1  0.52510061  0.64455007  0.33641938  1
  H+  H248  1  0.48124149  0.36926641  0.66032832  1
  H+  H249  1  0.64801064  0.62491823  0.64694037  1
  H+  H250  1  0.26791158  0.88859230  0.83579634  1
  H+  H251  1  0.40710607  0.11157012  0.49986765  1
  H+  H252  1  0.61820686  0.72698799  0.33467292  1
  H+  H253  1  0.80142909  0.06668980  0.64349721  1
  H+  H254  1  0.36770192  0.57334130  0.33075449  1
  H+  H255  1  0.85587271  -0.02511202  0.48401944  1
  H+  H256  1  0.60655317  0.47222538  0.33262443  1
  H+  H257  1  0.82272028  0.41409146  0.09741377  1
  H+  H258  1  0.12818988  0.58309142  0.84458624  1
  H+  H259  1  0.37247736  0.03470706  0.80269156  1
  H+  H260  1  0.88529174  0.37141516  0.16826216  1
  H+  H261  1  0.12801912  0.35970827  0.17666845  1
  H+  H262  1  0.23390962  0.35112179  0.32118697  1
  H+  H263  1  0.11260974  0.64412962  0.49073887  1
  H+  H264  1  0.35171170  -0.03109953  1.01984981  1
  H+  H265  1  0.61905615  0.21267819  0.16038378  1
  H+  H266  1  1.03538897  0.39616725  0.30450573  1
  H+  H267  1  0.76192419  0.62094204  0.48520969  1
  H+  H268  1  0.54030319  0.62245645  0.80973733  1
  H+  H269  1  0.87729965  0.73082064  0.16119374  1
  H+  H270  1  0.21867796  0.60719155  0.99980431  1
  H+  H271  1  0.01904686  0.63201651  0.00472614  1
  H+  H272  1  0.49467481  0.10807125  0.49454832  1
  H+  H273  1  0.63732862  0.26937842  0.50010500  1
  H+  H274  1  0.35947540  0.72156931  0.66734906  1
  H+  H275  1  0.59920555  0.13175295  0.99803251  1
  H+  H276  1  0.76428899  0.38095373  0.15730030  1
  H+  H277  1  1.02484324  0.64592093  0.49376148  1
  H+  H278  1  0.34931999  0.12635810  0.33989594  1
  H+  H279  1  0.04075187  0.14485902  0.66311164  1
  H+  H280  1  0.90805746  0.58314309  0.72054849  1
  H+  H281  1  0.38509252  0.84063146  0.84158522  1
  H+  H282  1  0.47221549  0.36192563  0.99749209  1
  H+  H283  1  0.89119201  0.11626934  0.67283119  1
  H+  H284  1  0.61936169  0.22350644  0.34102818  1
  H+  H285  1  0.84781713  0.71670606  1.00752230  1
  H+  H286  1  0.37160784  0.47197596  0.48732410  1
  H+  H287  1  0.85086637  -0.02550598  0.67536740  1
  H+  H288  1  0.23384512  0.36232378  0.49348768  1
  H+  H289  1  0.08895960  0.17486225  0.76737536  1
  H+  H290  1  0.17679616  0.84099617  0.60190654  1
  H+  H291  1  0.92164826  0.83080526  0.23136884  1
  H+  H292  1  0.16338690  0.83045834  0.90068070  1
  H+  H293  1  0.67624266  0.59111415  0.88482529  1
  H+  H294  1  0.10908113  0.92855095  0.44636956  1
  H+  H295  1  0.21165216  0.70342816  0.79976777  1
  H+  H296  1  0.17051388  0.32254964  0.26403914  1
  H+  H297  1  0.67204471  0.58553212  0.26669581  1
  H+  H298  1  0.07413419  0.41841316  0.80549701  1
  H+  H299  1  0.43027347  0.03882721  0.91655293  1
  H+  H300  1  0.27124330  0.86888768  0.33187733  1
  H+  H301  1  0.66325224  0.33490138  0.93346660  1
  H+  H302  1  0.07179959  0.41257698  0.10317344  1
  H+  H303  1  0.59863914  0.66636974  0.72213422  1
  H+  H304  1  0.84994030  0.92616987  0.74427328  1
  H+  H305  1  0.37734114  0.06780368  0.25432575  1
  H+  H306  1  0.32584502  0.66662304  0.10926595  1
  H+  H307  1  0.39415181  0.57847887  0.94391721  1
  H+  H308  1  0.39897950  0.30525802  0.25784781  1
  H+  H309  1  0.88609179  0.27121269  0.31538727  1
  H+  H310  1  0.84338240  0.66869143  0.07120151  1
  H+  H311  1  0.66727766  0.84037299  0.59571035  1
  H+  H312  1  0.34342649  0.91850262  0.73703930  1
  H+  H313  1  0.89861635  0.07903663  0.55750181  1
  H+  H314  1  0.86200288  0.25777941  0.74092291  1
  H+  H315  1  0.83238641  0.41548405  0.39430924  1
  H+  H316  1  0.90347224  0.82594585  0.89505989  1
  H+  H317  1  0.42213667  0.07571902  0.91239486  1
  H+  H318  1  0.72410252  0.61146311  1.02850181  1
  H+  H319  1  0.34725045  0.41240508  0.42730557  1
  H+  H320  1  0.83297960  0.91316167  0.39141687  1
  H+  H321  1  0.90657840  0.32495762  0.55077301  1
  H+  H322  1  0.66980722  0.07651013  0.22753434  1
  H+  H323  1  0.10388188  0.73085651  0.33824893  1
  H+  H324  1  0.58075372  0.43851732  0.74548541  1
  H+  H325  1  0.15936286  0.83577792  0.26963909  1
  H+  H326  1  0.31812305  0.89984168  0.09944668  1
  H+  H327  1  0.51532035  0.89011900  0.41073298  1
  H+  H328  1  0.35164833  1.00736792  0.31269448  1
  H+  H329  1  0.58901827  0.42297803  0.10122592  1
  H+  H330  1  0.07928529  0.66588785  0.10050203  1
  H+  H331  1  0.63162435  0.85440512  0.16896679  1
  H+  H332  1  0.32550786  0.40904919  0.10605672  1
  H+  H333  1  0.42263024  0.57883039  0.59655838  1
  H+  H334  1  0.14724340  0.36848532  0.50088948  1
  H+  H335  1  0.38612276  0.82470613  0.58363051  1
  H+  H336  1  0.90638976  0.57771199  0.56135942  1
  H+  H337  1  0.59662087  0.16776522  0.42937721  1
  H+  H338  1  0.98554406  0.88098206  0.50831464  1
  H+  H339  1  0.67159583  0.58207803  0.55556110  1
  H+  H340  1  0.65187828  0.32174706  0.23965913  1
  H+  H341  1  0.16543281  0.59494388  0.56096836  1
  H+  H342  1  0.64693224  0.07081597  0.92340385  1
  H+  H343  1  0.10829033  0.13539064  0.16587937  1
  H+  H344  1  0.35316445  0.43745217  0.77611889  1
  H+  H345  1  0.08451960  0.91455051  0.77206687  1
  H+  H346  1  0.56205354  0.66810880  0.06125487  1
  H+  H347  1  0.40379508  0.81497037  0.93230249  1
  H+  H348  1  0.63556552  0.36307624  0.32607218  1
  H+  H349  1  0.26501132  0.87973884  0.00457230  1
  H+  H350  1  0.66546420  0.02516022  0.65519607  1
  H+  H351  1  0.79201446  0.77131944  0.95020706  1
  H+  H352  1  0.90635116  0.28710841  0.65550476  1
  H+  H353  1  0.67065003  0.82272401  0.25778002  1
  H+  H354  1  0.69683949  0.10523215  0.56457479  1
  H+  H355  1  0.73593806  0.11402780  0.31759381  1
  H+  H356  1  0.34044316  0.17748384  0.73124943  1
  H+  H357  1  0.91366901  0.58056848  0.26661538  1
  H+  H358  1  0.83685638  0.91358739  0.07104186  1
  H+  H359  1  0.83399135  0.15705959  0.79578643  1
  H+  H360  1  0.16002481  0.56788423  0.93956067  1
  H+  H361  1  0.42777740  0.33596230  0.59681910  1
  H+  H362  1  0.56661041  0.90422560  0.10352478  1
  H+  H363  1  0.17316347  0.08971940  0.94025644  1
  H+  H364  1  0.82396864  0.64896170  0.41733806  1
  H+  H365  1  0.40567540  0.84808995  0.23670496  1
  H+  H366  1  0.15467516  0.54919437  0.30806402  1
  H+  H367  1  0.83621400  0.67358213  0.76345315  1
  H+  H368  1  0.12187005  0.39493501  0.31019681  1
  H+  H369  1  0.91638753  0.07704029  0.22871747  1
  H+  H370  1  0.58434961  0.17453661  0.73835979  1
  H+  H371  1  0.07610690  0.67329103  0.39798680  1
  H+  H372  1  0.91002351  0.57707695  0.93325869  1
  H+  H373  1  0.41069600  0.59527560  0.26416140  1
  H+  H374  1  0.34162588  0.92289953  0.42960374  1
  H+  H375  1  0.28450802  0.32703489  0.72139533  1
  H+  H376  1  0.10848788  0.47027845  0.01237420  1
  H+  H377  1  0.08663679  0.16330980  0.07002491  1
  H+  H378  1  0.52235298  0.93516223  0.41213724  1
  H+  H379  1  0.83974716  0.16820498  0.38668426  1
  H+  H380  1  0.06864450  0.16148085  0.42790058  1
  H+  H381  1  0.35182036  0.16763527  0.43910525  1
  H+  H382  1  0.33366175  0.21118782  0.12243705  1
  H+  H383  1  0.58898564  0.16104673  0.09754255  1
  O2-  O384  1  0.07813543  0.16367731  0.14669567  1
  O2-  O385  1  0.05454600  0.16800731  0.47029689  1
  O2-  O386  1  0.08461166  0.16850475  0.81211305  1
  O2-  O387  1  0.06852230  0.41357896  0.14918769  1
  O2-  O388  1  0.08754151  0.42190581  0.50591798  1
  O2-  O389  1  0.02661957  0.35984975  0.79941405  1
  O2-  O390  1  0.07708359  0.66307749  0.14587734  1
  O2-  O391  1  0.08425564  0.67785475  0.47810636  1
  O2-  O392  1  0.15243405  0.69220178  0.80071131  1
  O2-  O393  1  0.08858547  0.92198192  0.14666671  1
  O2-  O394  1  0.10017323  0.92732471  0.49045487  1
  O2-  O395  1  0.08758759  0.91687302  0.81765805  1
  O2-  O396  1  0.32361593  0.20892240  0.16746625  1
  O2-  O397  1  0.36045090  0.16728893  0.48394869  1
  O2-  O398  1  0.32901218  0.18494724  0.80783573  1
  O2-  O399  1  0.32050034  0.40672920  0.15151425  1
  O2-  O400  1  0.34224401  0.41127433  0.47249190  1
  O2-  O401  1  0.35756407  0.44063442  0.82070428  1
  O2-  O402  1  0.32577159  0.66175721  0.15466120  1
  O2-  O403  1  0.33724937  0.65899788  0.51390262  1
  O2-  O404  1  0.31604059  0.66100454  0.81619915  1
  O2-  O405  1  0.31813397  0.90330103  0.14493339  1
  O2-  O406  1  0.34317066  0.92660590  0.47448755  1
  O2-  O407  1  0.33058724  0.91933781  0.82152897  1
  O2-  O408  1  0.59132742  0.15438607  0.14264275  1
  O2-  O409  1  0.59506756  0.17100145  0.47592049  1
  O2-  O410  1  0.57316943  0.16947522  0.81642437  1
  O2-  O411  1  0.60289719  0.43839061  0.14484581  1
  O2-  O412  1  0.58761022  0.41742303  0.47097124  1
  O2-  O413  1  0.59261295  0.42811800  0.81337946  1
  O2-  O414  1  0.56473478  0.66310316  0.13143965  1
  O2-  O415  1  0.58293416  0.66734626  0.47467548  1
  O2-  O416  1  0.59994389  0.65630431  0.79686094  1
  O2-  O417  1  0.56874037  0.90014312  0.14876493  1
  O2-  O418  1  0.58307647  0.93014505  0.53873375  1
  O2-  O419  1  0.56849121  0.89655116  0.83412689  1
  O2-  O420  1  0.82228605  0.14077615  0.13270492  1
  O2-  O421  1  0.83385978  0.16914617  0.46418420  1
  O2-  O422  1  0.81656643  0.14324218  0.83859125  1
  O2-  O423  1  0.82419953  0.41224464  0.14357629  1
  O2-  O424  1  0.83248001  0.41902323  0.47515613  1
  O2-  O425  1  0.82170517  0.40127732  0.81164394  1
  O2-  O426  1  0.84558927  0.67028754  0.14530331  1
  O2-  O427  1  0.82336662  0.64798153  0.46714480  1
  O2-  O428  1  0.83642742  0.67007432  0.80835927  1
  O2-  O429  1  0.83119491  0.90809440  0.14672222  1
  O2-  O430  1  0.82774514  0.91429194  0.46933194  1
  O2-  O431  1  0.84703324  0.92333844  0.80862566  1
  O2-  O432  1  0.15899590  0.08451404  0.19212516  1
  O2-  O433  1  0.19606853  0.11044689  0.53681385  1
  O2-  O434  1  0.16957589  0.08889956  0.85690275  1
  O2-  O435  1  0.15759524  0.32764209  0.18766704  1
  O2-  O436  1  0.17494045  0.33402061  0.51150831  1
  O2-  O437  1  0.18988906  0.31548263  0.86498259  1
  O2-  O438  1  0.15240211  0.56867075  0.18187077  1
  O2-  O439  1  0.16392963  0.59390085  0.51557432  1
  O2-  O440  1  0.15368822  0.54963105  0.86022567  1
  O2-  O441  1  0.15901292  0.82758617  0.19163402  1
  O2-  O442  1  0.18124266  0.83907219  0.52604174  1
  O2-  O443  1  0.17016534  0.83497287  0.85503887  1
  O2-  O444  1  0.41727853  0.07488635  0.18602758  1
  O2-  O445  1  0.43351217  0.07506689  0.50949541  1
  O2-  O446  1  0.41009791  0.09595349  0.79346087  1
  O2-  O447  1  0.36992413  0.29719863  0.18869084  1
  O2-  O448  1  0.42880309  0.33603606  0.52225091  1
  O2-  O449  1  0.42775721  0.34463064  0.85880141  1
  O2-  O450  1  0.40507566  0.57594812  0.19213650  1
  O2-  O451  1  0.42191268  0.57370214  0.52183811  1
  O2-  O452  1  0.40981555  0.60343808  0.86255982  1
  O2-  O453  1  0.40684433  0.83141712  0.19412321  1
  O2-  O454  1  0.41359572  0.84546177  0.50817108  1
  O2-  O455  1  0.40630261  0.80560915  0.86028108  1
  O2-  O456  1  0.66476510  0.06542470  0.18254272  1
  O2-  O457  1  0.68102478  0.09600261  0.52085488  1
  O2-  O458  1  0.64372702  0.05287260  0.83890663  1
  O2-  O459  1  0.63892232  0.31347736  0.19397224  1
  O2-  O460  1  0.66595147  0.33170374  0.51410446  1
  O2-  O461  1  0.66162770  0.33565601  0.85480275  1
  O2-  O462  1  0.68258932  0.59398772  0.19624484  1
  O2-  O463  1  0.67101956  0.58112175  0.50993735  1
  O2-  O464  1  0.67633247  0.58518182  0.84083864  1
  O2-  O465  1  0.66222409  0.82335087  0.18192731  1
  O2-  O466  1  0.66427186  0.83797321  0.51539449  1
  O2-  O467  1  0.66613226  0.82355941  0.84240065  1
  O2-  O468  1  0.91380653  0.07168766  0.18341789  1
  O2-  O469  1  0.90154811  0.07919502  0.51294188  1
  O2-  O470  1  0.92351670  0.07766381  0.85889237  1
  O2-  O471  1  0.92050901  0.34612740  0.18357431  1
  O2-  O472  1  0.91057640  0.33047398  0.50571113  1
  O2-  O473  1  0.88692353  0.31363008  0.87114448  1
  O2-  O474  1  0.91605102  0.57859499  0.18904756  1
  O2-  O475  1  0.90874240  0.57820064  0.51702391  1
  O2-  O476  1  0.90625033  0.57373168  0.85710685  1
  O2-  O477  1  0.92193478  0.83226435  0.18564542  1
  O2-  O478  1  0.92335417  0.85282169  0.51785289  1
  O2-  O479  1  0.91737859  0.83205950  0.85087267  1
  O2-  O480  1  0.17367354  0.05314811  0.30728024  1
  O2-  O481  1  0.16864097  0.07325141  0.67509018  1
  O2-  O482  1  0.17009941  0.08441478  0.98534408  1
  O2-  O483  1  0.17250266  0.32000619  0.30949893  1
  O2-  O484  1  0.17370832  0.33678731  0.63139260  1
  O2-  O485  1  0.16769040  0.32839629  0.98771839  1
  O2-  O486  1  0.18489371  0.61094003  0.31877537  1
  O2-  O487  1  0.17383132  0.59352303  0.63967505  1
  O2-  O488  1  0.15794646  0.57412886  0.98467442  1
  O2-  O489  1  0.16386315  0.83611217  0.31522332  1
  O2-  O490  1  0.17103373  0.83794199  0.64754665  1
  O2-  O491  1  0.15832974  0.82733526  0.97594516  1
  O2-  O492  1  0.34572765  0.05407153  0.29440991  1
  O2-  O493  1  0.42764397  0.08990644  0.65907627  1
  O2-  O494  1  0.39905773  0.07347240  1.02838172  1
  O2-  O495  1  0.41508471  0.31649704  0.30321768  1
  O2-  O496  1  0.42315797  0.33174898  0.64279544  1
  O2-  O497  1  0.41213192  0.33158925  0.98113588  1
  O2-  O498  1  0.41971838  0.61267856  0.30880824  1
  O2-  O499  1  0.42321387  0.58489424  0.64257374  1
  O2-  O500  1  0.39863498  0.57619983  0.98867026  1
  O2-  O501  1  0.38190504  0.86856085  0.31674766  1
  O2-  O502  1  0.35646310  0.80793903  0.62384899  1
  O2-  O503  1  0.40563300  0.82006342  0.97887574  1
  O2-  O504  1  0.67518055  0.08848125  0.30366448  1
  O2-  O505  1  0.71685775  0.08465977  0.64191554  1
  O2-  O506  1  0.64359502  0.07287830  0.96799329  1
  O2-  O507  1  0.66556034  0.33258501  0.31038944  1
  O2-  O508  1  0.66390792  0.33423300  0.64300445  1
  O2-  O509  1  0.66124879  0.33220948  0.97893570  1
  O2-  O510  1  0.66656767  0.58000573  0.31335402  1
  O2-  O511  1  0.67872556  0.59341638  0.63281933  1
  O2-  O512  1  0.65970331  0.58362742  1.03238458  1
  O2-  O513  1  0.67013568  0.82490090  0.30354876  1
  O2-  O514  1  0.66712987  0.84385743  0.64080827  1
  O2-  O515  1  0.67243490  0.84418495  0.99736000  1
  O2-  O516  1  0.92339594  0.08170181  0.30732300  1
  O2-  O517  1  0.85730041  0.06661244  0.64673455  1
  O2-  O518  1  0.93114663  0.08382504  0.98591869  1
  O2-  O519  1  0.91231887  0.33171840  0.29970585  1
  O2-  O520  1  0.91764232  0.33683453  0.62996789  1
  O2-  O521  1  0.91220418  0.33684682  0.99158906  1
  O2-  O522  1  0.91027231  0.58067864  0.31214570  1
  O2-  O523  1  0.92170851  0.58532240  0.67730285  1
  O2-  O524  1  0.91324499  0.57815702  0.97922360  1
  O2-  O525  1  0.91599895  0.82765685  0.30752363  1
  O2-  O526  1  0.92259727  0.85182327  0.64901162  1
  O2-  O527  1  0.85034795  0.80183228  0.96646298  1
  O2-  O528  1  0.08911118  0.16397213  0.02447401  1
  O2-  O529  1  0.08954823  0.15483879  0.34746754  1
  O2-  O530  1  0.09605473  0.18001811  0.68271474  1
  O2-  O531  1  0.07896096  0.41006870  0.02870210  1
  O2-  O532  1  0.09790001  0.43164716  0.29900892  1
  O2-  O533  1  0.08694812  0.42303256  0.62887603  1
  O2-  O534  1  0.07943142  0.66462632  0.02033000  1
  O2-  O535  1  0.07162849  0.66998467  0.35282264  1
  O2-  O536  1  0.09224222  0.67366154  0.68661479  1
  O2-  O537  1  0.08714684  0.92222729  0.01944269  1
  O2-  O538  1  0.06950416  0.91640594  0.35526744  1
  O2-  O539  1  0.07838112  0.91112816  0.69396202  1
  O2-  O540  1  0.32924368  0.18211425  0.04594689  1
  O2-  O541  1  0.33449172  0.16613891  0.36302639  1
  O2-  O542  1  0.34705317  0.16932570  0.68686729  1
  O2-  O543  1  0.33025803  0.41111785  0.02830611  1
  O2-  O544  1  0.34762832  0.40378408  0.34687493  1
  O2-  O545  1  0.32169599  0.37882178  0.69806418  1
  O2-  O546  1  0.32043510  0.66328085  0.03080587  1
  O2-  O547  1  0.34162159  0.71738280  0.34777377  1
  O2-  O548  1  0.33548643  0.66426812  0.68627015  1
  O2-  O549  1  0.32391371  0.90432120  0.02152433  1
  O2-  O550  1  0.33230905  0.90279125  0.34705744  1
  O2-  O551  1  0.34165987  0.92627290  0.69267121  1
  O2-  O552  1  0.58008305  0.16664106  0.02160527  1
  O2-  O553  1  0.59387392  0.16524349  0.35851969  1
  O2-  O554  1  0.58063323  0.17083706  0.69296515  1
  O2-  O555  1  0.57483902  0.40971064  0.02271595  1
  O2-  O556  1  0.57833212  0.41148541  0.34765840  1
  O2-  O557  1  0.56859535  0.45062203  0.70135637  1
  O2-  O558  1  0.56500036  0.66762483  0.01455598  1
  O2-  O559  1  0.58452130  0.66696055  0.35173160  1
  O2-  O560  1  0.59622897  0.66930887  0.67637962  1
  O2-  O561  1  0.56740760  0.91085447  0.02437132  1
  O2-  O562  1  0.58981771  0.91796172  0.30000051  1
  O2-  O563  1  0.59369719  0.93513804  0.66964029  1
  O2-  O564  1  0.78702061  0.18330672  0.03164083  1
  O2-  O565  1  0.84224175  0.16914612  0.34120503  1
  O2-  O566  1  0.90171411  0.23709879  0.73155811  1
  O2-  O567  1  0.82583591  0.41729714  0.02330489  1
  O2-  O568  1  0.83153477  0.41386588  0.34898202  1
  O2-  O569  1  0.82861569  0.40641316  0.68102429  1
  O2-  O570  1  0.83173084  0.66006038  0.02595937  1
  O2-  O571  1  0.82510041  0.65479014  0.35534221  1
  O2-  O572  1  0.83910275  0.68355481  0.67954265  1
  O2-  O573  1  0.83408938  0.91579560  0.02542411  1
  O2-  O574  1  0.83499500  0.91464313  0.34578068  1
  O2-  O575  1  0.84786459  0.92313559  0.69578797  1
