# generated using pymatgen
data_H2O
_symmetry_space_group_name_H-M   'P 1'
_cell_length_a   18.00588260
_cell_length_b   17.99992004
_cell_length_c   22.01378993
_cell_angle_alpha   90.02406936
_cell_angle_beta   89.99096455
_cell_angle_gamma   120.01232590
_symmetry_Int_Tables_number   1
_chemical_formula_structural   H2O
_chemical_formula_sum   'H384 O192'
_cell_volume   6178.12151504
_cell_formula_units_Z   192
loop_
 _symmetry_equiv_pos_site_id
 _symmetry_equiv_pos_as_xyz
  1  'x, y, z'
loop_
 _atom_type_symbol
 _atom_type_oxidation_number
  H+  1.0
  O2-  -2.0
loop_
 _atom_site_type_symbol
 _atom_site_label
 _atom_site_symmetry_multiplicity
 _atom_site_fract_x
 _atom_site_fract_y
 _atom_site_fract_z
 _atom_site_occupancy
  H+  H0  1  0.26992469  0.88350447  0.34448721  1
  H+  H1  1  0.86056404  0.27243841  0.16690210  1
  H+  H2  1  0.16540415  0.20323800  0.48363073  1
  H+  H3  1  0.34311345  0.92699529  0.43872537  1
  H+  H4  1  0.86473372  0.51004316  0.98535547  1
  H+  H5  1  0.27863773  0.38750234  0.00267282  1
  H+  H6  1  0.88421964  0.36464529  0.66530332  1
  H+  H7  1  0.34095803  0.42490117  0.76782823  1
  H+  H8  1  0.40196477  0.37031838  0.84184527  1
  H+  H9  1  0.87986301  0.34480863  0.99986750  1
  H+  H10  1  0.31399634  0.66781011  0.77122238  1
  H+  H11  1  0.36441075  0.71891762  0.67568026  1
  H+  H12  1  0.73662181  0.12000891  0.50608346  1
  H+  H13  1  0.39858310  0.77371582  0.49528112  1
  H+  H14  1  0.78138225  0.14505451  0.66770675  1
  H+  H15  1  0.90819970  0.91563815  0.29907716  1
  H+  H16  1  0.77803763  0.88138422  0.81518325  1
  H+  H17  1  0.87984853  0.86607301  0.65254188  1
  H+  H18  1  0.71614303  0.35183946  0.67110691  1
  H+  H19  1  0.52937284  0.62621403  0.48564425  1
  H+  H20  1  0.19017455  0.10424937  1.08060472  1
  H+  H21  1  0.37332177  0.09922796  0.32236857  1
  H+  H22  1  0.63676622  0.60387910  0.50077827  1
  H+  H23  1  -0.02231219  0.36222235  -0.00762918  1
  H+  H24  1  0.63576831  0.86574406  0.17733282  1
  H+  H25  1  0.11339390  0.21566216  0.81200965  1
  H+  H26  1  1.03144261  0.16140441  0.33952494  1
  H+  H27  1  0.61852862  0.47522624  0.16165150  1
  H+  H28  1  0.63564812  0.51855415  0.33647789  1
  H+  H29  1  0.17666970  0.18821807  0.29980861  1
  H+  H30  1  0.62521004  0.26909529  0.99063044  1
  H+  H31  1  0.64023183  0.36141644  0.51034221  1
  H+  H32  1  0.59584902  0.22737562  0.33890529  1
  H+  H33  1  0.11874658  0.14692623  0.01690616  1
  H+  H34  1  0.24686357  0.35175216  0.83487139  1
  H+  H35  1  0.00932346  0.32536769  0.21885569  1
  H+  H36  1  0.21437735  0.13661480  0.32737435  1
  H+  H37  1  0.89279398  0.54579638  0.63077447  1
  H+  H38  1  0.72242477  0.12178648  0.83307509  1
  H+  H39  1  0.73065652  0.59973458  0.18418635  1
  H+  H40  1  0.14369253  0.86563314  0.99604367  1
  H+  H41  1  0.14676902  0.85939500  0.33896142  1
  H+  H42  1  0.62511855  0.98690150  0.50113482  1
  H+  H43  1  0.14800248  0.50236055  0.16109049  1
  H+  H44  1  0.57915978  -0.04385783  0.33669740  1
  H+  H45  1  0.22272665  0.09589196  0.52908068  1
  H+  H46  1  0.27279517  0.87976764  0.16013663  1
  H+  H47  1  0.60717099  0.73031610  0.16484058  1
  H+  H48  1  0.47754421  0.10383271  0.83047693  1
  H+  H49  1  0.22668253  0.63516034  0.21219085  1
  H+  H50  1  0.30015189  0.14158692  0.45703624  1
  H+  H51  1  0.33619898  0.54865884  0.54643766  1
  H+  H52  1  0.39456252  0.27919455  0.84139612  1
  H+  H53  1  0.86960985  0.86287187  0.50833542  1
  H+  H54  1  0.38214603  0.88853871  0.64665139  1
  H+  H55  1  0.36545908  0.48047440  0.67317677  1
  H+  H56  1  0.61853291  0.97779377  0.00264031  1
  H+  H57  1  0.33727490  0.88449046  0.81915061  1
  H+  H58  1  0.89003324  0.12610860  0.32647708  1
  H+  H59  1  0.92276815  0.81957191  0.27656417  1
  H+  H60  1  0.97633978  0.60945751  0.17639995  1
  H+  H61  1  0.63401795  0.50964832  0.83145293  1
  H+  H62  1  0.15963364  0.37671402  0.16656997  1
  H+  H63  1  0.84689616  0.38364237  0.84014717  1
  H+  H64  1  0.13380310  0.27226766  0.67392136  1
  H+  H65  1  0.36798173  0.89002937  1.00513827  1
  H+  H66  1  0.22171732  0.11484517  0.82535857  1
  H+  H67  1  0.37339734  1.00865710  0.82968201  1
  H+  H68  1  0.15153093  0.56523135  0.25464593  1
  H+  H69  1  0.13056358  0.77894034  0.83355225  1
  H+  H70  1  0.17943514  1.04071472  0.39586552  1
  H+  H71  1  0.26633676  0.64573130  0.67346715  1
  H+  H72  1  0.75911068  0.61608600  0.00799700  1
  H+  H73  1  0.15988902  0.34461039  0.82091014  1
  H+  H74  1  0.65558006  0.53680718  0.65858460  1
  H+  H75  1  0.35297041  0.61173870  0.84456437  1
  H+  H76  1  0.01463706  0.39343226  0.66687182  1
  H+  H77  1  0.53159275  0.88760614  0.15952403  1
  H+  H78  1  0.63722702  0.88905430  0.51151146  1
  H+  H79  1  0.49134939  0.60799669  0.66073079  1
  H+  H80  1  0.64422107  0.14528794  0.17398584  1
  H+  H81  1  0.64559757  0.03223416  0.65787719  1
  H+  H82  1  0.34372135  0.98005719  0.65795794  1
  H+  H83  1  0.10807716  0.64935756  0.81318435  1
  H+  H84  1  0.53150005  0.13920783  0.49958072  1
  H+  H85  1  0.72808641  0.60818049  0.50283829  1
  H+  H86  1  0.62309379  0.26972947  0.66695778  1
  H+  H87  1  0.43581983  0.59047139  0.27102165  1
  H+  H88  1  0.89024545  0.11550131  0.99242547  1
  H+  H89  1  0.10573035  0.88875709  0.82427561  1
  H+  H90  1  0.39038456  0.52272355  0.99616691  1
  H+  H91  1  0.52950136  0.89000610  0.00224750  1
  H+  H92  1  0.06885312  0.91666978  0.36554702  1
  H+  H93  1  0.02764116  0.65297387  0.66053277  1
  H+  H94  1  0.00846858  0.11931363  0.50523497  1
  H+  H95  1  0.01701377  0.14795714  0.71017426  1
  H+  H96  1  0.63254467  0.85971989  0.66224867  1
  H+  H97  1  0.21262616  0.86911615  0.63399661  1
  H+  H98  1  0.86849031  0.69961807  0.33267620  1
  H+  H99  1  0.90524194  0.51014389  -0.00568149  1
  H+  H100  1  0.38188985  0.89644436  0.49068327  1
  H+  H101  1  0.88260566  0.52349258  0.17525165  1
  H+  H102  1  0.88971752  0.27890310  0.65990023  1
  H+  H103  1  0.87664759  -0.00635554  0.50604158  1
  H+  H104  1  0.75902618  0.38747750  0.83605087  1
  H+  H105  1  0.02041776  0.64889129  0.80913024  1
  H+  H106  1  0.61960994  0.22856254  0.49765783  1
  H+  H107  1  0.63366156  0.52031436  -0.00885898  1
  H+  H108  1  0.62759400  0.36321113  0.16815598  1
  H+  H109  1  0.37988645  0.23084898  -0.00586720  1
  H+  H110  1  0.29081076  0.14465730  0.01002486  1
  H+  H111  1  0.39846623  0.02568895  0.51082329  1
  H+  H112  1  0.64973943  0.76684946  0.84090517  1
  H+  H113  1  0.51081641  0.12949790  0.67229960  1
  H+  H114  1  0.86982822  0.64800670  0.49056308  1
  H+  H115  1  0.73108594  0.09456877  0.32204703  1
  H+  H116  1  0.77409256  0.14292668  0.15160167  1
  H+  H117  1  0.72781158  0.11514256  0.98996288  1
  H+  H118  1  0.39793071  0.26991404  0.52447755  1
  H+  H119  1  0.60070641  0.12986126  0.82304656  1
  H+  H120  1  0.36502349  0.85632375  0.33612732  1
  H+  H121  1  0.85390669  0.22718544  0.82651390  1
  H+  H122  1  0.14792921  0.61814341  0.98619049  1
  H+  H123  1  0.34839984  0.76145545  0.83925020  1
  H+  H124  1  0.11922794  0.73015444  0.50854493  1
  H+  H125  1  0.27630018  0.38627510  0.67365875  1
  H+  H126  1  0.88926764  0.63122460  0.64952054  1
  H+  H127  1  1.00125659  0.36258079  0.21988407  1
  H+  H128  1  0.24549431  0.63453837  0.82672063  1
  H+  H129  1  0.36039406  0.97284441  0.34002128  1
  H+  H130  1  0.95371455  0.36318436  0.83783704  1
  H+  H131  1  0.39300601  0.37348310  0.67130186  1
  H+  H132  1  0.86637850  0.89637414  0.01856627  1
  H+  H133  1  0.14531097  0.53633554  0.49819005  1
  H+  H134  1  0.24769012  0.62247017  0.33797625  1
  H+  H135  1  0.40482808  0.06969412  0.70795089  1
  H+  H136  1  0.10689996  0.40011911  0.66870808  1
  H+  H137  1  0.36122424  0.48058820  0.82896773  1
  H+  H138  1  0.64161282  1.02829909  0.83587542  1
  H+  H139  1  0.76099223  0.39830261  0.15984653  1
  H+  H140  1  0.88450540  0.77602365  0.79193340  1
  H+  H141  1  0.66624113  0.08723252  0.93182883  1
  H+  H142  1  -0.01330716  0.62638673  0.49467917  1
  H+  H143  1  0.10918839  -0.02064146  0.81778329  1
  H+  H144  1  0.02809312  0.59127708  0.02458707  1
  H+  H145  1  0.89032787  0.35305067  0.33473230  1
  H+  H146  1  0.63863483  0.61261106  0.98903440  1
  H+  H147  1  0.12234273  1.11012510  0.16430654  1
  H+  H148  1  0.08781761  0.66715705  0.40472570  1
  H+  H149  1  0.36549464  0.68745317  1.07060663  1
  H+  H150  1  0.85875263  0.13381910  0.15314556  1
  H+  H151  1  0.10543105  0.62032119  0.34854607  1
  H+  H152  1  0.83316269  0.66886767  0.43240180  1
  H+  H153  1  0.56935233  0.17156896  0.40040617  1
  H+  H154  1  0.86547141  0.22127280  0.99995780  1
  H+  H155  1  0.38298663  1.01635437  -0.01739630  1
  H+  H156  1  0.64667466  0.12078514  0.50396563  1
  H+  H157  1  0.13607731  0.30108764  0.32672133  1
  H+  H158  1  0.13221192  0.10787515  0.81188028  1
  H+  H159  1  0.97922565  0.60366751  0.33308563  1
  H+  H160  1  0.08212611  0.39543444  0.82172374  1
  H+  H161  1  0.63378456  0.36269887  0.99339796  1
  H+  H162  1  0.86984289  0.77045103  0.50429232  1
  H+  H163  1  0.85872516  1.00817141  0.83611280  1
  H+  H164  1  0.55449737  0.88543816  0.83380199  1
  H+  H165  1  0.53921264  0.64228767  0.33836912  1
  H+  H166  1  0.38803556  0.10967607  0.97735256  1
  H+  H167  1  0.11478469  0.72163382  0.16714465  1
  H+  H168  1  0.42336998  0.83427425  0.55498924  1
  H+  H169  1  0.89401164  0.37014093  0.50639771  1
  H+  H170  1  0.12892481  0.76880548  0.63661715  1
  H+  H171  1  0.53605213  0.89190054  0.49569791  1
  H+  H172  1  0.37625019  0.27810636  0.37851050  1
  H+  H173  1  0.52712318  0.90003583  0.67323975  1
  H+  H174  1  0.97474750  0.12018535  0.17115284  1
  H+  H175  1  0.92538349  0.84169933  1.07347709  1
  H+  H176  1  0.63724515  0.62959051  0.82477238  1
  H+  H177  1  0.61095764  0.13567730  0.00174415  1
  H+  H178  1  0.63957822  0.88585619  0.82396297  1
  H+  H179  1  0.40770712  0.53100380  0.32830082  1
  H+  H180  1  0.28476182  0.62143926  0.14457662  1
  H+  H181  1  0.90085353  0.12214722  0.65986907  1
  H+  H182  1  0.37908185  0.13936002  0.15142612  1
  H+  H183  1  0.11283218  0.53112924  0.83004874  1
  H+  H184  1  0.62805850  0.27750375  0.83748172  1
  H+  H185  1  0.52924012  0.63665694  0.00475611  1
  H+  H186  1  0.04334765  0.89800930  0.02070317  1
  H+  H187  1  0.52568518  0.38896408  0.15305425  1
  H+  H188  1  0.52702476  0.39086760  0.00390786  1
  H+  H189  1  0.38630978  0.65242936  0.01081097  1
  H+  H190  1  0.57957665  0.86941651  0.33979295  1
  H+  H191  1  0.36082946  0.13947420  0.82385486  1
  H+  H192  1  0.97433366  0.86518210  0.78988835  1
  H+  H193  1  0.74079223  0.90442493  0.35486065  1
  H+  H194  1  0.36267257  0.12888837  0.50372486  1
  H+  H195  1  0.83450344  0.92414576  0.71996436  1
  H+  H196  1  0.88145742  0.14597216  0.49691961  1
  H+  H197  1  0.37342995  0.62999605  0.16667703  1
  H+  H198  1  0.75747412  0.35200199  0.01207904  1
  H+  H199  1  0.39491465  0.86440899  0.16801130  1
  H+  H200  1  0.13349336  0.08910995  0.51438165  1
  H+  H201  1  0.86340809  0.98390961  0.16437000  1
  H+  H202  1  0.37463644  0.14926393  0.67317908  1
  H+  H203  1  0.27715193  0.88672626  0.00245852  1
  H+  H204  1  0.83793161  0.38264957  0.16591203  1
  H+  H205  1  0.87630303  0.23184585  0.49370949  1
  H+  H206  1  0.11907955  0.97603053  0.16398496  1
  H+  H207  1  0.81095102  0.57438723  0.03392012  1
  H+  H208  1  0.11234512  0.63181041  0.17116159  1
  H+  H209  1  0.86187323  0.61260011  0.34788598  1
  H+  H210  1  0.77731735  0.64277812  0.65848255  1
  H+  H211  1  0.77449071  0.37258265  0.32901988  1
  H+  H212  1  1.02828258  0.14217714  1.00119232  1
  H+  H213  1  0.43052714  0.85120074  0.82707130  1
  H+  H214  1  0.28194165  0.38447553  0.15876854  1
  H+  H215  1  0.63807994  0.36271564  0.32584771  1
  H+  H216  1  0.27621291  0.39756373  0.32797542  1
  H+  H217  1  0.36626307  0.63845568  0.48095720  1
  H+  H218  1  0.51538149  0.13414843  0.15548543  1
  H+  H219  1  0.77481266  0.89322135  0.66178606  1
  H+  H220  1  0.08053432  0.65757316  0.07566410  1
  H+  H221  1  0.73591466  0.88590234  0.51841854  1
  H+  H222  1  0.11469127  0.40429449  0.47938702  1
  H+  H223  1  0.63287211  0.40205680  0.68879354  1
  H+  H224  1  0.13959021  0.52657046  -0.02135937  1
  H+  H225  1  0.35332740  0.75396967  0.33032860  1
  H+  H226  1  0.63405751  0.77848925  0.33190644  1
  H+  H227  1  0.78388098  0.25677251  0.20466435  1
  H+  H228  1  0.12501504  0.27802990  0.49434823  1
  H+  H229  1  0.42561014  0.33732043  0.93118584  1
  H+  H230  1  0.86359682  0.63456430  0.81162712  1
  H+  H231  1  0.61624496  0.46974794  0.49419382  1
  H+  H232  1  0.77160407  0.62665585  0.81429194  1
  H+  H233  1  0.52176744  0.37810085  0.34647466  1
  H+  H234  1  0.12221668  0.39312241  -0.00530665  1
  H+  H235  1  0.54733720  0.62020279  0.82012397  1
  H+  H236  1  0.86401871  0.45964310  0.33358329  1
  H+  H237  1  0.90776304  0.66452365  0.97467065  1
  H+  H238  1  0.39559635  0.26641941  0.15890601  1
  H+  H239  1  0.13727184  0.94273297  0.73259171  1
  H+  H240  1  0.51962549  0.12964142  -0.00410103  1
  H+  H241  1  0.60669392  0.13802492  0.67097311  1
  H+  H242  1  0.86860908  0.48243338  0.50028085  1
  H+  H243  1  0.24666701  0.15945312  0.66397262  1
  H+  H244  1  0.36928416  0.51033912  0.49633944  1
  H+  H245  1  0.63835152  0.77188273  0.66126181  1
  H+  H246  1  0.14941240  0.39676124  0.31724380  1
  H+  H247  1  0.48279475  0.38345265  0.69055657  1
  H+  H248  1  0.63005845  0.64625350  0.33961363  1
  H+  H249  1  0.41260325  0.07027045  0.89678926  1
  H+  H250  1  0.62780074  0.27414888  0.16750221  1
  H+  H251  1  0.12290737  0.64497673  0.49471358  1
  H+  H252  1  0.45543668  0.84955552  0.33147185  1
  H+  H253  1  0.63972771  0.86393927  -0.01069571  1
  H+  H254  1  0.90005767  0.78716077  1.01267280  1
  H+  H255  1  0.15387922  0.03693370  1.02795499  1
  H+  H256  1  0.38463168  1.01610370  0.17175415  1
  H+  H257  1  0.72969431  0.60107549  0.33527501  1
  H+  H258  1  0.90267166  0.88770056  0.32653624  1
  H+  H259  1  0.28239284  0.64642845  0.48500411  1
  H+  H260  1  0.44756010  0.63411001  0.84371291  1
  H+  H261  1  0.25563162  0.89531905  0.82177433  1
  H+  H262  1  0.99868101  0.67322379  0.97731881  1
  H+  H263  1  0.88578384  0.52835033  0.83977087  1
  H+  H264  1  0.56863040  0.15759624  0.76258472  1
  H+  H265  1  0.83975648  0.46262829  0.69781810  1
  H+  H266  1  0.11252533  0.23150160  0.15876413  1
  H+  H267  1  0.39825955  0.78097090  0.99754766  1
  H+  H268  1  0.62912084  0.64299446  0.66593492  1
  H+  H269  1  0.98549687  0.36721296  0.33200586  1
  H+  H270  1  0.14046252  0.85672307  0.18031534  1
  H+  H271  1  0.88567623  0.87137417  0.15377689  1
  H+  H272  1  0.13875110  0.77474362  0.99305136  1
  H+  H273  1  0.86752237  0.22546178  0.34511509  1
  H+  H274  1  0.14098768  0.27854427  0.98774734  1
  H+  H275  1  0.02726089  0.40425486  0.48292765  1
  H+  H276  1  0.39771148  0.77825870  0.17244037  1
  H+  H277  1  0.13394215  0.53692836  0.65355828  1
  H+  H278  1  0.12459633  0.95734940  0.51371741  1
  H+  H279  1  0.86514044  0.98377418  0.00766288  1
  H+  H280  1  0.35406090  0.37837296  0.33539498  1
  H+  H281  1  0.36973061  0.38317534  0.15425211  1
  H+  H282  1  0.03201335  0.88684796  0.15704513  1
  H+  H283  1  0.39228828  0.36224960  -0.00789403  1
  H+  H284  1  0.78091074  0.39182784  0.50818597  1
  H+  H285  1  0.13330815  0.87213176  0.51482748  1
  H+  H286  1  0.72921061  0.86545180  -0.00692147  1
  H+  H287  1  0.27163282  0.38823112  0.47871181  1
  H+  H288  1  0.81893019  0.40096153  0.75182068  1
  H+  H289  1  0.88113249  0.77462550  0.65318717  1
  H+  H290  1  0.17734075  0.59440548  0.55907799  1
  H+  H291  1  0.17407308  0.34288870  0.22955458  1
  H+  H292  1  0.72389607  0.86446728  0.18229041  1
  H+  H293  1  0.46904841  0.11464734  0.33048390  1
  H+  H294  1  0.11609187  0.91280729  0.42725422  1
  H+  H295  1  0.82707686  0.92699236  0.10417192  1
  H+  H296  1  0.83263703  0.15941222  0.40009131  1
  H+  H297  1  0.58921478  0.91899086  0.73108670  1
  H+  H298  1  0.06268368  0.42329928  0.75782796  1
  H+  H299  1  0.86781164  0.88826798  0.79499778  1
  H+  H300  1  0.79850158  0.02049710  0.88077595  1
  H+  H301  1  0.13946331  0.76629733  0.33353164  1
  H+  H302  1  0.17540212  0.11355518  0.61280313  1
  H+  H303  1  0.41074542  0.83395556  0.93564084  1
  H+  H304  1  0.66453683  0.33173599  0.57202270  1
  H+  H305  1  0.91546534  0.86868316  0.88868348  1
  H+  H306  1  0.91064603  0.74233459  0.23759953  1
  H+  H307  1  0.83302948  0.66685373  0.72039012  1
  H+  H308  1  0.67046856  0.56531003  0.24272316  1
  H+  H309  1  0.10650430  0.91861361  0.07541477  1
  H+  H310  1  0.67679803  0.82955952  0.89951448  1
  H+  H311  1  0.92361089  0.88220898  0.92146679  1
  H+  H312  1  0.41510498  0.07698838  0.23078544  1
  H+  H313  1  0.16080426  0.83247881  0.89675201  1
  H+  H314  1  0.89962821  0.03322092  0.65849695  1
  H+  H315  1  0.65811244  0.83937261  0.27346748  1
  H+  H316  1  0.61748814  0.72585540  1.00401986  1
  H+  H317  1  0.88331007  0.77832447  0.15400375  1
  H+  H318  1  0.07768249  0.17662435  0.09761021  1
  H+  H319  1  0.81475756  0.38590721  0.07270192  1
  H+  H320  1  0.18857505  0.24453134  0.63879996  1
  H+  H321  1  0.60430212  0.66821423  0.72927665  1
  H+  H322  1  0.91771775  0.09281372  0.23207930  1
  H+  H323  1  0.33023419  0.91435806  0.09928992  1
  H+  H324  1  0.90727459  0.32852191  0.90267000  1
  H+  H325  1  0.14939016  0.58801287  0.89132494  1
  H+  H326  1  0.91210387  0.07826231  0.93425522  1
  H+  H327  1  0.41036475  0.58264327  0.93799638  1
  H+  H328  1  0.17582422  0.33210380  0.92651411  1
  H+  H329  1  0.58105501  0.67254957  0.10468683  1
  H+  H330  1  0.48042801  0.61515406  0.17419485  1
  H+  H331  1  0.15980209  0.32623927  0.55619733  1
  H+  H332  1  0.10620496  0.43350153  0.05411656  1
  H+  H333  1  0.57299491  0.16570996  0.09443845  1
  H+  H334  1  0.58025424  0.40736349  0.40621925  1
  H+  H335  1  0.32529918  0.24716363  0.31719673  1
  H+  H336  1  0.92988400  0.61293563  0.88449963  1
  H+  H337  1  0.83092329  0.15947114  0.05825232  1
  H+  H338  1  0.17428079  0.01237265  0.68224309  1
  H+  H339  1  0.82179083  0.93802514  0.44903522  1
  H+  H340  1  0.18529941  0.10705545  0.21199108  1
  H+  H341  1  0.93008442  0.61010793  0.55278524  1
  H+  H342  1  0.42023999  0.32151146  0.22072288  1
  H+  H343  1  0.13817656  0.62764473  0.65010049  1
  H+  H344  1  0.08919112  0.68873097  0.71909655  1
  H+  H345  1  0.39354345  0.52228974  0.17492746  1
  H+  H346  1  0.43497372  0.57727693  0.60094137  1
  H+  H347  1  0.42232573  0.08360134  0.57110326  1
  H+  H348  1  0.10160833  0.46587111  0.38435101  1
  H+  H349  1  0.46551202  0.94543510  0.61113921  1
  H+  H350  1  0.83739972  0.17369625  0.72788896  1
  H+  H351  1  0.66690710  0.84172763  0.57469380  1
  H+  H352  1  0.88814878  0.03921426  0.32918081  1
  H+  H353  1  0.17009006  0.82544709  0.23873822  1
  H+  H354  1  0.92123488  0.57776055  0.27282930  1
  H+  H355  1  0.67527234  0.10990999  0.23122938  1
  H+  H356  1  0.95508170  0.10258961  0.56776946  1
  H+  H357  1  0.52860917  0.37856339  0.50121544  1
  H+  H358  1  0.38585917  0.24567848  0.67823199  1
  H+  H359  1  0.34209490  0.17742142  0.76402994  1
  H+  H360  1  0.87079296  0.63767138  0.16660731  1
  H+  H361  1  0.67102047  0.58333459  0.59193833  1
  H+  H362  1  0.82796041  0.90701394  0.36042936  1
  H+  H363  1  0.59232467  0.66157355  0.42931289  1
  H+  H364  1  0.33249131  0.42346400  0.42051133  1
  H+  H365  1  0.33635816  0.41486258  0.06352692  1
  H+  H366  1  0.82908891  0.65756745  0.10941592  1
  H+  H367  1  0.93040551  0.34128526  0.56069560  1
  H+  H368  1  0.69447014  0.01593687  0.27807219  1
  H+  H369  1  0.06546686  0.41516048  0.15107396  1
  H+  H370  1  0.67363813  0.09185976  0.59869320  1
  H+  H371  1  0.84583178  0.13337903  0.82537475  1
  H+  H372  1  0.29616859  0.91126671  0.70955008  1
  H+  H373  1  0.89864721  0.82896088  0.58079357  1
  H+  H374  1  0.32088541  0.66112040  0.38969827  1
  H+  H375  1  0.59329391  0.91392631  0.10229951  1
  H+  H376  1  0.58746918  0.42327488  0.06359781  1
  H+  H377  1  0.43726844  0.33633962  0.57962149  1
  H+  H378  1  0.66539020  0.56330963  0.89531016  1
  H+  H379  1  0.65809923  0.33003886  0.26358442  1
  H+  H380  1  0.09752889  0.18492799  0.39546045  1
  H+  H381  1  0.36589750  0.17452949  0.08752282  1
  H+  H382  1  0.16825054  0.11809090  0.42297067  1
  H+  H383  1  0.65641770  0.33136250  0.89869785  1
  O2-  O384  1  0.07702425  0.17173576  0.14293351  1
  O2-  O385  1  0.11179780  0.15739744  0.46700644  1
  O2-  O386  1  0.07000181  0.16224323  0.79093267  1
  O2-  O387  1  0.12486542  0.44763314  0.13705662  1
  O2-  O388  1  0.08750258  0.43777054  0.46653553  1
  O2-  O389  1  0.05483778  0.42477180  0.80321545  1
  O2-  O390  1  0.08400137  0.66095896  0.15117280  1
  O2-  O391  1  0.09199790  0.67611045  0.48307450  1
  O2-  O392  1  0.08164538  0.68220926  0.79537480  1
  O2-  O393  1  0.09511051  0.91432625  0.15158463  1
  O2-  O394  1  0.10593472  0.90170329  0.49292129  1
  O2-  O395  1  0.08065430  0.91869117  0.80182850  1
  O2-  O396  1  0.35896423  0.17626734  0.13216115  1
  O2-  O397  1  0.32740809  0.15721037  0.49758390  1
  O2-  O398  1  0.33556172  0.17365456  0.80993840  1
  O2-  O399  1  0.34107079  0.41593405  0.14138897  1
  O2-  O400  1  0.33194905  0.42257050  0.46599577  1
  O2-  O401  1  0.34246633  0.42216649  0.81361753  1
  O2-  O402  1  0.34510389  0.66339886  0.15023857  1
  O2-  O403  1  0.34152275  0.67428880  0.46699125  1
  O2-  O404  1  0.30924261  0.66584259  0.81710364  1
  O2-  O405  1  0.33255453  0.91383655  0.14444135  1
  O2-  O406  1  0.35508186  0.93187365  0.48293962  1
  O2-  O407  1  0.31609549  0.92307448  0.80445571  1
  O2-  O408  1  0.57513980  0.17034178  0.13956801  1
  O2-  O409  1  0.59042215  0.16831126  0.48157695  1
  O2-  O410  1  0.56395544  0.15372827  0.80874149  1
  O2-  O411  1  0.58618869  0.41846509  0.13846969  1
  O2-  O412  1  0.58687524  0.40859947  0.48016814  1
  O2-  O413  1  0.56357895  0.43282549  0.74052528  1
  O2-  O414  1  0.57380723  0.67064863  0.14912542  1
  O2-  O415  1  0.58964027  0.65290122  0.47462550  1
  O2-  O416  1  0.60694126  0.66144975  0.81076570  1
  O2-  O417  1  0.59350308  0.91442633  0.14705670  1
  O2-  O418  1  0.60010413  0.92468534  0.48943913  1
  O2-  O419  1  0.60779275  0.91667835  0.81105393  1
  O2-  O420  1  0.83062858  0.16181681  0.13149336  1
  O2-  O421  1  0.84510377  0.16943797  0.48263864  1
  O2-  O422  1  0.82362280  0.16903482  0.80680200  1
  O2-  O423  1  0.82276610  0.42543288  0.14751460  1
  O2-  O424  1  0.84332116  0.41949901  0.49999524  1
  O2-  O425  1  0.82206783  0.41785222  0.82282112  1
  O2-  O426  1  0.83976475  0.66917331  0.15362708  1
  O2-  O427  1  0.83331761  0.67330029  0.47791296  1
  O2-  O428  1  0.82888649  0.65951116  0.79505708  1
  O2-  O429  1  0.83219330  0.92303375  0.14911786  1
  O2-  O430  1  0.83375299  0.93348432  0.49286950  1
  O2-  O431  1  0.83427915  0.92098224  0.79623559  1
  O2-  O432  1  0.15638412  0.08142289  0.17311889  1
  O2-  O433  1  0.16069200  0.06345675  0.54040730  1
  O2-  O434  1  0.15986072  0.08256257  0.83603978  1
  O2-  O435  1  0.17698017  0.33693778  0.18438342  1
  O2-  O436  1  0.15659579  0.33590429  0.51223267  1
  O2-  O437  1  0.18333043  0.31639737  0.84553871  1
  O2-  O438  1  0.16858214  0.58612444  0.20800193  1
  O2-  O439  1  0.18062630  0.59665091  0.51379595  1
  O2-  O440  1  0.14659835  0.59110079  0.84490249  1
  O2-  O441  1  0.16857332  0.82348987  0.19322444  1
  O2-  O442  1  0.17187046  0.81887306  0.55042716  1
  O2-  O443  1  0.16090390  0.83783378  0.85173160  1
  O2-  O444  1  0.41599113  0.07743577  0.18553637  1
  O2-  O445  1  0.42602730  0.08725553  0.52658747  1
  O2-  O446  1  0.41322383  0.07085616  0.84805065  1
  O2-  O447  1  0.42016243  0.32764652  0.17670571  1
  O2-  O448  1  0.43782306  0.33048644  0.53494314  1
  O2-  O449  1  0.42689441  0.33740636  0.85971542  1
  O2-  O450  1  0.41923505  0.58171946  0.19100460  1
  O2-  O451  1  0.38626723  0.56606836  0.52062755  1
  O2-  O452  1  0.39174743  0.58869513  0.85745345  1
  O2-  O453  1  0.43006723  0.83976692  0.18224289  1
  O2-  O454  1  0.43178013  0.83456852  0.51068468  1
  O2-  O455  1  0.37871231  0.82505478  0.85166126  1
  O2-  O456  1  0.69363085  0.14387948  0.19335118  1
  O2-  O457  1  0.67592897  0.08977685  0.52078973  1
  O2-  O458  1  0.66212613  0.08775901  0.84959339  1
  O2-  O459  1  0.65746770  0.33317056  0.18534509  1
  O2-  O460  1  0.66995836  0.33124554  0.52708411  1
  O2-  O461  1  0.66040813  0.33621469  0.85339896  1
  O2-  O462  1  0.67171611  0.55991928  0.19772791  1
  O2-  O463  1  0.66789736  0.57455920  0.51823394  1
  O2-  O464  1  0.66979277  0.56655281  0.84980070  1
  O2-  O465  1  0.66417242  0.83485239  0.19762996  1
  O2-  O466  1  0.67276001  0.85295886  0.52908122  1
  O2-  O467  1  0.67777934  0.82808354  0.85350451  1
  O2-  O468  1  0.91439105  0.08794093  0.18669234  1
  O2-  O469  1  0.94980775  0.09791859  0.52271744  1
  O2-  O470  1  0.85570576  0.05242922  0.86298840  1
  O2-  O471  1  0.84219206  0.30356025  0.19420488  1
  O2-  O472  1  0.92882907  0.34072784  0.51584428  1
  O2-  O473  1  0.89719248  0.32670055  0.85737103  1
  O2-  O474  1  0.91633461  0.58428236  0.19157452  1
  O2-  O475  1  0.92520568  0.60004016  0.50833336  1
  O2-  O476  1  0.92053982  0.59241048  0.84146511  1
  O2-  O477  1  0.92000632  0.84137499  0.14706839  1
  O2-  O478  1  0.89555191  0.82891706  0.52416785  1
  O2-  O479  1  0.91189529  0.83669809  0.77942746  1
  O2-  O480  1  0.22006495  0.17142791  0.29016389  1
  O2-  O481  1  0.18896971  0.14791394  0.65074120  1
  O2-  O482  1  0.18325926  0.10005835  1.03607191  1
  O2-  O483  1  0.17148807  0.35797952  0.30578040  1
  O2-  O484  1  0.17721008  0.29399495  0.64115108  1
  O2-  O485  1  0.17349972  0.33846964  0.97115657  1
  O2-  O486  1  0.14130442  0.55494600  0.31992807  1
  O2-  O487  1  0.16842165  0.59623096  0.63758924  1
  O2-  O488  1  0.16559448  0.58512427  0.96050842  1
  O2-  O489  1  0.17019020  0.82647050  0.31746780  1
  O2-  O490  1  0.15347597  0.82790076  0.61487817  1
  O2-  O491  1  0.16990407  0.83322766  0.97674645  1
  O2-  O492  1  0.40889662  0.07484425  0.31087080  1
  O2-  O493  1  0.41158850  0.07823272  0.66406415  1
  O2-  O494  1  0.41365584  0.07414886  0.96152995  1
  O2-  O495  1  0.38033113  0.29292559  0.33552011  1
  O2-  O496  1  0.43231910  0.35101847  0.66215647  1
  O2-  O497  1  0.42528118  0.33468610  0.97768953  1
  O2-  O498  1  0.44366324  0.59147949  0.31570234  1
  O2-  O499  1  0.43138907  0.57618765  0.64548116  1
  O2-  O500  1  0.42221694  0.58391684  0.98195907  1
  O2-  O501  1  0.39001284  0.82009314  0.31942375  1
  O2-  O502  1  0.43498425  0.88902896  0.63041228  1
  O2-  O503  1  0.42164270  0.84143245  0.97971794  1
  O2-  O504  1  0.67810040  0.05323304  0.29912145  1
  O2-  O505  1  0.67313554  0.09284658  0.64432450  1
  O2-  O506  1  0.66599517  0.08535115  0.97694300  1
  O2-  O507  1  0.66172634  0.32776723  0.30884651  1
  O2-  O508  1  0.65791942  0.33139759  0.65422220  1
  O2-  O509  1  0.66003019  0.32963846  0.97626318  1
  O2-  O510  1  0.66970131  0.57793535  0.32015840  1
  O2-  O511  1  0.67805392  0.59346825  0.63743705  1
  O2-  O512  1  0.66752727  0.58056245  0.97374365  1
  O2-  O513  1  0.65255369  0.83914493  0.31915216  1
  O2-  O514  1  0.66532379  0.83291060  0.64591826  1
  O2-  O515  1  0.67053875  0.83334741  0.97480848  1
  O2-  O516  1  0.92200077  0.09658514  0.31082257  1
  O2-  O517  1  0.93715546  0.09608162  0.65108864  1
  O2-  O518  1  0.92240229  0.08549329  0.97878567  1
  O2-  O519  1  0.92492626  0.32279715  0.33328206  1
  O2-  O520  1  0.91856051  0.34099361  0.64699999  1
  O2-  O521  1  0.91792727  0.32677952  0.97750714  1
  O2-  O522  1  0.91886337  0.57204819  0.31781159  1
  O2-  O523  1  0.92700217  0.60803958  0.63226725  1
  O2-  O524  1  0.95787880  0.67657444  0.94943153  1
  O2-  O525  1  0.93356714  0.77151456  0.27625559  1
  O2-  O526  1  0.90624267  0.83315430  0.63378811  1
  O2-  O527  1  0.92983180  0.84614647  1.02751279  1
  O2-  O528  1  0.08672546  0.17873337  0.01917168  1
  O2-  O529  1  0.09234049  0.19902845  0.35165615  1
  O2-  O530  1  0.05879943  0.19915999  0.73441567  1
  O2-  O531  1  0.09298640  0.42434869  0.01016480  1
  O2-  O532  1  0.10269420  0.46321139  0.33908625  1
  O2-  O533  1  0.07632713  0.42872350  0.68313303  1
  O2-  O534  1  0.07344449  0.65088720  0.02990973  1
  O2-  O535  1  0.08424772  0.66083254  0.35951641  1
  O2-  O536  1  0.08927396  0.68516778  0.67325733  1
  O2-  O537  1  0.10570016  0.92414114  0.02982446  1
  O2-  O538  1  0.12471599  0.92857912  0.38034929  1
  O2-  O539  1  0.17439486  0.96092719  0.69590522  1
  O2-  O540  1  0.35401563  0.16900987  0.00728045  1
  O2-  O541  1  0.20913507  0.10439171  0.40077988  1
  O2-  O542  1  0.34917888  0.18380496  0.69005841  1
  O2-  O543  1  0.33881267  0.41689344  0.01796135  1
  O2-  O544  1  0.33543989  0.42047533  0.34450928  1
  O2-  O545  1  0.33287862  0.42220619  0.69321566  1
  O2-  O546  1  0.36463705  0.69013067  0.02572359  1
  O2-  O547  1  0.30977397  0.66432625  0.34577250  1
  O2-  O548  1  0.32020138  0.67027053  0.69797055  1
  O2-  O549  1  0.33714668  0.92142451  0.01765809  1
  O2-  O550  1  0.33110115  0.91443641  0.35903215  1
  O2-  O551  1  0.30620055  0.91394406  0.66538530  1
  O2-  O552  1  0.57705141  0.16321921  0.01482501  1
  O2-  O553  1  0.55632393  0.16954906  0.35647324  1
  O2-  O554  1  0.57387292  0.16406615  0.68807813  1
  O2-  O555  1  0.58851184  0.42322658  0.01772118  1
  O2-  O556  1  0.58125126  0.41085055  0.36011633  1
  O2-  O557  1  0.63930142  0.45676216  0.70624937  1
  O2-  O558  1  0.59015484  0.66559033  0.01887974  1
  O2-  O559  1  0.60068449  0.67743034  0.35424634  1
  O2-  O560  1  0.59898207  0.67188626  0.68472226  1
  O2-  O561  1  0.59062734  0.91649378  0.01537963  1
  O2-  O562  1  0.54472107  0.89653314  0.35118639  1
  O2-  O563  1  0.58723876  0.92078092  0.68604789  1
  O2-  O564  1  0.83250215  0.15938578  0.01217374  1
  O2-  O565  1  0.83131451  0.16148169  0.35503604  1
  O2-  O566  1  0.84196472  0.17566454  0.68260177  1
  O2-  O567  1  0.80785903  0.35585240  0.03341032  1
  O2-  O568  1  0.83421577  0.39784367  0.34352052  1
  O2-  O569  1  0.82136830  0.40256352  0.70516557  1
  O2-  O570  1  0.81548863  0.63047983  0.02910123  1
  O2-  O571  1  0.83437105  0.64802086  0.35837297  1
  O2-  O572  1  0.83837544  0.67322870  0.67469215  1
  O2-  O573  1  0.83094811  0.92404199  0.02447062  1
  O2-  O574  1  0.80041253  0.93930027  0.37353857  1
  O2-  O575  1  0.83636376  0.92356262  0.67423746  1
