# generated using pymatgen
data_H2O
_symmetry_space_group_name_H-M   'P 1'
_cell_length_a   17.99208186
_cell_length_b   17.99489172
_cell_length_c   22.00704427
_cell_angle_alpha   89.97975145
_cell_angle_beta   90.00116423
_cell_angle_gamma   120.00368718
_symmetry_Int_Tables_number   1
_chemical_formula_structural   H2O
_chemical_formula_sum   'H384 O192'
_cell_volume   6170.30786392
_cell_formula_units_Z   192
loop_
 _symmetry_equiv_pos_site_id
 _symmetry_equiv_pos_as_xyz
  1  'x, y, z'
loop_
 _atom_type_symbol
 _atom_type_oxidation_number
  H+  1.0
  O2-  -2.0
loop_
 _atom_site_type_symbol
 _atom_site_label
 _atom_site_symmetry_multiplicity
 _atom_site_fract_x
 _atom_site_fract_y
 _atom_site_fract_z
 _atom_site_occupancy
  H+  H0  1  0.85124258  -0.03739909  0.49826779  1
  H+  H1  1  0.78314492  0.38313316  0.49489689  1
  H+  H2  1  0.59309671  -0.03855853  0.15581111  1
  H+  H3  1  0.18143945  0.83052640  0.56917562  1
  H+  H4  1  0.13833233  0.86046714  0.84437055  1
  H+  H5  1  0.33571604  0.66878007  0.10683022  1
  H+  H6  1  0.79469954  0.30953969  0.71114290  1
  H+  H7  1  0.43280726  0.63592937  0.32796464  1
  H+  H8  1  0.17969473  0.85235060  0.26457001  1
  H+  H9  1  0.37049277  0.27122358  0.34918477  1
  H+  H10  1  0.01432955  0.63801321  0.17721229  1
  H+  H11  1  0.26624779  0.90162356  0.01349562  1
  H+  H12  1  0.30619003  0.38358809  0.48215388  1
  H+  H13  1  0.89936912  0.54406898  0.32873341  1
  H+  H14  1  0.84707206  0.87953208  0.15648345  1
  H+  H15  1  0.64467242  0.36775581  0.65905496  1
  H+  H16  1  0.76646898  0.62955615  0.47845672  1
  H+  H17  1  0.16535127  0.96933121  0.45256272  1
  H+  H18  1  -0.00753757  0.86656264  0.49395652  1
  H+  H19  1  0.86292730  0.38482923  0.00566015  1
  H+  H20  1  0.39071337  0.51961829  1.00148591  1
  H+  H21  1  0.18036388  0.77206116  0.66168266  1
  H+  H22  1  0.95398147  0.02039348  0.65289836  1
  H+  H23  1  0.39812929  0.33339856  0.29313612  1
  H+  H24  1  0.36280046  0.72731380  0.16777364  1
  H+  H25  1  0.29534912  0.40365894  0.68488558  1
  H+  H26  1  0.13480262  1.00028088  0.84216758  1
  H+  H27  1  0.12286776  0.63797676  0.30217853  1
  H+  H28  1  0.59341837  -0.02801453  0.67316616  1
  H+  H29  1  0.12297370  0.09945128  0.52001985  1
  H+  H30  1  0.61371574  0.47982001  0.15211163  1
  H+  H31  1  0.61601388  0.23223163  0.82546085  1
  H+  H32  1  0.34209650  0.37593645  0.38128295  1
  H+  H33  1  0.14133985  0.34807669  0.31514543  1
  H+  H34  1  0.51249640  0.13306042  0.19787752  1
  H+  H35  1  0.89384475  0.28276324  0.83572612  1
  H+  H36  1  0.39012400  0.61301796  0.51363631  1
  H+  H37  1  0.11641948  0.76828496  0.34894227  1
  H+  H38  1  0.60519823  0.72565117  0.50065638  1
  H+  H39  1  0.62276972  0.96558855  0.34872307  1
  H+  H40  1  0.36043208  0.45194571  0.53014839  1
  H+  H41  1  0.61148026  0.22916351  0.67075076  1
  H+  H42  1  0.88415810  0.86243903  0.84765326  1
  H+  H43  1  0.51593942  0.20616315  0.44817854  1
  H+  H44  1  0.58559584  0.88394001  0.82584449  1
  H+  H45  1  0.49420307  0.87779985  0.82610139  1
  H+  H46  1  0.60485498  0.73146721  0.68452539  1
  H+  H47  1  0.37156911  0.09823450  0.17935475  1
  H+  H48  1  0.61564654  0.63359554  0.84021724  1
  H+  H49  1  0.48091117  0.85821691  0.50059482  1
  H+  H50  1  0.81429539  0.96160944  0.68303803  1
  H+  H51  1  0.60080194  0.21828290  0.18195544  1
  H+  H52  1  0.72525611  0.36249827  0.99742814  1
  H+  H53  1  0.72892931  0.85274755  0.32727589  1
  H+  H54  1  0.64848399  0.36532125  0.50511936  1
  H+  H55  1  0.60458936  0.23766340  0.47928271  1
  H+  H56  1  0.63553054  0.78489169  0.99934983  1
  H+  H57  1  0.89683171  0.57849613  0.24344027  1
  H+  H58  1  0.77236705  0.14159525  0.82400391  1
  H+  H59  1  0.85224799  0.17034310  0.11056258  1
  H+  H60  1  0.61590406  0.48112986  -0.00638700  1
  H+  H61  1  0.07669144  0.91441271  0.38607324  1
  H+  H62  1  0.60804825  0.21703042  1.00398308  1
  H+  H63  1  0.16953987  0.83206871  0.93918243  1
  H+  H64  1  0.89546366  0.36575862  0.17298174  1
  H+  H65  1  0.13983058  1.03107326  0.17696160  1
  H+  H66  1  0.22927680  0.10706613  0.99650457  1
  H+  H67  1  0.30199576  0.62951808  0.34015586  1
  H+  H68  1  0.63098406  0.36956377  0.35021351  1
  H+  H69  1  0.06693480  0.14129731  0.44228077  1
  H+  H70  1  0.86647666  0.13041635  0.34027245  1
  H+  H71  1  0.52555005  0.65196080  0.31238090  1
  H+  H72  1  0.13251822  0.41522153  0.83031320  1
  H+  H73  1  0.94154747  0.06617157  0.70947290  1
  H+  H74  1  0.10948682  0.73576093  0.02029855  1
  H+  H75  1  0.11487489  0.48457504  0.15507309  1
  H+  H76  1  0.52673403  0.14223479  0.82595894  1
  H+  H77  1  0.85667144  0.97202928  0.00588949  1
  H+  H78  1  0.73391780  0.86989299  0.67547691  1
  H+  H79  1  0.04731032  0.39164175  0.67714695  1
  H+  H80  1  0.11068997  -0.01275096  0.33437659  1
  H+  H81  1  0.63463256  0.08755733  0.32456664  1
  H+  H82  1  0.38520784  0.24591385  0.50899949  1
  H+  H83  1  0.39437485  0.77571943  0.98585118  1
  H+  H84  1  0.40888323  0.38217356  0.69617383  1
  H+  H85  1  0.67315568  0.57783009  0.55100269  1
  H+  H86  1  0.28261524  0.93809767  0.33478045  1
  H+  H87  1  0.38450558  0.85366910  0.18110193  1
  H+  H88  1  0.97254240  0.86979901  0.31700662  1
  H+  H89  1  0.91549804  0.37283274  0.66373934  1
  H+  H90  1  0.16381769  0.59926787  0.56963199  1
  H+  H91  1  0.35613075  0.63642327  0.66738530  1
  H+  H92  1  0.22215841  0.61551129  0.65391658  1
  H+  H93  1  0.86035721  0.88460111  0.33580034  1
  H+  H94  1  0.89551127  0.63106904  0.32169729  1
  H+  H95  1  0.00660368  0.11214205  0.50130488  1
  H+  H96  1  0.62681341  0.51352558  0.49681155  1
  H+  H97  1  0.29032746  0.89761626  0.68121057  1
  H+  H98  1  0.65173457  0.83345618  0.78227495  1
  H+  H99  1  0.87688188  0.23310631  1.01280137  1
  H+  H100  1  0.61550494  0.38958525  -0.00297538  1
  H+  H101  1  0.34906072  0.72057993  0.66155261  1
  H+  H102  1  0.14433007  0.20400263  0.83734748  1
  H+  H103  1  0.06211715  0.15735900  0.67768484  1
  H+  H104  1  0.85601379  0.63814780  0.15997950  1
  H+  H105  1  0.95870962  0.80265411  0.54740627  1
  H+  H106  1  0.46769637  0.36052302  0.99308451  1
  H+  H107  1  0.60667016  0.85709331  0.66017152  1
  H+  H108  1  0.19447080  0.57006640  0.25258067  1
  H+  H109  1  0.86448369  0.64963287  1.00100967  1
  H+  H110  1  0.88682145  0.02788559  0.83966525  1
  H+  H111  1  0.91035987  0.83899566  0.25900765  1
  H+  H112  1  0.87689501  0.38939113  0.49771356  1
  H+  H113  1  0.98231173  0.54276228  0.95696785  1
  H+  H114  1  0.62993649  1.02553748  0.83228248  1
  H+  H115  1  0.35989931  0.38889483  0.01022095  1
  H+  H116  1  0.98981023  0.12487367  0.18244244  1
  H+  H117  1  0.36905504  0.00408013  0.68501357  1
  H+  H118  1  0.07505001  0.90420216  0.77244528  1
  H+  H119  1  0.40535972  0.29309711  0.67836687  1
  H+  H120  1  0.13774950  0.37110988  0.16324032  1
  H+  H121  1  0.36784821  0.48603032  0.15751640  1
  H+  H122  1  0.13614656  0.46041214  0.32080103  1
  H+  H123  1  0.36951713  0.72320649  0.49542808  1
  H+  H124  1  0.90193779  0.12893085  0.18423808  1
  H+  H125  1  0.12575807  0.64768273  0.82993874  1
  H+  H126  1  0.10078312  0.41122770  0.38415375  1
  H+  H127  1  0.13736586  0.50514948  0.81783485  1
  H+  H128  1  0.13170162  0.88766939  0.49426968  1
  H+  H129  1  0.56983068  0.15852727  0.29785310  1
  H+  H130  1  0.12158298  -0.02003481  0.68648670  1
  H+  H131  1  0.76177854  0.88553907  1.00399192  1
  H+  H132  1  0.22586277  0.11895685  0.33896762  1
  H+  H133  1  0.26814797  0.12498404  0.82726769  1
  H+  H134  1  0.89378485  0.26741388  0.32202598  1
  H+  H135  1  0.98212775  0.11242139  0.99304042  1
  H+  H136  1  0.48804143  0.12451570  -0.01211636  1
  H+  H137  1  0.84774138  0.72458136  0.67207986  1
  H+  H138  1  0.13744355  0.62288904  0.65898277  1
  H+  H139  1  0.77792774  0.42238145  0.35859407  1
  H+  H140  1  1.03739779  0.66107772  0.68864885  1
  H+  H141  1  0.88036629  0.77154802  0.84808142  1
  H+  H142  1  0.27787525  0.13979269  0.16436320  1
  H+  H143  1  0.13670685  0.11929561  0.33381627  1
  H+  H144  1  0.72270913  0.61546994  0.16993800  1
  H+  H145  1  0.71375465  0.34159543  0.14213296  1
  H+  H146  1  0.66162855  0.30736097  0.37554551  1
  H+  H147  1  0.87642002  0.14484545  0.01261482  1
  H+  H148  1  0.65132213  0.07332663  0.93323545  1
  H+  H149  1  0.11443315  0.89379232  0.16446766  1
  H+  H150  1  0.27788205  0.63796905  0.49950312  1
  H+  H151  1  0.27748982  0.87864770  0.49544837  1
  H+  H152  1  0.98486560  0.35229869  0.31960897  1
  H+  H153  1  0.85495445  0.46547880  0.16182697  1
  H+  H154  1  0.87685364  0.86445096  1.00008220  1
  H+  H155  1  0.24564977  0.12858472  0.65542319  1
  H+  H156  1  0.47726907  0.11962779  0.66072980  1
  H+  H157  1  0.12289634  0.14635287  0.15781637  1
  H+  H158  1  0.39028335  0.85841348  0.49974019  1
  H+  H159  1  0.28317896  0.63552157  1.00936383  1
  H+  H160  1  0.59691691  0.87453990  0.15393994  1
  H+  H161  1  0.02334008  0.64568631  0.01618793  1
  H+  H162  1  0.23104587  0.36873352  0.99862612  1
  H+  H163  1  0.02629986  0.39365964  0.15834214  1
  H+  H164  1  0.27731674  0.39889500  0.15303507  1
  H+  H165  1  0.88165562  0.23273252  0.16680591  1
  H+  H166  1  0.37222382  0.63866325  0.01449343  1
  H+  H167  1  0.40514460  0.77535706  0.33435369  1
  H+  H168  1  0.76697784  0.63450668  0.83300345  1
  H+  H169  1  0.87529852  0.22749515  0.49782910  1
  H+  H170  1  0.61262867  0.63822432  0.00566438  1
  H+  H171  1  0.98018380  0.61263957  0.47442868  1
  H+  H172  1  0.25530570  0.37244650  0.37440237  1
  H+  H173  1  0.13522182  0.61958354  0.17766799  1
  H+  H174  1  0.61213287  0.00395458  0.98799676  1
  H+  H175  1  0.10784727  0.64287503  0.49043339  1
  H+  H176  1  0.11660488  0.39027688  0.00767817  1
  H+  H177  1  0.12114173  0.23454139  0.15178942  1
  H+  H178  1  0.36225963  0.39078761  0.83877953  1
  H+  H179  1  0.48790479  0.61539632  0.85905920  1
  H+  H180  1  0.87629573  0.89367163  0.65367130  1
  H+  H181  1  0.14862502  0.15420944  0.68009667  1
  H+  H182  1  0.29351116  0.98350350  0.05204541  1
  H+  H183  1  0.64142603  0.36878719  0.85280477  1
  H+  H184  1  0.62694819  0.85569403  0.50600987  1
  H+  H185  1  0.98433916  0.62532664  0.83364949  1
  H+  H186  1  0.63187218  0.60983316  0.16916537  1
  H+  H187  1  0.11995446  0.13925853  0.00404306  1
  H+  H188  1  0.97581069  0.86934858  0.17084449  1
  H+  H189  1  0.12208672  0.37976411  0.48520637  1
  H+  H190  1  0.46426885  0.10237660  0.51177822  1
  H+  H191  1  0.62709263  0.51546951  0.66689692  1
  H+  H192  1  0.14244281  0.27631348  0.99547380  1
  H+  H193  1  0.34936489  0.76300476  0.84281740  1
  H+  H194  1  0.61837988  -0.03121460  0.49672982  1
  H+  H195  1  0.00571031  0.12382024  0.34487136  1
  H+  H196  1  0.12474955  0.61950801  0.33233679  1
  H+  H197  1  0.78211200  0.14240245  0.49905456  1
  H+  H198  1  0.87915893  0.60363440  0.46873452  1
  H+  H199  1  0.46956438  0.36086393  0.85451099  1
  H+  H200  1  0.91442969  0.28612743  0.66180800  1
  H+  H201  1  0.52099097  0.63309155  0.15772468  1
  H+  H202  1  0.53220102  0.39024405  0.69535902  1
  H+  H203  1  0.63302131  0.11715018  0.66159799  1
  H+  H204  1  0.98321418  0.37261646  0.83435014  1
  H+  H205  1  0.72800757  0.35725051  0.65999994  1
  H+  H206  1  0.50278573  0.62744527  0.50785072  1
  H+  H207  1  0.72112781  0.11621679  0.66354894  1
  H+  H208  1  0.10468898  0.24603612  0.50990702  1
  H+  H209  1  0.86318645  0.47238840  1.00337249  1
  H+  H210  1  0.13419670  0.86294370  0.99540613  1
  H+  H211  1  0.63820259  0.11739805  0.83264067  1
  H+  H212  1  0.71639145  0.61799872  0.32160933  1
  H+  H213  1  0.77062285  0.89114488  0.83388724  1
  H+  H214  1  0.48678775  0.61239835  0.00252837  1
  H+  H215  1  0.14602006  0.88725449  0.31776359  1
  H+  H216  1  0.59432057  0.56180416  0.62215593  1
  H+  H217  1  0.01999565  0.88471916  0.01109517  1
  H+  H218  1  0.86368854  0.73539889  0.32587342  1
  H+  H219  1  0.38078307  0.27252832  0.84120647  1
  H+  H220  1  0.36026210  0.88299778  0.83132663  1
  H+  H221  1  0.17030699  0.28829264  0.66153435  1
  H+  H222  1  0.12994390  0.01474766  0.52272475  1
  H+  H223  1  0.02507401  0.91079732  0.67959850  1
  H+  H224  1  0.40367316  0.82419527  0.58734023  1
  H+  H225  1  0.56702608  0.15718927  0.37250285  1
  H+  H226  1  0.57655395  0.41348016  0.91231214  1
  H+  H227  1  0.14130695  0.39101009  0.67689276  1
  H+  H228  1  0.88786575  0.77826270  0.16887432  1
  H+  H229  1  0.82539216  0.91109737  0.77577504  1
  H+  H230  1  0.52969816  0.88107642  0.34972105  1
  H+  H231  1  0.12826286  0.76897378  0.51316887  1
  H+  H232  1  0.92742944  0.09010532  0.26753541  1
  H+  H233  1  -0.00415152  0.37487202  0.50229412  1
  H+  H234  1  0.44236416  0.85818200  0.65305243  1
  H+  H235  1  0.83256954  0.40047921  0.73971417  1
  H+  H236  1  0.36982259  0.14042375  0.00443217  1
  H+  H237  1  0.35884618  0.22273490  0.01115882  1
  H+  H238  1  0.88678271  1.02046037  0.32566545  1
  H+  H239  1  0.15009717  0.61398890  0.99245206  1
  H+  H240  1  0.92427962  0.34292081  0.93322674  1
  H+  H241  1  0.86211594  0.14635883  0.67620765  1
  H+  H242  1  0.13080884  0.77719336  0.18071062  1
  H+  H243  1  0.53396743  0.34924089  0.27357223  1
  H+  H244  1  0.90246800  0.54794972  0.66952424  1
  H+  H245  1  0.27953040  0.12849454  0.50249652  1
  H+  H246  1  0.61473083  0.09470949  0.18734776  1
  H+  H247  1  0.64710698  0.57562422  0.27257741  1
  H+  H248  1  0.23177983  0.86849859  0.84447063  1
  H+  H249  1  0.12522742  0.30041959  0.85063595  1
  H+  H250  1  0.37496891  0.10664996  0.51030437  1
  H+  H251  1  0.71521207  0.85201586  0.16548541  1
  H+  H252  1  0.63035547  0.34965319  0.13956795  1
  H+  H253  1  0.37030384  0.22639183  0.60040899  1
  H+  H254  1  0.27776809  0.40032589  0.84066440  1
  H+  H255  1  0.35492718  -0.03574982  0.17027819  1
  H+  H256  1  0.87097510  0.39926793  0.82931587  1
  H+  H257  1  0.60352767  0.63187835  0.49341332  1
  H+  H258  1  -0.01600525  0.37448538  -0.00755758  1
  H+  H259  1  0.97717066  0.11536885  0.83857726  1
  H+  H260  1  0.64110525  0.10887324  0.50565095  1
  H+  H261  1  0.17946964  0.47410549  0.46174015  1
  H+  H262  1  0.37093878  -0.01891957  0.83479988  1
  H+  H263  1  0.39548143  0.53253031  0.66857173  1
  H+  H264  1  0.22488570  0.86150878  0.17386820  1
  H+  H265  1  0.89248041  0.62291214  0.83798918  1
  H+  H266  1  0.11117009  0.97207753  0.00835605  1
  H+  H267  1  0.39347992  0.52492825  0.85749487  1
  H+  H268  1  0.08655070  0.42417415  0.06496562  1
  H+  H269  1  0.02550027  0.67891516  0.34699001  1
  H+  H270  1  0.88580000  0.62033623  0.69187662  1
  H+  H271  1  0.12363671  0.73504589  0.83411304  1
  H+  H272  1  0.65400424  0.56864866  0.79728995  1
  H+  H273  1  0.86131109  0.73673642  0.00591951  1
  H+  H274  1  0.48009918  0.62375466  0.66988527  1
  H+  H275  1  1.01740320  0.87444124  0.83389807  1
  H+  H276  1  0.59858120  0.12187555  -0.00175756  1
  H+  H277  1  0.85271187  0.87529562  0.49352896  1
  H+  H278  1  0.73154011  0.37168371  0.83903889  1
  H+  H279  1  0.14433018  0.52248759  0.99092200  1
  H+  H280  1  0.13146365  0.08668425  0.83978580  1
  H+  H281  1  0.13103980  0.53868546  0.51075117  1
  H+  H282  1  0.87114572  0.48859168  0.82284164  1
  H+  H283  1  0.39100956  0.11221603  0.83847904  1
  H+  H284  1  0.72794854  0.61948923  -0.01466219  1
  H+  H285  1  0.51490178  0.36814731  0.50237849  1
  H+  H286  1  0.39053756  0.61867216  0.17813469  1
  H+  H287  1  0.49086027  0.35736499  0.18423705  1
  H+  H288  1  0.47373261  0.85418275  0.17387665  1
  H+  H289  1  0.20788505  0.35217628  0.60409142  1
  H+  H290  1  0.38130229  0.05610817  0.24107024  1
  H+  H291  1  0.37993492  0.16111493  0.64472247  1
  H+  H292  1  0.90284260  0.06989485  0.57276716  1
  H+  H293  1  0.10777076  0.17629393  0.76992174  1
  H+  H294  1  0.83349602  0.67049230  0.09782161  1
  H+  H295  1  0.58224832  0.17199593  0.73205415  1
  H+  H296  1  0.32610758  0.15686868  0.41808743  1
  H+  H297  1  0.36232541  -0.03174745  0.50250092  1
  H+  H298  1  0.61243368  0.48222406  0.85840998  1
  H+  H299  1  0.93321909  0.57942204  0.92090040  1
  H+  H300  1  0.33481404  0.42598430  0.06988449  1
  H+  H301  1  0.86284310  0.14338933  0.82600702  1
  H+  H302  1  0.65913630  0.05740756  0.22737888  1
  H+  H303  1  0.40343339  0.82554977  0.90104906  1
  H+  H304  1  0.34556363  0.43773649  0.74829183  1
  H+  H305  1  0.67242867  0.33301656  0.93555942  1
  H+  H306  1  0.09023038  0.17018174  0.06273163  1
  H+  H307  1  0.08250979  0.69172004  0.43464927  1
  H+  H308  1  0.51854984  0.38268689  0.33307934  1
  H+  H309  1  0.91978041  0.08623136  0.93583480  1
  H+  H310  1  0.83998485  0.41565663  0.09860857  1
  H+  H311  1  0.07840748  0.21606818  0.37083340  1
  H+  H312  1  0.27375077  0.80641519  0.63116951  1
  H+  H313  1  0.82736404  0.90946739  0.39662790  1
  H+  H314  1  0.81501475  0.90483276  0.09684447  1
  H+  H315  1  0.61588288  0.42612615  0.73794467  1
  H+  H316  1  0.92820611  0.33794240  0.23310359  1
  H+  H317  1  0.17350298  0.34059850  0.21959081  1
  H+  H318  1  0.33866787  0.16443549  0.10596893  1
  H+  H319  1  0.41270166  0.26392409  0.19448589  1
  H+  H320  1  0.32967614  0.91184872  0.10886657  1
  H+  H321  1  0.64101238  0.82458214  0.60268995  1
  H+  H322  1  0.07033042  0.28637309  0.55723313  1
  H+  H323  1  0.67683627  0.32152105  0.25132714  1
  H+  H324  1  0.61014565  0.72225386  0.15699657  1
  H+  H325  1  0.62947663  0.87215958  0.99301823  1
  H+  H326  1  0.85798415  0.71695265  0.48216919  1
  H+  H327  1  0.63065808  0.77587269  0.83910506  1
  H+  H328  1  0.43602088  0.59680630  0.23396957  1
  H+  H329  1  0.42578609  0.58217647  0.92808937  1
  H+  H330  1  0.83740265  0.17849431  0.73609513  1
  H+  H331  1  0.71317396  0.84921835  0.51016107  1
  H+  H332  1  0.71536411  0.36575017  0.25062370  1
  H+  H333  1  0.39191459  0.03872689  0.98761336  1
  H+  H334  1  0.83895913  0.16298015  0.39900610  1
  H+  H335  1  0.22696048  0.62257566  0.16819871  1
  H+  H336  1  0.42456590  0.09010135  0.89980322  1
  H+  H337  1  0.55526388  0.91103199  0.73128268  1
  H+  H338  1  0.44187468  0.07177358  0.33069855  1
  H+  H339  1  0.93089745  0.89652866  0.59498714  1
  H+  H340  1  0.08543061  0.92173564  0.10424337  1
  H+  H341  1  0.88371204  0.50816667  0.47413638  1
  H+  H342  1  0.57653197  0.66551068  0.78725871  1
  H+  H343  1  0.94744796  0.34809072  0.56610200  1
  H+  H344  1  0.34715420  0.13000103  0.35279589  1
  H+  H345  1  0.41355557  0.08034340  0.60206413  1
  H+  H346  1  0.91233075  0.83584656  0.94248390  1
  H+  H347  1  0.43030107  0.83343503  0.27594472  1
  H+  H348  1  0.16555598  0.08130815  0.61327674  1
  H+  H349  1  0.40029020  0.32583536  0.93931320  1
  H+  H350  1  0.67342942  0.33097376  0.56325149  1
  H+  H351  1  0.58191005  0.66263179  0.06832372  1
  H+  H352  1  0.93851447  0.58341788  0.57832650  1
  H+  H353  1  0.11011536  0.42820350  0.74294438  1
  H+  H354  1  0.16882487  0.34987692  0.91237156  1
  H+  H355  1  0.83176547  0.67239842  0.38330500  1
  H+  H356  1  0.17094601  0.09209223  0.23564643  1
  H+  H357  1  0.33956077  0.93645916  0.75419566  1
  H+  H358  1  0.57412983  0.42241120  0.09236383  1
  H+  H359  1  0.87796553  0.10417599  0.51340872  1
  H+  H360  1  0.73052727  0.10302524  0.32800722  1
  H+  H361  1  0.25569431  0.53462747  0.26759188  1
  H+  H362  1  0.86072245  0.42508857  0.38202210  1
  H+  H363  1  0.58867681  0.91124885  0.43323563  1
  H+  H364  1  0.06712678  0.66953954  0.11479366  1
  H+  H365  1  0.65566573  0.81937313  0.22508661  1
  H+  H366  1  0.57319920  0.39484105  0.44197984  1
  H+  H367  1  0.66828178  0.08691063  0.56894956  1
  H+  H368  1  0.15154764  0.26515486  0.30157876  1
  H+  H369  1  0.10412402  0.68580859  0.74068084  1
  H+  H370  1  0.56835914  0.90814885  0.04896707  1
  H+  H371  1  0.42623495  0.59072819  0.57560249  1
  H+  H372  1  0.66977499  0.59227529  0.92569777  1
  H+  H373  1  0.32783620  0.16399592  0.76917226  1
  H+  H374  1  0.34690222  0.65990613  0.40528715  1
  H+  H375  1  0.80579915  0.52912036  0.21369768  1
  H+  H376  1  0.48812118  0.86449104  0.98111377  1
  H+  H377  1  0.82864780  0.67182520  0.77573878  1
  H+  H378  1  0.98598665  0.60501813  0.58413172  1
  H+  H379  1  0.61218058  0.64656058  0.69037295  1
  H+  H380  1  0.75861549  0.63879772  0.67066113  1
  H+  H381  1  0.38290592  0.33234043  0.53013129  1
  H+  H382  1  0.16972922  0.07295365  0.93700357  1
  H+  H383  1  0.19216386  0.59809950  0.89529960  1
  O2-  O384  1  0.09153596  0.17303265  0.13886533  1
  O2-  O385  1  0.06776864  0.14362598  0.48784675  1
  O2-  O386  1  0.09373640  0.16327799  0.81450372  1
  O2-  O387  1  0.08647137  0.42426329  0.13982450  1
  O2-  O388  1  0.11950972  0.42852552  0.46436969  1
  O2-  O389  1  0.10518614  0.44219772  0.80580642  1
  O2-  O390  1  0.07216973  0.66905725  0.16044697  1
  O2-  O391  1  0.07268591  0.67015468  0.47935318  1
  O2-  O392  1  0.09200602  0.67522085  0.81695416  1
  O2-  O393  1  0.08509675  0.92518767  0.14949391  1
  O2-  O394  1  0.11249826  0.92513396  0.47171421  1
  O2-  O395  1  0.07763908  0.90171588  0.81817281  1
  O2-  O396  1  0.33864380  0.16279722  0.15121155  1
  O2-  O397  1  0.33706980  0.15273728  0.48499189  1
  O2-  O398  1  0.32907868  0.16351622  0.81345610  1
  O2-  O399  1  0.33737472  0.42838708  0.13777476  1
  O2-  O400  1  0.32140175  0.38993677  0.52631900  1
  O2-  O401  1  0.33845326  0.42882469  0.82671101  1
  O2-  O402  1  0.32945332  0.66574812  0.15210908  1
  O2-  O403  1  0.33789039  0.65945151  0.48579286  1
  O2-  O404  1  0.27168516  0.65171603  0.82613827  1
  O2-  O405  1  0.32646854  0.90390761  0.15364394  1
  O2-  O406  1  0.33925110  0.90902963  0.48662329  1
  O2-  O407  1  0.33614421  0.92215513  0.81610352  1
  O2-  O408  1  0.57363974  0.16707104  0.20970842  1
  O2-  O409  1  0.55829422  0.18836660  0.45589962  1
  O2-  O410  1  0.58586371  0.17307181  0.80786576  1
  O2-  O411  1  0.58113059  0.41910468  0.13637472  1
  O2-  O412  1  0.57531581  0.40636726  0.48561305  1
  O2-  O413  1  0.57970590  0.41706297  0.86745441  1
  O2-  O414  1  0.58126903  0.66074888  0.14153644  1
  O2-  O415  1  0.57029459  0.66219970  0.48744805  1
  O2-  O416  1  0.58127227  0.66498519  0.83223670  1
  O2-  O417  1  0.56221841  0.90032421  0.14034040  1
  O2-  O418  1  0.58756983  0.90898676  0.48221215  1
  O2-  O419  1  0.55433847  0.91178043  0.80957515  1
  O2-  O420  1  0.85480471  0.17130852  0.15589708  1
  O2-  O421  1  0.84290612  0.16639872  0.48543764  1
  O2-  O422  1  0.83433688  0.17487192  0.80988683  1
  O2-  O423  1  0.83602118  0.40852814  0.14373557  1
  O2-  O424  1  0.84437013  0.41597319  0.48098865  1
  O2-  O425  1  0.83886145  0.42611187  0.81157544  1
  O2-  O426  1  0.83397521  0.67461196  0.14292723  1
  O2-  O427  1  0.82776452  0.65862974  0.46500500  1
  O2-  O428  1  0.83047189  0.66893821  0.82041142  1
  O2-  O429  1  0.80890677  0.90035573  0.14185957  1
  O2-  O430  1  0.82040672  0.90323433  0.48125516  1
  O2-  O431  1  0.83181245  0.91892084  0.82025941  1
  O2-  O432  1  0.17226649  0.09234518  0.19044036  1
  O2-  O433  1  0.15399518  0.07286539  0.53988155  1
  O2-  O434  1  0.16681325  0.06288800  0.85507691  1
  O2-  O435  1  0.16976375  0.34068408  0.17456087  1
  O2-  O436  1  0.11688014  0.30226927  0.52833268  1
  O2-  O437  1  0.16947087  0.35623731  0.86557493  1
  O2-  O438  1  0.16634293  0.58771654  0.18449129  1
  O2-  O439  1  0.16473697  0.59936343  0.52173290  1
  O2-  O440  1  0.18624729  0.60140611  0.84998434  1
  O2-  O441  1  0.16483129  0.83963936  0.19006333  1
  O2-  O442  1  0.16241098  0.83017671  0.52665318  1
  O2-  O443  1  0.17223114  0.83470464  0.86104134  1
  O2-  O444  1  0.39512943  0.06259772  0.19717168  1
  O2-  O445  1  0.40681384  0.07434785  0.53014244  1
  O2-  O446  1  0.42347118  0.08469210  0.85316750  1
  O2-  O447  1  0.44923508  0.31899713  0.21539868  1
  O2-  O448  1  0.41757519  0.30327584  0.53299638  1
  O2-  O449  1  0.40565337  0.33062874  0.85956020  1
  O2-  O450  1  0.42197465  0.58795569  0.18877020  1
  O2-  O451  1  0.42573068  0.58752428  0.52939787  1
  O2-  O452  1  0.42660317  0.58423342  0.87591069  1
  O2-  O453  1  0.41470533  0.82315534  0.19472010  1
  O2-  O454  1  0.41923649  0.82505513  0.51337854  1
  O2-  O455  1  0.39099514  0.82397916  0.85326826  1
  O2-  O456  1  0.64071853  0.05766593  0.18525355  1
  O2-  O457  1  0.67536119  0.08628931  0.52360890  1
  O2-  O458  1  0.66894052  0.08619769  0.84390367  1
  O2-  O459  1  0.65105811  0.30825327  0.13622860  1
  O2-  O460  1  0.67679475  0.33245709  0.51789683  1
  O2-  O461  1  0.67203196  0.33533389  0.85469471  1
  O2-  O462  1  0.66216534  0.57848450  0.18251846  1
  O2-  O463  1  0.66088824  0.57675812  0.50746871  1
  O2-  O464  1  0.66341661  0.58089673  0.84068406  1
  O2-  O465  1  0.65274904  0.81989039  0.18045178  1
  O2-  O466  1  0.65258816  0.82036099  0.52462508  1
  O2-  O467  1  0.65775464  0.83749101  0.82636448  1
  O2-  O468  1  0.93463486  0.10176318  0.20410262  1
  O2-  O469  1  0.90181082  0.06688972  0.52839476  1
  O2-  O470  1  0.91662876  0.09005081  0.85091435  1
  O2-  O471  1  0.93320581  0.34336421  0.18722643  1
  O2-  O472  1  0.93899229  0.34229429  0.52123688  1
  O2-  O473  1  0.92394707  0.34367887  0.85014056  1
  O2-  O474  1  0.86622622  0.55993652  0.20174596  1
  O2-  O475  1  0.91414797  0.57434671  0.46375489  1
  O2-  O476  1  0.92374874  0.59184573  0.84907670  1
  O2-  O477  1  0.91506747  0.83805322  0.18510282  1
  O2-  O478  1  0.94022206  0.83132736  0.51833265  1
  O2-  O479  1  0.91427364  0.83238487  0.86273363  1
  O2-  O480  1  0.16760463  0.09083342  0.31805458  1
  O2-  O481  1  0.18157001  0.09277630  0.65771757  1
  O2-  O482  1  0.16806860  0.07681983  0.98197899  1
  O2-  O483  1  0.18061431  0.32759022  0.29904782  1
  O2-  O484  1  0.19715214  0.35000978  0.64826432  1
  O2-  O485  1  0.17049577  0.33815308  0.98200057  1
  O2-  O486  1  0.21719541  0.55057608  0.28746688  1
  O2-  O487  1  0.16186027  0.59170101  0.63723866  1
  O2-  O488  1  0.17708598  0.58330817  0.97459304  1
  O2-  O489  1  0.18429067  0.86303662  0.30968567  1
  O2-  O490  1  0.22879493  0.82172878  0.63919541  1
  O2-  O491  1  0.16753580  0.83373710  0.98465111  1
  O2-  O492  1  0.38035063  0.05501141  0.32241163  1
  O2-  O493  1  0.41535612  0.08928724  0.64828714  1
  O2-  O494  1  0.42321373  0.09740163  0.97040289  1
  O2-  O495  1  0.39460035  0.33279038  0.33783310  1
  O2-  O496  1  0.43914933  0.34878853  0.70021416  1
  O2-  O497  1  0.40483963  0.32876922  0.98455168  1
  O2-  O498  1  0.46378275  0.61285993  0.30468628  1
  O2-  O499  1  0.42406028  0.59067792  0.64871554  1
  O2-  O500  1  0.42400786  0.58151832  0.98577667  1
  O2-  O501  1  0.43391617  0.83592011  0.32100472  1
  O2-  O502  1  0.38773319  0.82204868  0.63148617  1
  O2-  O503  1  0.42322818  0.83119806  0.96460961  1
  O2-  O504  1  0.67121005  0.06330419  0.31323654  1
  O2-  O505  1  0.66245551  0.08558341  0.64651843  1
  O2-  O506  1  0.63821356  0.06847654  0.97666724  1
  O2-  O507  1  0.67066700  0.36493091  0.38112885  1
  O2-  O508  1  0.66992909  0.33382779  0.64191319  1
  O2-  O509  1  0.66608463  0.33594648  0.98023329  1
  O2-  O510  1  0.65393707  0.58308243  0.31684924  1
  O2-  O511  1  0.64380910  0.57313359  0.64708438  1
  O2-  O512  1  0.66740903  0.58761356  0.97033404  1
  O2-  O513  1  0.66940299  0.81395759  0.30934841  1
  O2-  O514  1  0.63867047  0.82623815  0.64826394  1
  O2-  O515  1  0.66807154  0.84399515  0.98421286  1
  O2-  O516  1  0.92129601  0.08284099  0.31612370  1
  O2-  O517  1  0.94872594  0.07126417  0.66532315  1
  O2-  O518  1  0.92071140  0.08154430  0.98047063  1
  O2-  O519  1  0.92461114  0.32718606  0.30649932  1
  O2-  O520  1  0.94999672  0.34730676  0.64837245  1
  O2-  O521  1  0.92308205  0.34544277  0.97812311  1
  O2-  O522  1  0.93049031  0.60346775  0.30963485  1
  O2-  O523  1  0.92257669  0.59492691  0.69845369  1
  O2-  O524  1  0.94436482  0.56616865  0.96381145  1
  O2-  O525  1  0.91087952  0.83871246  0.30506138  1
  O2-  O526  1  0.93547673  0.91787258  0.63669503  1
  O2-  O527  1  0.91108323  0.83490166  0.98780010  1
  O2-  O528  1  0.09131552  0.17190805  0.01683118  1
  O2-  O529  1  0.06711142  0.15748886  0.36590817  1
  O2-  O530  1  0.12128554  0.18988779  0.69379992  1
  O2-  O531  1  0.08855518  0.42418005  0.01894122  1
  O2-  O532  1  0.09685143  0.40292634  0.33949185  1
  O2-  O533  1  0.10749148  0.41739791  0.69455726  1
  O2-  O534  1  0.07812236  0.67682792  0.03854393  1
  O2-  O535  1  0.07064106  0.72214652  0.37415947  1
  O2-  O536  1  0.10017728  0.68733978  0.69525155  1
  O2-  O537  1  0.08137760  0.91174527  0.02408716  1
  O2-  O538  1  0.07816336  0.92310661  0.34190383  1
  O2-  O539  1  0.07912028  0.92010883  0.69749788  1
  O2-  O540  1  0.33294701  0.16153755  0.02404999  1
  O2-  O541  1  0.32078673  0.16167105  0.37072814  1
  O2-  O542  1  0.35297053  0.19811414  0.64096123  1
  O2-  O543  1  0.33263851  0.42329683  0.02235708  1
  O2-  O544  1  0.30297098  0.39107147  0.40310854  1
  O2-  O545  1  0.35341096  0.43790571  0.70329480  1
  O2-  O546  1  0.34047933  0.66716489  0.02871026  1
  O2-  O547  1  0.35746154  0.66517338  0.36072070  1
  O2-  O548  1  0.31967599  0.66102367  0.67787494  1
  O2-  O549  1  0.31662823  0.94886189  0.03568414  1
  O2-  O550  1  0.33477647  0.97752077  0.35974062  1
  O2-  O551  1  0.34040583  0.94472388  0.70536797  1
  O2-  O552  1  0.56967896  0.15587172  0.01281607  1
  O2-  O553  1  0.55235262  0.12248661  0.33512014  1
  O2-  O554  1  0.58122117  0.16888892  0.68616485  1
  O2-  O555  1  0.57937610  0.41803795  0.00093570  1
  O2-  O556  1  0.56441988  0.37922372  0.31112105  1
  O2-  O557  1  0.60020282  0.42279691  0.69515146  1
  O2-  O558  1  0.57822233  0.66272107  0.02217673  1
  O2-  O559  1  0.63931238  0.73573973  0.33443679  1
  O2-  O560  1  0.58097703  0.67470870  0.70587036  1
  O2-  O561  1  0.57430576  0.90968952  0.00443377  1
  O2-  O562  1  0.58874082  0.90881300  0.36912658  1
  O2-  O563  1  0.55888771  0.91104233  0.68565278  1
  O2-  O564  1  0.85265697  0.17720505  0.03311463  1
  O2-  O565  1  0.83612553  0.16155456  0.35424563  1
  O2-  O566  1  0.83939044  0.18277257  0.68969343  1
  O2-  O567  1  0.83149951  0.41418228  0.02125016  1
  O2-  O568  1  0.83987995  0.44586386  0.34896080  1
  O2-  O569  1  0.82260059  0.36984102  0.69907174  1
  O2-  O570  1  0.83007423  0.67285206  0.01756794  1
  O2-  O571  1  0.83725758  0.67368955  0.33866702  1
  O2-  O572  1  0.81573604  0.66751856  0.68992327  1
  O2-  O573  1  0.82515108  0.91064183  0.01801852  1
  O2-  O574  1  0.82846983  0.91356110  0.35179812  1
  O2-  O575  1  0.79493799  0.90143553  0.69215722  1
