# generated using pymatgen
data_H2O
_symmetry_space_group_name_H-M   'P 1'
_cell_length_a   17.98711354
_cell_length_b   17.99389834
_cell_length_c   22.00192648
_cell_angle_alpha   89.98057780
_cell_angle_beta   90.00811214
_cell_angle_gamma   119.98127851
_symmetry_Int_Tables_number   1
_chemical_formula_structural   H2O
_chemical_formula_sum   'H384 O192'
_cell_volume   6168.22138988
_cell_formula_units_Z   192
loop_
 _symmetry_equiv_pos_site_id
 _symmetry_equiv_pos_as_xyz
  1  'x, y, z'
loop_
 _atom_type_symbol
 _atom_type_oxidation_number
  H+  1.0
  O2-  -2.0
loop_
 _atom_site_type_symbol
 _atom_site_label
 _atom_site_symmetry_multiplicity
 _atom_site_fract_x
 _atom_site_fract_y
 _atom_site_fract_z
 _atom_site_occupancy
  H+  H0  1  0.14173733  0.85843982  0.50701474  1
  H+  H1  1  0.49372986  0.39157076  0.31471408  1
  H+  H2  1  0.63740759  0.01827333  1.00105825  1
  H+  H3  1  0.37321196  0.59719940  0.84571026  1
  H+  H4  1  0.08464641  0.41921470  0.06787188  1
  H+  H5  1  0.73499089  0.12260026  0.50621582  1
  H+  H6  1  0.02666719  0.64014169  0.50483851  1
  H+  H7  1  0.60700963  0.13910917  -0.03289890  1
  H+  H8  1  0.05394109  0.89278912  0.38841686  1
  H+  H9  1  0.24610591  0.40253514  0.45734064  1
  H+  H10  1  0.99597837  0.12481900  0.34634516  1
  H+  H11  1  0.59127802  0.50031643  0.86313740  1
  H+  H12  1  1.02024670  0.63291280  0.67488600  1
  H+  H13  1  0.22222776  0.85840839  0.84378864  1
  H+  H14  1  0.63905336  0.35725836  0.82753965  1
  H+  H15  1  0.63769522  0.61818505  0.31138684  1
  H+  H16  1  0.08776586  0.42205200  0.76798002  1
  H+  H17  1  0.86964148  0.11205864  0.09052044  1
  H+  H18  1  0.11863576  0.36290210  0.48687404  1
  H+  H19  1  0.50818598  0.10379660  0.50007250  1
  H+  H20  1  0.87475877  0.28759042  0.18380933  1
  H+  H21  1  0.16457039  0.28664742  0.32303754  1
  H+  H22  1  0.32687903  0.91091389  0.43181699  1
  H+  H23  1  0.12778867  0.98281239  0.49184836  1
  H+  H24  1  0.80842756  0.41929194  0.52857843  1
  H+  H25  1  0.38324035  0.86486827  0.66762274  1
  H+  H26  1  0.13631766  0.64459295  1.01287466  1
  H+  H27  1  0.87675585  0.46947043  0.01729810  1
  H+  H28  1  0.64031607  0.80516313  0.26498723  1
  H+  H29  1  0.43520928  0.81175228  0.52098428  1
  H+  H30  1  0.60998705  0.39083565  0.32232070  1
  H+  H31  1  0.10251100  0.38784962  0.15892673  1
  H+  H32  1  0.10565558  0.99388298  0.31621608  1
  H+  H33  1  0.39997299  0.63174388  0.15965108  1
  H+  H34  1  0.13922575  0.62093478  0.17025113  1
  H+  H35  1  0.73082662  0.36015666  0.81872002  1
  H+  H36  1  0.37303893  -0.02445304  0.99101502  1
  H+  H37  1  0.84984880  0.23709242  0.34031271  1
  H+  H38  1  0.12281939  0.73356135  0.50287127  1
  H+  H39  1  0.69677237  0.36397255  0.92967985  1
  H+  H40  1  0.27216273  0.63397619  0.32814033  1
  H+  H41  1  0.89895624  0.64871878  -0.00082929  1
  H+  H42  1  0.11905208  0.63443676  0.49995541  1
  H+  H43  1  0.38400423  0.23535804  0.83464461  1
  H+  H44  1  0.41556563  0.63123983  1.00008951  1
  H+  H45  1  0.14171429  0.76571710  0.16864000  1
  H+  H46  1  0.37576532  0.60607468  0.50356494  1
  H+  H47  1  0.88752375  0.35308405  1.00991847  1
  H+  H48  1  0.41797844  0.33404861  0.22048783  1
  H+  H49  1  0.50913993  0.62442378  0.66659046  1
  H+  H50  1  0.87892101  0.10397480  1.00588208  1
  H+  H51  1  0.61623399  0.23041781  -0.04034133  1
  H+  H52  1  0.14252589  0.61427038  0.84064522  1
  H+  H53  1  0.36109842  0.98673158  0.34815399  1
  H+  H54  1  0.40208395  0.77383903  -0.00582328  1
  H+  H55  1  0.88313585  0.37963232  0.18036804  1
  H+  H56  1  0.60823246  0.20489990  0.82456780  1
  H+  H57  1  0.86775461  0.74720903  0.31651011  1
  H+  H58  1  0.21816415  0.10518412  0.51850100  1
  H+  H59  1  0.28134845  0.88750717  0.16010320  1
  H+  H60  1  1.01771916  0.12916945  1.00836228  1
  H+  H61  1  0.76454002  0.39189998  0.16656994  1
  H+  H62  1  -0.00121649  0.87266058  0.15093699  1
  H+  H63  1  0.53482452  -0.12132211  0.99861699  1
  H+  H64  1  0.82304561  0.02107496  0.27872050  1
  H+  H65  1  0.58536256  -0.06682327  0.17808385  1
  H+  H66  1  0.38140870  1.00559749  0.84015007  1
  H+  H67  1  0.70157298  0.84159279  0.65508432  1
  H+  H68  1  0.77738442  0.38237760  0.67827661  1
  H+  H69  1  0.27433315  0.41070941  0.14489891  1
  H+  H70  1  0.87938989  0.22645289  0.72875325  1
  H+  H71  1  0.68195550  0.88208940  0.99767246  1
  H+  H72  1  0.23216099  0.38187104  0.30834077  1
  H+  H73  1  0.61344256  0.12724787  0.18985727  1
  H+  H74  1  0.70958206  0.35077137  0.32704320  1
  H+  H75  1  0.34639349  0.37410521  0.51426215  1
  H+  H76  1  0.28236328  0.65171537  0.15827032  1
  H+  H77  1  0.74416680  0.64605684  0.85349552  1
  H+  H78  1  0.64191113  1.02342824  0.65640283  1
  H+  H79  1  0.38051680  0.41355125  0.32422660  1
  H+  H80  1  0.84258001  -0.03327519  1.00557366  1
  H+  H81  1  0.02222910  0.38451268  0.01029874  1
  H+  H82  1  0.87927221  0.60810252  0.66440772  1
  H+  H83  1  0.01666802  0.38971309  0.48258705  1
  H+  H84  1  0.59639258  0.71478562  0.66737025  1
  H+  H85  1  0.86067025  0.86824559  0.14868873  1
  H+  H86  1  0.25427695  0.12759679  0.15553699  1
  H+  H87  1  0.11715262  0.48655040  0.67176134  1
  H+  H88  1  0.11804141  0.97130140  0.00810967  1
  H+  H89  1  0.85309966  0.61831308  0.33494149  1
  H+  H90  1  0.42226157  0.82808101  0.90321481  1
  H+  H91  1  0.27701407  0.64477130  0.67321860  1
  H+  H92  1  0.35288365  0.20387821  0.67937225  1
  H+  H93  1  0.60799932  0.84767157  0.49970342  1
  H+  H94  1  0.34095696  0.34366945  0.48845673  1
  H+  H95  1  0.82875285  0.14138813  0.32871095  1
  H+  H96  1  0.73932428  0.14955828  0.18314620  1
  H+  H97  1  0.47197412  0.86233614  0.33023689  1
  H+  H98  1  0.10984256  0.72151036  0.67489011  1
  H+  H99  1  0.62013250  0.48602274  0.31432953  1
  H+  H100  1  0.38441371  0.86470055  0.33104791  1
  H+  H101  1  0.60271740  0.11584376  0.33150564  1
  H+  H102  1  0.91549300  0.83935914  0.89593671  1
  H+  H103  1  0.26750140  0.87869082  0.67888758  1
  H+  H104  1  0.59924296  0.62370662  0.48945477  1
  H+  H105  1  0.51783891  0.12308164  0.67152172  1
  H+  H106  1  0.70422068  0.84363409  0.84149817  1
  H+  H107  1  0.36381270  0.20944351  0.50948296  1
  H+  H108  1  0.86025286  0.72331828  0.49428456  1
  H+  H109  1  0.87082858  0.83906942  0.31379954  1
  H+  H110  1  0.63057780  0.47255396  0.52792192  1
  H+  H111  1  0.59589095  0.62440170  0.82341634  1
  H+  H112  1  0.61041386  0.89383020  0.33202791  1
  H+  H113  1  0.84649361  0.85718745  0.82414046  1
  H+  H114  1  0.15212267  0.15210357  0.33487129  1
  H+  H115  1  0.98242800  0.85625287  0.50918467  1
  H+  H116  1  0.46861563  0.12627145  0.33828132  1
  H+  H117  1  0.48328014  0.62575011  0.32176851  1
  H+  H118  1  0.62384468  0.61111899  0.65812590  1
  H+  H119  1  0.14990921  0.28618588  0.84684438  1
  H+  H120  1  0.99538308  0.85644346  0.32768801  1
  H+  H121  1  0.89082798  0.11753218  0.84782235  1
  H+  H122  1  0.60811793  0.86002559  0.83919228  1
  H+  H123  1  0.03176766  0.62468129  0.83153505  1
  H+  H124  1  0.87452098  0.76254548  0.65933934  1
  H+  H125  1  0.62782285  0.36792481  0.17085892  1
  H+  H126  1  0.12260959  1.00206179  0.66033802  1
  H+  H127  1  0.84845388  0.47802207  0.33820496  1
  H+  H128  1  0.63655963  0.69786802  0.01601068  1
  H+  H129  1  0.61825161  0.39201665  0.69186566  1
  H+  H130  1  0.91219023  0.34393799  0.27083574  1
  H+  H131  1  0.58765394  0.65963799  0.75686338  1
  H+  H132  1  0.04186518  0.15230630  0.83120084  1
  H+  H133  1  0.34244075  0.12262524  0.35687942  1
  H+  H134  1  0.54277287  0.91443506  0.49087767  1
  H+  H135  1  0.12659301  0.52048312  0.49990724  1
  H+  H136  1  0.83103554  0.93680770  0.81749673  1
  H+  H137  1  0.61029615  0.72820291  0.33847586  1
  H+  H138  1  0.94196253  0.04614965  0.64787469  1
  H+  H139  1  0.48412085  0.36691535  0.69273783  1
  H+  H140  1  0.07371194  0.66349712  0.26221776  1
  H+  H141  1  0.47138007  0.09565399  0.83984614  1
  H+  H142  1  0.11811639  0.27070665  0.16711655  1
  H+  H143  1  0.60165746  0.97958096  0.33865470  1
  H+  H144  1  0.14105830  0.52547714  0.31711269  1
  H+  H145  1  0.17310010  0.83077000  0.22362426  1
  H+  H146  1  0.92198647  0.04967862  0.85580779  1
  H+  H147  1  0.52975673  0.38261461  0.05273707  1
  H+  H148  1  0.14252269  0.77369402  1.00043068  1
  H+  H149  1  0.38067611  0.09613323  0.51316883  1
  H+  H150  1  0.87299200  0.33886719  0.79479907  1
  H+  H151  1  0.34189223  0.71070487  0.47496876  1
  H+  H152  1  0.11579516  0.10000123  0.15977912  1
  H+  H153  1  0.28686573  0.88557962  -0.00553096  1
  H+  H154  1  0.13359344  0.77047098  0.84252969  1
  H+  H155  1  0.11734513  0.35789692  1.00080876  1
  H+  H156  1  0.81914260  0.94955028  0.68058774  1
  H+  H157  1  0.26655785  0.11306766  0.82533701  1
  H+  H158  1  0.38093680  1.09794295  0.66173678  1
  H+  H159  1  0.88200792  0.37063286  0.33147705  1
  H+  H160  1  1.02879503  0.39526510  0.66896638  1
  H+  H161  1  0.13619687  0.61504514  0.65994185  1
  H+  H162  1  0.52099147  0.36739126  0.83212157  1
  H+  H163  1  0.73261971  0.11615087  0.66239068  1
  H+  H164  1  0.76333060  0.63226824  0.14423490  1
  H+  H165  1  0.38415945  0.52749059  0.66739876  1
  H+  H166  1  0.89556589  0.26967599  0.01752755  1
  H+  H167  1  0.90419116  0.53738413  0.50929466  1
  H+  H168  1  0.37464315  0.00428097  0.50769248  1
  H+  H169  1  0.28994109  0.64268019  0.00649473  1
  H+  H170  1  0.21839354  0.60572581  0.49804521  1
  H+  H171  1  1.04594325  0.15891119  0.67667533  1
  H+  H172  1  0.13481305  0.36623979  0.84759096  1
  H+  H173  1  0.91413609  0.97324696  0.33040578  1
  H+  H174  1  0.85083237  0.63298443  0.16016596  1
  H+  H175  1  0.47418928  0.12142479  0.97338847  1
  H+  H176  1  0.54118948  0.38096473  0.55779525  1
  H+  H177  1  0.14250415  0.38325347  0.68192593  1
  H+  H178  1  0.36126767  0.88441384  0.49296225  1
  H+  H179  1  0.89227346  0.37048586  0.65386475  1
  H+  H180  1  0.86823434  0.63913203  0.49562278  1
  H+  H181  1  0.71980402  0.85764012  0.31218026  1
  H+  H182  1  0.13308127  0.10751628  0.99082467  1
  H+  H183  1  0.35739901  0.96796995  0.67859679  1
  H+  H184  1  0.11452594  0.63498650  0.31204387  1
  H+  H185  1  0.88991037  0.89940682  0.48836083  1
  H+  H186  1  0.89063605  0.16026997  0.68472080  1
  H+  H187  1  0.35845420  0.87410357  0.83313585  1
  H+  H188  1  0.36019955  0.72633941  0.33591562  1
  H+  H189  1  0.98912030  0.12787464  0.49972136  1
  H+  H190  1  0.39698747  0.31952652  0.72986945  1
  H+  H191  1  -0.01416058  0.88132996  -0.01187092  1
  H+  H192  1  0.12378757  0.13670497  0.82746744  1
  H+  H193  1  0.70419136  0.32845223  0.48564038  1
  H+  H194  1  0.88345528  0.27472216  0.50063666  1
  H+  H195  1  0.13058829  0.01682702  0.83877354  1
  H+  H196  1  0.20004946  0.07020828  0.31965864  1
  H+  H197  1  0.57461658  0.66002072  0.39402325  1
  H+  H198  1  0.34819447  0.21538887  0.15793295  1
  H+  H199  1  0.41416854  0.34714954  0.54688634  1
  H+  H200  1  0.32146634  0.15972118  0.06271318  1
  H+  H201  1  0.10877448  0.88011669  0.82946447  1
  H+  H202  1  1.01801174  0.37934718  0.81753717  1
  H+  H203  1  0.54315141  0.62927923  -0.00846039  1
  H+  H204  1  0.75277988  0.10598753  0.84250074  1
  H+  H205  1  0.66513176  0.32658941  0.73963823  1
  H+  H206  1  0.90910304  0.58572446  0.86938925  1
  H+  H207  1  0.07788231  0.42151025  0.42260556  1
  H+  H208  1  0.73854577  0.36274730  0.99218892  1
  H+  H209  1  0.72644987  0.61764437  0.31413479  1
  H+  H210  1  0.11564994  0.25857436  0.99721216  1
  H+  H211  1  0.14734928  0.53317116  0.17053617  1
  H+  H212  1  0.22837677  0.85453466  0.50733601  1
  H+  H213  1  0.61530333  0.26144449  0.32537146  1
  H+  H214  1  0.38782216  0.76870226  0.84241025  1
  H+  H215  1  0.61929346  0.75655292  0.83138238  1
  H+  H216  1  0.64512067  0.62462063  0.94522785  1
  H+  H217  1  0.86825942  0.75414284  0.15738865  1
  H+  H218  1  0.58568064  0.70544766  0.49313318  1
  H+  H219  1  0.64967565  0.54133602  0.44984067  1
  H+  H220  1  0.61616612  0.48113067  0.67981875  1
  H+  H221  1  0.29446115  0.41050828  0.71452058  1
  H+  H222  1  0.40073240  0.30686125  0.32065294  1
  H+  H223  1  0.89728198  0.49886138  0.83977605  1
  H+  H224  1  0.87205725  0.39322984  0.49865655  1
  H+  H225  1  0.21008186  0.09043835  0.65924664  1
  H+  H226  1  0.13092562  0.25641959  0.69120979  1
  H+  H227  1  0.59156605  0.19589048  0.49474747  1
  H+  H228  1  0.37755137  0.40733178  0.69566063  1
  H+  H229  1  0.54376366  0.16648094  0.13161640  1
  H+  H230  1  0.87275613  0.76260483  0.84590553  1
  H+  H231  1  0.63088818  0.37891449  0.53794415  1
  H+  H232  1  0.88247071  0.52023309  0.66057415  1
  H+  H233  1  0.81983852  0.15820717  0.10101284  1
  H+  H234  1  0.63185898  0.10948693  0.51001611  1
  H+  H235  1  0.39618532  0.87436278  0.17348979  1
  H+  H236  1  0.35476853  0.10694372  0.82229446  1
  H+  H237  1  0.47360209  0.34489994  0.16144254  1
  H+  H238  1  0.11503617  0.87949679  1.00896524  1
  H+  H239  1  0.10863181  0.38514582  0.33288677  1
  H+  H240  1  0.38537513  0.51904158  0.31817673  1
  H+  H241  1  0.80482665  0.88113141  0.73038046  1
  H+  H242  1  0.16722057  0.95298273  0.44065140  1
  H+  H243  1  0.15923725  0.20845773  0.13367553  1
  H+  H244  1  0.85185123  0.48300535  0.16947511  1
  H+  H245  1  0.38915639  0.62360104  0.31950442  1
  H+  H246  1  0.82703818  0.15202073  0.20026414  1
  H+  H247  1  0.76124893  0.63245360  0.67614959  1
  H+  H248  1  0.27517281  0.89451588  0.34106558  1
  H+  H249  1  0.60946565  0.89284802  0.66673017  1
  H+  H250  1  0.84911965  0.88390053  -0.00123619  1
  H+  H251  1  0.45177127  0.12081247  0.19980587  1
  H+  H252  1  0.01181292  0.86887368  0.67566443  1
  H+  H253  1  0.33616660  0.48828163  0.46978036  1
  H+  H254  1  0.61110953  0.13005805  0.66984271  1
  H+  H255  1  0.13206599  0.85731212  0.32160388  1
  H+  H256  1  0.87480183  0.85092900  0.65561460  1
  H+  H257  1  0.45877677  0.59549492  0.50425237  1
  H+  H258  1  0.62855135  0.09501248  0.84723696  1
  H+  H259  1  0.94882687  0.59851903  0.32611037  1
  H+  H260  1  0.86414937  0.14152796  0.48930695  1
  H+  H261  1  1.03343685  0.60712781  0.14066946  1
  H+  H262  1  0.39108631  0.26916972  -0.00721439  1
  H+  H263  1  0.86958620  0.25426300  0.81813816  1
  H+  H264  1  0.89540455  0.28346747  0.65052909  1
  H+  H265  1  0.62971935  0.52180887  0.15224047  1
  H+  H266  1  0.44561730  0.57429405  0.84530105  1
  H+  H267  1  0.14760678  0.52490434  0.99457935  1
  H+  H268  1  0.11564633  0.22394944  0.48532737  1
  H+  H269  1  0.59381986  0.23997145  0.18006663  1
  H+  H270  1  0.07233117  0.90044187  0.73533924  1
  H+  H271  1  0.27526712  0.63751909  0.82859939  1
  H+  H272  1  0.36017567  -0.02123967  0.17492453  1
  H+  H273  1  0.98819741  0.10832061  0.14688941  1
  H+  H274  1  0.00464956  0.09574447  0.32604997  1
  H+  H275  1  0.81018466  0.61805466  0.83872114  1
  H+  H276  1  0.72326253  0.10690188  1.00663799  1
  H+  H277  1  0.01819190  0.39660540  0.16008448  1
  H+  H278  1  0.69512218  0.11885365  0.33500928  1
  H+  H279  1  0.39349476  0.09076156  0.28531257  1
  H+  H280  1  0.14190624  0.77460739  0.31613172  1
  H+  H281  1  0.73017325  0.60068426  0.49071261  1
  H+  H282  1  0.40480388  0.86512030  0.98676509  1
  H+  H283  1  0.60786028  0.96026634  0.84381609  1
  H+  H284  1  0.13752795  0.52294569  0.84164012  1
  H+  H285  1  1.01814433  0.87770426  0.82714687  1
  H+  H286  1  0.12948241  0.85280554  0.66442178  1
  H+  H287  1  0.09318520  -0.02372115  0.15625195  1
  H+  H288  1  0.52669019  0.90268587  0.66849070  1
  H+  H289  1  0.66049121  0.07165066  0.90990990  1
  H+  H290  1  0.33617037  0.66967113  0.76989522  1
  H+  H291  1  0.82606727  0.16789609  0.43089271  1
  H+  H292  1  0.16534445  0.34351820  0.54030912  1
  H+  H293  1  0.16684589  0.58572142  0.60027741  1
  H+  H294  1  0.85947953  0.67979661  0.04803058  1
  H+  H295  1  0.42078419  0.83727107  0.23044624  1
  H+  H296  1  0.58615396  0.91502567  0.42673499  1
  H+  H297  1  0.22312453  0.10898862  0.99105832  1
  H+  H298  1  0.32733236  0.90203626  0.77290685  1
  H+  H299  1  0.97767334  0.95146205  0.95359741  1
  H+  H300  1  0.80888415  0.46917263  0.78725612  1
  H+  H301  1  0.33756207  0.42153341  0.04834317  1
  H+  H302  1  0.16392450  0.07733849  0.89829611  1
  H+  H303  1  0.67954489  0.09343550  0.57496165  1
  H+  H304  1  0.62987349  0.26592285  0.68377976  1
  H+  H305  1  0.90819720  0.08324672  0.19065611  1
  H+  H306  1  0.91861748  0.83066622  0.56596557  1
  H+  H307  1  0.66265304  0.58683742  0.60136389  1
  H+  H308  1  0.11381878  0.13331323  0.49514801  1
  H+  H309  1  0.68323656  0.82635891  0.51078899  1
  H+  H310  1  0.32985471  0.44224398  0.37811285  1
  H+  H311  1  0.61303549  0.18488188  0.06425994  1
  H+  H312  1  0.16530242  0.82775857  0.60558565  1
  H+  H313  1  0.32085105  0.65046726  0.41849472  1
  H+  H314  1  0.37388010  0.37813696  0.82072187  1
  H+  H315  1  0.91382321  0.09099396  0.94213533  1
  H+  H316  1  0.35975435  0.10856861  0.18622001  1
  H+  H317  1  0.54695391  0.39988530  0.44423855  1
  H+  H318  1  0.36663131  0.49446871  0.14497153  1
  H+  H319  1  0.17535848  0.58596589  0.25605669  1
  H+  H320  1  0.65622930  0.33963641  0.23449497  1
  H+  H321  1  0.35549972  0.13322129  0.00326307  1
  H+  H322  1  0.07007244  0.90758171  0.09272708  1
  H+  H323  1  0.84503562  0.42171815  0.73122841  1
  H+  H324  1  0.90351696  0.04018493  0.50483680  1
  H+  H325  1  0.14170535  0.18826556  0.39740661  1
  H+  H326  1  0.89663359  0.81366575  0.21876778  1
  H+  H327  1  0.14968804  0.06561973  0.57258797  1
  H+  H328  1  0.85992177  0.92975256  0.38829979  1
  H+  H329  1  0.37181960  0.74320968  0.15823282  1
  H+  H330  1  0.39082520  0.77982865  0.66211937  1
  H+  H331  1  0.10749404  0.67258960  0.07475617  1
  H+  H332  1  0.37385170  0.38967159  0.99690639  1
  H+  H333  1  0.42872097  0.31565493  0.60979563  1
  H+  H334  1  0.58516158  0.42434829  0.78028774  1
  H+  H335  1  0.63456844  0.81474787  0.59923863  1
  H+  H336  1  0.34543043  0.67859922  0.06744890  1
  H+  H337  1  0.82337477  0.41943675  0.39866728  1
  H+  H338  1  0.41795517  0.57300610  0.94733018  1
  H+  H339  1  0.31935640  0.14827530  0.45076982  1
  H+  H340  1  0.80807671  0.90868439  0.47939303  1
  H+  H341  1  0.57893780  0.14491815  0.76720343  1
  H+  H342  1  0.94685074  0.10654902  0.59461017  1
  H+  H343  1  0.08561476  0.16018620  0.06510338  1
  H+  H344  1  0.09681501  0.17979851  0.74851905  1
  H+  H345  1  0.56927732  0.14518252  0.06102429  1
  H+  H346  1  0.15195150  0.32833622  0.93544647  1
  H+  H347  1  0.80386199  0.11849877  0.78079687  1
  H+  H348  1  0.29286211  0.18007492  0.36417251  1
  H+  H349  1  0.31988241  0.13621010  0.73220531  1
  H+  H350  1  0.16182230  0.82890587  0.93905216  1
  H+  H351  1  0.82543046  0.90201835  0.08451102  1
  H+  H352  1  0.55339926  0.36191581  0.44196122  1
  H+  H353  1  0.43470532  0.60235651  0.21422727  1
  H+  H354  1  0.61449609  0.86596212  0.18352759  1
  H+  H355  1  0.66268049  0.58186439  0.21066816  1
  H+  H356  1  0.89186183  0.57778415  0.24950100  1
  H+  H357  1  0.08504231  0.66303304  0.76958904  1
  H+  H358  1  0.01996669  0.38814771  0.33431259  1
  H+  H359  1  0.36405319  0.64216895  0.67208759  1
  H+  H360  1  0.94733437  0.55962766  0.94666603  1
  H+  H361  1  0.83139289  0.41210815  0.07540609  1
  H+  H362  1  0.82649023  0.66133804  0.39264196  1
  H+  H363  1  0.81419433  0.66247011  0.73735792  1
  H+  H364  1  0.95857554  0.62171719  0.19234671  1
  H+  H365  1  0.41023087  0.06460965  0.60359036  1
  H+  H366  1  0.68761673  0.29563287  0.55340352  1
  H+  H367  1  0.42766066  0.32350206  0.93363860  1
  H+  H368  1  0.91446511  0.09825374  0.29191756  1
  H+  H369  1  0.51312779  0.87112599  0.83822155  1
  H+  H370  1  0.64114955  0.08638952  0.24272713  1
  H+  H371  1  0.13868692  0.05834612  0.22228207  1
  H+  H372  1  0.87700674  0.97120145  0.14138894  1
  H+  H373  1  0.61510366  0.67642182  0.16548734  1
  H+  H374  1  0.40108777  0.57285527  0.60046167  1
  H+  H375  1  0.56665790  0.16841859  0.39185173  1
  H+  H376  1  0.15524450  0.33030593  0.22543654  1
  H+  H377  1  0.39975714  0.07727368  0.92866309  1
  H+  H378  1  0.00174160  0.60615070  0.00606752  1
  H+  H379  1  0.92016170  0.33644017  0.55986985  1
  H+  H380  1  0.42735147  0.85852293  0.57815819  1
  H+  H381  1  0.20757904  0.36802348  0.64101561  1
  H+  H382  1  0.17691296  0.58430948  0.93554386  1
  H+  H383  1  0.92390340  0.59192296  0.57126044  1
  O2-  O384  1  0.09915526  0.16251328  0.13357981  1
  O2-  O385  1  0.08677068  0.16252524  0.47300056  1
  O2-  O386  1  0.09909903  0.17350155  0.81190998  1
  O2-  O387  1  0.07733941  0.42273742  0.14300010  1
  O2-  O388  1  0.07784398  0.42156427  0.46888162  1
  O2-  O389  1  0.08084270  0.41532261  0.81283915  1
  O2-  O390  1  0.08952667  0.65522952  0.15079368  1
  O2-  O391  1  0.08894665  0.66936139  0.48903149  1
  O2-  O392  1  0.09010034  0.66568331  0.81472180  1
  O2-  O393  1  0.06114536  0.90986642  0.13873638  1
  O2-  O394  1  0.11740682  0.92969593  0.46772355  1
  O2-  O395  1  0.07858641  0.91032295  0.81272471  1
  O2-  O396  1  0.31432907  0.15438675  0.14162577  1
  O2-  O397  1  0.32648881  0.14988117  0.49668190  1
  O2-  O398  1  0.32516767  0.13919568  0.80687768  1
  O2-  O399  1  0.33329036  0.43361258  0.13081091  1
  O2-  O400  1  0.29658662  0.45065273  0.43738284  1
  O2-  O401  1  0.36187200  0.32197367  0.80514910  1
  O2-  O402  1  0.34189889  0.68244150  0.14160286  1
  O2-  O403  1  0.31770487  0.65017677  0.46519320  1
  O2-  O404  1  0.33661613  0.66914752  0.81508535  1
  O2-  O405  1  0.34441076  0.92462118  0.15356788  1
  O2-  O406  1  0.32264955  0.90550779  0.47830091  1
  O2-  O407  1  0.32632219  0.90287120  0.81833420  1
  O2-  O408  1  0.55397680  0.17527743  0.17526186  1
  O2-  O409  1  0.57012316  0.13502505  0.48583341  1
  O2-  O410  1  0.57900771  0.14354181  0.81251901  1
  O2-  O411  1  0.57492182  0.40841617  0.13612229  1
  O2-  O412  1  0.60823736  0.41697848  0.55341381  1
  O2-  O413  1  0.58195687  0.41228198  0.82470703  1
  O2-  O414  1  0.65175771  0.73881062  0.17168132  1
  O2-  O415  1  0.56270307  0.64653924  0.47526434  1
  O2-  O416  1  0.60871458  0.67593153  0.79905512  1
  O2-  O417  1  0.63595937  0.92810504  0.18652464  1
  O2-  O418  1  0.59251310  0.91433254  0.47240866  1
  O2-  O419  1  0.57735574  0.90059091  0.82632505  1
  O2-  O420  1  0.80579191  0.18060883  0.17356140  1
  O2-  O421  1  0.82880741  0.16768924  0.47688210  1
  O2-  O422  1  0.81343771  0.13222749  0.82415081  1
  O2-  O423  1  0.82636635  0.42292809  0.15382579  1
  O2-  O424  1  0.84286708  0.42873370  0.49206988  1
  O2-  O425  1  0.83204763  0.43210194  0.79861843  1
  O2-  O426  1  0.82740574  0.66423556  0.13650442  1
  O2-  O427  1  0.83160880  0.66251445  0.48073288  1
  O2-  O428  1  0.79505786  0.66072512  0.82625464  1
  O2-  O429  1  0.83807807  0.90786221  0.13161094  1
  O2-  O430  1  0.86864447  0.93608609  0.46888683  1
  O2-  O431  1  0.80742082  0.87742912  0.80500369  1
  O2-  O432  1  0.13714449  0.05729401  0.17697304  1
  O2-  O433  1  0.15506948  0.07214984  0.52604746  1
  O2-  O434  1  0.16317907  0.07809799  0.85239424  1
  O2-  O435  1  0.14903808  0.33110326  0.18043642  1
  O2-  O436  1  0.15137549  0.33187232  0.49741561  1
  O2-  O437  1  0.16566946  0.34013369  0.86800689  1
  O2-  O438  1  0.17728159  0.59249587  0.18677948  1
  O2-  O439  1  0.15976568  0.58071985  0.51666742  1
  O2-  O440  1  0.17180242  0.58311981  0.85622975  1
  O2-  O441  1  0.17315724  0.82769907  0.17901741  1
  O2-  O442  1  0.16717838  0.82454950  0.52395025  1
  O2-  O443  1  0.16088322  0.83094473  0.85741678  1
  O2-  O444  1  0.38970740  0.08430532  0.21049589  1
  O2-  O445  1  0.40983234  0.06346129  0.52542444  1
  O2-  O446  1  0.40906362  0.06835134  0.85021058  1
  O2-  O447  1  0.41584854  0.30850485  0.18073510  1
  O2-  O448  1  0.44616319  0.32219409  0.56625927  1
  O2-  O449  1  0.41278011  0.29924370  0.84574495  1
  O2-  O450  1  0.42913010  0.59858708  0.17000494  1
  O2-  O451  1  0.39905651  0.57048206  0.52021193  1
  O2-  O452  1  0.38765344  0.55384764  0.86024824  1
  O2-  O453  1  0.42491568  0.84060741  0.18584114  1
  O2-  O454  1  0.43421220  0.86371817  0.53177761  1
  O2-  O455  1  0.41900324  0.83001145  0.85705841  1
  O2-  O456  1  0.64806613  0.09920213  0.19824623  1
  O2-  O457  1  0.67637196  0.09361856  0.52734302  1
  O2-  O458  1  0.65819054  0.06467282  0.86443414  1
  O2-  O459  1  0.65872639  0.33855093  0.18885561  1
  O2-  O460  1  0.66276987  0.31087235  0.51933246  1
  O2-  O461  1  0.66617171  0.32181451  0.81822371  1
  O2-  O462  1  0.66140032  0.58305574  0.16572557  1
  O2-  O463  1  0.66508121  0.55988567  0.49213097  1
  O2-  O464  1  0.58658519  0.55099690  0.87656530  1
  O2-  O465  1  0.59933585  0.76088949  0.20539471  1
  O2-  O466  1  0.62331553  0.80456640  0.52109990  1
  O2-  O467  1  0.64287262  0.81497174  0.85232466  1
  O2-  O468  1  0.92429051  0.07379327  0.14968551  1
  O2-  O469  1  0.92993265  0.10042767  0.51908699  1
  O2-  O470  1  0.93914455  0.10923328  0.86408130  1
  O2-  O471  1  0.91428810  0.34921231  0.19459364  1
  O2-  O472  1  0.91565514  0.33603437  0.51415938  1
  O2-  O473  1  0.90186832  0.30484476  0.79159876  1
  O2-  O474  1  0.89741659  0.58482673  0.20094836  1
  O2-  O475  1  0.93163945  0.59728335  0.52544383  1
  O2-  O476  1  0.93932579  0.55369623  0.86562944  1
  O2-  O477  1  0.89912413  0.81812771  0.17331018  1
  O2-  O478  1  0.92212230  0.83384497  0.51999424  1
  O2-  O479  1  0.90767800  0.82629863  0.85133218  1
  O2-  O480  1  0.14392623  0.05388314  0.30119573  1
  O2-  O481  1  0.15025721  0.06153430  0.64389561  1
  O2-  O482  1  0.16159156  0.07566495  0.97553512  1
  O2-  O483  1  0.17030483  0.33992644  0.30393424  1
  O2-  O484  1  0.17950622  0.35404044  0.68060206  1
  O2-  O485  1  0.14114933  0.32038216  0.98219129  1
  O2-  O486  1  0.17463060  0.58602725  0.30338285  1
  O2-  O487  1  0.16856111  0.58615289  0.64531747  1
  O2-  O488  1  0.17997240  0.58561590  0.98086935  1
  O2-  O489  1  0.17378554  0.83855104  0.31185476  1
  O2-  O490  1  0.16319718  0.82498514  0.65062686  1
  O2-  O491  1  0.16573953  0.83347719  0.98413965  1
  O2-  O492  1  0.40051033  0.09274544  0.33093024  1
  O2-  O493  1  0.41328109  0.06838522  0.64897277  1
  O2-  O494  1  0.40959993  0.08663738  0.97327318  1
  O2-  O495  1  0.42792229  0.36480707  0.30431271  1
  O2-  O496  1  0.41955789  0.33150693  0.68730481  1
  O2-  O497  1  0.43294271  0.32765383  0.97803751  1
  O2-  O498  1  0.42210975  0.59470494  0.30460400  1
  O2-  O499  1  0.40850651  0.58389712  0.64502194  1
  O2-  O500  1  0.44897056  0.60566619  0.98372625  1
  O2-  O501  1  0.41023599  0.82979689  0.31771813  1
  O2-  O502  1  0.41863616  0.84146596  0.64901543  1
  O2-  O503  1  0.43645314  0.83344335  0.97593266  1
  O2-  O504  1  0.63565200  0.08227313  0.32106514  1
  O2-  O505  1  0.67610072  0.08835406  0.64239629  1
  O2-  O506  1  0.66748105  0.07945881  0.98641141  1
  O2-  O507  1  0.65071941  0.32485745  0.31026735  1
  O2-  O508  1  0.66357378  0.32863981  0.69387259  1
  O2-  O509  1  0.68310700  0.33763662  0.96969280  1
  O2-  O510  1  0.66890500  0.59102881  0.29378670  1
  O2-  O511  1  0.65911550  0.58277086  0.64550854  1
  O2-  O512  1  0.66862166  0.60452312  0.90773805  1
  O2-  O513  1  0.65729908  0.82728911  0.30972976  1
  O2-  O514  1  0.64006056  0.81712546  0.64445025  1
  O2-  O515  1  0.64665973  0.89552391  0.97075766  1
  O2-  O516  1  0.86152051  0.08163104  0.26887265  1
  O2-  O517  1  0.95267551  0.10417638  0.64045717  1
  O2-  O518  1  0.90618749  0.07431615  0.98568614  1
  O2-  O519  1  0.91198854  0.33940549  0.31661479  1
  O2-  O520  1  0.92528058  0.34352099  0.63585458  1
  O2-  O521  1  0.92018458  0.32431492  0.99585199  1
  O2-  O522  1  0.88783100  0.56912050  0.31511322  1
  O2-  O523  1  0.91139876  0.58175311  0.64639556  1
  O2-  O524  1  0.94168300  0.56929799  0.99029861  1
  O2-  O525  1  0.89840325  0.80757577  0.29749768  1
  O2-  O526  1  0.90646779  0.82198648  0.64179638  1
  O2-  O527  1  0.94358240  0.89082318  0.96419465  1
  O2-  O528  1  0.07995013  0.16203083  0.01787889  1
  O2-  O529  1  0.17422502  0.20571043  0.35870169  1
  O2-  O530  1  0.10136070  0.19168976  0.70014207  1
  O2-  O531  1  0.08522970  0.41515929  0.02208387  1
  O2-  O532  1  0.08128052  0.41783183  0.34856692  1
  O2-  O533  1  0.08723076  0.42569584  0.68768420  1
  O2-  O534  1  0.10466197  0.67307568  0.02864347  1
  O2-  O535  1  0.08058004  0.66503098  0.30652555  1
  O2-  O536  1  0.08084250  0.66019484  0.68893209  1
  O2-  O537  1  0.08380428  0.91088176  0.02305042  1
  O2-  O538  1  0.05586889  0.89248305  0.34384121  1
  O2-  O539  1  0.07233684  0.89745080  0.68973796  1
  O2-  O540  1  0.32156720  0.16062427  0.01720107  1
  O2-  O541  1  0.29420519  0.12938457  0.37844999  1
  O2-  O542  1  0.32181592  0.14162309  0.68634796  1
  O2-  O543  1  0.33184750  0.40853365  0.00421040  1
  O2-  O544  1  0.34664174  0.44457945  0.33244434  1
  O2-  O545  1  0.35723625  0.44528481  0.71174415  1
  O2-  O546  1  0.34974007  0.67706089  0.02165458  1
  O2-  O547  1  0.33209397  0.66317364  0.34685847  1
  O2-  O548  1  0.33731556  0.67555385  0.68801990  1
  O2-  O549  1  0.34987181  0.91272375  -0.00702633  1
  O2-  O550  1  0.33376984  0.92419898  0.35994557  1
  O2-  O551  1  0.32761715  0.90760930  0.69461818  1
  O2-  O552  1  0.57811947  0.16829165  -0.05019763  1
  O2-  O553  1  0.56135659  0.16737431  0.34768269  1
  O2-  O554  1  0.57836501  0.15617161  0.68703988  1
  O2-  O555  1  0.58290830  0.39123648  0.07197859  1
  O2-  O556  1  0.58408950  0.42754077  0.33198746  1
  O2-  O557  1  0.58713897  0.42423652  0.70039900  1
  O2-  O558  1  0.60543568  0.64248065  -0.00387258  1
  O2-  O559  1  0.57716284  0.66512885  0.34909054  1
  O2-  O560  1  0.57122746  0.65306586  0.67947280  1
  O2-  O561  1  0.59628748  0.91326615  0.01522537  1
  O2-  O562  1  0.57836738  0.91841405  0.35264608  1
  O2-  O563  1  0.58975412  0.93413771  0.67615410  1
  O2-  O564  1  0.84117812  0.13718100  0.06653951  1
  O2-  O565  1  0.81513819  0.17622494  0.35598690  1
  O2-  O566  1  0.85324640  0.18395549  0.69501586  1
  O2-  O567  1  0.83841904  0.40854448  0.03065765  1
  O2-  O568  1  0.82247652  0.41489798  0.35440622  1
  O2-  O569  1  0.84094848  0.41619432  0.68354614  1
  O2-  O570  1  0.88324350  0.69309986  0.00663090  1
  O2-  O571  1  0.82408698  0.65725736  0.34806657  1
  O2-  O572  1  0.82104767  0.66167967  0.69283483  1
  O2-  O573  1  0.81350285  0.90513571  0.01839314  1
  O2-  O574  1  0.85709509  0.92834533  0.34308550  1
  O2-  O575  1  0.80716696  0.89064197  0.68486079  1
