# generated using pymatgen
data_H2O
_symmetry_space_group_name_H-M   'P 1'
_cell_length_a   17.98413284
_cell_length_b   17.98893351
_cell_length_c   22.00036807
_cell_angle_alpha   90.00664632
_cell_angle_beta   89.98505698
_cell_angle_gamma   119.98091474
_symmetry_Int_Tables_number   1
_chemical_formula_structural   H2O
_chemical_formula_sum   'H384 O192'
_cell_volume   6165.08361844
_cell_formula_units_Z   192
loop_
 _symmetry_equiv_pos_site_id
 _symmetry_equiv_pos_as_xyz
  1  'x, y, z'
loop_
 _atom_type_symbol
 _atom_type_oxidation_number
  H+  1.0
  O2-  -2.0
loop_
 _atom_site_type_symbol
 _atom_site_label
 _atom_site_symmetry_multiplicity
 _atom_site_fract_x
 _atom_site_fract_y
 _atom_site_fract_z
 _atom_site_occupancy
  H+  H0  1  0.97656837  0.61363701  0.83103521  1
  H+  H1  1  0.85315863  0.22137029  0.67550544  1
  H+  H2  1  0.12859082  0.52720291  0.83498609  1
  H+  H3  1  0.14139588  0.86092865  0.51429804  1
  H+  H4  1  0.73472982  0.12392134  0.17114116  1
  H+  H5  1  0.38759384  0.36303598  0.65438167  1
  H+  H6  1  0.86068718  0.35586287  0.65313139  1
  H+  H7  1  0.26429815  0.85152210  0.35028083  1
  H+  H8  1  0.51292979  0.18248041  0.32731335  1
  H+  H9  1  0.10201977  0.71961474  0.82263730  1
  H+  H10  1  0.72061568  0.09482674  0.50392132  1
  H+  H11  1  0.57956484  0.67664632  0.41558601  1
  H+  H12  1  0.46242868  0.82216276  0.33244286  1
  H+  H13  1  0.32758957  0.47556387  0.36237089  1
  H+  H14  1  1.02220601  0.63887019  0.34225910  1
  H+  H15  1  0.10237319  0.63945834  0.67608967  1
  H+  H16  1  0.14411255  0.28803133  0.62068685  1
  H+  H17  1  0.61967922  0.22736591  0.00022594  1
  H+  H18  1  0.11520716  0.72490838  0.49935994  1
  H+  H19  1  0.60736060  0.87838229  0.34774982  1
  H+  H20  1  0.61547131  0.97046610  0.67898981  1
  H+  H21  1  0.83855876  0.85909712  0.15966829  1
  H+  H22  1  0.61782989  0.47706613  0.50489522  1
  H+  H23  1  0.38690572  0.10095668  0.50165309  1
  H+  H24  1  0.27069927  0.14094074  0.67663622  1
  H+  H25  1  0.52963143  0.40017631  -0.00430222  1
  H+  H26  1  0.63783965  0.28884579  0.83864509  1
  H+  H27  1  0.14430771  0.02468908  0.32771786  1
  H+  H28  1  0.97094697  0.34526718  0.57519899  1
  H+  H29  1  0.86471213  0.23542808  0.15887614  1
  H+  H30  1  0.36923210  0.15093242  0.16194300  1
  H+  H31  1  0.22287559  0.61926398  0.98632212  1
  H+  H32  1  0.36950548  0.47142043  0.66726291  1
  H+  H33  1  0.12029658  0.13209783  -0.01035486  1
  H+  H34  1  0.35765010  0.63774927  -0.00014985  1
  H+  H35  1  0.13291707  0.85471026  0.66535368  1
  H+  H36  1  0.63159827  0.36062597  0.66376049  1
  H+  H37  1  0.64058120  0.62014358  0.83793493  1
  H+  H38  1  0.14442011  0.10967226  0.84032778  1
  H+  H39  1  0.77378572  0.16175717  0.33197285  1
  H+  H40  1  0.47964404  0.85181976  0.51267337  1
  H+  H41  1  0.36220115  0.39346498  0.83476345  1
  H+  H42  1  0.34848127  0.70640117  0.34182710  1
  H+  H43  1  0.36758454  0.97422421  0.00203058  1
  H+  H44  1  0.83022319  0.66815222  -0.07064112  1
  H+  H45  1  0.61022823  0.48797892  0.17127356  1
  H+  H46  1  0.72181154  0.10554220  0.66298426  1
  H+  H47  1  0.36641737  0.23409564  0.82949513  1
  H+  H48  1  0.89187989  0.02051956  0.50617857  1
  H+  H49  1  0.98329298  0.61343335  0.51524316  1
  H+  H50  1  0.12752962  0.35886664  0.83482470  1
  H+  H51  1  0.13582477  0.85397384  0.83487441  1
  H+  H52  1  0.64232036  0.28529665  0.17567643  1
  H+  H53  1  0.40977745  0.57222622  0.27903432  1
  H+  H54  1  0.40281329  1.03786114  0.83489453  1
  H+  H55  1  0.02610531  0.14281169  0.16067831  1
  H+  H56  1  -0.03995916  0.09610022  0.00440138  1
  H+  H57  1  0.61439165  0.66848927  0.00244176  1
  H+  H58  1  0.14886103  0.37476754  0.64206060  1
  H+  H59  1  0.12852429  0.48726806  0.01362305  1
  H+  H60  1  0.62766624  0.98666862  0.30080260  1
  H+  H61  1  0.13532447  0.12112224  0.66292339  1
  H+  H62  1  0.25084268  0.40435736  0.40797640  1
  H+  H63  1  0.13947875  0.11157893  0.32666126  1
  H+  H64  1  0.73332014  0.39461544  0.32957635  1
  H+  H65  1  0.86632407  0.48363909  0.16054785  1
  H+  H66  1  0.63585773  0.97270270  0.83553391  1
  H+  H67  1  0.72346689  0.86168186  0.83359171  1
  H+  H68  1  0.98486029  0.86940087  0.99557644  1
  H+  H69  1  0.22770863  0.86355054  0.98999822  1
  H+  H70  1  0.87226771  0.62452564  0.50744252  1
  H+  H71  1  0.63661083  0.26179903  0.34671348  1
  H+  H72  1  0.52879974  0.62738158  0.67594917  1
  H+  H73  1  0.27571640  0.87552742  0.50547828  1
  H+  H74  1  1.02369816  0.38317932  0.16272013  1
  H+  H75  1  0.61529749  0.72082153  0.67300539  1
  H+  H76  1  0.74958922  0.94135345  0.27065944  1
  H+  H77  1  0.77978934  0.11142218  0.83075541  1
  H+  H78  1  0.39288605  0.53521159  -0.01122225  1
  H+  H79  1  0.13307356  0.86815142  0.17166027  1
  H+  H80  1  0.40064282  0.53272095  0.84117649  1
  H+  H81  1  0.52060872  0.14842790  0.83472991  1
  H+  H82  1  0.06184466  0.33514312  0.49946959  1
  H+  H83  1  0.61147193  0.39677516  0.82965667  1
  H+  H84  1  0.34805113  0.61822009  0.34671988  1
  H+  H85  1  0.89879690  0.77929995  0.31632458  1
  H+  H86  1  0.35549400  0.96237067  0.14459117  1
  H+  H87  1  0.12184695  0.49732104  0.18314808  1
  H+  H88  1  0.08268063  0.36513341  0.32663126  1
  H+  H89  1  0.90136895  0.02600887  0.33520639  1
  H+  H90  1  0.62369870  0.53775827  0.33780419  1
  H+  H91  1  0.60952280  0.85423625  0.16312424  1
  H+  H92  1  0.20460347  0.35609032  0.32276282  1
  H+  H93  1  0.72766846  0.37774289  0.83481409  1
  H+  H94  1  0.27559285  0.14260925  0.15853285  1
  H+  H95  1  0.88065647  0.64369461  0.15544860  1
  H+  H96  1  0.78984249  0.97766719  0.78729446  1
  H+  H97  1  0.65908462  0.08112634  0.82488597  1
  H+  H98  1  0.63894097  0.27452371  0.66244528  1
  H+  H99  1  0.39609486  0.97771817  0.30924461  1
  H+  H100  1  0.65128096  0.18348757  0.34019654  1
  H+  H101  1  0.48240991  0.11228138  0.99307944  1
  H+  H102  1  0.88656816  0.37029893  0.16624391  1
  H+  H103  1  0.79258749  0.26675539  0.86357652  1
  H+  H104  1  0.11801024  0.74040568  0.15684861  1
  H+  H105  1  0.13944309  0.11500332  0.17173970  1
  H+  H106  1  0.46257073  0.60386927  0.34187297  1
  H+  H107  1  0.01370700  0.14348888  0.67263233  1
  H+  H108  1  0.63381494  0.74208070  0.50834404  1
  H+  H109  1  0.62596447  0.15120126  0.16135910  1
  H+  H110  1  0.85517070  0.13097375  1.01066902  1
  H+  H111  1  0.75548178  0.64576937  0.34044302  1
  H+  H112  1  -0.01109226  0.62553332  0.66866195  1
  H+  H113  1  0.74640287  0.62835596  0.66710255  1
  H+  H114  1  0.11888402  0.89057855  1.00677075  1
  H+  H115  1  0.84925306  0.95707493  0.00965789  1
  H+  H116  1  0.98755902  0.61717721  0.17462563  1
  H+  H117  1  0.34861212  0.23466203  0.36190333  1
  H+  H118  1  0.86925244  0.63436216  0.67558043  1
  H+  H119  1  0.89979864  0.11242835  0.84914789  1
  H+  H120  1  0.64305203  0.82280569  0.21915137  1
  H+  H121  1  0.41105299  1.06322623  0.21024329  1
  H+  H122  1  0.16570430  0.83015033  0.26863443  1
  H+  H123  1  0.76787925  0.39075604  0.66984325  1
  H+  H124  1  0.33673170  0.65946572  0.44070748  1
  H+  H125  1  0.48483553  0.86157924  0.84228934  1
  H+  H126  1  0.77791706  0.87867848  0.49629775  1
  H+  H127  1  0.89126179  0.86403547  -0.00402403  1
  H+  H128  1  0.64026686  0.38770284  0.32989304  1
  H+  H129  1  0.21200261  0.59644799  0.34084033  1
  H+  H130  1  0.28149706  0.38822549  0.65008786  1
  H+  H131  1  0.52475785  0.39058150  0.14128815  1
  H+  H132  1  0.92218687  0.82605954  0.56774692  1
  H+  H133  1  0.88839726  0.11831658  0.65734629  1
  H+  H134  1  0.13567917  1.02332981  0.51159349  1
  H+  H135  1  0.02891047  0.88330755  0.49624098  1
  H+  H136  1  0.36930076  0.72048240  0.50006669  1
  H+  H137  1  0.38687724  0.27311950  0.66045304  1
  H+  H138  1  0.06665098  0.16102853  -0.04945564  1
  H+  H139  1  0.40464459  0.62070116  0.51397126  1
  H+  H140  1  0.17087938  0.58134028  0.60221385  1
  H+  H141  1  0.64396834  0.03759837  0.17715284  1
  H+  H142  1  0.12387877  0.88911143  0.34226017  1
  H+  H143  1  0.59983542  0.17885526  0.43594967  1
  H+  H144  1  0.83530500  0.16166795  0.73526888  1
  H+  H145  1  0.28521919  0.39854301  -0.00556322  1
  H+  H146  1  0.20825176  0.36779462  0.50596040  1
  H+  H147  1  0.72795318  0.36632996  0.99286415  1
  H+  H148  1  0.39093818  0.27808107  0.99369191  1
  H+  H149  1  0.87635934  0.35843396  -0.00802618  1
  H+  H150  1  0.10172260  0.57345537  0.19685649  1
  H+  H151  1  0.38669480  0.11984282  0.67430299  1
  H+  H152  1  0.85186445  0.38740624  0.82436094  1
  H+  H153  1  0.16525245  0.26246256  0.16789448  1
  H+  H154  1  0.89513526  0.11271626  0.34121268  1
  H+  H155  1  0.37832785  0.52685378  0.17953623  1
  H+  H156  1  0.16302952  0.08904801  0.60391509  1
  H+  H157  1  0.83840606  0.20190472  0.50056802  1
  H+  H158  1  0.96861937  0.25592306  0.50050012  1
  H+  H159  1  0.24606873  0.59931247  0.15801675  1
  H+  H160  1  0.11999824  0.61173011  0.83382716  1
  H+  H161  1  0.34203490  0.61712118  0.16015426  1
  H+  H162  1  0.95297433  0.35671237  0.32150364  1
  H+  H163  1  0.87438089  0.73891002  0.97941298  1
  H+  H164  1  0.08547826  0.91799742  0.73240426  1
  H+  H165  1  0.66856367  0.34741932  0.23540202  1
  H+  H166  1  0.90634999  0.22560706  0.37098462  1
  H+  H167  1  0.88263883  0.10512262  0.50549483  1
  H+  H168  1  0.93110456  0.10306322  0.23608224  1
  H+  H169  1  0.35159467  0.73497013  0.81974951  1
  H+  H170  1  0.87522269  0.31180966  0.90612365  1
  H+  H171  1  -0.01950500  0.86163998  0.66068164  1
  H+  H172  1  0.03640053  0.89006387  0.33927029  1
  H+  H173  1  0.86179307  0.63310067  0.82817009  1
  H+  H174  1  0.64598280  0.62740345  0.66653874  1
  H+  H175  1  0.77901992  0.88882553  0.23228513  1
  H+  H176  1  0.13240742  0.48682515  0.67166896  1
  H+  H177  1  0.14425547  0.02415947  0.99280166  1
  H+  H178  1  0.61811492  0.13518686  0.49326164  1
  H+  H179  1  0.63195842  0.85096461  0.66441990  1
  H+  H180  1  0.74219206  0.84624655  0.14997789  1
  H+  H181  1  0.33123079  0.66377473  0.73196517  1
  H+  H182  1  0.45222238  0.15340861  0.24145422  1
  H+  H183  1  0.75967592  0.85176931  0.67990125  1
  H+  H184  1  0.37644097  0.83043909  0.33398744  1
  H+  H185  1  0.39318426  0.11306671  -0.00570001  1
  H+  H186  1  0.38386639  0.85425267  0.17298403  1
  H+  H187  1  0.87421513  0.26827933  0.99239928  1
  H+  H188  1  0.47064186  0.60888595  0.18009019  1
  H+  H189  1  0.39444337  0.90897199  0.81927379  1
  H+  H190  1  0.01845325  0.38702232  0.81289686  1
  H+  H191  1  0.90048438  0.13296226  0.17716691  1
  H+  H192  1  0.83331351  0.43494661  0.40323322  1
  H+  H193  1  0.89337553  0.53270438  0.66366473  1
  H+  H194  1  0.86711699  0.87672545  0.49758208  1
  H+  H195  1  0.88827614  0.62528522  0.32577098  1
  H+  H196  1  0.47897328  0.35774050  0.51111529  1
  H+  H197  1  0.86356711  0.47912845  0.49672891  1
  H+  H198  1  0.25861706  0.86718298  0.66838996  1
  H+  H199  1  0.39376343  1.04360679  0.70179640  1
  H+  H200  1  0.36112412  0.37108619  0.36251161  1
  H+  H201  1  0.62823454  0.85912282  0.83581194  1
  H+  H202  1  0.85411534  0.86062468  0.68028491  1
  H+  H203  1  0.14415400  0.28257634  0.47245429  1
  H+  H204  1  0.86428730  0.47904489  0.00395792  1
  H+  H205  1  0.47492711  0.85378986  -0.00704673  1
  H+  H206  1  0.14259668  0.61010289  0.50975905  1
  H+  H207  1  0.89728882  0.77710117  0.16545364  1
  H+  H208  1  0.52167746  0.37886206  0.67321577  1
  H+  H209  1  0.27666789  0.39848702  0.83497647  1
  H+  H210  1  0.59112366  -0.00756919  0.31169108  1
  H+  H211  1  0.51880528  0.40303585  0.35886037  1
  H+  H212  1  0.37130561  0.71907641  0.67231159  1
  H+  H213  1  1.02567125  0.13755990  0.49071858  1
  H+  H214  1  0.63450104  0.76190865  0.83354383  1
  H+  H215  1  0.13249177  0.27173881  0.83751464  1
  H+  H216  1  0.89375237  0.76454680  0.50949505  1
  H+  H217  1  0.28111338  0.13640229  0.00190834  1
  H+  H218  1  0.41891050  0.17556766  0.33023188  1
  H+  H219  1  0.86478570  0.48337573  0.82203905  1
  H+  H220  1  0.67079359  0.34032028  0.93248686  1
  H+  H221  1  0.63353468  0.10564546  0.66303932  1
  H+  H222  1  0.13703560  0.77591603  0.99184367  1
  H+  H223  1  0.72030018  0.62859114  0.98706064  1
  H+  H224  1  0.52547334  0.13876340  0.68140442  1
  H+  H225  1  0.12521038  0.26237361  0.31960061  1
  H+  H226  1  0.52675034  0.88172090  0.68093976  1
  H+  H227  1  0.61064773  0.15510184  0.84624168  1
  H+  H228  1  0.36194670  0.21977427  0.50338983  1
  H+  H229  1  0.53917316  0.15577757  0.16131982  1
  H+  H230  1  0.52148011  0.89510797  0.16077925  1
  H+  H231  1  0.38707829  0.85181108  0.66324286  1
  H+  H232  1  0.73553139  0.61265357  0.51558162  1
  H+  H233  1  0.39078375  0.28114483  0.13284846  1
  H+  H234  1  0.89329160  0.02264260  0.84734520  1
  H+  H235  1  0.15168443  0.28410993  0.98833147  1
  H+  H236  1  0.65129733  0.62373466  0.51611145  1
  H+  H237  1  0.63180103  0.53956267  0.99050533  1
  H+  H238  1  0.61353677  0.60111431  0.17368057  1
  H+  H239  1  0.02518384  0.13241994  0.33824862  1
  H+  H240  1  0.62337894  0.62687276  0.33415204  1
  H+  H241  1  0.92323488  0.83840598  0.22435083  1
  H+  H242  1  0.85854177  0.20811933  0.83116685  1
  H+  H243  1  0.39510589  0.37100005  0.13880669  1
  H+  H244  1  0.41167302  0.53550926  0.52038902  1
  H+  H245  1  0.57167565  0.73391326  0.36521587  1
  H+  H246  1  0.89985319  0.78008202  0.83898818  1
  H+  H247  1  0.62038539  0.87563165  0.50382634  1
  H+  H248  1  0.47446098  0.36756997  0.83944985  1
  H+  H249  1  0.42124272  0.02501364  0.30176242  1
  H+  H250  1  0.27295601  0.13976004  0.34563752  1
  H+  H251  1  0.89148128  0.61541638  0.98022203  1
  H+  H252  1  0.37858644  0.39207411  0.51219074  1
  H+  H253  1  0.13782021  0.40380570  1.01326330  1
  H+  H254  1  0.31688536  0.65200205  0.05977667  1
  H+  H255  1  0.02714312  0.12774289  0.83399798  1
  H+  H256  1  0.10758023  0.63121874  0.34486044  1
  H+  H257  1  0.84982848  0.28631144  0.31037715  1
  H+  H258  1  0.90861186  0.87100816  0.32630177  1
  H+  H259  1  0.23612900  0.11510198  0.83988804  1
  H+  H260  1  0.26200849  0.39727548  0.15094400  1
  H+  H261  1  0.11474654  0.13802886  0.49321540  1
  H+  H262  1  0.12247654  0.75745285  0.66824972  1
  H+  H263  1  0.63513324  0.10075594  0.98302490  1
  H+  H264  1  0.13246735  0.76799376  0.32715581  1
  H+  H265  1  0.07136080  0.66362246  0.75848030  1
  H+  H266  1  0.89430900  0.76946850  0.66085395  1
  H+  H267  1  0.47701978  0.10452416  0.49613358  1
  H+  H268  1  0.63924157  0.27381836  0.50917989  1
  H+  H269  1  0.47595643  0.62976667  -0.00648937  1
  H+  H270  1  0.22002159  0.86342055  0.16757304  1
  H+  H271  1  0.23354204  0.61211177  0.66010504  1
  H+  H272  1  0.11350368  0.63925457  -0.00052698  1
  H+  H273  1  0.12307696  0.97477096  0.82450379  1
  H+  H274  1  0.08584355  0.45290936  0.34097302  1
  H+  H275  1  0.34651016  0.94671347  0.64592403  1
  H+  H276  1  0.77308701  0.39305533  0.49243155  1
  H+  H277  1  0.39629957  0.34770100  0.30480636  1
  H+  H278  1  0.02522106  0.89499340  0.15740343  1
  H+  H279  1  0.77294837  0.63676222  0.82917152  1
  H+  H280  1  -0.02036319  0.61399495  -0.01124424  1
  H+  H281  1  0.58968165  0.71232481  0.15699926  1
  H+  H282  1  0.80940659  0.89674550  0.33725489  1
  H+  H283  1  0.39041154  0.36759651  -0.00665281  1
  H+  H284  1  0.66955922  0.06699186  0.92637292  1
  H+  H285  1  0.85944370  0.40673987  0.33960104  1
  H+  H286  1  0.39804017  0.61229101  0.66969783  1
  H+  H287  1  0.11186355  0.97746765  0.67313122  1
  H+  H288  1  0.08628777  0.41842626  0.75836564  1
  H+  H289  1  0.32635714  0.16071269  0.44465308  1
  H+  H290  1  0.92582338  0.59174334  0.23339349  1
  H+  H291  1  0.08366149  0.67071262  0.05877059  1
  H+  H292  1  0.07974791  0.15597538  0.77163012  1
  H+  H293  1  0.25956367  0.64897447  0.81931215  1
  H+  H294  1  0.84861105  0.67015628  0.09669848  1
  H+  H295  1  0.52634400  0.63691761  0.82926748  1
  H+  H296  1  0.22979039  0.60804305  0.51115634  1
  H+  H297  1  0.41714764  0.82783679  0.23222406  1
  H+  H298  1  0.54385223  0.65346074  0.51001816  1
  H+  H299  1  0.16293973  0.82489901  0.57497394  1
  H+  H300  1  0.43349007  0.59876952  0.89657189  1
  H+  H301  1  0.58911756  0.66639895  0.76805578  1
  H+  H302  1  0.35446906  0.92782499  0.76035394  1
  H+  H303  1  0.66264467  0.82433004  0.60236072  1
  H+  H304  1  0.27938490  0.48878749  0.12287501  1
  H+  H305  1  0.38241677  0.76882381  0.99351639  1
  H+  H306  1  0.60973200  0.48417362  0.82839141  1
  H+  H307  1  0.66023144  0.06938233  0.56255049  1
  H+  H308  1  0.93258165  0.84207310  0.89629596  1
  H+  H309  1  0.59443808  0.17028676  0.05986202  1
  H+  H310  1  0.83520356  0.64031053  0.44547360  1
  H+  H311  1  0.71967669  0.14526935  0.26955521  1
  H+  H312  1  0.90802714  0.07174167  0.94345145  1
  H+  H313  1  0.59051896  0.17001958  0.73666335  1
  H+  H314  1  0.22457265  0.11197428  0.51330792  1
  H+  H315  1  0.83287674  0.42246643  0.06493760  1
  H+  H316  1  0.56752317  0.65794261  0.09746556  1
  H+  H317  1  0.91096461  0.34319439  0.22824222  1
  H+  H318  1  0.35084619  0.42932379  0.45759733  1
  H+  H319  1  0.14312149  0.66917859  0.14488240  1
  H+  H320  1  0.46394137  0.33323078  0.23972254  1
  H+  H321  1  0.64060175  0.57727183  0.23790096  1
  H+  H322  1  0.83045796  0.41862316  0.72770407  1
  H+  H323  1  0.09096937  0.92344708  0.06638260  1
  H+  H324  1  0.83717617  0.66562410  0.73533652  1
  H+  H325  1  0.41677976  0.30083588  0.23730809  1
  H+  H326  1  0.09128620  0.91695932  0.43844027  1
  H+  H327  1  0.88464149  0.53498749  0.33008573  1
  H+  H328  1  0.61967008  0.40455706  -0.00372451  1
  H+  H329  1  0.61827652  0.38792916  0.49950363  1
  H+  H330  1  0.58176744  0.92258479  0.10118639  1
  H+  H331  1  0.17141312  0.08778506  0.23209645  1
  H+  H332  1  0.43292025  0.59108901  0.60903093  1
  H+  H333  1  0.66677597  0.33366896  0.56863517  1
  H+  H334  1  0.15558409  0.56704673  0.28037342  1
  H+  H335  1  0.32468854  0.90231244  0.08777792  1
  H+  H336  1  0.18686286  0.31872912  0.22737969  1
  H+  H337  1  0.91998024  0.58023904  0.89327690  1
  H+  H338  1  0.33090812  0.17288162  0.73623801  1
  H+  H339  1  0.11680202  0.98323052  0.16107994  1
  H+  H340  1  0.68194996  0.59701753  0.60333848  1
  H+  H341  1  0.42498452  0.82784355  0.60600266  1
  H+  H342  1  0.33732217  0.16531530  0.06240266  1
  H+  H343  1  0.77443951  0.39758136  0.16111762  1
  H+  H344  1  0.07790071  0.16065664  0.09753661  1
  H+  H345  1  0.81612849  0.71496861  0.38783724  1
  H+  H346  1  0.03198901  0.88729347  0.82458707  1
  H+  H347  1  0.57970323  0.41182056  0.73288821  1
  H+  H348  1  0.59251509  0.90854917  0.77363611  1
  H+  H349  1  0.42045891  0.32707656  0.57143238  1
  H+  H350  1  0.84056018  0.15833153  0.42658412  1
  H+  H351  1  0.66374998  0.59144453  0.90005405  1
  H+  H352  1  0.36614291  0.88349325  0.00027087  1
  H+  H353  1  0.15913314  0.82282436  0.89532527  1
  H+  H354  1  0.15802642  0.58585247  0.92917338  1
  H+  H355  1  0.09611253  0.41988643  0.11061989  1
  H+  H356  1  0.41971608  0.83563250  0.89774360  1
  H+  H357  1  0.17648846  0.08059312  0.93105105  1
  H+  H358  1  0.60770606  0.95739959  0.49105090  1
  H+  H359  1  0.92367173  0.09135127  0.59907436  1
  H+  H360  1  0.82099023  0.89577864  0.06602157  1
  H+  H361  1  0.92586973  0.58745317  0.57740589  1
  H+  H362  1  0.41627086  0.33477465  0.89951638  1
  H+  H363  1  0.33280848  0.43436320  0.05664226  1
  H+  H364  1  0.36915860  0.14570066  0.82869047  1
  H+  H365  1  0.61668036  0.96450941  -0.00068355  1
  H+  H366  1  0.04508303  0.39929846  0.66411523  1
  H+  H367  1  0.61615531  0.39159728  0.16657791  1
  H+  H368  1  0.08322396  0.66720772  0.43903737  1
  H+  H369  1  0.83372779  0.17122338  0.10138806  1
  H+  H370  1  0.42056890  0.08755039  0.89980111  1
  H+  H371  1  0.60121593  0.75140324  0.01394600  1
  H+  H372  1  0.36512424  0.96393762  0.49429807  1
  H+  H373  1  0.17100046  0.34080623  0.92893366  1
  H+  H374  1  0.76638269  0.12901650  0.00668672  1
  H+  H375  1  0.32081127  0.87309533  0.41187524  1
  H+  H376  1  0.58808931  0.43150121  0.41084274  1
  H+  H377  1  0.08681751  0.16412798  0.39661748  1
  H+  H378  1  0.39049219  0.85398545  0.51424645  1
  H+  H379  1  0.56845207  0.85823806  0.41400124  1
  H+  H380  1  0.08904380  0.23355511  0.69966508  1
  H+  H381  1  0.84971712  0.91191865  0.40607889  1
  H+  H382  1  0.81975928  0.91387235  0.76386842  1
  H+  H383  1  0.72267978  0.91293420  0.54945486  1
  O2-  O384  1  0.08527113  0.16285749  0.14148479  1
  O2-  O385  1  0.08577943  0.16766526  0.47443139  1
  O2-  O386  1  0.08670838  0.15924752  0.81667908  1
  O2-  O387  1  0.08682049  0.41371975  0.15587192  1
  O2-  O388  1  0.00198702  0.31648011  0.51136012  1
  O2-  O389  1  0.07976541  0.41545447  0.80441499  1
  O2-  O390  1  0.09495475  0.67948506  0.14062228  1
  O2-  O391  1  0.08308970  0.66434785  0.48423268  1
  O2-  O392  1  0.06926502  0.65894523  0.80612589  1
  O2-  O393  1  0.08723238  0.92292908  0.14496256  1
  O2-  O394  1  0.09050711  0.91691487  0.48382673  1
  O2-  O395  1  0.09211529  0.91608796  0.80679149  1
  O2-  O396  1  0.33460076  0.17188060  0.14027501  1
  O2-  O397  1  0.32747450  0.15844544  0.48999182  1
  O2-  O398  1  0.33590556  0.17289613  0.81376448  1
  O2-  O399  1  0.30471947  0.45154188  0.12789834  1
  O2-  O400  1  0.35543489  0.43130459  0.50197085  1
  O2-  O401  1  0.33816047  0.43102855  0.82502578  1
  O2-  O402  1  0.29452884  0.60666756  0.13235626  1
  O2-  O403  1  0.34249709  0.65953145  0.48589182  1
  O2-  O404  1  0.31723927  0.67811730  0.80045514  1
  O2-  O405  1  0.32073317  0.90192289  0.13413505  1
  O2-  O406  1  0.33454932  0.89956301  0.48808602  1
  O2-  O407  1  0.38314561  0.95218904  0.79931261  1
  O2-  O408  1  0.59826537  0.18350194  0.14431120  1
  O2-  O409  1  0.59233254  0.17085516  0.48090682  1
  O2-  O410  1  0.58380279  0.17982705  0.82120157  1
  O2-  O411  1  0.58932766  0.42577878  0.14999143  1
  O2-  O412  1  0.58798934  0.41958078  0.48553332  1
  O2-  O413  1  0.57808621  0.42336046  0.81388366  1
  O2-  O414  1  0.56596056  0.65150613  0.14267910  1
  O2-  O415  1  0.60426830  0.68228877  0.49315602  1
  O2-  O416  1  0.59092822  0.67078964  0.81326801  1
  O2-  O417  1  0.58330027  0.92646088  0.14615410  1
  O2-  O418  1  0.58023124  0.89452865  0.48304321  1
  O2-  O419  1  0.59462865  0.90623930  0.81919747  1
  O2-  O420  1  0.83579599  0.17335165  0.14684984  1
  O2-  O421  1  0.82532738  0.14710254  0.48274983  1
  O2-  O422  1  0.84216242  0.15022027  0.81505756  1
  O2-  O423  1  0.83353413  0.42418273  0.14385757  1
  O2-  O424  1  0.83120424  0.42460541  0.47383421  1
  O2-  O425  1  0.82949478  0.42270839  0.80579753  1
  O2-  O426  1  0.85419963  0.67747243  0.14054206  1
  O2-  O427  1  0.83792680  0.65163744  0.48914958  1
  O2-  O428  1  0.83449982  0.66772985  0.81560797  1
  O2-  O429  1  0.80396943  0.88802023  0.15397375  1
  O2-  O430  1  0.83873809  0.90752480  0.47995683  1
  O2-  O431  1  0.81109374  0.94100706  0.80300759  1
  O2-  O432  1  0.17222666  0.08702380  0.18654164  1
  O2-  O433  1  0.16252502  0.08397176  0.52619051  1
  O2-  O434  1  0.17546165  0.08036654  0.85552244  1
  O2-  O435  1  0.21236300  0.31304770  0.18878448  1
  O2-  O436  1  0.16899296  0.34613453  0.47108541  1
  O2-  O437  1  0.15840666  0.33134483  0.85324757  1
  O2-  O438  1  0.14817310  0.56082751  0.20133340  1
  O2-  O439  1  0.17018998  0.57895098  0.52679914  1
  O2-  O440  1  0.15365596  0.58572867  0.85195003  1
  O2-  O441  1  0.16120295  0.83455623  0.18556824  1
  O2-  O442  1  0.16832999  0.82763335  0.52928266  1
  O2-  O443  1  0.15710223  0.81623394  0.85066649  1
  O2-  O444  1  0.43848690  0.12349797  0.19881245  1
  O2-  O445  1  0.41587702  0.06693908  0.50703910  1
  O2-  O446  1  0.42427428  0.09600066  0.85467897  1
  O2-  O447  1  0.42688427  0.34393679  0.12409836  1
  O2-  O448  1  0.41818879  0.32662074  0.52498747  1
  O2-  O449  1  0.41361897  0.33305367  0.85394052  1
  O2-  O450  1  0.41386947  0.58214081  0.20156089  1
  O2-  O451  1  0.44119437  0.59816825  0.53159658  1
  O2-  O452  1  0.43996536  0.59482401  0.85208718  1
  O2-  O453  1  0.42455335  0.83672575  0.18741903  1
  O2-  O454  1  0.41993629  0.82264645  0.52977313  1
  O2-  O455  1  0.42364378  0.84031966  0.85261570  1
  O2-  O456  1  0.67579260  0.09880636  0.18982390  1
  O2-  O457  1  0.65872831  0.06758456  0.51742918  1
  O2-  O458  1  0.68475745  0.05801577  0.85253754  1
  O2-  O459  1  0.66787131  0.34638533  0.18976701  1
  O2-  O460  1  0.66677554  0.33505392  0.52303118  1
  O2-  O461  1  0.66912989  0.34899792  0.85388775  1
  O2-  O462  1  0.63974467  0.56908232  0.19324821  1
  O2-  O463  1  0.67591845  0.58831974  0.53229061  1
  O2-  O464  1  0.66969048  0.58906883  0.85480340  1
  O2-  O465  1  0.62701502  0.81117170  0.17621446  1
  O2-  O466  1  0.68591104  0.85537781  0.53314620  1
  O2-  O467  1  0.66321758  0.82476132  0.85002418  1
  O2-  O468  1  0.93638278  0.10866052  0.19136970  1
  O2-  O469  1  0.92104179  0.08159805  0.51916684  1
  O2-  O470  1  0.92786088  0.08039486  0.86652468  1
  O2-  O471  1  0.91503354  0.33917421  0.18295755  1
  O2-  O472  1  0.96378923  0.37242838  0.61323285  1
  O2-  O473  1  0.85507470  0.29978736  0.86033555  1
  O2-  O474  1  0.92689466  0.58800249  0.18798565  1
  O2-  O475  1  0.92283707  0.58369663  0.53125217  1
  O2-  O476  1  0.91481811  0.58131900  0.84815154  1
  O2-  O477  1  0.91998555  0.83818285  0.17913126  1
  O2-  O478  1  0.92227564  0.82580614  0.52183101  1
  O2-  O479  1  0.93512455  0.84088835  0.85129042  1
  O2-  O480  1  0.17323467  0.08467376  0.31129772  1
  O2-  O481  1  0.16466550  0.08996393  0.64958897  1
  O2-  O482  1  0.17542808  0.08470764  0.97679541  1
  O2-  O483  1  0.14937159  0.32136781  0.30161673  1
  O2-  O484  1  0.17784474  0.35020275  0.61691515  1
  O2-  O485  1  0.18039714  0.34413094  0.97412208  1
  O2-  O486  1  0.15137965  0.56885818  0.32551918  1
  O2-  O487  1  0.17165941  0.58137142  0.64819896  1
  O2-  O488  1  0.16066569  0.58864156  0.97481267  1
  O2-  O489  1  0.16518888  0.82958382  0.31372954  1
  O2-  O490  1  0.16010644  0.82133192  0.65133533  1
  O2-  O491  1  0.16614032  0.83716905  0.97820323  1
  O2-  O492  1  0.46931421  0.18937435  0.30405838  1
  O2-  O493  1  0.41763585  0.08654074  0.66959555  1
  O2-  O494  1  0.42143434  0.08073140  0.97865034  1
  O2-  O495  1  0.39796976  0.34725313  0.34916516  1
  O2-  O496  1  0.42027803  0.33179595  0.64270266  1
  O2-  O497  1  0.41932729  0.33699220  0.97639448  1
  O2-  O498  1  0.40384796  0.56871180  0.32457299  1
  O2-  O499  1  0.43147980  0.58468722  0.65430499  1
  O2-  O500  1  0.41690411  0.59640045  0.97596602  1
  O2-  O501  1  0.40761127  0.80448805  0.31126753  1
  O2-  O502  1  0.42525921  0.82870125  0.65177571  1
  O2-  O503  1  0.41505424  0.82962254  0.97809999  1
  O2-  O504  1  0.73862894  0.17982614  0.30722297  1
  O2-  O505  1  0.66148870  0.07316182  0.64792251  1
  O2-  O506  1  0.66420777  0.06788994  0.97230087  1
  O2-  O507  1  0.67303371  0.36134185  0.31308956  1
  O2-  O508  1  0.66640301  0.33426639  0.64665024  1
  O2-  O509  1  0.66740371  0.33373969  0.97762692  1
  O2-  O510  1  0.65293147  0.59640439  0.31872253  1
  O2-  O511  1  0.68400755  0.60206630  0.64981655  1
  O2-  O512  1  0.65850202  0.60197685  0.97750340  1
  O2-  O513  1  0.74823737  0.88651047  0.27100824  1
  O2-  O514  1  0.65754134  0.81657462  0.64874436  1
  O2-  O515  1  0.62890621  0.86295192  1.00430868  1
  O2-  O516  1  0.92408156  0.08480066  0.31847628  1
  O2-  O517  1  0.92601093  0.09543969  0.64427916  1
  O2-  O518  1  0.90092512  0.06949603  0.98874629  1
  O2-  O519  1  0.89599152  0.34609019  0.30380978  1
  O2-  O520  1  0.87642156  0.31372167  0.63382510  1
  O2-  O521  1  0.89917514  0.32465945  0.97130917  1
  O2-  O522  1  0.91792802  0.59514125  0.31177195  1
  O2-  O523  1  0.92255552  0.59377873  0.65086589  1
  O2-  O524  1  0.91927686  0.58017880  0.97294493  1
  O2-  O525  1  0.93441781  0.83995539  0.30423064  1
  O2-  O526  1  0.92057465  0.82858469  0.64367160  1
  O2-  O527  1  0.92600535  0.83904764  0.97765537  1
  O2-  O528  1  0.08509288  0.16223542  -0.00753508  1
  O2-  O529  1  0.08760833  0.16338133  0.35106351  1
  O2-  O530  1  0.07452333  0.17430096  0.69282516  1
  O2-  O531  1  0.11511068  0.43487675  0.03678983  1
  O2-  O532  1  0.04913994  0.38969620  0.34479598  1
  O2-  O533  1  0.10173634  0.42327271  0.68496260  1
  O2-  O534  1  0.08217951  0.67016300  0.01375519  1
  O2-  O535  1  0.08229482  0.66759815  0.35767894  1
  O2-  O536  1  0.07217990  0.66917974  0.69027081  1
  O2-  O537  1  0.09043562  0.92351381  0.02089869  1
  O2-  O538  1  0.09490520  0.92095200  0.35754047  1
  O2-  O539  1  0.08232443  0.91660723  0.68648165  1
  O2-  O540  1  0.34165821  0.16660660  0.01708697  1
  O2-  O541  1  0.32991463  0.17285599  0.36666457  1
  O2-  O542  1  0.33163455  0.17082780  0.69070110  1
  O2-  O543  1  0.34412885  0.42920882  0.01274227  1
  O2-  O544  1  0.29548874  0.41480745  0.37704364  1
  O2-  O545  1  0.33656409  0.40809029  0.67165969  1
  O2-  O546  1  0.32504361  0.66603205  0.01556613  1
  O2-  O547  1  0.31816892  0.64856507  0.36237648  1
  O2-  O548  1  0.33967224  0.65845049  0.68660796  1
  O2-  O549  1  0.33444541  0.91284941  0.01552318  1
  O2-  O550  1  0.31720638  0.85703431  0.36816927  1
  O2-  O551  1  0.32370032  0.90028402  0.67587906  1
  O2-  O552  1  0.59054333  0.16622878  0.01480230  1
  O2-  O553  1  0.61074685  0.20005231  0.35846763  1
  O2-  O554  1  0.58822554  0.16625802  0.69180776  1
  O2-  O555  1  0.59114497  0.43779025  0.00618615  1
  O2-  O556  1  0.58156634  0.43521601  0.36543036  1
  O2-  O557  1  0.58191242  0.40517178  0.68829885  1
  O2-  O558  1  0.57800502  0.68905936  0.02190923  1
  O2-  O559  1  0.56778900  0.67735041  0.37115263  1
  O2-  O560  1  0.59184009  0.66005282  0.68908100  1
  O2-  O561  1  0.58330606  0.90549057  0.01890872  1
  O2-  O562  1  0.56135222  0.83299026  0.37144975  1
  O2-  O563  1  0.58772946  0.91072807  0.69583147  1
  O2-  O564  1  0.82584525  0.16315662  0.02327307  1
  O2-  O565  1  0.85715972  0.16774571  0.37417283  1
  O2-  O566  1  0.82854168  0.16128387  0.69021934  1
  O2-  O567  1  0.83152438  0.41885377  0.01964493  1
  O2-  O568  1  0.83332348  0.44010722  0.35658365  1
  O2-  O569  1  0.83017352  0.41859617  0.68228004  1
  O2-  O570  1  0.83789436  0.67365764  -0.02653268  1
  O2-  O571  1  0.81658661  0.67681296  0.35650491  1
  O2-  O572  1  0.83605646  0.66442482  0.68983479  1
  O2-  O573  1  0.82944437  0.89702447  0.02176362  1
  O2-  O574  1  0.86328950  0.91975597  0.36103174  1
  O2-  O575  1  0.81231583  0.86934618  0.70433655  1
