# generated using pymatgen
data_H2O
_symmetry_space_group_name_H-M   'P 1'
_cell_length_a   17.97832283
_cell_length_b   17.98044746
_cell_length_c   21.99358641
_cell_angle_alpha   90.01300983
_cell_angle_beta   89.97176120
_cell_angle_gamma   120.01789139
_symmetry_Int_Tables_number   1
_chemical_formula_structural   H2O
_chemical_formula_sum   'H384 O192'
_cell_volume   6155.99101795
_cell_formula_units_Z   192
loop_
 _symmetry_equiv_pos_site_id
 _symmetry_equiv_pos_as_xyz
  1  'x, y, z'
loop_
 _atom_type_symbol
 _atom_type_oxidation_number
  H+  1.0
  O2-  -2.0
loop_
 _atom_site_type_symbol
 _atom_site_label
 _atom_site_symmetry_multiplicity
 _atom_site_fract_x
 _atom_site_fract_y
 _atom_site_fract_z
 _atom_site_occupancy
  H+  H0  1  0.60080661  0.62476017  0.34324014  1
  H+  H1  1  0.68240324  0.86572630  0.18108001  1
  H+  H2  1  0.86780926  0.99836819  -0.00153532  1
  H+  H3  1  0.62903344  0.76360647  0.33157145  1
  H+  H4  1  0.96482590  0.86284062  0.33115737  1
  H+  H5  1  0.63457521  0.61068940  0.50297356  1
  H+  H6  1  0.15751584  0.08596381  0.93901642  1
  H+  H7  1  0.97577091  0.38639077  0.67322062  1
  H+  H8  1  0.62139291  0.22784463  0.34022344  1
  H+  H9  1  0.17929027  0.10514274  0.26898276  1
  H+  H10  1  0.86048553  0.87759418  0.66806531  1
  H+  H11  1  0.89735353  0.63609618  0.83392168  1
  H+  H12  1  0.25774800  0.62836424  0.48019971  1
  H+  H13  1  0.39511008  0.26487065  0.51248442  1
  H+  H14  1  0.41235517  0.85410635  0.24407605  1
  H+  H15  1  0.64213368  0.28798666  0.17358838  1
  H+  H16  1  0.51753852  0.38997238  0.67872647  1
  H+  H17  1  0.62455812  0.77273811  0.99341184  1
  H+  H18  1  0.28311897  0.14480015  0.33909346  1
  H+  H19  1  0.85929258  0.73947616  0.82387569  1
  H+  H20  1  0.13411599  0.62211988  0.65678579  1
  H+  H21  1  0.06085026  0.38625904  0.66613902  1
  H+  H22  1  0.52698460  0.64863096  0.49344425  1
  H+  H23  1  0.21381369  0.43243272  0.20754642  1
  H+  H24  1  0.63017832  0.85398161  0.32649590  1
  H+  H25  1  0.90993425  0.33688698  0.07459570  1
  H+  H26  1  0.21276159  0.61395414  0.17779695  1
  H+  H27  1  0.60672897  0.63303202  0.66956570  1
  H+  H28  1  0.11783091  0.24262868  0.15848476  1
  H+  H29  1  0.01369409  0.62521907  0.49366582  1
  H+  H30  1  0.26146595  0.64516658  0.02132037  1
  H+  H31  1  0.88464601  0.37337419  0.13123849  1
  H+  H32  1  0.61109961  0.88405638  0.83067421  1
  H+  H33  1  0.00331372  0.61411387  0.14751805  1
  H+  H34  1  0.01412784  0.12969874  0.33400205  1
  H+  H35  1  0.38493256  0.01998750  0.32956850  1
  H+  H36  1  0.47250540  0.86765221  0.99278126  1
  H+  H37  1  0.88270376  0.52243667  0.50932917  1
  H+  H38  1  0.42973031  0.06500946  0.61464493  1
  H+  H39  1  0.62294408  0.38600666  0.49506149  1
  H+  H40  1  0.90061003  1.02075783  0.16580378  1
  H+  H41  1  0.33531214  0.56831524  0.04150209  1
  H+  H42  1  0.92725351  0.60232195  0.92661977  1
  H+  H43  1  0.57995238  0.17810591  0.10433082  1
  H+  H44  1  0.76339083  0.88457736  0.82298378  1
  H+  H45  1  0.62304648  0.13801077  0.49414652  1
  H+  H46  1  0.52641905  0.88079963  0.48245175  1
  H+  H47  1  0.62521820  0.38180422  0.34158137  1
  H+  H48  1  0.86757868  0.21817794  0.83848890  1
  H+  H49  1  0.00820163  0.13915684  0.48493765  1
  H+  H50  1  0.61127988  0.25876598  0.65985492  1
  H+  H51  1  0.26826182  0.87813531  0.33769493  1
  H+  H52  1  0.64094940  0.02418724  0.51006159  1
  H+  H53  1  0.36952070  0.38090859  0.01608463  1
  H+  H54  1  0.88316031  0.11196852  0.50445098  1
  H+  H55  1  0.11503329  0.11283718  0.66944427  1
  H+  H56  1  0.72218800  0.85157730  0.65421624  1
  H+  H57  1  0.81945243  0.26701158  0.63507031  1
  H+  H58  1  0.46716883  0.60587702  0.66203339  1
  H+  H59  1  0.14995426  0.88378515  0.52943414  1
  H+  H60  1  0.26299816  0.37786657  0.82276029  1
  H+  H61  1  0.12282099  0.52641084  0.17012320  1
  H+  H62  1  0.88588438  0.76182857  0.33131746  1
  H+  H63  1  0.66825789  0.82971486  0.55965058  1
  H+  H64  1  0.85109690  0.11769196  0.00637087  1
  H+  H65  1  0.63871770  0.52339530  0.50507515  1
  H+  H66  1  0.38294314  0.03138247  0.17279996  1
  H+  H67  1  0.88312336  0.63956440  0.34459523  1
  H+  H68  1  0.87523303  0.12050562  0.67650405  1
  H+  H69  1  0.11079511  0.47195182  0.49130387  1
  H+  H70  1  0.14688141  0.12541916  0.33024713  1
  H+  H71  1  0.47810309  0.36466814  0.99550034  1
  H+  H72  1  0.85052863  0.55000517  0.14440692  1
  H+  H73  1  0.37813901  0.37933728  0.48839592  1
  H+  H74  1  0.39287581  0.63394484  0.50589502  1
  H+  H75  1  0.61087441  0.15122812  0.16417672  1
  H+  H76  1  0.13599817  0.38702330  0.16479895  1
  H+  H77  1  0.64351650  0.26965397  0.50150925  1
  H+  H78  1  0.01653708  0.12390255  0.82137654  1
  H+  H79  1  0.35528505  0.62792146  0.82839027  1
  H+  H80  1  0.46693742  0.88696971  0.17458883  1
  H+  H81  1  0.97962945  0.62416303  0.83646859  1
  H+  H82  1  0.71637473  0.10385865  0.99858573  1
  H+  H83  1  0.91976811  0.80867939  0.24355440  1
  H+  H84  1  0.49201010  0.09591423  0.52132366  1
  H+  H85  1  0.37180079  0.88414016  0.17942925  1
  H+  H86  1  0.88675406  0.62076447  0.66185313  1
  H+  H87  1  0.37781336  0.51425905  0.83147210  1
  H+  H88  1  0.12382504  0.09792793  0.84627521  1
  H+  H89  1  0.86278302  0.73184102  0.00572925  1
  H+  H90  1  0.88614648  0.36451058  0.49467091  1
  H+  H91  1  0.85705695  0.87363292  0.33548612  1
  H+  H92  1  0.35468556  0.72570810  0.32551104  1
  H+  H93  1  0.16612305  0.43620032  0.99894203  1
  H+  H94  1  0.88988366  0.01076821  0.32034835  1
  H+  H95  1  0.34141342  0.46813401  0.34339162  1
  H+  H96  1  0.36567619  0.21675957  0.67369892  1
  H+  H97  1  0.90165123  0.62637541  0.99086181  1
  H+  H98  1  0.59196209  0.12990184  0.83577550  1
  H+  H99  1  0.12113778  0.56897371  1.00170931  1
  H+  H100  1  0.10307164  0.47017956  0.82891027  1
  H+  H101  1  0.62055976  0.39519363  0.16652856  1
  H+  H102  1  0.88889672  0.10801638  0.84337202  1
  H+  H103  1  0.38094631  0.62630378  0.31979314  1
  H+  H104  1  0.09751759  0.63156258  0.15929668  1
  H+  H105  1  0.97607336  0.86023702  0.65936543  1
  H+  H106  1  0.62481912  0.36202323  0.99535192  1
  H+  H107  1  0.52378107  0.13928135  1.01128217  1
  H+  H108  1  0.83813520  0.91420876  0.43083502  1
  H+  H109  1  0.86072112  0.22341173  0.48800975  1
  H+  H110  1  0.38651424  0.35430260  0.66275225  1
  H+  H111  1  0.13226315  0.60395092  0.84701276  1
  H+  H112  1  0.63154199  0.11316614  1.00393864  1
  H+  H113  1  0.83703723  0.37303660  1.01000216  1
  H+  H114  1  0.07012844  0.63660824  0.06126420  1
  H+  H115  1  0.61459871  0.48230973  0.01020557  1
  H+  H116  1  0.34133973  0.15894059  0.73238809  1
  H+  H117  1  0.01979201  0.39455074  0.13073495  1
  H+  H118  1  0.23110484  0.09873947  0.66126820  1
  H+  H119  1  0.37840967  0.60845935  1.04378866  1
  H+  H120  1  0.07184619  0.87112994  0.82008490  1
  H+  H121  1  0.60217572  0.88678559  1.00976805  1
  H+  H122  1  0.39006430  0.51846807  0.17876529  1
  H+  H123  1  0.60615575  0.63168159  0.15511987  1
  H+  H124  1  0.35385141  0.87836850  0.48444064  1
  H+  H125  1  0.15672808  0.14789727  -0.00768239  1
  H+  H126  1  0.56020195  0.28901668  0.61815688  1
  H+  H127  1  0.48652179  0.36723932  0.17998614  1
  H+  H128  1  0.22373144  0.86986597  0.68460205  1
  H+  H129  1  0.13333628  0.52684082  0.32675248  1
  H+  H130  1  0.96101491  0.87432359  0.98867091  1
  H+  H131  1  0.88333604  0.61205007  0.50993586  1
  H+  H132  1  0.14634951  0.36147126  0.50311535  1
  H+  H133  1  0.10704055  -0.03306185  0.67908523  1
  H+  H134  1  0.75418587  0.60576692  0.84311861  1
  H+  H135  1  0.85467382  0.97214289  0.82200054  1
  H+  H136  1  0.27491163  0.37172783  0.66861284  1
  H+  H137  1  0.38800538  0.11767521  0.99161187  1
  H+  H138  1  0.38145077  0.23129929  0.83047032  1
  H+  H139  1  0.59328645  0.17355347  0.77164697  1
  H+  H140  1  0.06754302  0.16938753  0.41319346  1
  H+  H141  1  0.06298025  0.61501967  0.32793949  1
  H+  H142  1  1.01474194  0.61341613  0.99844138  1
  H+  H143  1  0.63009816  0.03803475  0.16812591  1
  H+  H144  1  0.89012188  0.21406322  0.68506928  1
  H+  H145  1  0.52960584  0.14059605  0.34079771  1
  H+  H146  1  0.13338567  0.85118959  0.00855252  1
  H+  H147  1  0.47443760  0.61181613  0.17442337  1
  H+  H148  1  0.98408605  0.38216918  0.31856621  1
  H+  H149  1  0.82090041  0.42553704  0.08304517  1
  H+  H150  1  0.86366335  0.14049557  0.16130515  1
  H+  H151  1  0.24402236  0.75242894  0.98799869  1
  H+  H152  1  0.37726327  0.60356055  0.66435207  1
  H+  H153  1  0.26404682  0.63416436  0.32345096  1
  H+  H154  1  0.84527455  0.87142781  0.00246756  1
  H+  H155  1  0.37493601  0.75789282  0.47949399  1
  H+  H156  1  0.87297468  0.86233832  0.83867598  1
  H+  H157  1  0.58190457  0.89402555  0.15698630  1
  H+  H158  1  0.61192846  1.01465786  0.84605214  1
  H+  H159  1  0.63713656  0.15981794  0.67189290  1
  H+  H160  1  0.86143522  0.72980948  0.66644779  1
  H+  H161  1  0.03489940  0.91152194  0.17730515  1
  H+  H162  1  0.27597417  0.88970734  0.00942384  1
  H+  H163  1  0.86717904  0.97491465  0.48922837  1
  H+  H164  1  0.12072673  0.76075616  0.32268646  1
  H+  H165  1  0.77802012  0.38863882  0.48738387  1
  H+  H166  1  0.14830754  0.04826645  0.17704905  1
  H+  H167  1  0.10174430  0.22620753  0.33618087  1
  H+  H168  1  0.61696838  0.88404497  0.48816927  1
  H+  H169  1  0.96899744  0.86958923  0.83459797  1
  H+  H170  1  0.47579369  0.12099616  0.17339092  1
  H+  H171  1  0.37728556  0.76166870  0.84108298  1
  H+  H172  1  0.62984614  0.76972584  0.84061245  1
  H+  H173  1  0.26111001  0.88852456  0.16033558  1
  H+  H174  1  0.57825623  0.66550003  0.75929728  1
  H+  H175  1  0.76065242  0.40840589  0.67237928  1
  H+  H176  1  0.87333135  0.34611404  0.84737294  1
  H+  H177  1  0.77597674  0.64061730  0.49429261  1
  H+  H178  1  0.37287286  0.76370852  0.67902417  1
  H+  H179  1  0.08196171  0.41751101  0.39842206  1
  H+  H180  1  0.40216058  0.00777725  0.51888067  1
  H+  H181  1  0.10213449  1.01197850  0.01947376  1
  H+  H182  1  0.86871082  0.72813506  0.49385570  1
  H+  H183  1  0.77695450  0.63974277  1.00596315  1
  H+  H184  1  0.37235755  0.98320915  0.69163070  1
  H+  H185  1  0.36874426  0.13486197  0.33998983  1
  H+  H186  1  0.62024642  0.72800874  0.48601693  1
  H+  H187  1  0.10862205  1.00365643  0.84905590  1
  H+  H188  1  0.86156182  0.22719522  0.14400231  1
  H+  H189  1  0.15386170  0.14008960  0.16874948  1
  H+  H190  1  0.39713278  0.25845752  0.33190098  1
  H+  H191  1  0.52704710  0.87661959  0.68188187  1
  H+  H192  1  0.89952369  0.86210220  0.50202230  1
  H+  H193  1  0.60408348  0.38938635  0.67869334  1
  H+  H194  1  0.06743822  0.21120402  -0.00293911  1
  H+  H195  1  0.29298192  0.40553294  0.01938668  1
  H+  H196  1  0.61987087  0.47165685  0.83287334  1
  H+  H197  1  0.60487119  0.63423250  0.81891580  1
  H+  H198  1  0.48486261  0.35489329  0.51250198  1
  H+  H199  1  0.60828125  0.96834714  0.33419867  1
  H+  H200  1  0.95939615  0.08038218  1.00169929  1
  H+  H201  1  0.37098184  0.14102654  0.17199362  1
  H+  H202  1  0.63457676  0.85426533  0.65692626  1
  H+  H203  1  0.12485651  0.72255183  0.82850883  1
  H+  H204  1  0.74312837  0.37649299  0.32804407  1
  H+  H205  1  0.68126995  0.34304117  0.26984107  1
  H+  H206  1  1.02320953  0.38174652  0.49138237  1
  H+  H207  1  0.14498588  0.71393245  0.98891626  1
  H+  H208  1  0.27825080  0.14959430  0.17033035  1
  H+  H209  1  0.11120875  0.38770737  0.33937861  1
  H+  H210  1  0.79843523  0.86913536  0.16971602  1
  H+  H211  1  0.49828432  0.35632204  0.33275599  1
  H+  H212  1  1.07170480  0.86271645  0.92255985  1
  H+  H213  1  0.53672787  0.62658823  -0.00711854  1
  H+  H214  1  0.62480457  0.35701181  0.84210581  1
  H+  H215  1  0.75600611  0.14099703  0.65821895  1
  H+  H216  1  0.12074056  0.52925240  0.65570008  1
  H+  H217  1  0.73192859  0.86284823  0.50179186  1
  H+  H218  1  0.28514891  0.38776140  0.16199816  1
  H+  H219  1  0.13000121  0.86404654  0.16945567  1
  H+  H220  1  0.29316824  0.38419519  0.48817142  1
  H+  H221  1  0.10189552  0.44525221  0.08753647  1
  H+  H222  1  0.88542104  0.50068371  0.34099706  1
  H+  H223  1  0.37231078  0.22533675  1.00234459  1
  H+  H224  1  0.37883720  0.35729430  0.84161240  1
  H+  H225  1  0.12379089  0.60456656  0.49538222  1
  H+  H226  1  0.98933000  0.86049685  0.49975333  1
  H+  H227  1  0.10733952  0.23116452  0.48209350  1
  H+  H228  1  1.02338291  0.64186928  0.67598719  1
  H+  H229  1  0.47661064  0.62020584  0.32839318  1
  H+  H230  1  0.11990225  0.76952899  0.16284601  1
  H+  H231  1  0.39513809  0.36490294  0.18219439  1
  H+  H232  1  0.61337166  0.48029858  0.16777607  1
  H+  H233  1  0.41842618  0.50627051  0.98599654  1
  H+  H234  1  0.39637618  0.10582924  0.66732875  1
  H+  H235  1  0.83011660  0.15594386  0.43154239  1
  H+  H236  1  0.73190891  0.37873802  0.17040931  1
  H+  H237  1  0.75066471  0.37981113  0.00810330  1
  H+  H238  1  0.15929108  0.29323763  0.00355549  1
  H+  H239  1  0.34542067  0.74022751  0.01754237  1
  H+  H240  1  0.66269983  0.58217959  0.59876044  1
  H+  H241  1  0.14109501  0.23865436  0.65388962  1
  H+  H242  1  0.63302441  0.52541021  0.66026742  1
  H+  H243  1  0.86147399  0.69255214  0.15909710  1
  H+  H244  1  0.76128703  0.36925769  0.82738134  1
  H+  H245  1  0.36133703  0.88729700  0.69575079  1
  H+  H246  1  0.10258675  0.21462338  0.81781912  1
  H+  H247  1  0.15114071  0.08881978  0.50807111  1
  H+  H248  1  0.35812455  0.46705230  0.67102081  1
  H+  H249  1  0.85583231  0.48947235  0.67170022  1
  H+  H250  1  0.73483040  0.61792912  0.17069997  1
  H+  H251  1  0.38792819  0.87481666  0.99153079  1
  H+  H252  1  0.64596260  0.61932132  0.99055545  1
  H+  H253  1  0.60668528  0.72204025  0.66772651  1
  H+  H254  1  0.28737390  0.12455758  0.49884027  1
  H+  H255  1  0.26301702  0.63162191  0.67449072  1
  H+  H256  1  0.72359163  0.12115400  0.17204170  1
  H+  H257  1  0.85554809  0.11721775  0.34002771  1
  H+  H258  1  0.76716205  0.11741407  0.34129160  1
  H+  H259  1  0.70758690  0.66786583  0.21558442  1
  H+  H260  1  0.73380939  0.60469925  0.33718182  1
  H+  H261  1  0.34588228  0.63165683  0.16466517  1
  H+  H262  1  0.90599389  0.83581239  0.92602157  1
  H+  H263  1  0.12544934  0.83216374  1.04013727  1
  H+  H264  1  0.37749718  0.24040388  0.17396113  1
  H+  H265  1  0.53525393  0.13071792  0.67936076  1
  H+  H266  1  0.63445715  0.10702842  0.32817153  1
  H+  H267  1  0.61175976  0.72079345  0.15914731  1
  H+  H268  1  0.42455093  0.08547628  0.93599296  1
  H+  H269  1  0.28554125  0.88509606  0.84015785  1
  H+  H270  1  0.61873418  0.46850318  0.34406734  1
  H+  H271  1  0.12076692  0.35628562  0.83221933  1
  H+  H272  1  0.11313530  0.73152686  0.68021414  1
  H+  H273  1  0.97203121  0.78450746  0.19674305  1
  H+  H274  1  0.38259064  0.86808861  0.32960796  1
  H+  H275  1  0.05814288  0.93188358  0.40598394  1
  H+  H276  1  0.88650287  0.87302781  0.15798901  1
  H+  H277  1  0.71181016  0.86086323  0.99698370  1
  H+  H278  1  0.09112236  0.91019051  -0.07170497  1
  H+  H279  1  0.09417988  0.98399709  0.34322169  1
  H+  H280  1  0.61029047  0.22986572  0.00978939  1
  H+  H281  1  0.47316048  0.86578515  0.32588033  1
  H+  H282  1  0.36054157  0.98514519  0.00780532  1
  H+  H283  1  -0.01742618  0.11472861  0.16425782  1
  H+  H284  1  0.85879455  0.25376669  0.99788389  1
  H+  H285  1  -0.02190595  0.09313297  0.65514308  1
  H+  H286  1  0.73095855  0.11111852  0.50339648  1
  H+  H287  1  0.13757894  0.32378564  0.65242083  1
  H+  H288  1  0.19798835  0.79967699  0.90994762  1
  H+  H289  1  0.82638974  0.89821104  0.06765647  1
  H+  H290  1  0.91858444  0.08027367  0.56129404  1
  H+  H291  1  0.26551465  0.62661268  0.83292366  1
  H+  H292  1  0.63685480  0.07126097  0.90701253  1
  H+  H293  1  0.90356387  0.33212967  0.55666107  1
  H+  H294  1  0.58751194  0.41119507  0.43741497  1
  H+  H295  1  0.93692061  0.38093723  0.25808326  1
  H+  H296  1  0.70270428  0.12792174  0.59646514  1
  H+  H297  1  0.57694456  0.41904527  0.77146388  1
  H+  H298  1  0.66785647  0.32801884  0.56078471  1
  H+  H299  1  0.91597636  0.06720121  0.89814322  1
  H+  H300  1  0.43608493  0.55836029  0.92252754  1
  H+  H301  1  0.05441693  0.64317856  0.42816647  1
  H+  H302  1  0.74029149  0.52576137  0.88052616  1
  H+  H303  1  0.58239813  0.91101519  0.39459656  1
  H+  H304  1  0.58854441  0.16520290  0.43581786  1
  H+  H305  1  0.40777839  0.83860875  0.62989070  1
  H+  H306  1  0.82708668  0.65338160  0.09330797  1
  H+  H307  1  0.34347771  0.92246947  0.77377843  1
  H+  H308  1  0.68088907  0.57927713  0.93825954  1
  H+  H309  1  0.15736614  0.56378358  0.90456010  1
  H+  H310  1  0.31606716  0.67871343  0.11725135  1
  H+  H311  1  0.48938324  0.18326620  0.80715114  1
  H+  H312  1  0.46648779  0.60476094  0.82958061  1
  H+  H313  1  0.16380615  0.85629956  0.87801248  1
  H+  H314  1  0.92027971  0.07307223  0.26128293  1
  H+  H315  1  0.58323653  0.42252070  0.06950473  1
  H+  H316  1  0.57271535  0.65831707  0.40203681  1
  H+  H317  1  0.82252548  0.14750718  0.06639104  1
  H+  H318  1  0.27503224  0.89388802  0.49929631  1
  H+  H319  1  0.43181570  0.32972756  0.27135343  1
  H+  H320  1  0.17382758  0.06136071  0.60072918  1
  H+  H321  1  0.41682873  0.08181729  0.27118472  1
  H+  H322  1  0.10251879  0.87461014  0.45569442  1
  H+  H323  1  0.05857113  0.41301954  0.76969283  1
  H+  H324  1  0.32910998  0.40442742  0.39688049  1
  H+  H325  1  0.31561693  0.65237100  0.41897379  1
  H+  H326  1  0.62919475  0.27030302  0.84486681  1
  H+  H327  1  0.88470539  0.00757677  0.65471593  1
  H+  H328  1  0.58185461  0.66539000  0.05809092  1
  H+  H329  1  0.52008219  0.87830000  0.82576831  1
  H+  H330  1  0.35062931  0.41705938  0.10572271  1
  H+  H331  1  0.91603278  0.58737463  0.60372702  1
  H+  H332  1  0.34280598  0.16642090  0.43993448  1
  H+  H333  1  0.85209196  0.36407728  0.65061620  1
  H+  H334  1  0.84390883  0.15955024  0.77872597  1
  H+  H335  1  0.41112504  0.82591952  0.89975092  1
  H+  H336  1  0.08990909  0.66432426  0.76858729  1
  H+  H337  1  0.47184001  0.36570819  0.84350815  1
  H+  H338  1  0.59414447  0.91180360  0.73389567  1
  H+  H339  1  0.41563308  0.33358460  0.93702249  1
  H+  H340  1  0.10635972  0.20248761  0.09315935  1
  H+  H341  1  0.90123809  0.32654925  0.94804502  1
  H+  H342  1  0.84070033  0.42823788  0.42895123  1
  H+  H343  1  0.83155112  0.67891473  0.76249265  1
  H+  H344  1  0.15279398  0.58275743  0.26582623  1
  H+  H345  1  0.42278249  0.60790064  0.56708819  1
  H+  H346  1  0.67408532  0.57540216  0.27902564  1
  H+  H347  1  0.16114119  0.58516877  0.55633413  1
  H+  H348  1  0.09154680  0.92018832  0.02525366  1
  H+  H349  1  0.08190963  0.14597965  0.72698217  1
  H+  H350  1  0.65826445  0.82875735  0.90112360  1
  H+  H351  1  0.66161205  0.08081415  0.26645062  1
  H+  H352  1  0.65344048  0.33053779  0.93492204  1
  H+  H353  1  0.41888686  0.58883557  0.26048564  1
  H+  H354  1  0.77130034  0.87957744  0.33854731  1
  H+  H355  1  0.14147459  -0.00481166  0.50158001  1
  H+  H356  1  0.13128673  0.86478085  0.67924046  1
  H+  H357  1  0.23327505  0.40621213  0.94656750  1
  H+  H358  1  0.41323080  0.81101566  0.53833414  1
  H+  H359  1  0.82026627  0.40022026  0.76834747  1
  H+  H360  1  0.77101848  0.64040841  0.66875971  1
  H+  H361  1  0.92372387  0.83338932  0.59555148  1
  H+  H362  1  0.17394039  0.31731285  0.55547573  1
  H+  H363  1  0.87672020  0.40783201  0.33496205  1
  H+  H364  1  0.14636678  0.32379106  0.89101262  1
  H+  H365  1  0.32535476  0.91435105  0.39873869  1
  H+  H366  1  0.06258663  0.91120959  0.74168970  1
  H+  H367  1  0.96613570  0.35631422  0.85208189  1
  H+  H368  1  0.32531443  0.40521564  0.76483671  1
  H+  H369  1  0.31865255  0.65471207  0.73661463  1
  H+  H370  1  0.84147094  0.66198283  0.40239915  1
  H+  H371  1  0.07904835  0.94728026  0.11312178  1
  H+  H372  1  0.28255107  0.13850855  0.00187600  1
  H+  H373  1  0.15969875  0.33140177  0.27059443  1
  H+  H374  1  0.67827517  0.81979906  0.24301801  1
  H+  H375  1  0.42067123  0.32649194  0.60425943  1
  H+  H376  1  0.21878034  0.35555722  0.33097117  1
  H+  H377  1  0.56240021  0.92287383  0.09341229  1
  H+  H378  1  0.18273898  0.85383090  0.58590396  1
  H+  H379  1  0.82700487  0.90741798  0.72663437  1
  H+  H380  1  0.60408258  0.97861875  0.00900212  1
  H+  H381  1  0.32704896  0.92347178  0.10355671  1
  H+  H382  1  0.16119756  0.81787362  0.26412432  1
  H+  H383  1  0.37380654  0.87850091  0.83350805  1
  O2-  O384  1  0.09768489  0.18765960  0.13773503  1
  O2-  O385  1  0.06768706  0.17149750  0.46406311  1
  O2-  O386  1  0.07595947  0.15451145  0.80344933  1
  O2-  O387  1  0.08425518  0.42877341  0.13118389  1
  O2-  O388  1  0.08445895  0.41054510  0.47770534  1
  O2-  O389  1  0.07011842  0.40967658  0.81325453  1
  O2-  O390  1  0.06426673  0.65655821  0.13959068  1
  O2-  O391  1  0.06882875  0.64544993  0.47159742  1
  O2-  O392  1  0.09144599  0.66251527  0.81421020  1
  O2-  O393  1  0.09162195  0.94447082  0.15757064  1
  O2-  O394  1  0.08144907  0.91011032  0.47371621  1
  O2-  O395  1  0.05196930  0.91066792  0.80918600  1
  O2-  O396  1  0.34288923  0.17745827  0.15962059  1
  O2-  O397  1  0.34606718  0.16664701  0.48453077  1
  O2-  O398  1  0.37714147  0.17826254  0.81140977  1
  O2-  O399  1  0.34708278  0.41538206  0.15276268  1
  O2-  O400  1  0.35012151  0.40910491  0.46901999  1
  O2-  O401  1  0.32436262  0.40735084  0.81041432  1
  O2-  O402  1  0.31488954  0.66347395  0.16085431  1
  O2-  O403  1  0.31833148  0.65777577  0.46377351  1
  O2-  O404  1  0.32472460  0.65936221  0.81533938  1
  O2-  O405  1  0.32397448  0.92360366  0.14936582  1
  O2-  O406  1  0.32999777  0.91618019  0.47503374  1
  O2-  O407  1  0.34636211  0.91612384  0.82267230  1
  O2-  O408  1  0.57803906  0.17947002  0.15022188  1
  O2-  O409  1  0.59163645  0.16831132  0.48104135  1
  O2-  O410  1  0.57851557  0.17268905  0.81528206  1
  O2-  O411  1  0.58452840  0.42130964  0.15250680  1
  O2-  O412  1  0.59009473  0.41504911  0.48251277  1
  O2-  O413  1  0.57521177  0.41491255  0.81692610  1
  O2-  O414  1  0.57525042  0.66198371  0.14253375  1
  O2-  O415  1  0.58421666  0.66647271  0.47296917  1
  O2-  O416  1  0.57544742  0.66450610  0.80564716  1
  O2-  O417  1  0.55896765  0.92855422  0.14026738  1
  O2-  O418  1  0.58823518  0.91558832  0.47188464  1
  O2-  O419  1  0.58098128  0.91332661  0.81334036  1
  O2-  O420  1  0.82780273  0.16314275  0.14444744  1
  O2-  O421  1  0.83210388  0.16092161  0.47782392  1
  O2-  O422  1  0.84463885  0.15830201  0.82353923  1
  O2-  O423  1  0.82885318  0.43089779  0.13443301  1
  O2-  O424  1  0.83943965  0.42223853  0.47456946  1
  O2-  O425  1  0.81869945  0.38449938  0.81127012  1
  O2-  O426  1  0.82122513  0.63832208  0.13850163  1
  O2-  O427  1  0.83620078  0.66664043  0.47925671  1
  O2-  O428  1  0.83279817  0.67852599  0.80792572  1
  O2-  O429  1  0.85389874  0.90193849  0.14770705  1
  O2-  O430  1  0.83798076  0.91382898  0.47617538  1
  O2-  O431  1  0.82231274  0.91225585  0.80527626  1
  O2-  O432  1  0.18323727  0.11107835  0.18790348  1
  O2-  O433  1  0.17767895  0.05627076  0.52242410  1
  O2-  O434  1  0.14079939  0.06175193  0.86936890  1
  O2-  O435  1  0.17768760  0.37595806  0.18925969  1
  O2-  O436  1  0.17199958  0.32417458  0.51072378  1
  O2-  O437  1  0.15143880  0.32537485  0.84666301  1
  O2-  O438  1  0.14971566  0.58441319  0.18931074  1
  O2-  O439  1  0.15936883  0.57867160  0.51147977  1
  O2-  O440  1  0.16047025  0.57024895  0.85965833  1
  O2-  O441  1  0.15638442  0.82867437  0.17953372  1
  O2-  O442  1  0.18873140  0.86247800  0.54122080  1
  O2-  O443  1  0.19378406  0.82491593  0.86875373  1
  O2-  O444  1  0.41464767  0.09115011  0.18943621  1
  O2-  O445  1  0.44571784  0.05133539  0.54662605  1
  O2-  O446  1  0.46476332  0.21657220  0.78783511  1
  O2-  O447  1  0.42613654  0.33446917  0.19733350  1
  O2-  O448  1  0.42485210  0.32599238  0.52825715  1
  O2-  O449  1  0.41153238  0.33102198  0.85907265  1
  O2-  O450  1  0.41626389  0.57931381  0.19400203  1
  O2-  O451  1  0.44262910  0.63785458  0.52763689  1
  O2-  O452  1  0.40760706  0.57462101  0.84730057  1
  O2-  O453  1  0.40929332  0.85964040  0.19610424  1
  O2-  O454  1  0.41103946  0.81945084  0.49487122  1
  O2-  O455  1  0.40968973  0.82380747  0.85406858  1
  O2-  O456  1  0.66304933  0.09568600  0.18683248  1
  O2-  O457  1  0.67245194  0.08538660  0.52274361  1
  O2-  O458  1  0.62263628  0.06994123  0.86357466  1
  O2-  O459  1  0.67288307  0.34826288  0.18931068  1
  O2-  O460  1  0.67439939  0.33151072  0.51601460  1
  O2-  O461  1  0.65761044  0.33132452  0.86036534  1
  O2-  O462  1  0.68379598  0.61183184  0.19577737  1
  O2-  O463  1  0.66718353  0.58397056  0.52005222  1
  O2-  O464  1  0.70947508  0.55546576  0.86870102  1
  O2-  O465  1  0.68973339  0.81943943  0.19742540  1
  O2-  O466  1  0.66995406  0.83213828  0.51404002  1
  O2-  O467  1  0.66092580  0.82984997  0.85572063  1
  O2-  O468  1  0.92329478  0.08049481  0.18030284  1
  O2-  O469  1  0.91875062  0.08471454  0.51579046  1
  O2-  O470  1  0.91698148  0.07161894  0.85342738  1
  O2-  O471  1  0.91197984  0.33839152  0.11972699  1
  O2-  O472  1  0.91305845  0.33165006  0.51216896  1
  O2-  O473  1  0.90715528  0.32285420  0.86865015  1
  O2-  O474  1  0.88612984  0.52264123  0.15032766  1
  O2-  O475  1  0.91173840  0.58120743  0.52774130  1
  O2-  O476  1  0.92119046  0.60249541  0.85284947  1
  O2-  O477  1  0.93021854  0.80413214  0.19742975  1
  O2-  O478  1  0.92736386  0.83023030  0.51757799  1
  O2-  O479  1  0.90515900  0.83482143  0.85517702  1
  O2-  O480  1  0.18131856  0.10083813  0.31391339  1
  O2-  O481  1  0.17069190  0.06770349  0.64580184  1
  O2-  O482  1  0.16785106  0.10020416  0.98462158  1
  O2-  O483  1  0.15648508  0.32505627  0.31515917  1
  O2-  O484  1  0.17194068  0.30012822  0.63676844  1
  O2-  O485  1  0.20528151  0.38696986  0.98590646  1
  O2-  O486  1  0.16059796  0.58708874  0.31115997  1
  O2-  O487  1  0.16068552  0.58787077  0.64121683  1
  O2-  O488  1  0.16434933  0.55161101  0.98777975  1
  O2-  O489  1  0.16803910  0.81657583  0.30847986  1
  O2-  O490  1  0.16618965  0.83730408  0.66587222  1
  O2-  O491  1  0.20052757  0.76611588  0.97346325  1
  O2-  O492  1  0.41780130  0.08178109  0.31632089  1
  O2-  O493  1  0.42682872  0.07283386  0.66048808  1
  O2-  O494  1  0.41925785  0.08354148  0.98015340  1
  O2-  O495  1  0.43490994  0.32375771  0.31696400  1
  O2-  O496  1  0.41928488  0.32543858  0.65020534  1
  O2-  O497  1  0.41668808  0.33107594  0.98255787  1
  O2-  O498  1  0.41657495  0.59535114  0.30826117  1
  O2-  O499  1  0.40622529  0.57314098  0.64770621  1
  O2-  O500  1  0.46344785  0.54924608  0.95869070  1
  O2-  O501  1  0.41287821  0.83949880  0.30904858  1
  O2-  O502  1  0.40583410  0.82867640  0.67342410  1
  O2-  O503  1  0.41237805  0.83940982  0.97633463  1
  O2-  O504  1  0.65896710  0.07218830  0.31130544  1
  O2-  O505  1  0.72202599  0.16136417  0.63516399  1
  O2-  O506  1  0.65388529  0.07597615  0.98800030  1
  O2-  O507  1  0.68124637  0.34008414  0.31511842  1
  O2-  O508  1  0.61698473  0.31081018  0.63624778  1
  O2-  O509  1  0.65284047  0.32922327  0.98099614  1
  O2-  O510  1  0.67167654  0.57506186  0.32381754  1
  O2-  O511  1  0.66332515  0.58552741  0.64428391  1
  O2-  O512  1  0.67452525  0.58449421  0.98291956  1
  O2-  O513  1  0.66126510  0.82276403  0.31411485  1
  O2-  O514  1  0.66191105  0.82196412  0.63854806  1
  O2-  O515  1  0.65210243  0.83490317  0.98084686  1
  O2-  O516  1  0.92065276  0.07231792  0.30652610  1
  O2-  O517  1  0.91786639  0.06918222  0.64015865  1
  O2-  O518  1  0.90294813  0.06004044  0.98377353  1
  O2-  O519  1  0.92631124  0.36190708  0.30016092  1
  O2-  O520  1  0.87283689  0.32446520  0.63587878  1
  O2-  O521  1  0.88631051  0.31691529  0.99235842  1
  O2-  O522  1  0.94848235  0.60380134  0.32082601  1
  O2-  O523  1  0.91708609  0.58889970  0.64958117  1
  O2-  O524  1  0.93226379  0.59957366  0.97211246  1
  O2-  O525  1  0.90794448  0.81934849  0.31094990  1
  O2-  O526  1  0.91672875  0.83127506  0.64096264  1
  O2-  O527  1  0.90308546  0.83428266  0.97308523  1
  O2-  O528  1  0.12239255  0.22855068  0.01653193  1
  O2-  O529  1  0.07349068  0.16561211  0.35344258  1
  O2-  O530  1  0.08425773  0.14482536  0.68123173  1
  O2-  O531  1  0.12655065  0.46395904  0.01307925  1
  O2-  O532  1  0.08425843  0.42157386  0.35299596  1
  O2-  O533  1  0.03670615  0.41704400  0.68702592  1
  O2-  O534  1  0.07350198  0.62677854  0.01700197  1
  O2-  O535  1  0.03646418  0.64684382  0.34587485  1
  O2-  O536  1  0.08403978  0.66863750  0.69082077  1
  O2-  O537  1  0.06437140  0.95288472  0.03874200  1
  O2-  O538  1  0.04175945  0.94024386  0.36335826  1
  O2-  O539  1  0.07162355  0.90720425  0.69463579  1
  O2-  O540  1  0.34342857  0.16342582  0.01433282  1
  O2-  O541  1  0.34489167  0.17272530  0.35273165  1
  O2-  O542  1  0.33603801  0.15555317  0.68744193  1
  O2-  O543  1  0.35196199  0.42034448  0.03576445  1
  O2-  O544  1  0.31491037  0.40697899  0.35250534  1
  O2-  O545  1  0.33258759  0.40690442  0.68723780  1
  O2-  O546  1  0.29480507  0.70093550  0.04240198  1
  O2-  O547  1  0.32755701  0.66349452  0.33584860  1
  O2-  O548  1  0.32285898  0.66018018  0.69121989  1
  O2-  O549  1  0.33340822  0.92607202  0.02696124  1
  O2-  O550  1  0.32899513  0.91349040  0.35293190  1
  O2-  O551  1  0.33694034  0.92324301  0.71115744  1
  O2-  O552  1  0.58306965  0.17067483  0.02837935  1
  O2-  O553  1  0.58994260  0.16761763  0.35542574  1
  O2-  O554  1  0.59543021  0.17391444  0.69150772  1
  O2-  O555  1  0.58140526  0.42117027  0.02446944  1
  O2-  O556  1  0.58821032  0.40635142  0.35634456  1
  O2-  O557  1  0.57879993  0.42400760  0.69367279  1
  O2-  O558  1  0.59223309  0.67162418  0.01372782  1
  O2-  O559  1  0.56952233  0.65503850  0.35509475  1
  O2-  O560  1  0.57538038  0.66217639  0.68544375  1
  O2-  O561  1  0.57098533  0.91680877  0.02460783  1
  O2-  O562  1  0.57689814  0.90701748  0.34886305  1
  O2-  O563  1  0.58928034  0.90476289  0.68887916  1
  O2-  O564  1  0.81957718  0.14652961  0.02104776  1
  O2-  O565  1  0.82543669  0.14428196  0.35926212  1
  O2-  O566  1  0.85015775  0.15430872  0.69551202  1
  O2-  O567  1  0.81113226  0.40810111  0.02433685  1
  O2-  O568  1  0.84693139  0.43776711  0.35256378  1
  O2-  O569  1  0.81986891  0.42657153  0.68348252  1
  O2-  O570  1  0.83714299  0.67237757  0.02229724  1
  O2-  O571  1  0.84126184  0.65974701  0.35671268  1
  O2-  O572  1  0.83130027  0.67017496  0.68433102  1
  O2-  O573  1  0.81629837  0.90053495  0.02348953  1
  O2-  O574  1  0.83293667  0.91008982  0.35018311  1
  O2-  O575  1  0.82824547  0.90721606  0.68109248  1
