# generated using pymatgen
data_H2O
_symmetry_space_group_name_H-M   'P 1'
_cell_length_a   17.99689972
_cell_length_b   17.99262832
_cell_length_c   22.00598619
_cell_angle_alpha   90.03021689
_cell_angle_beta   89.96505494
_cell_angle_gamma   120.00349839
_symmetry_Int_Tables_number   1
_chemical_formula_structural   H2O
_chemical_formula_sum   'H384 O192'
_cell_volume   6170.89798933
_cell_formula_units_Z   192
loop_
 _symmetry_equiv_pos_site_id
 _symmetry_equiv_pos_as_xyz
  1  'x, y, z'
loop_
 _atom_type_symbol
 _atom_type_oxidation_number
  H+  1.0
  O2-  -2.0
loop_
 _atom_site_type_symbol
 _atom_site_label
 _atom_site_symmetry_multiplicity
 _atom_site_fract_x
 _atom_site_fract_y
 _atom_site_fract_z
 _atom_site_occupancy
  H+  H0  1  0.62382978  0.98373063  0.83140749  1
  H+  H1  1  0.61478398  0.77927169  0.31856015  1
  H+  H2  1  0.97963344  0.12736669  0.16632188  1
  H+  H3  1  0.40804812  0.08552054  0.99430610  1
  H+  H4  1  0.58781338  0.61162653  0.30547722  1
  H+  H5  1  0.63770459  0.76560231  0.65887627  1
  H+  H6  1  0.72327029  0.59702941  0.22816545  1
  H+  H7  1  0.53139032  0.89773663  0.83907435  1
  H+  H8  1  0.89003314  0.86062857  0.31821884  1
  H+  H9  1  0.49079770  0.35199792  0.65700647  1
  H+  H10  1  0.89186833  0.61129674  0.32642724  1
  H+  H11  1  0.32386169  0.97578618  0.17195099  1
  H+  H12  1  0.13638243  0.51850145  0.17172407  1
  H+  H13  1  0.48561878  0.09152533  0.84109693  1
  H+  H14  1  0.95579111  0.60026717  0.83820393  1
  H+  H15  1  0.86998571  0.22957512  0.83661776  1
  H+  H16  1  0.85568163  0.62654350  0.67986803  1
  H+  H17  1  0.60169001  0.97607236  0.68584781  1
  H+  H18  1  0.47568065  0.87274971  0.31813750  1
  H+  H19  1  0.61961435  0.14615276  0.68911103  1
  H+  H20  1  0.11058307  0.89320432  0.14944441  1
  H+  H21  1  0.84640162  0.64184102  0.02332616  1
  H+  H22  1  0.11171014  0.51077563  0.48412914  1
  H+  H23  1  0.77946886  0.14011190  0.46873180  1
  H+  H24  1  0.12199516  0.10998645  0.99402726  1
  H+  H25  1  0.72368870  0.34536562  0.51548483  1
  H+  H26  1  0.37992213  0.37503718  0.64659032  1
  H+  H27  1  0.63187567  0.50855746  -0.01403523  1
  H+  H28  1  0.86712798  0.73285124  0.82954071  1
  H+  H29  1  0.99259394  0.37868011  0.35147178  1
  H+  H30  1  0.38018545  0.02321051  0.33495692  1
  H+  H31  1  0.23605499  0.61364548  1.00079429  1
  H+  H32  1  1.15814689  0.23980955  0.48478233  1
  H+  H33  1  1.00140684  0.62937490  0.49218162  1
  H+  H34  1  0.12266688  0.27629349  0.84222774  1
  H+  H35  1  0.62358469  0.15363301  0.16036397  1
  H+  H36  1  0.11680656  0.26163492  0.18234554  1
  H+  H37  1  0.15152667  0.32167233  0.24463617  1
  H+  H38  1  0.09988069  0.21836494  0.67245945  1
  H+  H39  1  0.85610250  0.47361033  0.00092227  1
  H+  H40  1  0.89795068  0.26131713  0.33280907  1
  H+  H41  1  0.87934576  0.10753736  0.66596631  1
  H+  H42  1  0.66546863  0.83083251  0.90446590  1
  H+  H43  1  0.64846669  0.37520061  0.18020047  1
  H+  H44  1  0.02673737  0.89275840  0.83148983  1
  H+  H45  1  0.36489858  0.89508749  0.34444455  1
  H+  H46  1  0.13866377  0.35924078  0.48626004  1
  H+  H47  1  0.74762859  0.57148519  0.31327790  1
  H+  H48  1  0.20380155  0.84556027  -0.00149393  1
  H+  H49  1  0.90283420  0.38052339  0.34046817  1
  H+  H50  1  0.73287965  0.36625473  0.98567795  1
  H+  H51  1  0.16703253  0.12205498  0.11673210  1
  H+  H52  1  0.87233125  0.72494326  0.14935625  1
  H+  H53  1  0.37065389  0.47404920  0.48504949  1
  H+  H54  1  0.38331647  0.67904053  0.83840746  1
  H+  H55  1  0.23319455  0.88654768  0.17310997  1
  H+  H56  1  0.10879513  0.62915883  0.65402930  1
  H+  H57  1  0.49998689  0.88272865  0.68205455  1
  H+  H58  1  0.25479162  0.36105227  0.17945945  1
  H+  H59  1  0.38880786  0.86045599  0.85088699  1
  H+  H60  1  0.59184688  0.42129043  0.09346524  1
  H+  H61  1  0.49672490  0.59988775  0.84823435  1
  H+  H62  1  0.37871159  0.13884107  0.16927824  1
  H+  H63  1  0.52210564  0.89536725  0.01510277  1
  H+  H64  1  0.13627425  0.76402329  0.33770556  1
  H+  H65  1  0.60595736  -0.02396899  0.33125523  1
  H+  H66  1  0.24831265  0.12506167  0.82147959  1
  H+  H67  1  0.88589631  0.52000985  0.66284585  1
  H+  H68  1  0.64811677  0.73571815  0.15348113  1
  H+  H69  1  0.23557198  0.37075268  1.00350005  1
  H+  H70  1  0.88814785  0.27350772  0.49841625  1
  H+  H71  1  0.54045725  0.41873052  0.48485521  1
  H+  H72  1  0.05729143  0.27915613  0.60837779  1
  H+  H73  1  0.25901021  0.74183598  0.76768086  1
  H+  H74  1  0.53044950  0.37766648  0.99687296  1
  H+  H75  1  0.38383765  0.35179157  0.17682829  1
  H+  H76  1  0.09432800  0.72474780  -0.00476656  1
  H+  H77  1  0.33164818  0.63588747  0.48746659  1
  H+  H78  1  0.10926297  0.47798843  0.66666739  1
  H+  H79  1  0.13702632  0.86420164  0.66888356  1
  H+  H80  1  0.87174816  -0.01050804  0.15759278  1
  H+  H81  1  0.27830735  0.38938796  0.48447270  1
  H+  H82  1  0.62759848  0.23679759  0.00131619  1
  H+  H83  1  0.73011176  0.11143701  0.67568804  1
  H+  H84  1  0.72512292  0.36197737  0.83569285  1
  H+  H85  1  0.64597230  0.62629287  0.51866561  1
  H+  H86  1  0.90322917  0.57763088  0.56915516  1
  H+  H87  1  1.10293926  0.16036507  0.38817598  1
  H+  H88  1  0.22251913  0.66396530  0.46422837  1
  H+  H89  1  0.88707700  0.86802223  0.99104619  1
  H+  H90  1  -0.02020409  0.11572769  0.00137879  1
  H+  H91  1  0.11074088  0.35730730  0.65044748  1
  H+  H92  1  0.01324528  0.14147038  0.83057382  1
  H+  H93  1  0.21464493  0.10172439  0.65333801  1
  H+  H94  1  0.86808436  0.23536269  0.16922067  1
  H+  H95  1  0.83927068  0.17397485  0.73748646  1
  H+  H96  1  0.59393662  0.40739658  0.61701629  1
  H+  H97  1  0.01626722  0.62192865  0.15521773  1
  H+  H98  1  0.13234574  0.60557384  0.16453250  1
  H+  H99  1  0.32648064  0.11685489  0.49684164  1
  H+  H100  1  0.62325160  0.38706252  0.99948052  1
  H+  H101  1  0.88957594  0.51548087  0.17063931  1
  H+  H102  1  0.92872108  0.34723966  0.24115466  1
  H+  H103  1  0.65306321  0.48978780  0.31076662  1
  H+  H104  1  0.62664508  0.13812155  0.83445199  1
  H+  H105  1  0.43250977  0.05321013  0.90232896  1
  H+  H106  1  0.86470975  0.38817731  0.49572101  1
  H+  H107  1  0.97894806  0.86099193  0.32374557  1
  H+  H108  1  0.34018187  0.87503565  0.02094664  1
  H+  H109  1  0.64969803  0.27717867  0.67587136  1
  H+  H110  1  0.27156579  0.37319545  0.86249159  1
  H+  H111  1  0.47918808  0.36527158  0.16957139  1
  H+  H112  1  0.12075667  -0.02332229  0.34111047  1
  H+  H113  1  0.08482147  0.92041556  0.73406068  1
  H+  H114  1  0.49446970  0.64539009  0.33367415  1
  H+  H115  1  0.65106629  0.04586243  0.16715385  1
  H+  H116  1  0.63973933  0.53523807  0.50149305  1
  H+  H117  1  0.40308885  0.89461841  0.51022263  1
  H+  H118  1  0.63809380  0.27236034  0.33697296  1
  H+  H119  1  0.77929083  0.38759237  0.67698882  1
  H+  H120  1  0.38926537  0.51825073  0.64738338  1
  H+  H121  1  0.36080213  0.21044439  0.66688378  1
  H+  H122  1  0.85669662  0.96599756  0.68322007  1
  H+  H123  1  0.63051467  0.51218054  0.66216120  1
  H+  H124  1  0.52129700  0.62891697  0.67883209  1
  H+  H125  1  0.85465007  0.48072075  0.83105001  1
  H+  H126  1  0.33927339  0.73472187  0.15527337  1
  H+  H127  1  0.22753836  0.61918142  0.32177219  1
  H+  H128  1  0.10789008  0.74975672  0.16980352  1
  H+  H129  1  1.01805795  0.37070101  0.47191111  1
  H+  H130  1  0.63056170  0.74929289  0.48875751  1
  H+  H131  1  0.87999089  0.76803828  0.67826182  1
  H+  H132  1  0.36692688  0.00003519  0.65681349  1
  H+  H133  1  0.12498913  0.76723933  0.49789880  1
  H+  H134  1  0.20147775  0.12844905  0.49716860  1
  H+  H135  1  0.19720646  0.61918146  0.84550216  1
  H+  H136  1  0.86560193  0.47702318  0.34466113  1
  H+  H137  1  0.51855064  0.36066732  0.80311550  1
  H+  H138  1  0.63206049  0.35258789  0.82761933  1
  H+  H139  1  0.14220027  0.57885822  1.02569212  1
  H+  H140  1  0.50223473  0.61254841  0.50002618  1
  H+  H141  1  0.86134187  0.22730334  0.67456767  1
  H+  H142  1  0.38116253  0.33758912  0.84865653  1
  H+  H143  1  0.35622452  0.50568326  1.01812079  1
  H+  H144  1  0.87365593  0.51590111  0.51035446  1
  H+  H145  1  0.24382028  0.12105008  0.15049854  1
  H+  H146  1  0.36559815  0.08798549  0.65750140  1
  H+  H147  1  0.89091862  0.86518742  0.84275424  1
  H+  H148  1  0.86395302  0.39608424  0.83365604  1
  H+  H149  1  0.64587365  0.62551018  0.84716779  1
  H+  H150  1  0.86270586  0.73582994  0.02041872  1
  H+  H151  1  0.09854387  0.59292559  0.49659509  1
  H+  H152  1  1.00910592  0.86995175  0.49083602  1
  H+  H153  1  0.16282705  0.33830314  0.55166538  1
  H+  H154  1  0.87533440  0.61617279  0.84195136  1
  H+  H155  1  0.35580743  0.63128361  0.65682869  1
  H+  H156  1  0.50122653  0.10167918  -0.01030209  1
  H+  H157  1  0.40088071  0.57852076  0.84418355  1
  H+  H158  1  0.12816357  0.10352085  0.66147668  1
  H+  H159  1  0.77992054  0.89233080  0.32406244  1
  H+  H160  1  0.12539518  0.12407169  0.83736577  1
  H+  H161  1  0.85818533  0.87741731  0.68876447  1
  H+  H162  1  0.45098659  0.02756185  0.19978757  1
  H+  H163  1  0.10580594  0.88579322  0.99944571  1
  H+  H164  1  0.61858116  0.22394337  0.83675266  1
  H+  H165  1  0.13394055  0.77346910  0.66115209  1
  H+  H166  1  0.74268662  0.13252393  0.17369065  1
  H+  H167  1  0.77835987  0.38613206  0.15987079  1
  H+  H168  1  0.35973229  0.42546662  0.04304495  1
  H+  H169  1  0.89730540  0.86104516  0.50815170  1
  H+  H170  1  0.97371742  0.36255256  0.65870563  1
  H+  H171  1  0.09148608  0.14030573  0.17229154  1
  H+  H172  1  0.87052014  -0.02142786  0.32195758  1
  H+  H173  1  0.89239042  0.76931984  0.49998707  1
  H+  H174  1  0.63932905  0.86682246  0.50676126  1
  H+  H175  1  0.11026123  0.37936078  0.17429298  1
  H+  H176  1  0.88514545  0.36141727  0.65826308  1
  H+  H177  1  0.11577782  0.88429920  0.34354396  1
  H+  H178  1  0.52058903  0.54275753  0.06006612  1
  H+  H179  1  0.55999311  0.65416396  0.16875498  1
  H+  H180  1  0.13796188  0.73600524  0.85943791  1
  H+  H181  1  0.46926384  0.11437831  0.33677274  1
  H+  H182  1  0.21502037  0.60325763  0.63091472  1
  H+  H183  1  0.10149622  0.35818233  0.01680563  1
  H+  H184  1  0.34351995  0.64238744  0.85339298  1
  H+  H185  1  0.64805468  0.36556795  0.66499998  1
  H+  H186  1  0.08781144  0.63453126  -0.01451491  1
  H+  H187  1  0.92202705  0.84022271  0.22777573  1
  H+  H188  1  0.34924855  0.87038833  0.17152603  1
  H+  H189  1  0.53323935  0.14928946  0.16182146  1
  H+  H190  1  0.97655587  0.86875330  0.99097176  1
  H+  H191  1  0.96862222  0.85732733  0.67495369  1
  H+  H192  1  0.47520022  0.61021410  1.00632484  1
  H+  H193  1  0.64296806  0.03018824  0.99542024  1
  H+  H194  1  0.61010305  0.88885069  0.32670457  1
  H+  H195  1  0.10413378  0.47461885  0.83192280  1
  H+  H196  1  0.89156863  0.11814172  -0.00144537  1
  H+  H197  1  0.66624751  0.58182034  0.60878249  1
  H+  H198  1  0.49021733  0.37127900  0.33297878  1
  H+  H199  1  0.59362469  0.13299019  0.34823213  1
  H+  H200  1  0.37906339  0.85974186  0.66694843  1
  H+  H201  1  0.36661298  0.44788668  0.87544828  1
  H+  H202  1  0.36967980  0.65244630  0.00820023  1
  H+  H203  1  0.72499689  0.85354115  0.66170870  1
  H+  H204  1  0.36811610  0.74262110  0.33006039  1
  H+  H205  1  0.54156110  0.85018240  0.19967434  1
  H+  H206  1  0.95274892  0.60952865  0.99589005  1
  H+  H207  1  0.10742719  0.97303004  0.67158316  1
  H+  H208  1  0.73832383  0.62767014  0.85060376  1
  H+  H209  1  0.38143457  0.22893320  0.16246351  1
  H+  H210  1  0.27329454  0.88757356  0.34846330  1
  H+  H211  1  0.70450752  0.11662262  0.32833988  1
  H+  H212  1  0.25960458  0.86838889  0.67846392  1
  H+  H213  1  0.73896730  0.11413145  0.84173185  1
  H+  H214  1  0.77837910  0.38479540  0.34668994  1
  H+  H215  1  0.60024287  0.58088226  0.29216023  1
  H+  H216  1  0.89931153  0.60969862  0.17122460  1
  H+  H217  1  0.50140538  0.78151046  0.14982059  1
  H+  H218  1  0.86561462  0.38368733  0.16030600  1
  H+  H219  1  0.88436051  0.02261841  0.84767402  1
  H+  H220  1  0.89347300  0.37178890  0.94519466  1
  H+  H221  1  0.11451961  0.63709052  0.34016748  1
  H+  H222  1  0.15222853  0.09156816  0.89837603  1
  H+  H223  1  0.02239734  0.63260280  0.33751669  1
  H+  H224  1  0.82951316  0.17282487  0.30249957  1
  H+  H225  1  0.35995639  0.67952627  0.50176160  1
  H+  H226  1  0.64259190  0.28480044  0.17779513  1
  H+  H227  1  0.23222732  0.10749250  0.33162831  1
  H+  H228  1  0.87632843  0.90047755  0.15968297  1
  H+  H229  1  0.86606958  0.14356853  0.16490929  1
  H+  H230  1  1.01315063  0.12946856  0.67634353  1
  H+  H231  1  0.98063974  0.87717123  0.16799674  1
  H+  H232  1  0.53195090  0.90232587  0.49007018  1
  H+  H233  1  0.63841236  0.85963630  0.84297414  1
  H+  H234  1  0.75309811  0.87505451  0.16730803  1
  H+  H235  1  0.83748644  0.66329608  0.39776049  1
  H+  H236  1  0.67290402  0.33546117  0.27944085  1
  H+  H237  1  0.45513574  0.10809060  0.51064196  1
  H+  H238  1  0.43695748  0.86737741  0.16065579  1
  H+  H239  1  0.14135280  0.56258902  0.57995601  1
  H+  H240  1  0.64191674  0.01613744  0.48160183  1
  H+  H241  1  0.90715867  0.07947223  0.60556259  1
  H+  H242  1  0.64121068  0.86988133  0.99245308  1
  H+  H243  1  0.59969625  0.12620639  0.49198338  1
  H+  H244  1  0.62261388  0.59241763  -0.00333807  1
  H+  H245  1  0.10958465  0.87247485  0.48812940  1
  H+  H246  1  0.60137576  0.38134216  0.35219492  1
  H+  H247  1  0.71368000  0.63350555  0.16387120  1
  H+  H248  1  0.77533397  0.88467026  0.83680693  1
  H+  H249  1  0.37658243  0.25043813  0.82740796  1
  H+  H250  1  0.42416621  0.31125192  0.60173342  1
  H+  H251  1  -0.02389317  0.37213254  0.84333372  1
  H+  H252  1  0.23300137  0.36211924  0.33081551  1
  H+  H253  1  0.33991768  0.11416370  0.91158202  1
  H+  H254  1  0.65564501  0.85654140  0.16194445  1
  H+  H255  1  0.61484265  0.72568601  0.83132365  1
  H+  H256  1  0.87170705  -0.02304713  0.50404193  1
  H+  H257  1  -0.00224013  0.53238754  0.77589965  1
  H+  H258  1  0.15898895  0.91436615  0.84770337  1
  H+  H259  1  0.31676216  0.70833907  0.79372627  1
  H+  H260  1  0.40858583  0.78397166  0.86708798  1
  H+  H261  1  0.45276011  0.41865834  0.55665057  1
  H+  H262  1  0.10582241  0.98979721  0.82765398  1
  H+  H263  1  0.77200957  0.63886440  0.49543417  1
  H+  H264  1  0.11657986  0.22033434  0.02187329  1
  H+  H265  1  0.14156814  0.35443744  0.34955065  1
  H+  H266  1  0.38414857  0.15181209  0.90822641  1
  H+  H267  1  0.97191056  0.61109616  0.65539430  1
  H+  H268  1  0.28193872  0.88921450  0.83363704  1
  H+  H269  1  0.91528559  0.12928363  0.32175537  1
  H+  H270  1  0.38806380  0.78440181  1.00461875  1
  H+  H271  1  0.12207858  0.45345064  0.01254630  1
  H+  H272  1  0.67901853  0.08432215  0.90161410  1
  H+  H273  1  0.13138106  0.75321298  0.83010081  1
  H+  H274  1  0.36851698  0.23490634  0.34415250  1
  H+  H275  1  0.29120564  0.37209458  0.63751697  1
  H+  H276  1  0.87162601  0.14095747  0.83344761  1
  H+  H277  1  0.21563730  0.85629100  0.50074822  1
  H+  H278  1  0.12525518  0.22630528  0.33463319  1
  H+  H279  1  -0.01707976  0.36632895  0.18039253  1
  H+  H280  1  0.36445357  0.14397457  0.34333698  1
  H+  H281  1  0.38948117  0.32754789  0.97328884  1
  H+  H282  1  0.65037050  0.12259959  -0.00727190  1
  H+  H283  1  0.36455317  0.38250807  0.33189772  1
  H+  H284  1  0.86869034  0.72227929  0.33754929  1
  H+  H285  1  0.39602320  0.37104053  0.50260838  1
  H+  H286  1  0.38558898  0.19978038  0.00419881  1
  H+  H287  1  0.62046356  0.48246513  0.15133562  1
  H+  H288  1  0.66637826  0.58600884  0.92113140  1
  H+  H289  1  0.31036449  0.15446585  0.43593702  1
  H+  H290  1  0.38877176  0.67357574  0.35585471  1
  H+  H291  1  0.07523164  0.16569393  0.08440720  1
  H+  H292  1  0.83243803  0.91554688  0.77666782  1
  H+  H293  1  0.24240813  0.96522303  0.88859640  1
  H+  H294  1  0.56971445  0.16514497  0.41011412  1
  H+  H295  1  0.91789709  0.08535590  0.90648005  1
  H+  H296  1  0.07186418  0.65918359  0.09341030  1
  H+  H297  1  0.60037725  0.18222036  0.06338389  1
  H+  H298  1  0.69109459  0.07902130  0.53568144  1
  H+  H299  1  0.43022946  0.30602618  0.91838770  1
  H+  H300  1  0.76573709  0.62540703  0.68139880  1
  H+  H301  1  0.33000405  0.91591594  0.44146789  1
  H+  H302  1  0.66852784  0.33654234  0.92757853  1
  H+  H303  1  0.07828279  0.90959528  0.42814663  1
  H+  H304  1  0.78288117  0.13970997  0.00796900  1
  H+  H305  1  0.12282601  -0.01155777  0.14375295  1
  H+  H306  1  0.65868886  0.08717451  0.62420727  1
  H+  H307  1  0.99512733  0.11510770  0.31856511  1
  H+  H308  1  0.08336807  0.40472757  0.11133669  1
  H+  H309  1  0.66074353  0.09187832  0.26297783  1
  H+  H310  1  0.67354580  0.31611319  0.57863216  1
  H+  H311  1  0.41670389  0.61520194  0.50030668  1
  H+  H312  1  0.56908849  0.91673930  0.74926612  1
  H+  H313  1  0.07580976  0.64508314  0.71709431  1
  H+  H314  1  0.07122321  0.79389825  0.21330978  1
  H+  H315  1  0.58726111  0.91850349  0.06934816  1
  H+  H316  1  0.16816996  0.59162563  0.26390305  1
  H+  H317  1  0.38854270  0.46204741  0.75768030  1
  H+  H318  1  0.78396802  0.88986569  0.50558430  1
  H+  H319  1  0.84121232  0.41906236  0.73490170  1
  H+  H320  1  0.92049501  0.33027107  0.55955020  1
  H+  H321  1  0.43048238  0.58900294  0.59823808  1
  H+  H322  1  0.60727046  0.21722468  0.50413514  1
  H+  H323  1  0.58111889  0.91038739  0.42555505  1
  H+  H324  1  0.85166066  0.17977330  0.41746425  1
  H+  H325  1  0.30369751  0.65988832  0.70196987  1
  H+  H326  1  0.34984117  -0.02343411  0.49920229  1
  H+  H327  1  0.16182226  0.84358333  0.93409283  1
  H+  H328  1  0.42182763  0.85303214  0.95124506  1
  H+  H329  1  0.26702776  0.63754630  0.15339772  1
  H+  H330  1  0.37799663  0.96254910  0.82925356  1
  H+  H331  1  0.16937686  0.82077288  0.27811414  1
  H+  H332  1  0.08344114  0.42341071  0.73043451  1
  H+  H333  1  0.22767498  0.30557957  0.95463868  1
  H+  H334  1  0.28684647  0.69943140  0.41051920  1
  H+  H335  1  0.83799102  0.92196380  0.06379952  1
  H+  H336  1  0.60871468  0.62527136  0.67975528  1
  H+  H337  1  0.42356575  0.07515685  0.24865090  1
  H+  H338  1  0.66506173  0.83125537  0.56775676  1
  H+  H339  1  0.32706275  0.89925287  0.73657656  1
  H+  H340  1  0.08089475  0.92243258  0.05731555  1
  H+  H341  1  0.91866115  0.09033260  0.22611713  1
  H+  H342  1  0.57986497  0.39048878  0.74547544  1
  H+  H343  1  0.39429297  0.06965138  0.56915264  1
  H+  H344  1  0.89035099  0.12358070  0.50158774  1
  H+  H345  1  0.12719315  0.02531730  0.98383776  1
  H+  H346  1  0.53589174  0.68350722  0.39812351  1
  H+  H347  1  0.83493775  0.40555111  0.05332078  1
  H+  H348  1  0.84002522  0.17180526  0.06744305  1
  H+  H349  1  0.39138503  0.77681299  0.65265455  1
  H+  H350  1  0.14367159  0.10292907  0.32157556  1
  H+  H351  1  0.64809797  0.69225872  0.43982920  1
  H+  H352  1  0.42787141  0.33297031  0.27272813  1
  H+  H353  1  0.36242100  0.15457005  0.06815634  1
  H+  H354  1  0.07149564  0.17280121  0.76949044  1
  H+  H355  1  0.33719238  0.41574771  0.38886593  1
  H+  H356  1  0.59004792  0.44510549  0.41897235  1
  H+  H357  1  0.10280128  0.38590037  0.82878004  1
  H+  H358  1  0.66799277  0.83051977  0.25883145  1
  H+  H359  1  0.37060019  0.41463011  0.75425682  1
  H+  H360  1  0.42953991  0.59059642  0.94120896  1
  H+  H361  1  0.15489716  0.57832368  0.91066005  1
  H+  H362  1  0.83094831  0.41656161  0.43869119  1
  H+  H363  1  0.32049288  0.42857108  0.13358652  1
  H+  H364  1  0.33240356  0.67791535  0.06742520  1
  H+  H365  1  0.07299210  0.58612437  0.82106026  1
  H+  H366  1  0.85638623  0.63155874  0.49438489  1
  H+  H367  1  0.57968391  0.63847376  0.08015159  1
  H+  H368  1  0.91968229  0.83361345  0.90144270  1
  H+  H369  1  0.58597492  0.66286347  0.77180105  1
  H+  H370  1  0.29538016  0.89889264  0.07517173  1
  H+  H371  1  0.86641354  -0.01824542  1.00518104  1
  H+  H372  1  0.72909020  0.86908886  0.99230556  1
  H+  H373  1  0.97703196  0.12337945  0.51336790  1
  H+  H374  1  0.32936812  0.11037988  0.81618882  1
  H+  H375  1  0.91816868  0.57507046  0.26783232  1
  H+  H376  1  0.89343202  0.58089033  0.93814550  1
  H+  H377  1  0.40670190  0.84841066  0.26294952  1
  H+  H378  1  0.82902205  0.66558085  0.77257888  1
  H+  H379  1  0.44152137  0.87127443  0.56811302  1
  H+  H380  1  0.15039596  0.33323414  0.90250357  1
  H+  H381  1  0.59159410  0.17670901  0.74663386  1
  H+  H382  1  0.31459388  0.14909038  0.72321502  1
  H+  H383  1  0.06471739  0.65794062  0.43289402  1
  O2-  O384  1  0.06884695  0.17242678  0.15114897  1
  O2-  O385  1  0.14742905  0.18766906  0.46144612  1
  O2-  O386  1  0.07369523  0.17711255  0.81502748  1
  O2-  O387  1  0.08261961  0.41178070  0.15630172  1
  O2-  O388  1  0.07918134  0.40050233  0.45723287  1
  O2-  O389  1  0.07355563  0.41701909  0.81230890  1
  O2-  O390  1  0.07692115  0.65829603  0.13823605  1
  O2-  O391  1  0.06249608  0.65666833  0.47838919  1
  O2-  O392  1  0.03448317  0.59075190  0.79063950  1
  O2-  O393  1  0.08405712  0.92564233  0.13398042  1
  O2-  O394  1  0.07594480  0.90434844  0.47435497  1
  O2-  O395  1  0.08710632  0.92882859  0.81619947  1
  O2-  O396  1  0.35302342  0.16746507  0.14719285  1
  O2-  O397  1  0.29340479  0.14230305  0.47941137  1
  O2-  O398  1  0.30713204  0.14711805  0.80238177  1
  O2-  O399  1  0.31575355  0.38801711  0.16480995  1
  O2-  O400  1  0.33853135  0.41462973  0.46967620  1
  O2-  O401  1  0.32690410  0.38552499  0.88081307  1
  O2-  O402  1  0.32588464  0.67907871  0.13748966  1
  O2-  O403  1  0.26064497  0.71720970  0.44249127  1
  O2-  O404  1  0.26096859  0.68916412  0.77479341  1
  O2-  O405  1  0.29125278  0.91709619  0.15514867  1
  O2-  O406  1  0.32614149  0.91479670  0.48653229  1
  O2-  O407  1  0.33723471  0.89887753  0.81616720  1
  O2-  O408  1  0.59199635  0.18240725  0.14529529  1
  O2-  O409  1  0.57004829  0.15869582  0.48377726  1
  O2-  O410  1  0.59022979  0.16288026  0.82219584  1
  O2-  O411  1  0.58982153  0.42245863  0.13899592  1
  O2-  O412  1  0.59690656  0.45684515  0.46640472  1
  O2-  O413  1  0.57920295  0.38879652  0.79009755  1
  O2-  O414  1  0.61048909  0.67384246  0.14233098  1
  O2-  O415  1  0.60399592  0.69002756  0.46679720  1
  O2-  O416  1  0.58785625  0.66396849  0.81775757  1
  O2-  O417  1  0.53689146  0.84373602  0.15552962  1
  O2-  O418  1  0.58994052  0.91830812  0.47029229  1
  O2-  O419  1  0.58694074  0.92216407  0.81670807  1
  O2-  O420  1  0.83387682  0.17521314  0.15322414  1
  O2-  O421  1  0.84289486  0.17393689  0.46219319  1
  O2-  O422  1  0.84323462  0.17286954  0.81647821  1
  O2-  O423  1  0.83614352  0.41170516  0.14044519  1
  O2-  O424  1  0.82952227  0.41444608  0.48435778  1
  O2-  O425  1  0.83354571  0.42223001  0.81272523  1
  O2-  O426  1  0.87651286  0.67544840  0.13360365  1
  O2-  O427  1  0.83059247  0.66501419  0.47692894  1
  O2-  O428  1  0.83208486  0.67028328  0.81845755  1
  O2-  O429  1  0.84349630  0.92838894  0.14277749  1
  O2-  O430  1  0.84509640  0.91554578  0.49461267  1
  O2-  O431  1  0.83608214  0.91789993  0.82261458  1
  O2-  O432  1  0.17978653  0.09358927  0.14936619  1
  O2-  O433  1  0.14450568  0.12697900  0.50602822  1
  O2-  O434  1  0.15430485  0.09197009  0.85166550  1
  O2-  O435  1  0.15165132  0.32341863  0.19932714  1
  O2-  O436  1  0.17373979  0.33789903  0.50757199  1
  O2-  O437  1  0.15373669  0.33741909  0.85773040  1
  O2-  O438  1  0.16734193  0.58159446  0.18115354  1
  O2-  O439  1  0.13209475  0.56364552  0.50833344  1
  O2-  O440  1  0.14534930  0.57477450  0.86595244  1
  O2-  O441  1  0.12407336  0.80546249  0.19276352  1
  O2-  O442  1  0.15279084  0.82897003  0.50886389  1
  O2-  O443  1  0.20597112  0.90921702  0.87007705  1
  O2-  O444  1  0.42935801  0.06754022  0.20228147  1
  O2-  O445  1  0.39418837  0.07615800  0.52298974  1
  O2-  O446  1  0.42647362  0.05147136  0.85624884  1
  O2-  O447  1  0.42156002  0.32697077  0.18671129  1
  O2-  O448  1  0.44080175  0.37102974  0.52952701  1
  O2-  O449  1  0.41597622  0.30885142  0.84417872  1
  O2-  O450  1  0.45642998  0.64046362  0.20090133  1
  O2-  O451  1  0.44307307  0.58314538  0.51656590  1
  O2-  O452  1  0.43761805  0.56357883  0.86755793  1
  O2-  O453  1  0.38441083  0.84422358  0.18496026  1
  O2-  O454  1  0.45343143  0.89018839  0.52559873  1
  O2-  O455  1  0.43010063  0.84537674  0.87207048  1
  O2-  O456  1  0.67777006  0.10180143  0.18693810  1
  O2-  O457  1  0.67538027  0.08033055  0.49363404  1
  O2-  O458  1  0.67787033  0.08189750  0.85577210  1
  O2-  O459  1  0.67640556  0.34342514  0.19535598  1
  O2-  O460  1  0.66683336  0.30702147  0.53385908  1
  O2-  O461  1  0.66521515  0.33002681  0.85133665  1
  O2-  O462  1  0.74550007  0.64946075  0.20181728  1
  O2-  O463  1  0.67172548  0.59119713  0.52896273  1
  O2-  O464  1  0.67709336  0.59797514  0.86616034  1
  O2-  O465  1  0.69052327  0.83582273  0.18175703  1
  O2-  O466  1  0.66754120  0.83457144  0.52150559  1
  O2-  O467  1  0.66538085  0.82686300  0.85797372  1
  O2-  O468  1  0.91362685  0.09232558  0.18102022  1
  O2-  O469  1  0.91682881  0.09554880  0.52560837  1
  O2-  O470  1  0.91432820  0.08446149  0.86057924  1
  O2-  O471  1  0.92212874  0.33810869  0.19659990  1
  O2-  O472  1  0.92233051  0.33330023  0.51432676  1
  O2-  O473  1  0.91650521  0.34502621  0.86243423  1
  O2-  O474  1  0.92400380  0.57450031  0.18822492  1
  O2-  O475  1  0.90238047  0.57755217  0.52361800  1
  O2-  O476  1  0.89996688  0.58042624  0.85861461  1
  O2-  O477  1  0.92051729  0.84672693  0.18265860  1
  O2-  O478  1  0.92951598  0.82958519  0.51445326  1
  O2-  O479  1  0.92207466  0.83456560  0.85544269  1
  O2-  O480  1  0.17329191  0.06952672  0.31523690  1
  O2-  O481  1  0.15202358  0.06929254  0.64442040  1
  O2-  O482  1  0.15058072  0.08527946  0.96911136  1
  O2-  O483  1  0.16798751  0.32910741  0.32316688  1
  O2-  O484  1  0.11494717  0.31246627  0.62528783  1
  O2-  O485  1  0.19164786  0.32037996  0.97930875  1
  O2-  O486  1  0.16733665  0.59447052  0.30880132  1
  O2-  O487  1  0.15185528  0.56957888  0.62579611  1
  O2-  O488  1  0.17261081  0.57421186  0.99044218  1
  O2-  O489  1  0.17009663  0.82593305  0.32251535  1
  O2-  O490  1  0.17115344  0.83625873  0.65731256  1
  O2-  O491  1  0.14633715  0.82340432  0.97675869  1
  O2-  O492  1  0.41150347  0.08255117  0.31630797  1
  O2-  O493  1  0.39511643  0.05862535  0.63996442  1
  O2-  O494  1  0.44194267  0.06068925  0.97638384  1
  O2-  O495  1  0.42522870  0.33464142  0.31742637  1
  O2-  O496  1  0.42440735  0.31403153  0.64665370  1
  O2-  O497  1  0.43167889  0.31031019  0.96440593  1
  O2-  O498  1  0.42698708  0.60949129  0.25239837  1
  O2-  O499  1  0.41640753  0.58197435  0.64224586  1
  O2-  O500  1  0.42106735  0.59848039  0.98514063  1
  O2-  O501  1  0.41340327  0.84689467  0.30759357  1
  O2-  O502  1  0.42196566  0.84086892  0.65170827  1
  O2-  O503  1  0.41928005  0.84786755  0.99622716  1
  O2-  O504  1  0.64925716  0.08382809  0.30799216  1
  O2-  O505  1  0.66618712  0.07599713  0.66625746  1
  O2-  O506  1  0.67666866  0.08837988  0.97728197  1
  O2-  O507  1  0.67661641  0.33266112  0.32422449  1
  O2-  O508  1  0.68309306  0.33666088  0.65693431  1
  O2-  O509  1  0.67030223  0.33729067  0.97331060  1
  O2-  O510  1  0.70578953  0.52880130  0.28484783  1
  O2-  O511  1  0.66169253  0.57719272  0.65406775  1
  O2-  O512  1  0.65684599  0.57136543  0.97395799  1
  O2-  O513  1  0.65893844  0.83608668  0.30303767  1
  O2-  O514  1  0.66797803  0.82403479  0.64130952  1
  O2-  O515  1  0.66903449  0.83863487  0.97634682  1
  O2-  O516  1  0.93396619  0.09073658  0.30434324  1
  O2-  O517  1  0.90910081  0.07717120  0.65067323  1
  O2-  O518  1  0.92157274  0.08716768  0.98208659  1
  O2-  O519  1  0.93963673  0.35689396  0.32485315  1
  O2-  O520  1  0.91398316  0.32939005  0.64263624  1
  O2-  O521  1  0.94148452  0.36761081  0.92649640  1
  O2-  O522  1  0.92000123  0.57739350  0.31320338  1
  O2-  O523  1  0.90909217  0.57972044  0.64644193  1
  O2-  O524  1  0.89155458  0.57763694  0.98337521  1
  O2-  O525  1  0.92016514  0.82833933  0.30620706  1
  O2-  O526  1  0.90568125  0.82954075  0.66805050  1
  O2-  O527  1  0.91543107  0.83541231  0.97665479  1
  O2-  O528  1  0.07922613  0.16139446  0.03670872  1
  O2-  O529  1  0.09465220  0.16254694  0.34385075  1
  O2-  O530  1  0.07313211  0.16196975  0.69285839  1
  O2-  O531  1  0.08618691  0.39874942  0.03364597  1
  O2-  O532  1  0.07478840  0.38904914  0.39108484  1
  O2-  O533  1  0.08013067  0.41898284  0.68531828  1
  O2-  O534  1  0.06489034  0.66308622  0.01063159  1
  O2-  O535  1  0.08121330  0.66490855  0.35597913  1
  O2-  O536  1  0.08061623  0.65923992  0.67340095  1
  O2-  O537  1  0.07989863  0.92145955  0.01183189  1
  O2-  O538  1  0.08446090  0.91420510  0.35593190  1
  O2-  O539  1  0.08011624  0.91280863  0.68936810  1
  O2-  O540  1  0.36289349  0.14370662  0.02411340  1
  O2-  O541  1  0.33418953  0.17343007  0.35860832  1
  O2-  O542  1  0.32036800  0.14920130  0.67839698  1
  O2-  O543  1  0.32142645  0.44891148  0.03974191  1
  O2-  O544  1  0.33191368  0.41183912  0.34405501  1
  O2-  O545  1  0.35282567  0.41125415  0.63671593  1
  O2-  O546  1  0.33401038  0.67803533  0.02061631  1
  O2-  O547  1  0.34098323  0.68278609  0.34606029  1
  O2-  O548  1  0.32446804  0.66427737  0.66001309  1
  O2-  O549  1  0.28795758  0.87609733  0.03364055  1
  O2-  O550  1  0.33447424  0.92430111  0.36120473  1
  O2-  O551  1  0.32357724  0.89271233  0.69167748  1
  O2-  O552  1  0.60426670  0.17764590  0.01874575  1
  O2-  O553  1  0.56796565  0.16643815  0.36386125  1
  O2-  O554  1  0.59631656  0.18268025  0.70146518  1
  O2-  O555  1  0.58909370  0.41472156  0.01417854  1
  O2-  O556  1  0.57862836  0.42085514  0.35413864  1
  O2-  O557  1  0.58544698  0.40887734  0.66078332  1
  O2-  O558  1  0.55168184  0.59994579  0.04213902  1
  O2-  O559  1  0.51543856  0.69597285  0.35994023  1
  O2-  O560  1  0.58041980  0.65776235  0.69573444  1
  O2-  O561  1  0.58523053  0.92469336  0.02546330  1
  O2-  O562  1  0.57696952  0.91521589  0.34450239  1
  O2-  O563  1  0.56365433  0.91617266  0.70219321  1
  O2-  O564  1  0.84292032  0.16781468  0.02287496  1
  O2-  O565  1  0.86615373  0.19479223  0.33811541  1
  O2-  O566  1  0.83158574  0.16785044  0.69234719  1
  O2-  O567  1  0.83310790  0.41066378  0.00850183  1
  O2-  O568  1  0.83920506  0.41769360  0.36227722  1
  O2-  O569  1  0.84266347  0.41842480  0.68955735  1
  O2-  O570  1  0.82494672  0.67885577  0.03947793  1
  O2-  O571  1  0.84367088  0.66230603  0.35280339  1
  O2-  O572  1  0.82555769  0.65521639  0.69811294  1
  O2-  O573  1  0.83492119  0.92010557  0.01838709  1
  O2-  O574  1  0.84119492  0.91689499  0.33293623  1
  O2-  O575  1  0.82556618  0.90821899  0.70166521  1
