# generated using pymatgen
data_H2O
_symmetry_space_group_name_H-M   'P 1'
_cell_length_a   17.97293736
_cell_length_b   17.96832479
_cell_length_c   21.97551831
_cell_angle_alpha   90.01589071
_cell_angle_beta   90.01239207
_cell_angle_gamma   119.97175933
_symmetry_Int_Tables_number   1
_chemical_formula_structural   H2O
_chemical_formula_sum   'H384 O192'
_cell_volume   6147.80201390
_cell_formula_units_Z   192
loop_
 _symmetry_equiv_pos_site_id
 _symmetry_equiv_pos_as_xyz
  1  'x, y, z'
loop_
 _atom_type_symbol
 _atom_type_oxidation_number
  H+  1.0
  O2-  -2.0
loop_
 _atom_site_type_symbol
 _atom_site_label
 _atom_site_symmetry_multiplicity
 _atom_site_fract_x
 _atom_site_fract_y
 _atom_site_fract_z
 _atom_site_occupancy
  H+  H0  1  0.11764670  0.38246246  0.83406443  1
  H+  H1  1  0.91341984  0.82763475  0.74087217  1
  H+  H2  1  0.88892427  0.27081192  0.68836195  1
  H+  H3  1  0.12682111  0.85346503  -0.03144687  1
  H+  H4  1  0.88522220  0.46493600  0.50520326  1
  H+  H5  1  0.51879343  0.63000541  0.33580882  1
  H+  H6  1  0.62364131  0.02257123  0.98889987  1
  H+  H7  1  0.35925434  0.88476958  0.66735083  1
  H+  H8  1  0.37186109  0.63837522  0.83728306  1
  H+  H9  1  0.38457296  0.53031076  0.32776693  1
  H+  H10  1  0.11850248  0.61823291  0.83400619  1
  H+  H11  1  0.83175432  0.65740589  0.23147949  1
  H+  H12  1  0.22933271  0.12020173  0.84289023  1
  H+  H13  1  0.88279622  1.02449315  0.34402284  1
  H+  H14  1  0.88135261  0.26572150  0.84129301  1
  H+  H15  1  0.88987736  0.51430341  0.84270064  1
  H+  H16  1  0.63161002  0.27319407  0.83734094  1
  H+  H17  1  0.51325241  0.87607997  0.48872204  1
  H+  H18  1  0.61424902  0.88503230  0.01068928  1
  H+  H19  1  0.34311175  0.88370421  0.33756745  1
  H+  H20  1  0.76669202  0.37741131  0.00305186  1
  H+  H21  1  0.95944183  0.19813443  0.96042157  1
  H+  H22  1  0.85429433  0.69351992  0.59444966  1
  H+  H23  1  0.13155971  0.85724909  0.17114707  1
  H+  H24  1  0.17384253  0.28707999  -0.00173303  1
  H+  H25  1  0.37377424  0.15211463  0.00916002  1
  H+  H26  1  0.35668112  0.87717724  0.16322783  1
  H+  H27  1  0.36449208  0.13552980  0.82667286  1
  H+  H28  1  0.35653794  0.71879749  0.67767904  1
  H+  H29  1  0.83415155  0.21098905  0.52064063  1
  H+  H30  1  0.33570704  0.67085064  0.43440677  1
  H+  H31  1  0.85738046  0.47241213  0.15613473  1
  H+  H32  1  0.60172084  0.13383597  1.00137057  1
  H+  H33  1  0.23705654  0.12074821  0.99798909  1
  H+  H34  1  0.77742813  0.87228320  0.34194965  1
  H+  H35  1  0.77161951  0.88971154  0.15942160  1
  H+  H36  1  0.03053150  0.14622084  0.49211659  1
  H+  H37  1  0.82117367  0.16369718  0.88622401  1
  H+  H38  1  0.63322016  0.36242389  0.32047261  1
  H+  H39  1  0.10377143  0.13135515  0.16124094  1
  H+  H40  1  0.24333337  0.63169059  0.16972646  1
  H+  H41  1  0.38384433  0.85961194  0.50369393  1
  H+  H42  1  1.02831471  0.86787624  0.81925221  1
  H+  H43  1  0.57845115  0.41552914  0.74025809  1
  H+  H44  1  0.84757219  0.87689346  0.68654589  1
  H+  H45  1  0.64456196  0.88223978  0.50260222  1
  H+  H46  1  0.35755847  0.39308565  0.33891166  1
  H+  H47  1  0.38103782  0.35677851  0.65517988  1
  H+  H48  1  0.23950743  0.87755714  0.65718951  1
  H+  H49  1  0.71859067  0.86737866  0.84070654  1
  H+  H50  1  0.79221608  0.39126494  0.48796011  1
  H+  H51  1  0.38374064  0.76786990  0.83900140  1
  H+  H52  1  0.73419114  0.11994540  0.17932846  1
  H+  H53  1  0.32051467  0.39648492  0.74684601  1
  H+  H54  1  0.85544397  0.90928313  -0.00344418  1
  H+  H55  1  0.89295761  0.60530141  0.17503800  1
  H+  H56  1  0.87219351  0.21792619  0.01597483  1
  H+  H57  1  0.03727331  0.90929894  0.50547563  1
  H+  H58  1  0.34832324  0.40395264  0.16115149  1
  H+  H59  1  0.14416734  0.51035118  0.84902848  1
  H+  H60  1  0.62856253  0.77721001  0.16909448  1
  H+  H61  1  0.87772781  0.11160772  0.34715868  1
  H+  H62  1  0.63801519  0.27171932  0.99227396  1
  H+  H63  1  0.10717007  0.93944933  -0.09815898  1
  H+  H64  1  0.97371585  0.35590244  0.83559872  1
  H+  H65  1  0.38184154  0.35768544  0.83182338  1
  H+  H66  1  0.38852390  0.65124709  0.01310946  1
  H+  H67  1  0.63426280  0.36386879  0.84079456  1
  H+  H68  1  0.62841030  0.86456381  0.84038983  1
  H+  H69  1  0.36482393  0.88515297  0.82063866  1
  H+  H70  1  0.63045327  0.27316029  0.16781098  1
  H+  H71  1  0.85434257  0.98371325  0.82659482  1
  H+  H72  1  0.38380015  0.27581110  0.32909706  1
  H+  H73  1  0.22742423  0.35747600  0.83766524  1
  H+  H74  1  0.88784657  0.51010778  0.31778366  1
  H+  H75  1  0.60792869  0.97844666  0.82485066  1
  H+  H76  1  0.36500038  0.97828767  0.66694377  1
  H+  H77  1  0.38595379  0.02089630  0.84053584  1
  H+  H78  1  0.12895121  0.14408832  0.00902123  1
  H+  H79  1  0.11424250  0.01583444  0.32013559  1
  H+  H80  1  0.39199831  0.88432893  0.99586324  1
  H+  H81  1  0.60762196  0.47159249  0.33625275  1
  H+  H82  1  0.85860102  0.77803650  -0.00095887  1
  H+  H83  1  0.47610467  0.36441034  0.50366384  1
  H+  H84  1  0.59137849  0.71416213  0.67560487  1
  H+  H85  1  0.86063771  0.12809383  0.02202724  1
  H+  H86  1  0.23240133  0.63613919  0.32237137  1
  H+  H87  1  0.55954656  0.61665802  -0.00082190  1
  H+  H88  1  0.37867452  0.76667130  0.17473333  1
  H+  H89  1  0.52450083  0.64087538  0.83907501  1
  H+  H90  1  0.10680759  0.39712615  0.47383102  1
  H+  H91  1  0.22645693  0.37125620  0.49942598  1
  H+  H92  1  0.52002960  0.13783200  0.82419587  1
  H+  H93  1  0.03059581  0.40136787  0.15447104  1
  H+  H94  1  0.86466322  0.87253325  0.50542420  1
  H+  H95  1  0.01685087  0.14083662  0.34482142  1
  H+  H96  1  0.82047431  0.63551442  0.00745035  1
  H+  H97  1  0.46599536  0.85679138  0.66173199  1
  H+  H98  1  0.88524049  0.78544128  1.02719067  1
  H+  H99  1  -0.01430572  0.60628251  0.66730806  1
  H+  H100  1  0.14085096  0.51482963  0.65978434  1
  H+  H101  1  0.89592696  0.04831473  0.47300372  1
  H+  H102  1  0.11784719  0.38302436  0.67349918  1
  H+  H103  1  0.86106548  0.37568689  0.32903928  1
  H+  H104  1  0.26557536  0.87708157  0.16921543  1
  H+  H105  1  0.58273611  0.16805721  0.06469956  1
  H+  H106  1  0.57401407  0.91224921  0.42882072  1
  H+  H107  1  0.85140003  0.89302299  0.81699509  1
  H+  H108  1  0.37323430  0.53993437  0.17878021  1
  H+  H109  1  0.21648181  0.36653906  0.32778197  1
  H+  H110  1  0.20992644  0.86504117  1.00060871  1
  H+  H111  1  0.11132325  0.38959281  0.16033709  1
  H+  H112  1  0.12330391  0.64468401  0.49620958  1
  H+  H113  1  0.57837108  0.65394984  0.39580281  1
  H+  H114  1  0.97589976  0.60406095  0.32448047  1
  H+  H115  1  0.47178421  0.60955194  0.50884164  1
  H+  H116  1  0.72204216  0.11125014  0.84035420  1
  H+  H117  1  0.34285703  0.68019289  0.11268416  1
  H+  H118  1  0.20989156  0.35998609  0.17611751  1
  H+  H119  1  0.51873385  0.88761858  0.82867633  1
  H+  H120  1  0.61053539  0.72886009  0.82922119  1
  H+  H121  1  0.10800313  -0.03265438  0.15498620  1
  H+  H122  1  1.03028476  0.62977559  0.15354040  1
  H+  H123  1  0.72234113  0.60679584  0.31234858  1
  H+  H124  1  1.02144545  0.13494334  0.82997716  1
  H+  H125  1  0.87219149  0.63377756  0.83353115  1
  H+  H126  1  0.14791174  0.02590336  0.66152963  1
  H+  H127  1  0.13877142  0.28221853  0.49920378  1
  H+  H128  1  0.23220231  0.12191703  0.50365227  1
  H+  H129  1  0.87289128  0.46558677  1.00235542  1
  H+  H130  1  0.88849606  0.85520176  0.32436469  1
  H+  H131  1  0.26925564  0.62879708  0.67740695  1
  H+  H132  1  0.55233647  0.67515316  0.09732690  1
  H+  H133  1  0.26943083  0.88215334  0.49408645  1
  H+  H134  1  0.38691685  0.01444231  0.17363468  1
  H+  H135  1  0.59673960  0.50951593  0.98452509  1
  H+  H136  1  0.78308502  0.63213494  0.82943028  1
  H+  H137  1  0.63591444  0.61405585  0.83683763  1
  H+  H138  1  0.77600621  0.38340489  0.32265121  1
  H+  H139  1  0.15230877  0.53779681  0.16800735  1
  H+  H140  1  0.99559504  0.92436881  0.94507944  1
  H+  H141  1  0.86578740  0.62510574  0.31158067  1
  H+  H142  1  0.11533919  0.64708281  0.33677426  1
  H+  H143  1  0.13460170  0.77273415  0.51096768  1
  H+  H144  1  0.11575005  0.10596059  0.31839278  1
  H+  H145  1  0.52573128  0.13293214  0.15981221  1
  H+  H146  1  0.87968631  0.11892595  0.50429551  1
  H+  H147  1  0.36268125  0.47896801  0.49430313  1
  H+  H148  1  0.61025668  0.71414830  0.49176261  1
  H+  H149  1  0.20813558  0.10172322  0.17114807  1
  H+  H150  1  0.90123658  0.61648650  0.65369183  1
  H+  H151  1  0.87538444  0.11236176  0.84058278  1
  H+  H152  1  0.78706011  0.63909520  0.64493367  1
  H+  H153  1  0.62135784  0.00665060  0.51126675  1
  H+  H154  1  0.26495465  0.37604214  1.00136485  1
  H+  H155  1  0.11993845  0.76639286  0.32872198  1
  H+  H156  1  0.13355848  0.27022918  0.64568013  1
  H+  H157  1  0.60736661  0.62408279  0.49292946  1
  H+  H158  1  0.64388783  0.03208236  0.18079357  1
  H+  H159  1  0.15109671  0.82540440  0.26807585  1
  H+  H160  1  0.09932583  0.38699198  0.35713014  1
  H+  H161  1  0.13988167  0.38898624  1.00465709  1
  H+  H162  1  0.11828130  0.14294349  0.49482701  1
  H+  H163  1  0.73101378  0.60919270  0.18123747  1
  H+  H164  1  0.15843542  0.62385155  -0.00320147  1
  H+  H165  1  0.88965814  0.77268602  0.67914907  1
  H+  H166  1  0.40784653  0.39961166  0.08277117  1
  H+  H167  1  0.84882351  0.33583880  0.53702545  1
  H+  H168  1  0.23449134  0.60141831  0.84622220  1
  H+  H169  1  0.62958542  1.01016922  0.66754896  1
  H+  H170  1  0.36073729  0.13803841  0.49035862  1
  H+  H171  1  0.32187092  0.90938897  0.43135318  1
  H+  H172  1  0.63230589  0.60786818  0.32175296  1
  H+  H173  1  0.00627579  0.33780717  -0.01532966  1
  H+  H174  1  0.98046413  0.11206784  0.16311022  1
  H+  H175  1  0.61006291  0.47864452  0.82943631  1
  H+  H176  1  0.13243560  0.52629559  0.49967788  1
  H+  H177  1  0.47708236  0.11924854  0.99687545  1
  H+  H178  1  0.74889203  0.34557403  0.65189545  1
  H+  H179  1  0.87283626  0.22967238  0.16849977  1
  H+  H180  1  0.52028531  0.38796298  0.82970275  1
  H+  H181  1  0.23788182  0.11358190  0.66003595  1
  H+  H182  1  0.44035467  0.60805992  0.93008647  1
  H+  H183  1  0.93135638  0.57482913  0.57750283  1
  H+  H184  1  0.12811866  0.98525637  -0.03421441  1
  H+  H185  1  0.00535500  0.37588855  0.35775141  1
  H+  H186  1  0.37805899  0.63319024  0.18102916  1
  H+  H187  1  0.03353336  0.64069143  0.49946745  1
  H+  H188  1  0.46537573  0.10243395  0.50667279  1
  H+  H189  1  0.63195968  0.15125036  0.34635895  1
  H+  H190  1  0.86282031  0.23367287  0.35104297  1
  H+  H191  1  0.15184458  0.32934794  0.23657815  1
  H+  H192  1  0.52525445  0.13747913  0.66606583  1
  H+  H193  1  0.64711181  0.84982396  0.34008360  1
  H+  H194  1  0.87541746  0.66048324  0.97837217  1
  H+  H195  1  0.11569196  0.71533031  0.00384276  1
  H+  H196  1  0.73623935  0.12148819  0.33883574  1
  H+  H197  1  0.10260808  0.22204723  0.16489053  1
  H+  H198  1  0.60821537  0.12303399  0.51489073  1
  H+  H199  1  0.36564370  0.73592009  0.34060595  1
  H+  H200  1  0.11108878  0.62035847  0.67434864  1
  H+  H201  1  0.03377106  0.12675264  0.64773012  1
  H+  H202  1  0.63145098  0.09990012  0.66463165  1
  H+  H203  1  0.77129794  0.13573827  0.69480989  1
  H+  H204  1  0.65143375  0.82831565  0.93264132  1
  H+  H205  1  0.71340331  0.85509460  0.66403053  1
  H+  H206  1  0.62538217  0.21585062  0.66274104  1
  H+  H207  1  0.34947069  0.20455282  0.16999954  1
  H+  H208  1  0.37529203  1.01485840  0.50091572  1
  H+  H209  1  0.67654799  0.59632530  0.99948674  1
  H+  H210  1  0.63621821  0.51359615  0.16690948  1
  H+  H211  1  0.86594319  0.47560610  0.67955409  1
  H+  H212  1  0.37156686  0.73263979  1.00924630  1
  H+  H213  1  0.60753511  0.76288818  0.98825429  1
  H+  H214  1  0.12947756  0.27561235  0.32876735  1
  H+  H215  1  0.86007004  0.37843074  0.83067526  1
  H+  H216  1  0.51718014  0.38472046  0.33774835  1
  H+  H217  1  0.58535673  0.90375486  0.30876477  1
  H+  H218  1  0.75667330  0.87765008  0.00733333  1
  H+  H219  1  0.39039116  0.37185846  0.99511377  1
  H+  H220  1  1.00711464  0.15006499  0.98433527  1
  H+  H221  1  0.77111863  0.38126088  0.83155900  1
  H+  H222  1  0.16862822  0.57537292  0.59978577  1
  H+  H223  1  0.36624637  0.22566574  0.82521796  1
  H+  H224  1  0.40874570  0.33368814  0.89609488  1
  H+  H225  1  0.23212183  0.85067084  0.83493360  1
  H+  H226  1  0.64391731  0.28194583  0.49826606  1
  H+  H227  1  0.47314458  0.36270981  0.66142501  1
  H+  H228  1  0.50666624  0.65154202  0.16157079  1
  H+  H229  1  0.82591194  0.91610656  0.09684846  1
  H+  H230  1  0.57886855  0.16872506  0.76378467  1
  H+  H231  1  0.36047180  0.14821742  0.33390977  1
  H+  H232  1  0.36256979  0.63793798  0.49446482  1
  H+  H233  1  0.11991983  0.70759449  0.82937953  1
  H+  H234  1  0.46160431  0.87805389  0.32474244  1
  H+  H235  1  0.39936306  0.53614373  0.87858515  1
  H+  H236  1  0.36527319  0.23004665  0.49298940  1
  H+  H237  1  0.10969590  0.22251272  0.83837656  1
  H+  H238  1  0.89335514  -0.00577990  0.64070551  1
  H+  H239  1  0.88055214  0.01629403  0.16101051  1
  H+  H240  1  0.88559466  0.76585835  0.82975934  1
  H+  H241  1  0.88338971  0.86176032  0.16814317  1
  H+  H242  1  0.63502902  0.75701091  0.32950780  1
  H+  H243  1  0.91679951  0.35037652  0.23144373  1
  H+  H244  1  0.89473473  0.36280986  0.68213731  1
  H+  H245  1  0.65301998  0.58035173  0.89818613  1
  H+  H246  1  0.35599726  0.46500269  0.79859294  1
  H+  H247  1  0.02962753  0.38291435  0.68329597  1
  H+  H248  1  0.26154611  0.97458165  0.05777667  1
  H+  H249  1  0.52787966  0.88455571  0.02062922  1
  H+  H250  1  0.25737532  0.62626588  -0.00336564  1
  H+  H251  1  0.61356383  0.38259663  0.99489931  1
  H+  H252  1  0.71723739  0.61011441  0.50741979  1
  H+  H253  1  0.36856658  0.22579236  0.67183967  1
  H+  H254  1  0.36866468  0.64774306  0.34050934  1
  H+  H255  1  0.88242760  0.36639214  0.16940748  1
  H+  H256  1  0.22541085  0.61282572  0.50467295  1
  H+  H257  1  0.58101829  0.17664931  0.55516462  1
  H+  H258  1  0.33380212  0.91778009  0.76312902  1
  H+  H259  1  0.03291581  0.88763397  0.68742640  1
  H+  H260  1  0.89007881  0.58936767  0.51776763  1
  H+  H261  1  1.10638104  0.88358876  0.34170585  1
  H+  H262  1  0.61010162  0.38720912  0.15410693  1
  H+  H263  1  0.38590446  0.10213816  0.16967098  1
  H+  H264  1  0.32099310  0.43092687  0.10371275  1
  H+  H265  1  0.61564456  0.89300418  0.16946779  1
  H+  H266  1  0.14256555  0.87559591  0.66179977  1
  H+  H267  1  0.76692937  0.84910537  0.49498971  1
  H+  H268  1  0.36116095  1.02027436  0.32609674  1
  H+  H269  1  0.61873826  0.99634206  0.33713489  1
  H+  H270  1  0.75934549  0.11876284  0.50565967  1
  H+  H271  1  0.46447903  0.60281484  0.66367022  1
  H+  H272  1  0.60362395  0.37874097  0.68326824  1
  H+  H273  1  0.52951683  0.40345292  0.13525633  1
  H+  H274  1  0.81567921  0.74895831  0.49356154  1
  H+  H275  1  0.63087532  0.51582459  0.49992563  1
  H+  H276  1  0.12438618  0.63793665  0.15569227  1
  H+  H277  1  0.13316786  0.76812378  0.17149277  1
  H+  H278  1  0.98946281  0.58042774  0.99389485  1
  H+  H279  1  0.39420911  0.48496711  0.02239322  1
  H+  H280  1  0.61864586  0.14111858  0.16192495  1
  H+  H281  1  0.13537437  0.86476772  0.50978069  1
  H+  H282  1  0.97868241  0.85839713  0.32518725  1
  H+  H283  1  0.59891479  0.87547873  0.67674079  1
  H+  H284  1  0.13927373  0.11962019  0.84849584  1
  H+  H285  1  0.92234681  0.09398418  0.89420978  1
  H+  H286  1  0.88640976  0.11607745  0.16849583  1
  H+  H287  1  0.12794527  -0.01183048  0.49502809  1
  H+  H288  1  0.08100593  0.66709801  0.39958961  1
  H+  H289  1  0.93713444  0.85961461  0.58554954  1
  H+  H290  1  0.09417479  0.41537276  0.77261357  1
  H+  H291  1  0.93803499  0.31026574  0.92827584  1
  H+  H292  1  0.95699522  0.98029607  0.92085637  1
  H+  H293  1  0.36299259  0.38970581  0.49216997  1
  H+  H294  1  0.38384463  0.77011906  0.50513415  1
  H+  H295  1  0.91863482  0.83694027  0.22752038  1
  H+  H296  1  0.40950036  0.82782515  0.60075329  1
  H+  H297  1  0.36731157  0.23868522  0.00700242  1
  H+  H298  1  0.86273195  0.69914495  0.47371918  1
  H+  H299  1  0.09490871  0.65945461  0.06557825  1
  H+  H300  1  0.30462648  0.81055353  0.97374884  1
  H+  H301  1  0.98290027  0.59933338  0.84353739  1
  H+  H302  1  0.66677298  0.56976962  0.59950739  1
  H+  H303  1  0.02361875  0.87779210  0.15145715  1
  H+  H304  1  0.82397789  0.40789801  0.06854417  1
  H+  H305  1  0.11475714  0.86144578  0.82546618  1
  H+  H306  1  0.38928657  0.11277673  0.65824864  1
  H+  H307  1  0.16998968  0.84261788  0.59463834  1
  H+  H308  1  0.41007575  0.07849158  0.59625228  1
  H+  H309  1  0.38075930  0.03730228  1.00242750  1
  H+  H310  1  0.83078767  0.41568756  0.73975862  1
  H+  H311  1  0.67946225  0.09691005  0.27544415  1
  H+  H312  1  0.14261687  0.07101188  0.22846252  1
  H+  H313  1  0.65494228  0.06109791  0.57533181  1
  H+  H314  1  0.85691572  0.72310086  0.17703670  1
  H+  H315  1  0.32926892  0.42334849  0.39805740  1
  H+  H316  1  0.26127720  0.37448081  0.65828409  1
  H+  H317  1  0.18203386  0.10109095  0.93508431  1
  H+  H318  1  0.76377341  0.38479184  0.15687398  1
  H+  H319  1  0.40020886  0.31205848  0.10383343  1
  H+  H320  1  0.41139890  0.34018798  0.27029656  1
  H+  H321  1  0.33743845  0.65825149  0.77352324  1
  H+  H322  1  0.83128941  0.88433384  0.40182670  1
  H+  H323  1  0.68493813  0.33841694  0.55526110  1
  H+  H324  1  0.87523458  0.30337135  0.59911096  1
  H+  H325  1  0.41127389  0.58058966  0.56845712  1
  H+  H326  1  0.12598172  0.14396354  0.66016141  1
  H+  H327  1  0.37507082  0.60170081  0.66175562  1
  H+  H328  1  0.40242982  0.07748908  0.26724825  1
  H+  H329  1  0.40540389  0.83798507  0.26410177  1
  H+  H330  1  0.86793520  0.71841885  0.31280231  1
  H+  H331  1  0.82376562  0.16850161  0.41268851  1
  H+  H332  1  0.56344794  0.65873488  0.73595875  1
  H+  H333  1  0.08168548  0.64369382  0.73645373  1
  H+  H334  1  0.81734651  0.92398928  0.73149244  1
  H+  H335  1  0.16352382  0.33853806  0.59023666  1
  H+  H336  1  0.41444919  0.59282604  0.26872774  1
  H+  H337  1  0.92853372  0.55693633  0.93386022  1
  H+  H338  1  0.41541259  0.08150398  0.90013698  1
  H+  H339  1  0.84106961  0.16970425  0.10796222  1
  H+  H340  1  0.08738152  0.17231477  0.39731272  1
  H+  H341  1  0.93436871  0.29053090  0.29186439  1
  H+  H342  1  0.18673614  0.58459398  0.93406136  1
  H+  H343  1  0.17476595  0.81806702  0.89589849  1
  H+  H344  1  0.61306608  0.38772400  0.48921722  1
  H+  H345  1  0.65514314  0.57064908  0.23448547  1
  H+  H346  1  0.60921476  0.18952149  0.40345253  1
  H+  H347  1  0.34049754  0.16660295  0.73231390  1
  H+  H348  1  0.25195201  0.87922904  0.34113902  1
  H+  H349  1  0.41776821  0.33398811  0.56393870  1
  H+  H350  1  0.47272726  0.35972644  0.98505143  1
  H+  H351  1  0.40227755  0.83037658  0.89577000  1
  H+  H352  1  0.35179351  0.46478792  0.66334206  1
  H+  H353  1  0.30801598  0.92740947  0.08485949  1
  H+  H354  1  0.63168413  0.11216735  0.83175005  1
  H+  H355  1  0.17794053  0.61230580  0.26045785  1
  H+  H356  1  0.95267466  0.95378277  0.57748362  1
  H+  H357  1  0.82050094  0.16496308  0.75763397  1
  H+  H358  1  0.92231765  0.04961102  0.57766452  1
  H+  H359  1  0.57053236  0.90801952  0.73602544  1
  H+  H360  1  0.65161344  0.52139308  0.66266266  1
  H+  H361  1  0.92456742  0.57077330  0.22933114  1
  H+  H362  1  0.74906936  0.28478854  0.60138850  1
  H+  H363  1  0.58884564  0.41668410  0.05367233  1
  H+  H364  1  0.65812888  0.33323014  0.22735102  1
  H+  H365  1  0.46925646  0.86395680  0.17664668  1
  H+  H366  1  0.33189574  0.16577513  0.10232594  1
  H+  H367  1  0.33860796  0.18151558  0.39523850  1
  H+  H368  1  0.65688348  0.83256316  0.60446627  1
  H+  H369  1  0.17560505  0.08900766  0.56491188  1
  H+  H370  1  0.66694990  0.82843598  0.23192860  1
  H+  H371  1  0.66963750  0.33008329  0.93116138  1
  H+  H372  1  0.63961111  0.27686317  0.32231389  1
  H+  H373  1  0.09394597  0.17396403  0.06627277  1
  H+  H374  1  0.07981560  0.91649113  0.40155001  1
  H+  H375  1  0.78034125  0.64907043  0.07212070  1
  H+  H376  1  0.10224424  0.91668811  0.73939311  1
  H+  H377  1  0.09586466  0.41302914  0.05821809  1
  H+  H378  1  0.64155869  0.07414369  0.92573823  1
  H+  H379  1  0.18862433  0.34171467  0.90527091  1
  H+  H380  1  0.91944869  0.85560433  0.86866236  1
  H+  H381  1  0.57932674  0.41354022  0.42948228  1
  H+  H382  1  0.59018381  0.92585322  0.11067045  1
  H+  H383  1  0.73054484  0.93683587  0.53774995  1
  O2-  O384  1  0.07309953  0.16261729  0.14643236  1
  O2-  O385  1  0.09064041  0.17477627  0.47764104  1
  O2-  O386  1  0.08433364  0.16250328  0.82414100  1
  O2-  O387  1  0.09093043  0.42653654  0.14096595  1
  O2-  O388  1  0.07437692  0.42822406  0.46873644  1
  O2-  O389  1  0.08981179  0.41508211  0.81820776  1
  O2-  O390  1  0.08999721  0.66469981  0.13791544  1
  O2-  O391  1  0.09275674  0.67651872  0.48304979  1
  O2-  O392  1  0.08663572  0.64576798  0.81731162  1
  O2-  O393  1  0.08523725  0.90729413  0.14040525  1
  O2-  O394  1  0.09184767  0.92506981  0.48447226  1
  O2-  O395  1  0.09163119  0.89958657  0.81344088  1
  O2-  O396  1  0.32322823  0.15096885  0.14710516  1
  O2-  O397  1  0.33215701  0.17029627  0.47630360  1
  O2-  O398  1  0.33569001  0.16575191  0.80893126  1
  O2-  O399  1  0.31252162  0.42881457  0.14943774  1
  O2-  O400  1  0.33317633  0.41992642  0.47626534  1
  O2-  O401  1  0.32646451  0.40290639  0.79330552  1
  O2-  O402  1  0.33740682  0.68148403  0.15697066  1
  O2-  O403  1  0.33417717  0.67045849  0.48019666  1
  O2-  O404  1  0.33735478  0.66240938  0.81914828  1
  O2-  O405  1  0.32482909  0.90868483  0.15078707  1
  O2-  O406  1  0.32874369  0.91128403  0.47725077  1
  O2-  O407  1  0.33375708  0.91611085  0.80848894  1
  O2-  O408  1  0.58600284  0.16769670  0.14430052  1
  O2-  O409  1  0.58057599  0.16040463  0.51271952  1
  O2-  O410  1  0.58050073  0.17084429  0.80912770  1
  O2-  O411  1  0.59363815  0.42853772  0.13567589  1
  O2-  O412  1  0.58037254  0.41618676  0.47525676  1
  O2-  O413  1  0.58095435  0.41728597  0.81443455  1
  O2-  O414  1  0.56420252  0.68326112  0.14132003  1
  O2-  O415  1  0.57802975  0.65577905  0.47596920  1
  O2-  O416  1  0.57972004  0.66730377  0.81622413  1
  O2-  O417  1  0.58702701  0.92585226  0.15588036  1
  O2-  O418  1  0.57480781  0.90741411  0.47364297  1
  O2-  O419  1  0.57801960  0.91563966  0.81190195  1
  O2-  O420  1  0.84280976  0.16854225  0.15487043  1
  O2-  O421  1  0.82085869  0.15857485  0.49551292  1
  O2-  O422  1  0.82215693  0.16258454  0.84189557  1
  O2-  O423  1  0.82357239  0.41192794  0.13972816  1
  O2-  O424  1  0.85212484  0.40448469  0.49159200  1
  O2-  O425  1  0.83156012  0.41156621  0.81647552  1
  O2-  O426  1  0.82732356  0.65906612  0.18531887  1
  O2-  O427  1  0.82442235  0.69965593  0.50482114  1
  O2-  O428  1  0.84398721  0.66486527  0.81682332  1
  O2-  O429  1  0.83177204  0.92079850  0.14302231  1
  O2-  O430  1  0.81357312  0.84091711  0.47798534  1
  O2-  O431  1  0.81949431  0.92332481  0.80859759  1
  O2-  O432  1  0.14655437  0.07372131  0.18142520  1
  O2-  O433  1  0.17147525  0.08941743  0.51945412  1
  O2-  O434  1  0.17454103  0.09481847  0.86562397  1
  O2-  O435  1  0.14939793  0.32426400  0.19070774  1
  O2-  O436  1  0.16563132  0.34281259  0.51365310  1
  O2-  O437  1  0.17327319  0.33535027  0.86088818  1
  O2-  O438  1  0.17774596  0.59858812  0.18102842  1
  O2-  O439  1  0.16537454  0.58487438  0.52029905  1
  O2-  O440  1  0.17628185  0.57145679  0.86573362  1
  O2-  O441  1  0.16112826  0.82697326  0.18955485  1
  O2-  O442  1  0.16474922  0.83434071  0.52710699  1
  O2-  O443  1  0.17216786  0.81364942  0.85070176  1
  O2-  O444  1  0.42038468  0.07678122  0.18455176  1
  O2-  O445  1  0.40372423  0.07501264  0.51778241  1
  O2-  O446  1  0.41632781  0.08174358  0.85475514  1
  O2-  O447  1  0.42612321  0.37134071  0.11771763  1
  O2-  O448  1  0.41542115  0.33456662  0.51845864  1
  O2-  O449  1  0.41401634  0.33181771  0.85062041  1
  O2-  O450  1  0.40803669  0.59859039  0.19572757  1
  O2-  O451  1  0.41124061  0.58205809  0.52261727  1
  O2-  O452  1  0.42829402  0.59858739  0.88125019  1
  O2-  O453  1  0.40851311  0.83392711  0.18991449  1
  O2-  O454  1  0.41604271  0.83179897  0.51999370  1
  O2-  O455  1  0.41075458  0.82994234  0.85146703  1
  O2-  O456  1  0.67408128  0.09338781  0.19471700  1
  O2-  O457  1  0.65322840  0.06526678  0.52943195  1
  O2-  O458  1  0.65606558  0.07692117  0.84742684  1
  O2-  O459  1  0.65832118  0.33478819  0.18110887  1
  O2-  O460  1  0.67263034  0.34252898  0.51139665  1
  O2-  O461  1  0.66384449  0.33249857  0.85516686  1
  O2-  O462  1  0.66457052  0.57412246  0.18767845  1
  O2-  O463  1  0.65543231  0.57546628  0.51769184  1
  O2-  O464  1  0.66299387  0.58131046  0.85339528  1
  O2-  O465  1  0.66723775  0.83660400  0.18744590  1
  O2-  O466  1  0.69165764  0.87779144  0.52476621  1
  O2-  O467  1  0.65838243  0.83407232  0.85640222  1
  O2-  O468  1  0.91556989  0.07946553  0.17614521  1
  O2-  O469  1  0.91424222  0.08755530  0.50750643  1
  O2-  O470  1  0.90851879  0.08050594  0.84994004  1
  O2-  O471  1  0.91798123  0.34313852  0.18698610  1
  O2-  O472  1  0.83268277  0.28422081  0.56483076  1
  O2-  O473  1  0.91478513  0.32985441  0.85256556  1
  O2-  O474  1  0.92187874  0.57169071  0.18302302  1
  O2-  O475  1  0.93271395  0.57459259  0.53084059  1
  O2-  O476  1  0.92340081  0.57348183  0.86058579  1
  O2-  O477  1  0.91210346  0.82966366  0.18222917  1
  O2-  O478  1  0.94901665  0.90266438  0.55428162  1
  O2-  O479  1  0.91499245  0.83130231  0.82709620  1
  O2-  O480  1  0.13601848  0.07025462  0.29733859  1
  O2-  O481  1  0.17827460  0.08373009  0.64278008  1
  O2-  O482  1  0.17752382  0.09105404  0.98159302  1
  O2-  O483  1  0.15588384  0.33623882  0.31344359  1
  O2-  O484  1  0.16499229  0.33397619  0.63592096  1
  O2-  O485  1  0.20597133  0.34686683  0.98208500  1
  O2-  O486  1  0.17597058  0.62103400  0.30490004  1
  O2-  O487  1  0.17116870  0.57591904  0.64534432  1
  O2-  O488  1  0.19447490  0.59780647  0.98043117  1
  O2-  O489  1  0.15021294  0.82777556  0.31355250  1
  O2-  O490  1  0.17613041  0.84879743  0.64210226  1
  O2-  O491  1  0.16081104  0.82366743  0.97484589  1
  O2-  O492  1  0.39120157  0.08010449  0.31091247  1
  O2-  O493  1  0.41777931  0.08086902  0.64160279  1
  O2-  O494  1  0.41611705  0.09213644  0.98067322  1
  O2-  O495  1  0.41442726  0.34143730  0.31450934  1
  O2-  O496  1  0.41509722  0.32866718  0.64282540  1
  O2-  O497  1  0.41079005  0.33344293  0.97362417  1
  O2-  O498  1  0.41997836  0.59189458  0.31480257  1
  O2-  O499  1  0.40415391  0.57117599  0.64504718  1
  O2-  O500  1  0.44348009  0.60545495  0.99423846  1
  O2-  O501  1  0.40255794  0.83960639  0.31036274  1
  O2-  O502  1  0.40533647  0.82777355  0.64615852  1
  O2-  O503  1  0.36547853  0.82846676  0.97547851  1
  O2-  O504  1  0.67464018  0.09126405  0.32062087  1
  O2-  O505  1  0.66268073  0.07008759  0.65077576  1
  O2-  O506  1  0.63456395  0.07706994  0.97052993  1
  O2-  O507  1  0.66319429  0.33440080  0.30140382  1
  O2-  O508  1  0.70843388  0.30009757  0.62267407  1
  O2-  O509  1  0.67224693  0.33273186  0.97701641  1
  O2-  O510  1  0.65899674  0.57509745  0.30367127  1
  O2-  O511  1  0.68748231  0.57683071  0.64197544  1
  O2-  O512  1  0.62097885  0.57196018  0.97620897  1
  O2-  O513  1  0.67013024  0.81967800  0.31671152  1
  O2-  O514  1  0.65246602  0.82572459  0.64903476  1
  O2-  O515  1  0.64769259  0.82418745  0.97835000  1
  O2-  O516  1  0.91236207  0.08551935  0.33259802  1
  O2-  O517  1  0.94167151  0.02650536  0.61158106  1
  O2-  O518  1  0.95255703  0.13946179  0.96470770  1
  O2-  O519  1  0.91231265  0.31233616  0.32337018  1
  O2-  O520  1  0.92255813  0.32942348  0.66890751  1
  O2-  O521  1  0.95055546  0.28980390  0.96690680  1
  O2-  O522  1  0.91861353  0.57327115  0.30360487  1
  O2-  O523  1  0.92465321  0.57715707  0.64885606  1
  O2-  O524  1  0.92986283  0.54468641  0.97866706  1
  O2-  O525  1  0.91976051  0.82761662  0.30595585  1
  O2-  O526  1  0.91714935  0.83289072  0.69609074  1
  O2-  O527  1  0.94020515  0.92206282  0.93390992  1
  O2-  O528  1  0.10338390  0.18030313  0.02155988  1
  O2-  O529  1  0.08089693  0.17135779  0.35228364  1
  O2-  O530  1  0.08920656  0.17018792  0.66490975  1
  O2-  O531  1  0.09655361  0.40652920  0.01350721  1
  O2-  O532  1  0.06793121  0.41654139  0.37018621  1
  O2-  O533  1  0.09237400  0.41516069  0.69393301  1
  O2-  O534  1  0.09875779  0.65684817  0.01913073  1
  O2-  O535  1  0.07560020  0.66714685  0.35463105  1
  O2-  O536  1  0.07836133  0.64683853  0.69152715  1
  O2-  O537  1  0.09358727  0.92738331  -0.05435759  1
  O2-  O538  1  0.07492953  0.91332092  0.35654170  1
  O2-  O539  1  0.09642104  0.91764641  0.69334681  1
  O2-  O540  1  0.34295449  0.18041212  0.02737670  1
  O2-  O541  1  0.34232926  0.18899536  0.35044224  1
  O2-  O542  1  0.34101375  0.16492991  0.68650574  1
  O2-  O543  1  0.36264335  0.42431997  0.03535588  1
  O2-  O544  1  0.32807071  0.42469473  0.35248733  1
  O2-  O545  1  0.32246101  0.40243023  0.67535508  1
  O2-  O546  1  0.34656371  0.67281715  0.02282100  1
  O2-  O547  1  0.33830705  0.67672146  0.35777863  1
  O2-  O548  1  0.32931383  0.65965775  0.69478089  1
  O2-  O549  1  0.29227420  0.94541431  0.04436546  1
  O2-  O550  1  0.31255763  0.91135660  0.35675003  1
  O2-  O551  1  0.33000496  0.91725234  0.68199772  1
  O2-  O552  1  0.57803611  0.17031438  0.01944811  1
  O2-  O553  1  0.60565500  0.18631686  0.35937330  1
  O2-  O554  1  0.58390193  0.16150619  0.68407129  1
  O2-  O555  1  0.57850564  0.40829358  0.00920151  1
  O2-  O556  1  0.57819996  0.41209784  0.35268021  1
  O2-  O557  1  0.57768955  0.41330983  0.69400689  1
  O2-  O558  1  0.53551111  0.65401702  0.01286993  1
  O2-  O559  1  0.58092969  0.65647992  0.35043025  1
  O2-  O560  1  0.55776031  0.65473467  0.69094518  1
  O2-  O561  1  0.58884192  0.91876153  0.02969089  1
  O2-  O562  1  0.58100676  0.93089713  0.34591066  1
  O2-  O563  1  0.56839667  0.90644143  0.69018881  1
  O2-  O564  1  0.83661182  0.16278053  0.03831210  1
  O2-  O565  1  0.82523407  0.16676061  0.36775175  1
  O2-  O566  1  0.82854329  0.17033813  0.71328932  1
  O2-  O567  1  0.82699046  0.40375087  0.02203096  1
  O2-  O568  1  0.83706428  0.41439946  0.33514612  1
  O2-  O569  1  0.83461848  0.41480297  0.69421396  1
  O2-  O570  1  0.76482573  0.61071831  0.03754270  1
  O2-  O571  1  0.83102425  0.65499480  0.30567227  1
  O2-  O572  1  0.85121156  0.68161466  0.63833474  1
  O2-  O573  1  0.81519267  0.91490454  0.02385342  1
  O2-  O574  1  0.83684636  0.90253022  0.35863432  1
  O2-  O575  1  0.81790393  0.91122208  0.68691262  1
