# generated using pymatgen
data_H2O
_symmetry_space_group_name_H-M   'P 1'
_cell_length_a   17.99020328
_cell_length_b   17.98139664
_cell_length_c   21.99560968
_cell_angle_alpha   90.01406577
_cell_angle_beta   90.01389302
_cell_angle_gamma   120.01376879
_symmetry_Int_Tables_number   1
_chemical_formula_structural   H2O
_chemical_formula_sum   'H384 O192'
_cell_volume   6161.20705101
_cell_formula_units_Z   192
loop_
 _symmetry_equiv_pos_site_id
 _symmetry_equiv_pos_as_xyz
  1  'x, y, z'
loop_
 _atom_type_symbol
 _atom_type_oxidation_number
  H+  1.0
  O2-  -2.0
loop_
 _atom_site_type_symbol
 _atom_site_label
 _atom_site_symmetry_multiplicity
 _atom_site_fract_x
 _atom_site_fract_y
 _atom_site_fract_z
 _atom_site_occupancy
  H+  H0  1  0.88216950  0.97393831  0.16004866  1
  H+  H1  1  0.90194411  0.89405802  0.49498145  1
  H+  H2  1  0.14349520  0.36105996  0.32579905  1
  H+  H3  1  0.52144787  0.63111791  0.33777712  1
  H+  H4  1  0.11876359  0.23853726  0.00449747  1
  H+  H5  1  0.48797507  0.12432028  0.49726808  1
  H+  H6  1  1.02382442  0.88980088  0.82243500  1
  H+  H7  1  0.64890902  0.27430801  0.31852131  1
  H+  H8  1  0.75068335  0.38538139  -0.01485460  1
  H+  H9  1  0.39810129  0.51392450  0.99772768  1
  H+  H10  1  0.36954491  0.96621664  0.83034844  1
  H+  H11  1  0.55445355  0.04722147  0.53966364  1
  H+  H12  1  0.09613487  0.67543256  0.43564016  1
  H+  H13  1  0.50357625  0.87177814  0.17020182  1
  H+  H14  1  0.34288923  0.19121466  0.22421704  1
  H+  H15  1  0.67633454  0.82724612  0.27835542  1
  H+  H16  1  0.49021985  0.61254804  -0.00734780  1
  H+  H17  1  0.58486215  0.96493704  0.49510810  1
  H+  H18  1  0.11802828  0.73325999  0.49625410  1
  H+  H19  1  0.07521590  0.18992555  0.06506825  1
  H+  H20  1  0.38095366  0.85467718  0.84603948  1
  H+  H21  1  0.62817988  0.25696671  0.67110807  1
  H+  H22  1  0.41471761  0.25635756  0.83874030  1
  H+  H23  1  0.61581184  0.22797763  0.82762277  1
  H+  H24  1  0.12462630  0.03298955  0.64440675  1
  H+  H25  1  0.23569010  0.36806553  1.00148880  1
  H+  H26  1  1.00157961  0.87107195  0.50757142  1
  H+  H27  1  0.37040313  0.61596085  0.85351915  1
  H+  H28  1  0.36521535  0.76826708  0.51607171  1
  H+  H29  1  0.57703203  0.66183753  0.43183577  1
  H+  H30  1  0.86927494  0.64036616  0.99496581  1
  H+  H31  1  0.58785730  0.87855941  0.48614661  1
  H+  H32  1  0.13502691  0.87172544  0.50746475  1
  H+  H33  1  0.60775236  0.71885237  0.49220686  1
  H+  H34  1  0.88691191  0.50612444  0.99501175  1
  H+  H35  1  1.03296325  0.39433522  0.33692825  1
  H+  H36  1  0.14394679  0.53207119  0.32190098  1
  H+  H37  1  0.48591476  0.42209276  0.33506226  1
  H+  H38  1  0.89440773  1.02243110  0.33022046  1
  H+  H39  1  -0.11155587  0.37294046  0.48971206  1
  H+  H40  1  0.63273162  0.85446461  0.99991163  1
  H+  H41  1  0.39291633  0.86830019  0.32358855  1
  H+  H42  1  0.37814564  0.61063101  0.66215094  1
  H+  H43  1  0.98502578  0.87009358  0.33170214  1
  H+  H44  1  0.90353866  0.58226043  0.25860397  1
  H+  H45  1  0.37312967  0.10129581  0.00022052  1
  H+  H46  1  0.86321040  0.72248596  0.66199761  1
  H+  H47  1  0.96989073  0.10535263  0.82992322  1
  H+  H48  1  0.89245141  0.36525546  0.16094131  1
  H+  H49  1  0.35838452  0.89164010  0.49670263  1
  H+  H50  1  0.14111150  0.37430528  0.49694137  1
  H+  H51  1  0.28425715  0.89981897  0.34256467  1
  H+  H52  1  0.49117000  0.38833555  0.23344522  1
  H+  H53  1  0.34546693  0.28415211  0.85104588  1
  H+  H54  1  0.21811247  0.36325173  0.65267048  1
  H+  H55  1  0.26657644  0.38717230  0.49007568  1
  H+  H56  1  0.88456196  0.35330364  0.82965346  1
  H+  H57  1  0.86945507  0.13873385  0.15993488  1
  H+  H58  1  0.74007940  0.10906202  0.33218736  1
  H+  H59  1  0.65628029  0.37272874  0.98832082  1
  H+  H60  1  0.86121727  0.38724648  0.33217977  1
  H+  H61  1  0.41378966  0.57952217  0.93418186  1
  H+  H62  1  0.92370768  1.04807346  0.51641896  1
  H+  H63  1  0.65518093  0.27702549  0.16756125  1
  H+  H64  1  0.13077815  0.65292301  0.34234116  1
  H+  H65  1  0.61197418  0.97563602  0.16035932  1
  H+  H66  1  0.89442283  0.29783938  0.63437307  1
  H+  H67  1  0.89331075  0.28536399  0.97893741  1
  H+  H68  1  0.38256402  0.15170772  0.46257942  1
  H+  H69  1  0.61362368  0.00170105  0.67023748  1
  H+  H70  1  0.12982962  0.26975405  0.81914914  1
  H+  H71  1  0.09398411  0.12980281  0.82209093  1
  H+  H72  1  0.62078218  0.59968248  0.50557924  1
  H+  H73  1  0.13975073  0.12844600  1.00481676  1
  H+  H74  1  0.38569464  0.40299896  0.17263876  1
  H+  H75  1  0.35427156  0.64297329  0.50175125  1
  H+  H76  1  0.03748003  0.15609114  0.49711416  1
  H+  H77  1  0.61702340  0.63645695  1.00279033  1
  H+  H78  1  0.24900730  0.34612378  0.18258331  1
  H+  H79  1  0.68429077  0.62090349  0.84113022  1
  H+  H80  1  0.67810284  0.08065344  0.23408952  1
  H+  H81  1  0.03290596  0.39741108  -0.00378372  1
  H+  H82  1  0.81483677  0.89477926  0.49809669  1
  H+  H83  1  0.85843676  0.64064915  0.32954034  1
  H+  H84  1  0.40437043  0.13860053  0.81967330  1
  H+  H85  1  0.29945159  0.16013140  0.45155719  1
  H+  H86  1  0.25156185  0.11514745  0.80716125  1
  H+  H87  1  0.11706958  0.25475518  0.16155730  1
  H+  H88  1  0.58820883  0.47452058  0.49048577  1
  H+  H89  1  0.22930352  0.14296076  0.31623773  1
  H+  H90  1  0.89500301  0.77117546  0.83440052  1
  H+  H91  1  0.58692104  0.66442024  0.09969460  1
  H+  H92  1  0.60579440  0.37714300  0.67740531  1
  H+  H93  1  0.28167155  0.66286184  0.01291703  1
  H+  H94  1  0.13957519  0.62606821  0.84816779  1
  H+  H95  1  0.38404478  0.20988186  0.37490058  1
  H+  H96  1  0.62707482  0.14031376  0.16489979  1
  H+  H97  1  0.26384259  0.63936697  0.50218302  1
  H+  H98  1  0.77521029  0.38298737  0.67675921  1
  H+  H99  1  0.61421804  0.72543294  0.00325472  1
  H+  H100  1  0.15978443  0.58488683  0.56822549  1
  H+  H101  1  0.33785134  0.95998048  0.01171260  1
  H+  H102  1  0.22520189  0.87105973  0.50606461  1
  H+  H103  1  0.40291018  0.11761366  0.18010156  1
  H+  H104  1  0.33411824  0.67056303  0.77785782  1
  H+  H105  1  0.89108456  0.14416299  0.49798905  1
  H+  H106  1  0.37209725  0.72105905  0.32620816  1
  H+  H107  1  0.36224979  -0.02177674  0.16063384  1
  H+  H108  1  0.46685631  0.61080820  0.50622222  1
  H+  H109  1  0.45386278  0.85628141  0.51127201  1
  H+  H110  1  0.87358324  0.13370225  0.34085131  1
  H+  H111  1  0.36673544  0.75482237  1.01473697  1
  H+  H112  1  0.13112719  0.74131978  0.34936959  1
  H+  H113  1  0.72052477  0.92803837  0.49821569  1
  H+  H114  1  0.10584046  0.72830672  0.01407001  1
  H+  H115  1  0.65107786  0.56475728  0.56177206  1
  H+  H116  1  0.13573414  0.86692118  0.65728831  1
  H+  H117  1  0.08466368  0.92447805  0.72586086  1
  H+  H118  1  0.63601741  0.51760715  0.65956206  1
  H+  H119  1  0.28231108  0.63451774  0.32534076  1
  H+  H120  1  0.63144880  0.38035611  0.15359167  1
  H+  H121  1  1.02680007  0.39721555  0.66391115  1
  H+  H122  1  0.88308992  0.26183597  0.83274006  1
  H+  H123  1  0.62838107  0.60578429  0.32370824  1
  H+  H124  1  0.12124233  -0.00709186  0.35482841  1
  H+  H125  1  0.22347907  0.86712467  0.84221356  1
  H+  H126  1  0.10632927  0.01846706  0.84850176  1
  H+  H127  1  0.27726588  0.12155761  0.17979908  1
  H+  H128  1  0.63179276  0.86134901  0.84516821  1
  H+  H129  1  0.84552237  0.17964544  0.68087195  1
  H+  H130  1  0.88453035  0.41526370  -0.00768936  1
  H+  H131  1  0.72618475  0.09206323  0.99221940  1
  H+  H132  1  0.87199500  0.05856179  0.58832461  1
  H+  H133  1  0.39738786  0.32046533  0.25641573  1
  H+  H134  1  0.69913384  0.87039861  0.44124567  1
  H+  H135  1  0.14559285  0.52257896  0.16592072  1
  H+  H136  1  1.00443386  0.13920106  0.60306801  1
  H+  H137  1  0.71952739  0.85727519  0.84255582  1
  H+  H138  1  0.11315140  0.73110107  0.67113068  1
  H+  H139  1  0.73343163  0.85997260  0.33824108  1
  H+  H140  1  0.36446599  0.73101894  0.83831789  1
  H+  H141  1  0.89738376  1.01565353  -0.00966218  1
  H+  H142  1  0.72469298  0.60749223  0.65435839  1
  H+  H143  1  -0.01713136  0.61640169  0.17151299  1
  H+  H144  1  0.36268542  0.40720455  0.82806802  1
  H+  H145  1  0.51573782  0.37989860  0.82725207  1
  H+  H146  1  0.21152742  0.85788033  0.99818027  1
  H+  H147  1  0.16246372  0.14131646  0.47858292  1
  H+  H148  1  0.01996749  0.63862966  0.01497331  1
  H+  H149  1  0.59691577  0.87143410  0.68367506  1
  H+  H150  1  0.88449533  0.60550407  0.66471272  1
  H+  H151  1  0.60005105  0.12168827  0.67831865  1
  H+  H152  1  0.35859322  0.72438924  0.68049129  1
  H+  H153  1  0.14025084  0.13649741  0.34026174  1
  H+  H154  1  0.42080425  0.58269543  0.22942319  1
  H+  H155  1  0.71978629  0.09903519  0.83944472  1
  H+  H156  1  0.60541409  -0.03101392  0.82944103  1
  H+  H157  1  0.23314521  0.61452372  0.16855841  1
  H+  H158  1  0.11398001  0.39163195  0.66381168  1
  H+  H159  1  0.85980578  0.12502519  0.83218956  1
  H+  H160  1  0.63284355  0.16383480  0.49510067  1
  H+  H161  1  0.50414264  0.09820019  0.85150841  1
  H+  H162  1  0.46107413  0.61802466  0.84997863  1
  H+  H163  1  0.27204585  0.14449793  0.01901512  1
  H+  H164  1  0.86348730  0.24664917  0.32194550  1
  H+  H165  1  0.35493351  0.47665453  0.66929490  1
  H+  H166  1  0.14832793  0.88172703  0.34017344  1
  H+  H167  1  1.02307138  0.88595899  0.66801127  1
  H+  H168  1  0.08806438  -0.00864108  0.20419227  1
  H+  H169  1  0.98597710  0.10805909  0.98962266  1
  H+  H170  1  1.00762072  0.88730004  0.99764471  1
  H+  H171  1  0.87834968  0.85555571  0.98934857  1
  H+  H172  1  0.61239453  0.72096054  0.34206637  1
  H+  H173  1  0.16356895  0.05546602  0.46515911  1
  H+  H174  1  0.74387298  0.36904304  0.16212913  1
  H+  H175  1  0.11433045  0.96719300  0.52039310  1
  H+  H176  1  0.85800890  -0.03369878  0.82594359  1
  H+  H177  1  0.14588282  0.77289608  0.18725657  1
  H+  H178  1  0.64250923  0.52391398  0.99284364  1
  H+  H179  1  0.73256419  0.10870004  0.17206849  1
  H+  H180  1  0.87540701  0.52589784  0.31881646  1
  H+  H181  1  0.64045800  0.51496821  0.16826177  1
  H+  H182  1  0.63625312  0.10698624  0.83402981  1
  H+  H183  1  0.17102380  0.59756098  0.94056523  1
  H+  H184  1  0.77306853  0.38753168  0.33135629  1
  H+  H185  1  0.37252033  0.37439698  0.50704694  1
  H+  H186  1  0.61402181  0.62769269  0.15643704  1
  H+  H187  1  0.13109072  0.93749845  0.12413083  1
  H+  H188  1  0.39779730  0.03369141  0.49721149  1
  H+  H189  1  0.07861826  0.21894091  0.63730107  1
  H+  H190  1  0.63822974  0.36343414  0.83919268  1
  H+  H191  1  0.13878958  0.61946512  0.00248940  1
  H+  H192  1  0.87582806  0.48276973  0.15188173  1
  H+  H193  1  0.51563224  0.87870613  0.83643704  1
  H+  H194  1  0.39514256  0.27341342  1.00181607  1
  H+  H195  1  0.34242517  0.87366915  0.00815959  1
  H+  H196  1  0.39979878  0.77095997  0.17407852  1
  H+  H197  1  0.38825199  0.51514657  0.32255817  1
  H+  H198  1  1.01155275  0.36811484  0.81605588  1
  H+  H199  1  1.00473734  0.05878867  0.20385179  1
  H+  H200  1  0.26765178  0.88951014  0.67190716  1
  H+  H201  1  0.37631218  -0.01445503  0.33938244  1
  H+  H202  1  0.77307731  0.88249256  0.00903410  1
  H+  H203  1  0.13853200  0.62033621  0.66381950  1
  H+  H204  1  0.56650395  0.90144436  0.74295875  1
  H+  H205  1  0.53492929  0.38571423  0.00211245  1
  H+  H206  1  0.77363433  0.64709205  0.33386623  1
  H+  H207  1  0.64774848  1.02244156  0.32829062  1
  H+  H208  1  0.26398887  0.37341322  0.34079230  1
  H+  H209  1  0.24075378  0.14720457  0.79435065  1
  H+  H210  1  0.13474479  0.03737198  1.00091517  1
  H+  H211  1  0.89526563  0.77983595  0.32646829  1
  H+  H212  1  0.62930609  0.51810897  0.32305038  1
  H+  H213  1  1.02551307  0.64035375  0.82653186  1
  H+  H214  1  0.74073036  0.85386725  0.18453690  1
  H+  H215  1  1.03758651  0.15130903  0.34733624  1
  H+  H216  1  0.70450081  0.08820110  0.66802802  1
  H+  H217  1  0.88488364  0.85182513  0.65503643  1
  H+  H218  1  0.38285701  0.02022570  0.65218109  1
  H+  H219  1  0.67930462  0.33571050  0.26010878  1
  H+  H220  1  0.61857596  0.37631667  0.48959560  1
  H+  H221  1  0.51720308  0.63148121  0.64513361  1
  H+  H222  1  0.37839406  0.52271371  0.50300576  1
  H+  H223  1  0.37024936  0.64273430  0.15824672  1
  H+  H224  1  0.89191837  0.61335557  0.16281216  1
  H+  H225  1  0.83886897  0.98638474  0.64340819  1
  H+  H226  1  0.61682276  0.88398183  0.34150459  1
  H+  H227  1  0.77262942  0.39710477  0.47694645  1
  H+  H228  1  0.87133181  0.88804297  0.34123294  1
  H+  H229  1  0.64634602  0.23666657  0.00749625  1
  H+  H230  1  0.99249182  0.13073938  0.17293585  1
  H+  H231  1  0.49781880  0.11828683  0.32530082  1
  H+  H232  1  0.88438530  0.63351798  0.82072547  1
  H+  H233  1  0.53953892  0.14332577  0.16225122  1
  H+  H234  1  0.87488487  0.88243354  0.16000241  1
  H+  H235  1  0.45539723  0.92419640  0.97976674  1
  H+  H236  1  0.51822696  0.87490393  1.00996344  1
  H+  H237  1  0.13587815  0.26404672  0.33751383  1
  H+  H238  1  0.85721605  0.87696287  0.82714325  1
  H+  H239  1  0.13918354  0.28203650  0.49894468  1
  H+  H240  1  0.97945250  0.62109745  0.49807278  1
  H+  H241  1  0.88095023  0.76681544  -0.01122330  1
  H+  H242  1  0.02739186  0.39807654  0.48303955  1
  H+  H243  1  0.02894810  0.38988354  0.15249286  1
  H+  H244  1  0.89011309  0.38073369  0.65349758  1
  H+  H245  1  0.59348890  0.72523306  0.83844463  1
  H+  H246  1  0.48156739  0.86717846  0.32393654  1
  H+  H247  1  0.64734599  0.10509502  1.00810827  1
  H+  H248  1  0.76305945  0.86252122  0.67969340  1
  H+  H249  1  0.11536643  0.89688161  0.82539178  1
  H+  H250  1  0.87418344  0.65179662  0.48553511  1
  H+  H251  1  0.57867560  0.63023593  0.84002877  1
  H+  H252  1  0.16940938  0.12972924  0.14154140  1
  H+  H253  1  0.88349308  0.22934413  0.48842843  1
  H+  H254  1  0.12465591  0.86347193  0.99668053  1
  H+  H255  1  0.77537818  0.63198924  0.15572975  1
  H+  H256  1  0.04880724  0.92039568  0.06126890  1
  H+  H257  1  0.48126375  0.61482883  0.17050087  1
  H+  H258  1  0.35481655  0.88601468  0.67485839  1
  H+  H259  1  0.62896935  0.25079230  0.48917119  1
  H+  H260  1  -0.02499612  0.60806429  0.67107664  1
  H+  H261  1  0.38183851  0.14514598  0.66950906  1
  H+  H262  1  0.89044771  0.51677393  0.83891398  1
  H+  H263  1  0.51441819  0.12770607  0.67198731  1
  H+  H264  1  0.47683363  0.37271463  0.65872060  1
  H+  H265  1  0.19773580  0.16508045  0.11991557  1
  H+  H266  1  0.11034704  0.36574055  0.81524471  1
  H+  H267  1  0.59898211  0.47165202  0.83035988  1
  H+  H268  1  0.38849867  0.60565468  0.31968092  1
  H+  H269  1  0.62497621  0.76218610  0.64862060  1
  H+  H270  1  0.65161958  0.76614654  0.18345478  1
  H+  H271  1  0.23352558  0.86610497  0.18359092  1
  H+  H272  1  0.34134914  0.35592934  0.34062464  1
  H+  H273  1  0.38079215  0.38988803  1.00885030  1
  H+  H274  1  0.11936318  0.63751372  0.16470413  1
  H+  H275  1  0.86442298  0.47739361  0.67949394  1
  H+  H276  1  0.46378097  0.85606611  0.66737946  1
  H+  H277  1  0.79600169  0.62905777  0.82047763  1
  H+  H278  1  0.13790552  0.53053884  0.66314952  1
  H+  H279  1  0.77509350  0.38238231  0.82635638  1
  H+  H280  1  0.98187292  0.85173625  0.17521119  1
  H+  H281  1  0.63089087  0.13763670  0.33874443  1
  H+  H282  1  0.73235403  0.61469429  -0.00969049  1
  H+  H283  1  0.48200515  0.01986404  0.89309866  1
  H+  H284  1  0.12104711  0.48685594  0.00271676  1
  H+  H285  1  0.60715417  0.63130957  0.64254684  1
  H+  H286  1  0.22646586  0.62394259  0.85033381  1
  H+  H287  1  0.46633061  0.37078146  0.50479084  1
  H+  H288  1  0.37965528  0.23292402  0.67401320  1
  H+  H289  1  0.93208259  0.08061011  0.27062605  1
  H+  H290  1  0.40642262  0.18963065  0.75919655  1
  H+  H291  1  0.57807763  0.91012682  0.10141055  1
  H+  H292  1  0.08780921  0.41821882  0.09312444  1
  H+  H293  1  0.91720660  0.58280049  0.89774791  1
  H+  H294  1  0.40344984  0.82933469  0.60732706  1
  H+  H295  1  0.07363528  0.15392021  0.75514951  1
  H+  H296  1  0.05321769  0.27925984  0.13187569  1
  H+  H297  1  0.61150396  0.18064052  0.06762360  1
  H+  H298  1  0.86399475  0.72122122  0.15791475  1
  H+  H299  1  0.57883851  0.16502643  0.76930496  1
  H+  H300  1  0.34032018  0.92482751  0.43327081  1
  H+  H301  1  0.33513845  0.17246908  0.07656511  1
  H+  H302  1  0.60395784  0.17697214  0.39492227  1
  H+  H303  1  0.81728561  0.08138658  0.66480550  1
  H+  H304  1  0.13749264  0.08333814  0.90604612  1
  H+  H305  1  0.87733846  0.13491280  0.98099464  1
  H+  H306  1  0.57691596  0.91423047  0.39573321  1
  H+  H307  1  0.42087383  0.32108172  0.93772591  1
  H+  H308  1  0.09074081  0.18512788  0.43042965  1
  H+  H309  1  0.09095448  0.42726703  0.39627451  1
  H+  H310  1  0.13231191  0.61840990  0.50848535  1
  H+  H311  1  0.68537211  0.40035342  0.54182937  1
  H+  H312  1  0.66410875  0.57428213  0.22767752  1
  H+  H313  1  0.53712971  0.36762793  0.14775753  1
  H+  H314  1  0.41247890  0.06873707  0.94790771  1
  H+  H315  1  0.31866889  0.91242817  0.10489047  1
  H+  H316  1  0.91201622  0.32763092  0.22100993  1
  H+  H317  1  0.92304905  0.34374855  0.92115260  1
  H+  H318  1  0.43779819  0.08408645  0.23212295  1
  H+  H319  1  0.41574118  0.84149020  0.91286897  1
  H+  H320  1  0.57780412  0.41260557  0.73425459  1
  H+  H321  1  0.82134549  0.14085981  0.77206085  1
  H+  H322  1  0.32824068  0.91620888  0.76760274  1
  H+  H323  1  0.83479829  0.42229962  0.41981053  1
  H+  H324  1  0.08942309  0.67363678  0.10927506  1
  H+  H325  1  0.86855584  0.22566986  0.15331834  1
  H+  H326  1  0.07525828  0.40584130  0.75419009  1
  H+  H327  1  0.63253908  0.06044902  0.57814892  1
  H+  H328  1  0.61061094  0.96184460  0.01531133  1
  H+  H329  1  0.67221264  0.85270212  0.61432983  1
  H+  H330  1  0.85441770  0.92055998  0.40455822  1
  H+  H331  1  0.82984804  0.90125819  0.73350466  1
  H+  H332  1  0.37444832  0.48298224  0.16012858  1
  H+  H333  1  0.83388182  0.66403759  0.05781586  1
  H+  H334  1  0.35687835  0.42285487  0.07035144  1
  H+  H335  1  0.91537718  0.82800851  0.89490094  1
  H+  H336  1  0.42972289  0.83533012  0.23532630  1
  H+  H337  1  0.18975097  0.31344504  0.24259502  1
  H+  H338  1  0.08806388  0.67568637  0.73279570  1
  H+  H339  1  0.35358688  0.48988090  0.83232916  1
  H+  H340  1  0.97367091  0.67187994  0.95312683  1
  H+  H341  1  0.38531735  0.37051023  0.66093952  1
  H+  H342  1  0.32967865  0.40853395  0.43131774  1
  H+  H343  1  0.85047174  0.16538773  0.40420434  1
  H+  H344  1  0.21663496  0.36426752  0.82648586  1
  H+  H345  1  0.54381987  0.41314540  0.42919167  1
  H+  H346  1  0.92255825  0.07215871  0.89425816  1
  H+  H347  1  0.83738834  0.91104186  0.06644729  1
  H+  H348  1  0.11594427  0.48691369  0.48946142  1
  H+  H349  1  0.17113664  0.58760236  0.26124059  1
  H+  H350  1  0.14977094  0.37218835  0.99503732  1
  H+  H351  1  0.12491992  0.87558019  0.17771634  1
  H+  H352  1  0.65731520  0.31221459  0.61161922  1
  H+  H353  1  0.11561281  0.06201743  0.25793885  1
  H+  H354  1  0.42034407  0.13532748  0.31690970  1
  H+  H355  1  0.39940289  0.57803893  0.59923299  1
  H+  H356  1  0.32544365  0.42004392  0.72941278  1
  H+  H357  1  0.89060618  0.53457259  0.49179819  1
  H+  H358  1  0.85045270  0.43054929  0.08943618  1
  H+  H359  1  0.90503774  0.78120060  0.50122094  1
  H+  H360  1  0.85098544  0.16462601  0.03994801  1
  H+  H361  1  0.80602000  0.26918462  0.28157075  1
  H+  H362  1  0.59806303  0.41636161  0.05943856  1
  H+  H363  1  0.49079953  0.33923279  0.34332351  1
  H+  H364  1  0.16664528  0.83691802  0.59834207  1
  H+  H365  1  0.34248866  0.68310791  0.10175701  1
  H+  H366  1  0.27084600  0.63611480  0.68083680  1
  H+  H367  1  0.84606861  0.68596968  0.42840193  1
  H+  H368  1  0.66541925  0.83119264  0.93847731  1
  H+  H369  1  0.41155191  0.34807630  0.57275466  1
  H+  H370  1  0.17466257  0.84697912  0.28076739  1
  H+  H371  1  0.83527148  0.41151266  0.76719139  1
  H+  H372  1  0.11048843  0.73391949  0.82821557  1
  H+  H373  1  0.83802073  0.66639686  0.72265645  1
  H+  H374  1  0.92647187  0.35848713  0.55056357  1
  H+  H375  1  0.09240947  0.93094276  0.41344165  1
  H+  H376  1  0.41921554  0.08210217  0.59228662  1
  H+  H377  1  0.16705220  0.34647897  0.58968187  1
  H+  H378  1  0.16103013  0.83858197  0.90080644  1
  H+  H379  1  0.10694188  0.10804924  0.63062282  1
  H+  H380  1  0.65258655  0.57945519  0.90739390  1
  H+  H381  1  0.92448111  0.83030042  0.23448095  1
  H+  H382  1  0.67578395  0.33835247  0.89714536  1
  H+  H383  1  0.92395175  0.83105402  0.59477980  1
  O2-  O384  1  0.06132869  0.22936804  0.13624098  1
  O2-  O385  1  0.09607935  0.18893951  0.47809817  1
  O2-  O386  1  0.07401946  0.16576343  0.79858290  1
  O2-  O387  1  0.08898391  0.41355336  0.13838778  1
  O2-  O388  1  0.08935816  0.42799365  0.47047322  1
  O2-  O389  1  0.07337986  0.39799592  0.80034728  1
  O2-  O390  1  0.09071311  0.67163760  0.15479314  1
  O2-  O391  1  0.09065305  0.67242892  0.48177852  1
  O2-  O392  1  0.08562775  0.67466542  0.81127210  1
  O2-  O393  1  0.09487653  0.90639967  0.15858096  1
  O2-  O394  1  0.09354084  0.92232109  0.48935600  1
  O2-  O395  1  0.08467474  0.92606141  0.80910160  1
  O2-  O396  1  0.33768902  0.16539667  0.18211757  1
  O2-  O397  1  0.36175843  0.18487294  0.43973376  1
  O2-  O398  1  0.43152127  0.19605349  0.80242522  1
  O2-  O399  1  0.35360680  0.42230385  0.14634948  1
  O2-  O400  1  0.32972327  0.41512788  0.47689881  1
  O2-  O401  1  0.32777502  0.43075679  0.81291165  1
  O2-  O402  1  0.34195470  0.67681430  0.14807664  1
  O2-  O403  1  0.32574840  0.67611957  0.49139502  1
  O2-  O404  1  0.33260094  0.66960916  0.82323436  1
  O2-  O405  1  0.32095339  0.91775120  0.14993584  1
  O2-  O406  1  0.33831896  0.92968576  0.47851292  1
  O2-  O407  1  0.32623688  0.91010670  0.81296030  1
  O2-  O408  1  0.60150505  0.17495199  0.14971237  1
  O2-  O409  1  0.60429923  0.19120300  0.47410006  1
  O2-  O410  1  0.58756257  0.16675060  0.81415931  1
  O2-  O411  1  0.59691798  0.40815350  0.13809608  1
  O2-  O412  1  0.55236390  0.41110353  0.47388524  1
  O2-  O413  1  0.57570356  0.41287431  0.81313087  1
  O2-  O414  1  0.58588804  0.66147946  0.14477421  1
  O2-  O415  1  0.57347127  0.66000857  0.47763762  1
  O2-  O416  1  0.55368480  0.66463747  0.82525763  1
  O2-  O417  1  0.57811459  0.91425977  0.14739516  1
  O2-  O418  1  0.55608368  0.90771850  0.47419691  1
  O2-  O419  1  0.57446007  0.90567093  0.81766398  1
  O2-  O420  1  0.83794654  0.16363016  0.14079240  1
  O2-  O421  1  0.85863447  0.16924863  0.47512005  1
  O2-  O422  1  0.82988350  0.15551885  0.81616412  1
  O2-  O423  1  0.84663427  0.42265087  0.13451416  1
  O2-  O424  1  0.83331627  0.42098063  0.46588752  1
  O2-  O425  1  0.83653797  0.41064903  0.81284451  1
  O2-  O426  1  0.83489695  0.66283526  0.13902467  1
  O2-  O427  1  0.85012836  0.68941689  0.47323772  1
  O2-  O428  1  0.85400823  0.66533075  0.80536150  1
  O2-  O429  1  0.84606344  0.91411880  0.14471786  1
  O2-  O430  1  0.87141890  0.92676517  0.47945185  1
  O2-  O431  1  0.82442771  0.90486068  0.81255118  1
  O2-  O432  1  0.08041511  0.03822659  0.21976293  1
  O2-  O433  1  0.20081152  0.11668625  0.47317745  1
  O2-  O434  1  0.10593632  0.06879823  0.86721038  1
  O2-  O435  1  0.19867359  0.29653074  0.20108740  1
  O2-  O436  1  0.17202399  0.34557147  0.51364407  1
  O2-  O437  1  0.15380721  0.33023990  0.83411423  1
  O2-  O438  1  0.17189107  0.58251066  0.18212438  1
  O2-  O439  1  0.15862592  0.58280895  0.52293368  1
  O2-  O440  1  0.16794100  0.59725760  0.86801304  1
  O2-  O441  1  0.17365501  0.83322093  0.20293109  1
  O2-  O442  1  0.16605372  0.83824989  0.52226038  1
  O2-  O443  1  0.16209084  0.83982018  0.85543803  1
  O2-  O444  1  0.43552866  0.08693584  0.18665934  1
  O2-  O445  1  0.42854167  0.09464864  0.51294136  1
  O2-  O446  1  0.45491418  0.04988848  0.87487774  1
  O2-  O447  1  0.43313288  0.37890255  0.23539010  1
  O2-  O448  1  0.40675549  0.34622961  0.52575126  1
  O2-  O449  1  0.40578888  0.30391329  0.85932162  1
  O2-  O450  1  0.41986340  0.58580889  0.18390719  1
  O2-  O451  1  0.40662915  0.58123797  0.52122695  1
  O2-  O452  1  0.40009020  0.58301463  0.86761567  1
  O2-  O453  1  0.43501478  0.83283391  0.18936584  1
  O2-  O454  1  0.39657906  0.83139245  0.53056169  1
  O2-  O455  1  0.41406586  0.83023393  0.86478233  1
  O2-  O456  1  0.67302547  0.07973628  0.18878975  1
  O2-  O457  1  0.61305960  0.05830473  0.53458021  1
  O2-  O458  1  0.65726477  0.06830509  0.84782710  1
  O2-  O459  1  0.68406090  0.33987174  0.17915665  1
  O2-  O460  1  0.66075032  0.36042677  0.50765914  1
  O2-  O461  1  0.67032893  0.33423396  0.85137631  1
  O2-  O462  1  0.66755914  0.57548824  0.18221325  1
  O2-  O463  1  0.64105227  0.55951310  0.51696131  1
  O2-  O464  1  0.63663959  0.57323038  0.86204872  1
  O2-  O465  1  0.68557165  0.82033816  0.20619659  1
  O2-  O466  1  0.68701955  0.86831013  0.48479656  1
  O2-  O467  1  0.66092374  0.82985184  0.86102229  1
  O2-  O468  1  0.95900292  0.07447677  0.19421697  1
  O2-  O469  1  0.93779333  0.10282811  0.53579289  1
  O2-  O470  1  0.91236627  0.07182756  0.84935485  1
  O2-  O471  1  0.91979799  0.33189558  0.17623785  1
  O2-  O472  1  0.92374212  0.34840634  0.50613903  1
  O2-  O473  1  0.91774928  0.32478078  0.84308036  1
  O2-  O474  1  0.91960131  0.58136267  0.17943070  1
  O2-  O475  1  0.91736964  0.59326393  0.50841261  1
  O2-  O476  1  0.92024045  0.57853067  0.85131810  1
  O2-  O477  1  0.92144124  0.82485251  0.18879915  1
  O2-  O478  1  0.93693705  0.84060967  0.52130865  1
  O2-  O479  1  0.91806678  0.83088009  0.84938511  1
  O2-  O480  1  0.16758845  0.10165326  0.32181469  1
  O2-  O481  1  0.14803137  0.08783873  0.62264394  1
  O2-  O482  1  0.17107895  0.09867227  0.98964885  1
  O2-  O483  1  0.17280696  0.32844485  0.31664543  1
  O2-  O484  1  0.15993243  0.34167160  0.63521269  1
  O2-  O485  1  0.17731642  0.33773397  0.98443137  1
  O2-  O486  1  0.17496425  0.59204470  0.30649318  1
  O2-  O487  1  0.17010709  0.59097279  0.64859130  1
  O2-  O488  1  0.17261791  0.59376171  0.98676150  1
  O2-  O489  1  0.18014834  0.85251684  0.32587349  1
  O2-  O490  1  0.16638907  0.83566297  0.64432757  1
  O2-  O491  1  0.15062586  0.83003781  0.98123396  1
  O2-  O492  1  0.43735614  0.09118666  0.30974387  1
  O2-  O493  1  0.41899086  0.08095629  0.63770096  1
  O2-  O494  1  0.39232449  0.06012311  0.99029792  1
  O2-  O495  1  0.34470294  0.23281859  0.29308093  1
  O2-  O496  1  0.41724040  0.34396830  0.64165092  1
  O2-  O497  1  0.42771750  0.33156617  0.98247843  1
  O2-  O498  1  0.42151830  0.57495690  0.30765812  1
  O2-  O499  1  0.40329392  0.57653175  0.64463265  1
  O2-  O500  1  0.42607047  0.57623003  0.98044380  1
  O2-  O501  1  0.42205906  0.83740821  0.30721712  1
  O2-  O502  1  0.40283755  0.82772530  0.65305658  1
  O2-  O503  1  0.42295791  0.86172371  0.97777285  1
  O2-  O504  1  0.68084842  0.08340909  0.31397992  1
  O2-  O505  1  0.64377698  0.06196027  0.65310598  1
  O2-  O506  1  0.66459128  0.06061512  1.00167354  1
  O2-  O507  1  0.67926235  0.33530668  0.30523331  1
  O2-  O508  1  0.65975440  0.31863775  0.65570553  1
  O2-  O509  1  0.68989782  0.34683240  0.97207514  1
  O2-  O510  1  0.65859104  0.57643522  0.30622195  1
  O2-  O511  1  0.66372994  0.57499843  0.63987292  1
  O2-  O512  1  0.66944794  0.58454469  0.97735862  1
  O2-  O513  1  0.67197752  0.83009453  0.32445526  1
  O2-  O514  1  0.65709907  0.82810180  0.65493716  1
  O2-  O515  1  0.66623854  0.82716307  0.98400966  1
  O2-  O516  1  0.92252228  0.08266136  0.31503570  1
  O2-  O517  1  0.82504420  0.02589823  0.62123847  1
  O2-  O518  1  0.92795035  0.07323227  0.97043658  1
  O2-  O519  1  0.86526584  0.29496572  0.29573952  1
  O2-  O520  1  0.92666341  0.36003646  0.63129580  1
  O2-  O521  1  0.92228113  0.34661812  0.96647136  1
  O2-  O522  1  0.89445167  0.58411625  0.30284918  1
  O2-  O523  1  0.91237973  0.56976984  0.66418826  1
  O2-  O524  1  0.92940275  0.61548613  0.96748904  1
  O2-  O525  1  0.92751663  0.84129389  0.31172806  1
  O2-  O526  1  0.91841590  0.82469760  0.64074588  1
  O2-  O527  1  0.91045076  0.82760513  0.97246730  1
  O2-  O528  1  0.08409316  0.17811723  0.02209881  1
  O2-  O529  1  0.09660062  0.18390424  0.36294566  1
  O2-  O530  1  0.03797289  0.15706266  0.64193934  1
  O2-  O531  1  0.09116799  0.42437000  0.01443216  1
  O2-  O532  1  0.09253467  0.42537354  0.35017822  1
  O2-  O533  1  0.08428300  0.42109115  0.68351258  1
  O2-  O534  1  0.07971472  0.66928147  0.03192052  1
  O2-  O535  1  0.10257599  0.68091753  0.36327395  1
  O2-  O536  1  0.08551991  0.67094390  0.68743058  1
  O2-  O537  1  0.06530013  0.92269239  0.01878250  1
  O2-  O538  1  0.09198232  0.93158142  0.36736091  1
  O2-  O539  1  0.08450888  0.91974698  0.68089857  1
  O2-  O540  1  0.33405648  0.17219759  0.03206153  1
  O2-  O541  1  0.41167063  0.22993078  0.33147248  1
  O2-  O542  1  0.36673826  0.18024026  0.69622704  1
  O2-  O543  1  0.35574816  0.42491662  0.02445390  1
  O2-  O544  1  0.32759945  0.39923615  0.35494413  1
  O2-  O545  1  0.32635652  0.41535445  0.68460388  1
  O2-  O546  1  0.34042655  0.69563435  0.03044862  1
  O2-  O547  1  0.34432036  0.65913245  0.33531397  1
  O2-  O548  1  0.33126807  0.66423753  0.69665596  1
  O2-  O549  1  0.30656836  0.89795527  0.02535336  1
  O2-  O550  1  0.34645905  0.92526340  0.35453394  1
  O2-  O551  1  0.32843978  0.92110909  0.68787681  1
  O2-  O552  1  0.61664689  0.17729370  0.02305490  1
  O2-  O553  1  0.60074339  0.16986561  0.34998358  1
  O2-  O554  1  0.57343375  0.15679276  0.69097110  1
  O2-  O555  1  0.59684058  0.41987895  0.01420439  1
  O2-  O556  1  0.52355317  0.40261492  0.35185621  1
  O2-  O557  1  0.57836481  0.41132277  0.68879636  1
  O2-  O558  1  0.58239538  0.66293476  0.01670821  1
  O2-  O559  1  0.58112909  0.65944860  0.35548575  1
  O2-  O560  1  0.57938400  0.66641833  0.63572784  1
  O2-  O561  1  0.57757301  0.89866277  0.02779134  1
  O2-  O562  1  0.58679836  0.91697020  0.35102134  1
  O2-  O563  1  0.56562557  0.90150634  0.69689037  1
  O2-  O564  1  0.84966093  0.16806553  -0.00453764  1
  O2-  O565  1  0.84216662  0.16245286  0.35768585  1
  O2-  O566  1  0.80500018  0.12178193  0.69403150  1
  O2-  O567  1  0.85624577  0.44605214  0.01004898  1
  O2-  O568  1  0.83484883  0.42045177  0.34707613  1
  O2-  O569  1  0.83581843  0.41216980  0.69025309  1
  O2-  O570  1  0.83115552  0.66521269  0.01257722  1
  O2-  O571  1  0.83453463  0.67764773  0.34599120  1
  O2-  O572  1  0.82967674  0.66174350  0.67809339  1
  O2-  O573  1  0.83509214  0.91075198  0.02082309  1
  O2-  O574  1  0.84008902  0.91561263  0.35982587  1
  O2-  O575  1  0.82575377  0.89445671  0.68831092  1
