# generated using pymatgen
data_H2O
_symmetry_space_group_name_H-M   'P 1'
_cell_length_a   17.99561237
_cell_length_b   17.99490481
_cell_length_c   22.00930299
_cell_angle_alpha   90.01982027
_cell_angle_beta   90.01102569
_cell_angle_gamma   120.00637900
_symmetry_Int_Tables_number   1
_chemical_formula_structural   H2O
_chemical_formula_sum   'H384 O192'
_cell_volume   6171.98867150
_cell_formula_units_Z   192
loop_
 _symmetry_equiv_pos_site_id
 _symmetry_equiv_pos_as_xyz
  1  'x, y, z'
loop_
 _atom_type_symbol
 _atom_type_oxidation_number
  H+  1.0
  O2-  -2.0
loop_
 _atom_site_type_symbol
 _atom_site_label
 _atom_site_symmetry_multiplicity
 _atom_site_fract_x
 _atom_site_fract_y
 _atom_site_fract_z
 _atom_site_occupancy
  H+  H0  1  0.73046860  0.11403027  0.16967567  1
  H+  H1  1  0.84447853  0.17196831  -0.04679054  1
  H+  H2  1  0.27408008  0.25885376  0.61732369  1
  H+  H3  1  0.13581838  0.52173843  0.51055475  1
  H+  H4  1  0.58243507  0.67028994  0.76957914  1
  H+  H5  1  0.03999872  0.35965829  0.86348378  1
  H+  H6  1  0.53704204  0.15154151  0.16596838  1
  H+  H7  1  0.40421982  0.12932848  0.33258757  1
  H+  H8  1  0.66065137  0.38937013  0.68120372  1
  H+  H9  1  0.73431130  0.11101875  0.84549671  1
  H+  H10  1  0.48006600  0.12101129  0.66067807  1
  H+  H11  1  0.67020691  0.34886470  0.24108267  1
  H+  H12  1  0.88968285  0.27929322  0.50311589  1
  H+  H13  1  0.38837858  0.61330697  0.51105488  1
  H+  H14  1  0.65775236  0.59248398  0.99143555  1
  H+  H15  1  0.87726186  0.50167005  0.65553133  1
  H+  H16  1  0.91463771  0.83345855  0.59743766  1
  H+  H17  1  0.91676456  0.58468930  0.27307726  1
  H+  H18  1  0.37478421  0.65121656  0.15267125  1
  H+  H19  1  0.21395905  0.35564579  0.79976219  1
  H+  H20  1  0.72549617  0.11599464  0.50533479  1
  H+  H21  1  -0.01666569  0.36547979  0.18081414  1
  H+  H22  1  0.72594177  0.86739402  0.50810246  1
  H+  H23  1  0.61000322  0.63490701  0.34237519  1
  H+  H24  1  0.86511910  0.14404984  0.66963222  1
  H+  H25  1  0.98565994  0.85587301  -0.01343396  1
  H+  H26  1  0.14450567  0.61152734  0.98976690  1
  H+  H27  1  0.71914077  0.61158986  0.83585595  1
  H+  H28  1  0.89317877  0.02550177  0.98621456  1
  H+  H29  1  0.64016295  0.77790818  0.84482093  1
  H+  H30  1  0.62189277  0.14381581  0.16355117  1
  H+  H31  1  0.64567903  0.02219226  0.84752760  1
  H+  H32  1  0.52236660  0.89607043  0.16997633  1
  H+  H33  1  0.88955221  0.36779867  0.50271338  1
  H+  H34  1  0.35675035  0.13080446  0.03713127  1
  H+  H35  1  0.24731768  0.89242489  0.51675661  1
  H+  H36  1  0.43843000  0.11334052  0.24488494  1
  H+  H37  1  0.27558552  0.14118608  1.02317016  1
  H+  H38  1  0.88673526  0.77295718  0.50479147  1
  H+  H39  1  0.63047824  0.24792552  0.50274913  1
  H+  H40  1  0.24697764  0.10686178  0.18569908  1
  H+  H41  1  0.35855992  0.86991851  0.50046844  1
  H+  H42  1  0.36652644  0.64548829  -0.00338700  1
  H+  H43  1  0.15040124  0.52141959  0.18449646  1
  H+  H44  1  0.27762396  0.13998201  0.34383484  1
  H+  H45  1  0.63582586  0.77514372  0.66176383  1
  H+  H46  1  0.49634792  0.13364922  0.33062802  1
  H+  H47  1  0.87681312  0.51402376  0.50472363  1
  H+  H48  1  0.45279392  0.47935148  0.81227787  1
  H+  H49  1  0.16750530  0.08117680  0.27784357  1
  H+  H50  1  0.95339088  0.59554133  0.82702765  1
  H+  H51  1  0.53054559  0.89046487  0.67477699  1
  H+  H52  1  0.77206476  0.13664868  0.67063479  1
  H+  H53  1  -0.00509694  0.61420686  -0.00787013  1
  H+  H54  1  0.11378395  0.39101314  0.50066375  1
  H+  H55  1  0.86384879  0.89515221  0.66814635  1
  H+  H56  1  0.02352115  0.13477459  0.01497166  1
  H+  H57  1  0.66177738  0.83461306  0.27669441  1
  H+  H58  1  0.12054073  0.90616764  0.49748864  1
  H+  H59  1  0.38482044  0.98949203  0.68262396  1
  H+  H60  1  0.88788436  0.11131272  -0.00561789  1
  H+  H61  1  0.22331724  0.12303546  0.50773742  1
  H+  H62  1  0.77940087  0.35148150  0.66430323  1
  H+  H63  1  0.38154179  0.92893997  0.15761367  1
  H+  H64  1  0.61727595  0.79405501  0.00651362  1
  H+  H65  1  0.59945778  0.20483600  0.00970339  1
  H+  H66  1  0.12894401  0.11303130  0.83833950  1
  H+  H67  1  0.59874429  0.89791822  0.01273069  1
  H+  H68  1  0.28611400  0.65000098  0.14619321  1
  H+  H69  1  0.13284583  0.73130389  0.17298424  1
  H+  H70  1  0.12163857  0.52039686  0.34429032  1
  H+  H71  1  0.52161479  0.15026663  0.81793381  1
  H+  H72  1  0.09478251  0.71549723  0.50831854  1
  H+  H73  1  0.26920324  0.13826455  0.82606664  1
  H+  H74  1  0.41895266  0.58313559  0.60547970  1
  H+  H75  1  0.85874548  0.63881797  0.33927852  1
  H+  H76  1  0.89645148  0.76683919  -0.01033369  1
  H+  H77  1  0.86873047  0.13961494  0.15923892  1
  H+  H78  1  0.21869959  0.62399069  0.82941805  1
  H+  H79  1  0.89272848  0.27844347  0.17364012  1
  H+  H80  1  0.47838017  0.86016915  0.50756277  1
  H+  H81  1  0.52292516  0.63701987  0.67801497  1
  H+  H82  1  0.02205691  0.38937945  0.49884625  1
  H+  H83  1  0.61219677  0.63704514  0.68117195  1
  H+  H84  1  0.13078910  1.02493016  0.33682935  1
  H+  H85  1  0.63766678  0.86520657  0.66169332  1
  H+  H86  1  0.13868967  0.28032539  0.50941162  1
  H+  H87  1  0.23120003  1.02695022  0.22279612  1
  H+  H88  1  0.09707213  0.86764112  0.15509367  1
  H+  H89  1  0.63970309  0.02673368  0.65991842  1
  H+  H90  1  0.22992732  0.58737901  0.22410653  1
  H+  H91  1  0.61200305  0.17797275  0.39801000  1
  H+  H92  1  0.13408348  0.60986252  0.51095030  1
  H+  H93  1  0.12109006  0.63917143  0.16878640  1
  H+  H94  1  0.38153732  0.02463296  1.07691244  1
  H+  H95  1  0.77557451  0.89393906  0.66806287  1
  H+  H96  1  0.26353881  0.87597144  0.35207926  1
  H+  H97  1  0.13263973  1.03246013  0.50584474  1
  H+  H98  1  0.39131930  0.52999680  0.99200080  1
  H+  H99  1  0.94938747  0.12865905  0.89844351  1
  H+  H100  1  0.38390962  0.77135465  0.32778347  1
  H+  H101  1  0.88316564  0.39233827  0.16503736  1
  H+  H102  1  0.61428975  0.89152126  0.49414468  1
  H+  H103  1  1.01140770  0.39167288  0.35248807  1
  H+  H104  1  0.66119318  0.58165812  0.27051211  1
  H+  H105  1  0.85692384  0.47279296  0.34504358  1
  H+  H106  1  0.76044909  0.38642216  0.33878364  1
  H+  H107  1  0.87844559  0.88023546  0.00597133  1
  H+  H108  1  0.38548616  0.53918912  0.83480573  1
  H+  H109  1  0.36864719  0.75252709  -0.01049680  1
  H+  H110  1  0.41152653  0.15003224  0.18614135  1
  H+  H111  1  0.50593774  0.88585005  1.01541107  1
  H+  H112  1  0.97664388  0.11653352  0.66113520  1
  H+  H113  1  0.62778785  0.38534292  0.33169214  1
  H+  H114  1  0.08845677  -0.08811372  1.06012858  1
  H+  H115  1  0.86028977  0.63209105  0.67079362  1
  H+  H116  1  0.83251852  0.91872403  0.43756364  1
  H+  H117  1  0.50163053  0.66684902  1.01871394  1
  H+  H118  1  0.20076015  0.35049072  0.83272682  1
  H+  H119  1  0.85963282  0.97679213  0.34319655  1
  H+  H120  1  0.10895687  0.13993060  0.34527544  1
  H+  H121  1  0.11441046  0.65499839  0.82467959  1
  H+  H122  1  0.88263081  0.16603878  0.82350367  1
  H+  H123  1  0.13640385  0.35737254  0.66225269  1
  H+  H124  1  0.47146261  0.86205605  0.32803269  1
  H+  H125  1  0.27586919  0.39225400  0.49187381  1
  H+  H126  1  0.35098459  0.23039868  0.67187227  1
  H+  H127  1  0.35961936  0.63605470  0.34182894  1
  H+  H128  1  0.87323274  0.36430697  0.33537239  1
  H+  H129  1  0.25853366  0.88162347  0.17998101  1
  H+  H130  1  0.39915277  0.35980168  0.31708989  1
  H+  H131  1  0.12479308  0.77291354  0.33644411  1
  H+  H132  1  0.59288793  0.42734342  0.56461621  1
  H+  H133  1  0.00735453  0.62574717  0.50236636  1
  H+  H134  1  0.11151155  0.14190880  0.17160275  1
  H+  H135  1  0.06360479  0.70472742  0.84424869  1
  H+  H136  1  0.35198901  0.87501706  0.34679449  1
  H+  H137  1  0.01165788  0.88519026  0.66708663  1
  H+  H138  1  0.83511161  0.47352710  0.82479854  1
  H+  H139  1  0.87846210  0.63446030  0.00988599  1
  H+  H140  1  0.38563573  0.78078171  0.83793366  1
  H+  H141  1  0.61195581  0.73155429  0.49481666  1
  H+  H142  1  0.34106993  0.36659153  0.66210065  1
  H+  H143  1  0.39260204  0.53572223  0.17571665  1
  H+  H144  1  0.11694919  0.21987546  0.02027561  1
  H+  H145  1  -0.02783130  0.61653573  0.33421872  1
  H+  H146  1  0.63695004  0.11666123  0.50547196  1
  H+  H147  1  0.48059910  0.62485330  0.17538353  1
  H+  H148  1  0.36519414  0.47978271  0.49329194  1
  H+  H149  1  0.88094098  0.02045328  0.17716659  1
  H+  H150  1  0.31362182  0.94313705  0.00488238  1
  H+  H151  1  0.71433267  0.87167698  1.00064304  1
  H+  H152  1  0.62512190  0.51841214  0.17537898  1
  H+  H153  1  0.39185359  0.26946610  1.00440154  1
  H+  H154  1  1.00507992  0.54762404  0.95696729  1
  H+  H155  1  0.39091517  0.38608715  0.83021676  1
  H+  H156  1  0.27289605  0.63484487  0.49761467  1
  H+  H157  1  0.72676962  0.34910730  0.00174872  1
  H+  H158  1  0.63772987  0.34981865  0.00274652  1
  H+  H159  1  0.66453344  0.83616716  0.56653946  1
  H+  H160  1  0.35213617  0.84237909  0.98013136  1
  H+  H161  1  0.86413740  0.14045758  0.34220888  1
  H+  H162  1  0.11977882  0.96327767  0.16110850  1
  H+  H163  1  0.67402559  0.08546253  0.93528746  1
  H+  H164  1  0.86168804  0.88795064  0.49638350  1
  H+  H165  1  0.47676703  0.62038705  0.32882584  1
  H+  H166  1  0.76954620  0.88786028  0.34482992  1
  H+  H167  1  0.36700592  0.22799820  0.33829050  1
  H+  H168  1  0.87202655  0.37851469  1.01776953  1
  H+  H169  1  0.17019732  0.58560221  0.60289333  1
  H+  H170  1  0.89219920  0.86881706  0.84203330  1
  H+  H171  1  0.86026490  0.27012028  0.81458203  1
  H+  H172  1  0.76861748  0.38204268  0.49918121  1
  H+  H173  1  0.86318402  -0.02399102  0.82018123  1
  H+  H174  1  0.77672128  0.63913122  0.48966028  1
  H+  H175  1  0.88814974  0.02758241  0.50866498  1
  H+  H176  1  0.12971529  0.21895242  0.81266026  1
  H+  H177  1  0.61555662  0.14177042  0.66862040  1
  H+  H178  1  0.17093840  0.33643566  0.56987679  1
  H+  H179  1  0.68504230  0.33328242  0.59261807  1
  H+  H180  1  0.82730689  0.38140873  0.80808901  1
  H+  H181  1  0.41359789  0.07781316  0.60666952  1
  H+  H182  1  0.52938282  0.89018816  0.82969103  1
  H+  H183  1  0.39284845  0.12351880  0.84045667  1
  H+  H184  1  1.02276524  0.14324301  0.49731797  1
  H+  H185  1  0.63781695  0.52872050  0.50158439  1
  H+  H186  1  0.11860699  0.27328375  0.33034146  1
  H+  H187  1  0.12266928  -0.01903977  0.84635474  1
  H+  H188  1  0.08638110  0.48629449  0.81404914  1
  H+  H189  1  0.64105247  0.11361575  0.99932187  1
  H+  H190  1  0.99133683  0.40417698  0.80439852  1
  H+  H191  1  0.10541109  0.63964473  0.35329274  1
  H+  H192  1  0.87802240  0.46839694  0.00836507  1
  H+  H193  1  0.78576386  0.62222708  1.00049356  1
  H+  H194  1  0.61287238  0.72611192  0.34319126  1
  H+  H195  1  0.36054716  0.43252086  0.07319883  1
  H+  H196  1  0.40909471  0.04480934  0.84422540  1
  H+  H197  1  0.08536624  0.68627601  0.07645250  1
  H+  H198  1  0.64305734  0.29094620  0.18067638  1
  H+  H199  1  0.14608704  0.02817206  0.99596132  1
  H+  H200  1  0.11954952  0.51376483  0.97844751  1
  H+  H201  1  0.57946350  0.67049490  0.43589977  1
  H+  H202  1  0.29753655  0.39254528  0.01813932  1
  H+  H203  1  0.88779906  0.26395520  1.00795007  1
  H+  H204  1  0.97379289  0.11301905  0.33282333  1
  H+  H205  1  0.11213364  0.14370809  0.49811336  1
  H+  H206  1  0.38584324  0.36674877  0.50578780  1
  H+  H207  1  0.61009753  -0.02549373  0.33902814  1
  H+  H208  1  0.63446817  0.51980272  0.32790417  1
  H+  H209  1  0.40191811  0.36282197  0.99994388  1
  H+  H210  1  0.17832838  0.80592491  0.83526708  1
  H+  H211  1  0.61167911  0.97958564  0.49403188  1
  H+  H212  1  0.67770264  0.69490880  1.02718690  1
  H+  H213  1  0.96603519  0.85766649  0.17632918  1
  H+  H214  1  0.38077868  1.01584180  0.17215860  1
  H+  H215  1  0.61254618  0.72930334  0.17214634  1
  H+  H216  1  0.13079957  0.89404230  0.00258172  1
  H+  H217  1  0.12435376  0.38757389  0.17562523  1
  H+  H218  1  0.88732712  0.77459283  0.65729774  1
  H+  H219  1  0.49458577  0.39874677  0.64401916  1
  H+  H220  1  0.65059758  0.52865715  0.67804634  1
  H+  H221  1  0.85935067  0.71927539  0.16358443  1
  H+  H222  1  0.63176673  0.86285025  0.33617832  1
  H+  H223  1  0.87957907  0.86287412  0.32861737  1
  H+  H224  1  0.39112729  0.76779425  0.50994038  1
  H+  H225  1  1.00852864  0.62069419  0.66861638  1
  H+  H226  1  0.38719284  0.28708154  0.22766472  1
  H+  H227  1  0.62017563  0.45732880  0.00642969  1
  H+  H228  1  0.38763185  0.79087776  0.17084641  1
  H+  H229  1  0.13586461  0.61084559  0.66155609  1
  H+  H230  1  0.52802063  0.37194420  0.00987318  1
  H+  H231  1  0.10859558  -0.01273914  0.66257924  1
  H+  H232  1  0.14251510  0.28336574  0.18217263  1
  H+  H233  1  0.11983307  0.47286669  0.66867051  1
  H+  H234  1  0.60654423  0.63675769  0.83008477  1
  H+  H235  1  0.72993884  0.10909957  0.32615620  1
  H+  H236  1  0.64929077  0.27362381  0.65470217  1
  H+  H237  1  0.60939884  0.39293979  0.17199122  1
  H+  H238  1  0.12163613  0.74542097  0.01685686  1
  H+  H239  1  0.47861772  0.61609236  0.51016875  1
  H+  H240  1  0.35632975  0.64901147  0.82504960  1
  H+  H241  1  1.01422112  0.88821093  0.34209806  1
  H+  H242  1  1.01653976  0.15995366  0.83775046  1
  H+  H243  1  0.28369514  0.39460848  0.16923439  1
  H+  H244  1  0.88258274  0.48920573  0.16418393  1
  H+  H245  1  0.62896404  0.86398501  0.18162131  1
  H+  H246  1  0.39502354  0.77532254  0.66322295  1
  H+  H247  1  0.41093800  0.83995615  0.23512097  1
  H+  H248  1  -0.02541901  0.86433143  0.50625476  1
  H+  H249  1  0.54162130  0.18330691  0.46426427  1
  H+  H250  1  0.64031321  1.02509769  0.17196746  1
  H+  H251  1  0.19207590  0.32285345  0.95281272  1
  H+  H252  1  0.86017936  0.27745265  0.66767978  1
  H+  H253  1  0.13971367  0.11257114  0.00436262  1
  H+  H254  1  0.20467437  0.85018463  0.93217446  1
  H+  H255  1  0.30789850  0.91247876  0.83125137  1
  H+  H256  1  0.86088524  0.13758766  0.49615520  1
  H+  H257  1  0.58513335  0.17698740  0.72563048  1
  H+  H258  1  0.37789256  0.15618534  0.67936208  1
  H+  H259  1  0.10244916  0.88255963  0.67116813  1
  H+  H260  1  0.08156792  0.38189413  -0.04376041  1
  H+  H261  1  0.12195013  0.09971381  0.66218130  1
  H+  H262  1  0.45140204  0.08005215  1.02741826  1
  H+  H263  1  0.38003733  0.47698401  0.33557877  1
  H+  H264  1  0.88102338  0.60710015  0.50642090  1
  H+  H265  1  0.22611306  0.35947304  0.66534492  1
  H+  H266  1  0.11245446  0.21715645  0.67642967  1
  H+  H267  1  0.00471890  0.26196763  0.88749621  1
  H+  H268  1  0.65885440  0.69108313  -0.00419527  1
  H+  H269  1  0.48058552  0.35239656  0.65082648  1
  H+  H270  1  0.38617244  0.25756757  0.84129070  1
  H+  H271  1  0.36357702  0.63492317  0.67572004  1
  H+  H272  1  0.85302773  0.87842084  0.16963078  1
  H+  H273  1  0.71651605  0.60575726  0.17507609  1
  H+  H274  1  0.64822402  0.29104735  0.32631298  1
  H+  H275  1  0.51213521  0.38437472  0.52200937  1
  H+  H276  1  0.38928069  0.90197967  0.68198798  1
  H+  H277  1  0.61524935  0.23099276  0.81838006  1
  H+  H278  1  -0.02860199  0.10913446  0.17793500  1
  H+  H279  1  0.62984313  0.36324613  0.85437998  1
  H+  H280  1  0.48350462  0.35276577  0.31130041  1
  H+  H281  1  0.78186186  0.89834686  0.84998276  1
  H+  H282  1  0.85557572  0.73077190  0.82285158  1
  H+  H283  1  0.85168176  0.64012085  0.82643172  1
  H+  H284  1  0.61727410  0.88858455  0.82935401  1
  H+  H285  1  0.15939349  0.36089044  1.00363800  1
  H+  H286  1  0.39258915  1.00514463  0.51352429  1
  H+  H287  1  0.71795769  0.86366057  0.18288884  1
  H+  H288  1  0.82431514  0.41386095  0.43621169  1
  H+  H289  1  0.66763140  0.08517205  0.59974614  1
  H+  H290  1  0.15311996  0.07392702  0.59962746  1
  H+  H291  1  0.15218864  0.58810040  0.88590660  1
  H+  H292  1  0.32984220  0.67679655  0.76392537  1
  H+  H293  1  0.03920016  -0.11290602  0.83990898  1
  H+  H294  1  0.66183913  0.83668612  0.90456721  1
  H+  H295  1  0.48126692  0.09191800  0.52166352  1
  H+  H296  1  0.57406775  0.91527303  0.10799866  1
  H+  H297  1  0.94921941  0.33220068  0.96141283  1
  H+  H298  1  0.42536830  0.83360976  0.60361894  1
  H+  H299  1  0.41878514  0.59525985  0.26868803  1
  H+  H300  1  0.90183707  0.56418449  0.59833157  1
  H+  H301  1  0.36408390  0.38286960  0.16586759  1
  H+  H302  1  0.61085184  0.63854199  0.16510732  1
  H+  H303  1  0.55762533  0.69402642  0.08003411  1
  H+  H304  1  0.16288389  0.84149612  0.60956241  1
  H+  H305  1  0.73311671  0.37641827  0.84017226  1
  H+  H306  1  0.63321084  0.51830231  0.83944675  1
  H+  H307  1  0.06890282  0.66427899  0.72600181  1
  H+  H308  1  0.11461665  0.76592459  0.65873431  1
  H+  H309  1  0.57855625  0.91862388  0.40048377  1
  H+  H310  1  0.91894889  0.95890450  0.04869515  1
  H+  H311  1  0.85176736  0.42361072  0.10057541  1
  H+  H312  1  0.84427711  0.17164602  0.09909437  1
  H+  H313  1  0.11741732  0.36194581  0.33137284  1
  H+  H314  1  0.25339403  0.80985718  0.22092338  1
  H+  H315  1  0.57977575  0.41552082  0.11068476  1
  H+  H316  1  0.16325116  0.33853381  0.24402026  1
  H+  H317  1  0.38130200  0.31872975  0.56941866  1
  H+  H318  1  0.26924641  0.63496233  0.34704605  1
  H+  H319  1  0.32486335  0.17285103  0.43751492  1
  H+  H320  1  0.57781095  0.40754669  0.38705165  1
  H+  H321  1  0.83507435  0.66889059  0.72880271  1
  H+  H322  1  0.64064851  0.61890493  0.49457353  1
  H+  H323  1  0.39913076  0.87826593  0.84134030  1
  H+  H324  1  0.33252009  0.66430260  0.43817232  1
  H+  H325  1  0.76862747  0.63710936  0.34098616  1
  H+  H326  1  0.10321308  0.88774032  0.34297424  1
  H+  H327  1  0.85991111  0.22837843  0.34359759  1
  H+  H328  1  0.87936317  0.77297694  0.32850374  1
  H+  H329  1  0.38820543  0.51991881  0.66279944  1
  H+  H330  1  0.36870115  0.93682766  0.77156286  1
  H+  H331  1  0.58374146  0.15703863  0.07260120  1
  H+  H332  1  0.92127451  0.57334672  0.89503122  1
  H+  H333  1  0.83038296  0.16562396  0.43628730  1
  H+  H334  1  0.16812149  0.09544271  0.90025833  1
  H+  H335  1  0.32678491  0.89910273  0.43981378  1
  H+  H336  1  0.64593517  0.35808518  0.51733411  1
  H+  H337  1  0.07611036  0.41974852  0.41049532  1
  H+  H338  1  0.34689027  0.68304304  0.05809618  1
  H+  H339  1  0.35191474  0.23221939  0.49662608  1
  H+  H340  1  0.35052433  0.41513379  0.72828579  1
  H+  H341  1  0.47385670  0.62637316  0.83629093  1
  H+  H342  1  0.07283765  0.67017355  0.41017456  1
  H+  H343  1  0.08209334  0.16537712  0.10999612  1
  H+  H344  1  0.07725968  0.41129226  0.72425122  1
  H+  H345  1  0.72715748  0.61989858  0.66434146  1
  H+  H346  1  0.62819688  0.14044731  0.33687837  1
  H+  H347  1  0.41332491  0.58748472  0.93031944  1
  H+  H348  1  0.82163249  0.90414597  0.11023652  1
  H+  H349  1  0.42283556  0.31776821  0.90209577  1
  H+  H350  1  0.91024379  0.33734097  0.27764440  1
  H+  H351  1  0.91763740  0.08865700  0.56753717  1
  H+  H352  1  0.57387444  0.38875593  0.68674379  1
  H+  H353  1  0.91388373  0.08326258  0.27309974  1
  H+  H354  1  0.09838893  0.42219938  0.11679492  1
  H+  H355  1  0.83358227  0.16693194  0.76106619  1
  H+  H356  1  0.27579715  0.63851861  0.67284684  1
  H+  H357  1  0.67238188  0.08070255  0.26530463  1
  H+  H358  1  0.75078570  0.12854635  -0.00585809  1
  H+  H359  1  0.08000808  0.92087384  0.43603364  1
  H+  H360  1  0.83435896  0.66099115  0.10394725  1
  H+  H361  1  0.88591246  0.02956852  0.65863906  1
  H+  H362  1  0.67667551  0.56704721  0.92756550  1
  H+  H363  1  0.16682670  0.83337153  0.27822896  1
  H+  H364  1  0.07848769  0.16918270  0.40448520  1
  H+  H365  1  0.34102761  0.19701421  0.11837916  1
  H+  H366  1  0.84061232  0.67096016  0.43426747  1
  H+  H367  1  0.14611073  0.57944802  0.28504911  1
  H+  H368  1  0.59058616  0.92294004  0.73397678  1
  H+  H369  1  0.60031622  0.40751760  0.77774659  1
  H+  H370  1  0.52431798  0.37344214  0.83030172  1
  H+  H371  1  0.04274124  0.38328430  0.01721625  1
  H+  H372  1  0.16327945  0.88481264  0.85097252  1
  H+  H373  1  0.40499522  0.82815507  0.92174546  1
  H+  H374  1  0.88938607  0.61133729  0.17374581  1
  H+  H375  1  0.23072111  0.95547538  0.55555804  1
  H+  H376  1  0.91914667  0.82681314  0.89297298  1
  H+  H377  1  0.07906818  0.15532206  0.73593747  1
  H+  H378  1  0.35176949  0.41724879  0.39324838  1
  H+  H379  1  -0.01746179  0.61795622  0.17782632  1
  H+  H380  1  0.90842117  0.82817650  0.23693329  1
  H+  H381  1  0.87883036  0.33274653  0.86989854  1
  H+  H382  1  0.66851199  0.33090467  0.91305615  1
  H+  H383  1  0.33732624  0.17491865  0.76824647  1
  O2-  O384  1  0.08084602  0.16967777  0.15580084  1
  O2-  O385  1  0.08300520  0.17457590  0.48135246  1
  O2-  O386  1  0.08359261  0.15972171  0.80822165  1
  O2-  O387  1  0.09359952  0.42048942  0.16096656  1
  O2-  O388  1  0.08500604  0.42260477  0.48514022  1
  O2-  O389  1  0.05366131  0.42425661  0.80380154  1
  O2-  O390  1  0.09326035  0.67234476  0.15736240  1
  O2-  O391  1  0.07021170  0.65974802  0.48841804  1
  O2-  O392  1  0.08586084  0.68818607  0.80961545  1
  O2-  O393  1  0.07791888  0.90721154  0.14213071  1
  O2-  O394  1  0.07993014  0.92389378  0.48142959  1
  O2-  O395  1  0.10211536  0.91790717  0.84415496  1
  O2-  O396  1  0.34057162  0.19384237  0.16438174  1
  O2-  O397  1  0.31510281  0.17195602  0.48192207  1
  O2-  O398  1  0.33104953  0.16765085  0.81464311  1
  O2-  O399  1  0.34372479  0.42251420  0.15380099  1
  O2-  O400  1  0.33552750  0.42088427  0.47552502  1
  O2-  O401  1  0.39142766  0.43853398  0.81329988  1
  O2-  O402  1  0.34695631  0.68291290  0.13424660  1
  O2-  O403  1  0.33399458  0.66431623  0.48352943  1
  O2-  O404  1  0.32577614  0.67870739  0.80975547  1
  O2-  O405  1  0.34960949  0.95942855  0.14906255  1
  O2-  O406  1  0.32915241  0.90141874  0.48616048  1
  O2-  O407  1  0.36869595  0.93679442  0.81869812  1
  O2-  O408  1  0.59440243  0.17535919  0.14616581  1
  O2-  O409  1  0.59212603  0.18363596  0.48074802  1
  O2-  O410  1  0.57944347  0.17729673  0.79673996  1
  O2-  O411  1  0.57845520  0.42250550  0.15491040  1
  O2-  O412  1  0.57791909  0.41727283  0.52173557  1
  O2-  O413  1  0.58805503  0.41001331  0.82208996  1
  O2-  O414  1  0.58078867  0.67095140  0.15333957  1
  O2-  O415  1  0.58005894  0.67031418  0.48132215  1
  O2-  O416  1  0.57897917  0.66951767  0.81565461  1
  O2-  O417  1  0.58150121  0.91897121  0.15382719  1
  O2-  O418  1  0.58146258  0.91907142  0.47847386  1
  O2-  O419  1  0.58879818  0.92025428  0.81340737  1
  O2-  O420  1  0.84331845  0.17460682  0.14346864  1
  O2-  O421  1  0.82860797  0.16609654  0.48161905  1
  O2-  O422  1  0.83586213  0.17501744  0.80672501  1
  O2-  O423  1  0.85681853  0.42744189  0.14720894  1
  O2-  O424  1  0.82972949  0.41798372  0.48155241  1
  O2-  O425  1  0.79536671  0.41464294  0.80863402  1
  O2-  O426  1  0.83393526  0.65882162  0.14892731  1
  O2-  O427  1  0.84062471  0.66967762  0.47959927  1
  O2-  O428  1  0.82197315  0.66868478  0.80901005  1
  O2-  O429  1  0.82411277  0.91059481  0.15484114  1
  O2-  O430  1  0.83248059  0.92007820  0.48296590  1
  O2-  O431  1  0.84585723  0.93143617  0.85087382  1
  O2-  O432  1  0.19966998  0.05098444  0.20244308  1
  O2-  O433  1  0.16153165  0.09044743  0.52480188  1
  O2-  O434  1  0.16425161  0.08703077  0.85583256  1
  O2-  O435  1  0.17279315  0.34328195  0.19717961  1
  O2-  O436  1  0.17034856  0.34079104  0.52442294  1
  O2-  O437  1  0.02282035  0.32328279  0.90106257  1
  O2-  O438  1  0.18400321  0.58347375  0.19809880  1
  O2-  O439  1  0.16826968  0.58369138  0.52471524  1
  O2-  O440  1  0.15631006  0.59602401  0.84102890  1
  O2-  O441  1  0.21557366  0.82870584  0.20332813  1
  O2-  O442  1  0.19955441  0.89764297  0.53847283  1
  O2-  O443  1  0.20272010  0.85894736  0.85935976  1
  O2-  O444  1  0.43568668  0.11341248  0.19737096  1
  O2-  O445  1  0.42021752  0.06338589  0.53213339  1
  O2-  O446  1  0.43357803  0.10580929  0.85602870  1
  O2-  O447  1  0.36019530  0.27929882  0.18575527  1
  O2-  O448  1  0.40984981  0.33364794  0.52585205  1
  O2-  O449  1  0.42448293  0.31965521  0.85699930  1
  O2-  O450  1  0.41780012  0.59707481  0.18717015  1
  O2-  O451  1  0.41857333  0.58335896  0.52657451  1
  O2-  O452  1  0.41253869  0.59833367  0.85079932  1
  O2-  O453  1  0.41029464  0.84807045  0.18984044  1
  O2-  O454  1  0.41944136  0.82813479  0.52557134  1
  O2-  O455  1  0.42025551  0.83786110  0.85849493  1
  O2-  O456  1  0.67177049  0.08609651  0.18681853  1
  O2-  O457  1  0.66429500  0.08407584  0.52020609  1
  O2-  O458  1  0.67947620  0.07889103  0.86789002  1
  O2-  O459  1  0.66577570  0.35014172  0.19491363  1
  O2-  O460  1  0.67717148  0.32814279  0.52805530  1
  O2-  O461  1  0.66575915  0.33582429  0.86687369  1
  O2-  O462  1  0.65705416  0.58156454  0.18975143  1
  O2-  O463  1  0.67643583  0.59142345  0.49789031  1
  O2-  O464  1  0.66097839  0.57844845  0.85534747  1
  O2-  O465  1  0.65817399  0.83336602  0.19867199  1
  O2-  O466  1  0.66436404  0.83756223  0.52090246  1
  O2-  O467  1  0.66956591  0.83831605  0.85952035  1
  O2-  O468  1  0.91024955  0.08151298  0.19086844  1
  O2-  O469  1  0.91803690  0.08893880  0.52175120  1
  O2-  O470  1  0.96593775  0.16603260  0.86239797  1
  O2-  O471  1  0.92086067  0.33846221  0.19001556  1
  O2-  O472  1  0.92426463  0.34077803  0.51383006  1
  O2-  O473  1  0.87933228  0.33314157  0.82564907  1
  O2-  O474  1  0.92085452  0.58166807  0.18893383  1
  O2-  O475  1  0.90945742  0.57511699  0.52228774  1
  O2-  O476  1  0.90171274  0.57374584  0.85237954  1
  O2-  O477  1  0.90605311  0.82610963  0.19087502  1
  O2-  O478  1  0.91375656  0.83349448  0.52067149  1
  O2-  O479  1  0.91720001  0.83035977  0.84796230  1
  O2-  O480  1  0.16343700  0.08592011  0.32211979  1
  O2-  O481  1  0.14698656  0.06468435  0.64496301  1
  O2-  O482  1  0.17647455  0.09079455  0.98735482  1
  O2-  O483  1  0.14330016  0.33090054  0.31129454  1
  O2-  O484  1  0.16665227  0.32535626  0.64879971  1
  O2-  O485  1  0.18860599  0.32643321  0.99691576  1
  O2-  O486  1  0.15383785  0.58275356  0.32927655  1
  O2-  O487  1  0.17192169  0.58619375  0.64841014  1
  O2-  O488  1  0.11743588  0.56390041  0.96092502  1
  O2-  O489  1  0.15524878  0.83411615  0.32192010  1
  O2-  O490  1  0.14395423  0.82888816  0.65236531  1
  O2-  O491  1  0.19854032  0.84771449  0.97880222  1
  O2-  O492  1  0.43802635  0.10651671  0.31219913  1
  O2-  O493  1  0.41713779  0.08714543  0.65174574  1
  O2-  O494  1  0.38858666  0.04964597  1.03566090  1
  O2-  O495  1  0.42113666  0.32232799  0.29974245  1
  O2-  O496  1  0.33425064  0.29360857  0.62825848  1
  O2-  O497  1  0.42554518  0.32682666  0.98447963  1
  O2-  O498  1  0.41597777  0.59177783  0.31381452  1
  O2-  O499  1  0.41810382  0.58254370  0.65103685  1
  O2-  O500  1  0.41122745  0.58872849  0.97559875  1
  O2-  O501  1  0.41158432  0.83108112  0.31130852  1
  O2-  O502  1  0.42881703  0.83596736  0.64901700  1
  O2-  O503  1  0.39399504  0.82261043  0.97022810  1
  O2-  O504  1  0.66943804  0.07727126  0.31065008  1
  O2-  O505  1  0.66995859  0.08742382  0.64511057  1
  O2-  O506  1  0.67874164  0.09192975  0.98237183  1
  O2-  O507  1  0.67766968  0.35189601  0.31432732  1
  O2-  O508  1  0.69006192  0.33469955  0.64161369  1
  O2-  O509  1  0.66827064  0.32044337  0.98439558  1
  O2-  O510  1  0.66325757  0.58230849  0.31590183  1
  O2-  O511  1  0.66377225  0.58446162  0.66092832  1
  O2-  O512  1  0.68460289  0.56223445  0.97289581  1
  O2-  O513  1  0.66422183  0.83396845  0.32211878  1
  O2-  O514  1  0.66577782  0.83404046  0.64407876  1
  O2-  O515  1  0.65748331  0.84805496  0.98254617  1
  O2-  O516  1  0.91242451  0.08241625  0.31821173  1
  O2-  O517  1  0.91700678  0.09126146  0.64431986  1
  O2-  O518  1  0.92617450  0.08825352  0.98098755  1
  O2-  O519  1  0.90798474  0.33552753  0.32235817  1
  O2-  O520  1  0.87813991  0.33460110  0.64839830  1
  O2-  O521  1  0.92741216  0.32951645  1.00316144  1
  O2-  O522  1  0.91241074  0.58597654  0.31779097  1
  O2-  O523  1  0.90199994  0.56249305  0.64417365  1
  O2-  O524  1  0.95968030  0.56223240  0.96576330  1
  O2-  O525  1  0.91050357  0.83353562  0.31228979  1
  O2-  O526  1  0.91642078  0.83546425  0.64309506  1
  O2-  O527  1  0.92400287  0.82668223  0.97411921  1
  O2-  O528  1  0.08164469  0.15971417  0.03476806  1
  O2-  O529  1  0.07499701  0.16684017  0.35880092  1
  O2-  O530  1  0.07933573  0.15565351  0.68907755  1
  O2-  O531  1  0.10050481  0.41071682  -0.00210477  1
  O2-  O532  1  0.07334841  0.42274441  0.36460215  1
  O2-  O533  1  0.08986441  0.41161145  0.68063256  1
  O2-  O534  1  0.07664058  0.68917793  0.03230818  1
  O2-  O535  1  0.07537855  0.67175429  0.36473844  1
  O2-  O536  1  0.06973187  0.65664080  0.68180026  1
  O2-  O537  1  0.09175512  0.91519513  0.01509940  1
  O2-  O538  1  0.07452455  0.91965529  0.35789791  1
  O2-  O539  1  0.07379148  0.91819448  0.68194304  1
  O2-  O540  1  0.33406409  0.17092632  0.04239015  1
  O2-  O541  1  0.33810751  0.16964389  0.35770437  1
  O2-  O542  1  0.36440853  0.19574281  0.70166633  1
  O2-  O543  1  0.35936617  0.42963295  0.02787301  1
  O2-  O544  1  0.36187643  0.41802170  0.34894283  1
  O2-  O545  1  0.33619513  0.41621872  0.68527998  1
  O2-  O546  1  0.34028939  0.68004942  0.01251756  1
  O2-  O547  1  0.33079086  0.66751754  0.35844927  1
  O2-  O548  1  0.33598559  0.66867838  0.68925088  1
  O2-  O549  1  0.28562937  0.87895975  0.00266453  1
  O2-  O550  1  0.32206512  0.90053444  0.36878694  1
  O2-  O551  1  0.36342893  0.93236437  0.70276311  1
  O2-  O552  1  0.57477517  0.14654661  0.02716284  1
  O2-  O553  1  0.60359430  0.17520794  0.35345683  1
  O2-  O554  1  0.58724429  0.17548070  0.67927570  1
  O2-  O555  1  0.58873008  0.39963995  0.02521057  1
  O2-  O556  1  0.58602370  0.41307164  0.34320269  1
  O2-  O557  1  0.63161994  0.41789541  0.70430015  1
  O2-  O558  1  0.54256224  0.71624154  0.04356352  1
  O2-  O559  1  0.57924946  0.66512940  0.35703343  1
  O2-  O560  1  0.58291595  0.66961130  0.69448585  1
  O2-  O561  1  0.56237338  0.91578234  0.03488782  1
  O2-  O562  1  0.57650125  0.91434986  0.35498949  1
  O2-  O563  1  0.59202483  0.92299380  0.68857250  1
  O2-  O564  1  0.83344162  0.16491886  -0.00297285  1
  O2-  O565  1  0.83014040  0.16692086  0.35694596  1
  O2-  O566  1  0.83229873  0.17092098  0.68676404  1
  O2-  O567  1  0.84347451  0.41261716  0.02961530  1
  O2-  O568  1  0.82493423  0.41190453  0.35753056  1
  O2-  O569  1  0.83818995  0.37252903  0.68503812  1
  O2-  O570  1  0.84350322  0.66026665  0.01970410  1
  O2-  O571  1  0.83032640  0.67104680  0.35409372  1
  O2-  O572  1  0.83810300  0.67028298  0.68360796  1
  O2-  O573  1  0.86454764  0.92065819  0.02860997  1
  O2-  O574  1  0.83113343  0.91610177  0.35802306  1
  O2-  O575  1  0.83621627  0.92798674  0.68171603  1
