# generated using pymatgen
data_H2O
_symmetry_space_group_name_H-M   'P 1'
_cell_length_a   18.00218856
_cell_length_b   18.00549755
_cell_length_c   22.02409819
_cell_angle_alpha   90.01344321
_cell_angle_beta   90.00832639
_cell_angle_gamma   120.00175554
_symmetry_Int_Tables_number   1
_chemical_formula_structural   H2O
_chemical_formula_sum   'H384 O192'
_cell_volume   6182.32005716
_cell_formula_units_Z   192
loop_
 _symmetry_equiv_pos_site_id
 _symmetry_equiv_pos_as_xyz
  1  'x, y, z'
loop_
 _atom_type_symbol
 _atom_type_oxidation_number
  H+  1.0
  O2-  -2.0
loop_
 _atom_site_type_symbol
 _atom_site_label
 _atom_site_symmetry_multiplicity
 _atom_site_fract_x
 _atom_site_fract_y
 _atom_site_fract_z
 _atom_site_occupancy
  H+  H0  1  0.98967573  0.62988463  0.83503983  1
  H+  H1  1  0.23152844  0.36609658  0.33332645  1
  H+  H2  1  0.12255633  -0.01708410  0.66990578  1
  H+  H3  1  0.40860476  0.01889783  0.70228060  1
  H+  H4  1  0.22697258  0.13209312  0.66614121  1
  H+  H5  1  0.64150657  0.28174371  0.83778724  1
  H+  H6  1  0.99611997  0.39246623  0.65666186  1
  H+  H7  1  0.07363559  0.12862308  0.52377850  1
  H+  H8  1  0.25225453  0.12418435  0.15939541  1
  H+  H9  1  0.08502106  0.41705032  0.40449637  1
  H+  H10  1  0.28173488  0.38382051  1.00747824  1
  H+  H11  1  0.36763948  0.22285870  0.34655597  1
  H+  H12  1  0.54240644  0.24164966  0.40799524  1
  H+  H13  1  0.46548211  0.83773769  0.32529505  1
  H+  H14  1  0.14210272  0.65708529  0.66016190  1
  H+  H15  1  0.86576595  0.38065734  0.34208994  1
  H+  H16  1  0.08012956  0.17571554  0.09909875  1
  H+  H17  1  0.75318946  0.64364049  0.81134518  1
  H+  H18  1  0.47742343  0.32691847  0.84300626  1
  H+  H19  1  0.20985809  0.83638613  0.31974564  1
  H+  H20  1  0.38117717  0.21716914  0.50428655  1
  H+  H21  1  0.39830127  0.09874670  0.49639966  1
  H+  H22  1  0.38824875  0.60210653  1.00129598  1
  H+  H23  1  0.48137331  0.12188741  0.34800450  1
  H+  H24  1  0.53619699  0.38245695  0.01011486  1
  H+  H25  1  0.17061291  0.10787491  0.48975290  1
  H+  H26  1  0.40352100  0.08196523  0.93640889  1
  H+  H27  1  0.38799399  0.52580419  0.50962758  1
  H+  H28  1  0.02767326  0.04853828  0.48153034  1
  H+  H29  1  0.88868014  0.27326018  0.51251163  1
  H+  H30  1  0.40960635  0.57126216  0.25862842  1
  H+  H31  1  0.86363688  0.22269974  0.80956159  1
  H+  H32  1  0.50059839  0.15056107  0.32076997  1
  H+  H33  1  0.89065256  0.53341968  -0.01057544  1
  H+  H34  1  0.92048205  0.32986066  0.74706055  1
  H+  H35  1  0.88317688  0.09750003  0.66801797  1
  H+  H36  1  0.69961264  0.80817420  0.29501740  1
  H+  H37  1  0.51224248  0.87629669  0.82609809  1
  H+  H38  1  0.89086343  0.04086533  0.33698913  1
  H+  H39  1  0.36072588  0.43040922  0.79882311  1
  H+  H40  1  0.11533791  0.39074776  0.01062484  1
  H+  H41  1  0.61448751  0.27416135  0.68640165  1
  H+  H42  1  0.86741319  0.39794145  0.16082555  1
  H+  H43  1  0.13205865  0.52684619  0.50475257  1
  H+  H44  1  0.53684787  0.64710522  0.15829769  1
  H+  H45  1  0.71026963  0.86117852  0.51228449  1
  H+  H46  1  0.85836193  -0.03400699  1.00992018  1
  H+  H47  1  0.28537616  0.89566572  0.67606841  1
  H+  H48  1  0.62064019  0.39959495  0.33250754  1
  H+  H49  1  0.83974384  0.61729167  0.01358943  1
  H+  H50  1  0.14027402  0.27834542  0.99593391  1
  H+  H51  1  0.11280840  0.61158155  0.82160832  1
  H+  H52  1  0.12510098  0.40457769  0.77974561  1
  H+  H53  1  0.14147767  0.85533417  0.50429418  1
  H+  H54  1  0.39150232  0.52465507  0.16689745  1
  H+  H55  1  0.36493133  0.09325839  0.83667073  1
  H+  H56  1  0.73241259  0.90413637  0.64022489  1
  H+  H57  1  0.64093182  0.27110386  0.98968374  1
  H+  H58  1  0.98546175  0.84137396  0.50237120  1
  H+  H59  1  0.13939077  0.12090082  0.33371804  1
  H+  H60  1  0.60716129  0.23512556  0.15731711  1
  H+  H61  1  0.69703628  0.58219214  0.97742247  1
  H+  H62  1  0.14643522  0.50234975  0.67130637  1
  H+  H63  1  0.60053270  0.73633806  0.47777483  1
  H+  H64  1  0.62149351  0.73461844  0.83653182  1
  H+  H65  1  0.11123767  0.63920208  0.17313064  1
  H+  H66  1  0.83675093  0.41113387  0.40151534  1
  H+  H67  1  0.57959844  0.05846047  0.35346280  1
  H+  H68  1  0.40771638  0.04476663  0.54871891  1
  H+  H69  1  0.38443871  0.51456371  0.32172892  1
  H+  H70  1  0.12369239  0.36587471  0.67151380  1
  H+  H71  1  0.88832876  0.87109654  -0.00867136  1
  H+  H72  1  0.63839539  0.37310249  0.17390219  1
  H+  H73  1  0.37384537  0.84243274  0.50330049  1
  H+  H74  1  0.51648785  0.13818890  0.00200488  1
  H+  H75  1  0.36308995  0.72270063  0.32817573  1
  H+  H76  1  0.36907508  0.38003777  0.51317435  1
  H+  H77  1  0.89677652  0.36520225  0.50922944  1
  H+  H78  1  0.49714352  0.41736328  0.46717740  1
  H+  H79  1  0.91117593  0.43989322  0.67902009  1
  H+  H80  1  0.00051398  0.39332353  0.17726892  1
  H+  H81  1  0.87479137  0.73342599  0.16612339  1
  H+  H82  1  0.02784107  0.65399951  -0.00268461  1
  H+  H83  1  0.34281048  0.07617480  0.32160216  1
  H+  H84  1  0.87837052  0.73460595  0.50344219  1
  H+  H85  1  0.88794538  0.53027747  0.17298380  1
  H+  H86  1  0.37867801  0.85399363  0.66618547  1
  H+  H87  1  0.87846155  0.09054918  0.17042001  1
  H+  H88  1  0.11861972  0.98047471  0.34038667  1
  H+  H89  1  0.78832070  0.70115369  0.68887403  1
  H+  H90  1  0.02533823  0.38478297  0.49915325  1
  H+  H91  1  0.60955561  0.63292663  0.67585172  1
  H+  H92  1  0.35742064  0.95096290  0.47471541  1
  H+  H93  1  0.86939943  0.11077320  1.00042509  1
  H+  H94  1  0.36659882  0.26986742  0.67171058  1
  H+  H95  1  0.53152175  0.11078701  0.50249419  1
  H+  H96  1  0.90408153  0.54069628  0.83582370  1
  H+  H97  1  0.67007857  0.55538819  0.82979469  1
  H+  H98  1  0.39299482  0.33037926  0.84492887  1
  H+  H99  1  0.62687993  0.11176227  -0.00667817  1
  H+  H100  1  0.17178683  0.33846069  0.23348227  1
  H+  H101  1  0.50911292  0.38597077  0.68168627  1
  H+  H102  1  0.85098172  0.70720595  0.33051971  1
  H+  H103  1  0.33094850  0.94027243  0.32441490  1
  H+  H104  1  0.46486136  0.33678665  0.17388247  1
  H+  H105  1  0.36020078  0.62647701  0.32880487  1
  H+  H106  1  0.62615625  0.41049495  0.48353404  1
  H+  H107  1  0.71380443  0.10956414  0.83687824  1
  H+  H108  1  0.76593178  0.08907258  0.67425470  1
  H+  H109  1  0.25201846  0.10388981  0.50791959  1
  H+  H110  1  0.64519707  0.40194561  0.63939281  1
  H+  H111  1  0.82063499  0.13389757  0.73466896  1
  H+  H112  1  0.79642161  0.86331927  0.68053256  1
  H+  H113  1  0.57271163  0.66333394  0.42713120  1
  H+  H114  1  0.15442785  0.53821954  0.17632779  1
  H+  H115  1  0.78013617  0.39206456  0.00341159  1
  H+  H116  1  0.38272375  0.38478423  0.34867017  1
  H+  H117  1  0.86704697  0.53055523  0.65960812  1
  H+  H118  1  0.85534434  0.62485445  0.49737184  1
  H+  H119  1  0.62578763  0.38392235  0.01009123  1
  H+  H120  1  0.02406820  0.38860071  0.01237817  1
  H+  H121  1  0.37122184  0.48699764  0.65741180  1
  H+  H122  1  -0.01776535  0.61573693  0.17932197  1
  H+  H123  1  0.60892378  0.72960576  0.31235359  1
  H+  H124  1  0.65997063  0.29149814  0.69746640  1
  H+  H125  1  0.13416287  0.85732566  0.32657715  1
  H+  H126  1  0.37351019  0.11046548  0.16853426  1
  H+  H127  1  0.36301042  0.38074567  0.16300448  1
  H+  H128  1  0.26864334  0.40827377  0.82258210  1
  H+  H129  1  0.37714681  0.84017882  0.31783398  1
  H+  H130  1  0.59635382  0.47688958  0.67666289  1
  H+  H131  1  0.79343179  0.39699160  0.82807532  1
  H+  H132  1  0.55381602  0.15767020  0.77849018  1
  H+  H133  1  0.61745781  0.00530515  0.27954296  1
  H+  H134  1  0.63474657  0.08369800  0.51533495  1
  H+  H135  1  0.62444504  0.19536721  0.51714114  1
  H+  H136  1  0.19551024  0.85609826  0.83947839  1
  H+  H137  1  0.71835276  0.60843643  0.31886558  1
  H+  H138  1  0.10390609  0.13807015  1.00497167  1
  H+  H139  1  0.65169758  0.37445091  0.84006115  1
  H+  H140  1  -0.01116266  0.87789929  -0.01404360  1
  H+  H141  1  0.44197869  0.11640970  0.68236200  1
  H+  H142  1  0.82308512  0.17478616  0.16600926  1
  H+  H143  1  0.61066392  0.48293175  0.32275282  1
  H+  H144  1  0.22109989  0.11742354  -0.00590274  1
  H+  H145  1  0.38939758  0.74077137  0.16571908  1
  H+  H146  1  0.59520654  0.83706233  0.33015933  1
  H+  H147  1  0.47894564  0.61544288  0.66027647  1
  H+  H148  1  0.08721762  -0.00958360  0.82062244  1
  H+  H149  1  0.80476869  0.90014641  0.36384074  1
  H+  H150  1  0.47976110  0.35709470  0.32146887  1
  H+  H151  1  0.77548918  0.87374082  1.00297502  1
  H+  H152  1  0.45759646  0.10315723  0.84583222  1
  H+  H153  1  0.68284576  0.95761239  0.06792897  1
  H+  H154  1  0.77062349  0.64009809  0.49765266  1
  H+  H155  1  0.64719517  0.86154158  0.99850817  1
  H+  H156  1  1.02527249  0.14417873  0.34173443  1
  H+  H157  1  0.74487876  0.91883674  0.19237158  1
  H+  H158  1  0.15237813  0.78554837  -0.00758117  1
  H+  H159  1  0.39564966  0.55067508  0.83954951  1
  H+  H160  1  0.85272743  -0.11625454  0.83473714  1
  H+  H161  1  0.06164318  0.65911235  0.44145139  1
  H+  H162  1  0.21744872  0.10392485  0.83718081  1
  H+  H163  1  0.34531154  0.75174345  0.01502892  1
  H+  H164  1  0.12454206  0.40055430  0.16309962  1
  H+  H165  1  0.24169676  0.62819378  0.18199742  1
  H+  H166  1  0.12484996  0.49074936  0.84030202  1
  H+  H167  1  0.26632811  0.86597585  0.48412231  1
  H+  H168  1  0.37747572  0.36672209  0.66151933  1
  H+  H169  1  0.76775565  0.94196234  0.40736947  1
  H+  H170  1  0.61328778  0.93023423  0.33835628  1
  H+  H171  1  0.73138218  0.09691485  0.51161873  1
  H+  H172  1  0.65493686  0.31310700  0.49114462  1
  H+  H173  1  0.96493523  0.87963601  0.83391261  1
  H+  H174  1  0.64146259  0.06346705  0.65926140  1
  H+  H175  1  0.59886616  0.61654976  0.33283540  1
  H+  H176  1  0.10099578  0.71631935  0.50150256  1
  H+  H177  1  1.01383942  0.13679011  1.00712263  1
  H+  H178  1  0.11340134  0.76873868  0.84567892  1
  H+  H179  1  0.76510146  0.88795854  0.83162793  1
  H+  H180  1  0.04287130  0.88736257  0.66611067  1
  H+  H181  1  0.59461613  0.01017238  0.15655634  1
  H+  H182  1  0.91935624  0.84166350  0.92546835  1
  H+  H183  1  0.63739857  0.83797938  0.64377068  1
  H+  H184  1  0.91795416  0.30473908  0.17087128  1
  H+  H185  1  0.53036087  0.63574182  0.84038315  1
  H+  H186  1  0.84204966  0.91234572  0.74087142  1
  H+  H187  1  0.24200890  0.37582886  0.52489743  1
  H+  H188  1  0.62457120  0.54578457  0.49240408  1
  H+  H189  1  0.87420320  0.64323485  0.17111165  1
  H+  H190  1  0.39592414  0.36032772  -0.00111799  1
  H+  H191  1  0.84086942  0.60465272  0.65126828  1
  H+  H192  1  0.28437608  0.89536185  0.00593686  1
  H+  H193  1  0.86016703  0.13704027  0.83242043  1
  H+  H194  1  0.33650193  0.14611550  0.67131572  1
  H+  H195  1  0.08925067  0.44759862  0.72745863  1
  H+  H196  1  0.12058563  0.39902540  0.50204187  1
  H+  H197  1  0.89733684  0.37480318  0.99701229  1
  H+  H198  1  0.77519413  0.39161837  0.15900932  1
  H+  H199  1  0.73865083  0.37672093  0.32410957  1
  H+  H200  1  0.78672229  0.37490061  0.49846299  1
  H+  H201  1  0.37014741  0.25520643  0.17356907  1
  H+  H202  1  0.89632196  0.84985255  0.32481968  1
  H+  H203  1  0.86523542  0.47204954  0.49486497  1
  H+  H204  1  0.11156347  -0.01598365  0.99485703  1
  H+  H205  1  0.11598876  0.14606119  0.66339756  1
  H+  H206  1  0.14398590  0.27740813  0.33387938  1
  H+  H207  1  0.63230722  0.61268410  -0.02644389  1
  H+  H208  1  0.34869813  0.62749713  0.50174522  1
  H+  H209  1  0.63972053  0.02965321  0.99816127  1
  H+  H210  1  0.35362389  0.72480324  0.50592271  1
  H+  H211  1  0.88437836  0.01498972  0.84117022  1
  H+  H212  1  0.80806157  0.64073387  0.07329520  1
  H+  H213  1  0.89722106  0.12947668  0.32848390  1
  H+  H214  1  0.13292749  0.52172124  -0.00199436  1
  H+  H215  1  0.61476781  0.10286007  0.34491231  1
  H+  H216  1  0.65860845  0.54175494  0.16592987  1
  H+  H217  1  0.13859030  0.12126704  0.83864635  1
  H+  H218  1  0.26299727  0.62308996  0.33279612  1
  H+  H219  1  0.11328765  0.25715902  0.66677966  1
  H+  H220  1  0.02202881  0.89681496  0.14546375  1
  H+  H221  1  0.50741596  0.61545313  0.33260231  1
  H+  H222  1  0.91983310  0.86703117  0.65181117  1
  H+  H223  1  0.50477410  0.85432577  0.67237947  1
  H+  H224  1  0.15068981  0.28056562  0.84209934  1
  H+  H225  1  0.34064299  0.40423133  0.45109530  1
  H+  H226  1  0.39431753  0.61601060  0.16950841  1
  H+  H227  1  0.92727611  0.33954240  0.27164885  1
  H+  H228  1  0.66944879  0.44126067  0.47024151  1
  H+  H229  1  0.47113628  0.86532023  -0.01195222  1
  H+  H230  1  0.34549436  -0.03693523  0.83239415  1
  H+  H231  1  0.36189430  0.75868548  0.65841860  1
  H+  H232  1  0.38864080  0.87863521  0.99130716  1
  H+  H233  1  0.43484075  0.45891939  0.39346799  1
  H+  H234  1  0.24191476  0.63164196  0.82455761  1
  H+  H235  1  0.77833437  0.13158307  0.33404098  1
  H+  H236  1  0.14920302  0.29591587  0.52137505  1
  H+  H237  1  0.38651065  0.90379257  0.15116454  1
  H+  H238  1  0.88007689  0.39439863  0.81521068  1
  H+  H239  1  0.89770694  0.01544672  0.66345653  1
  H+  H240  1  0.25186772  0.62809845  0.50323728  1
  H+  H241  1  0.76654811  0.14377637  0.00120195  1
  H+  H242  1  0.55804457  0.45203005  0.83611299  1
  H+  H243  1  1.02150350  0.14694997  0.15962322  1
  H+  H244  1  0.84155692  0.61536946  0.33090790  1
  H+  H245  1  0.62516561  0.96739624  0.65286535  1
  H+  H246  1  0.89900519  0.76846806  0.65907745  1
  H+  H247  1  0.02862431  0.14649728  0.81611790  1
  H+  H248  1  0.48759272  0.33909452  0.54105720  1
  H+  H249  1  0.37113087  -0.01666191  0.15306614  1
  H+  H250  1  0.88722383  0.78086305  0.83863097  1
  H+  H251  1  0.87838692  0.65483233  0.81733823  1
  H+  H252  1  0.85227559  0.13281168  0.49942404  1
  H+  H253  1  0.17100351  0.70268344  0.79941869  1
  H+  H254  1  0.11239048  -0.01937121  0.14278411  1
  H+  H255  1  0.14407011  0.52378898  0.33152660  1
  H+  H256  1  0.99929866  0.63079362  0.35024246  1
  H+  H257  1  0.34764348  0.19581485  0.82376819  1
  H+  H258  1  0.11587016  0.38797409  0.34543543  1
  H+  H259  1  0.38585070  1.02597636  -0.00363698  1
  H+  H260  1  0.62782884  0.65362468  0.15793271  1
  H+  H261  1  0.84048922  0.96284381  0.52186414  1
  H+  H262  1  -0.05495205  0.09488730  0.51043725  1
  H+  H263  1  0.36704784  0.77129186  0.83541272  1
  H+  H264  1  0.29206986  0.66807219  0.76243499  1
  H+  H265  1  0.39166844  0.51557312  0.00013246  1
  H+  H266  1  0.62646944  0.85692669  0.84180900  1
  H+  H267  1  0.10211021  0.72248166  0.16557768  1
  H+  H268  1  0.12928912  0.61451422  0.50542550  1
  H+  H269  1  0.17844269  0.83521732  0.56490574  1
  H+  H270  1  0.15528398  0.87516718  0.98824805  1
  H+  H271  1  0.87795384  0.51241012  0.32604275  1
  H+  H272  1  0.21431404  0.61676701  0.99533153  1
  H+  H273  1  0.55180303  0.09990289  0.69864327  1
  H+  H274  1  0.64714489  0.17821865  0.69255946  1
  H+  H275  1  0.36054178  0.22219212  1.01333540  1
  H+  H276  1  0.72046235  0.60111800  0.65095661  1
  H+  H277  1  0.39990653  0.81828572  0.56772462  1
  H+  H278  1  0.13847965  0.28146094  0.17297561  1
  H+  H279  1  0.15832174  0.78653542  0.65625806  1
  H+  H280  1  0.63579834  0.64441393  0.82275695  1
  H+  H281  1  -0.01964023  0.36078000  0.33348860  1
  H+  H282  1  0.96432099  0.60731521  0.51202310  1
  H+  H283  1  0.01929811  0.13650057  0.66771464  1
  H+  H284  1  0.53167763  0.64160875  0.01140817  1
  H+  H285  1  0.11828446  0.12097900  0.17267763  1
  H+  H286  1  0.54450144  0.45398426  0.14156273  1
  H+  H287  1  0.10886917  0.64229868  0.99214350  1
  H+  H288  1  0.34945087  0.16668601  0.43926735  1
  H+  H289  1  0.31117808  0.05903497  0.60097434  1
  H+  H290  1  0.57502556  0.17076585  0.06148957  1
  H+  H291  1  0.98886555  0.35503225  0.80091519  1
  H+  H292  1  0.36556427  0.05095262  0.25800883  1
  H+  H293  1  0.81958236  0.16184864  0.06255938  1
  H+  H294  1  0.93290416  0.81709258  0.56691970  1
  H+  H295  1  0.90877681  0.57520830  0.26720046  1
  H+  H296  1  0.86020311  0.22689369  0.33956954  1
  H+  H297  1  0.88714177  0.57017745  0.56410669  1
  H+  H298  1  0.62509012  0.88620101  0.42208334  1
  H+  H299  1  0.91679901  0.59648915  0.93263561  1
  H+  H300  1  0.63853381  0.76818822  0.99464098  1
  H+  H301  1  0.17239337  0.09490109  0.60154331  1
  H+  H302  1  0.64672850  0.30158583  0.33730625  1
  H+  H303  1  0.34573442  0.05119179  0.61361662  1
  H+  H304  1  0.65806196  0.58077566  0.59501050  1
  H+  H305  1  0.47067819  0.61881100  0.49963832  1
  H+  H306  1  0.09060255  0.91186910  0.43072695  1
  H+  H307  1  0.88729770  0.07254467  0.94186187  1
  H+  H308  1  0.56773074  0.88694761  0.73004080  1
  H+  H309  1  0.35142627  0.92752604  0.06368464  1
  H+  H310  1  0.89271024  0.28439048  0.99731316  1
  H+  H311  1  0.26390789  0.72797247  0.05405854  1
  H+  H312  1  0.55386661  0.44781628  0.40768710  1
  H+  H313  1  0.57654349  0.42375344  0.77029300  1
  H+  H314  1  0.42395190  0.32114749  0.94384441  1
  H+  H315  1  0.08071847  0.91944364  0.05113656  1
  H+  H316  1  0.43236708  0.58801016  0.90609300  1
  H+  H317  1  0.66109334  0.83136373  0.90269718  1
  H+  H318  1  0.34002343  0.41224114  0.06760188  1
  H+  H319  1  0.17799655  0.33704584  0.93716144  1
  H+  H320  1  0.65479531  0.07963786  0.89547817  1
  H+  H321  1  0.07957252  0.16361324  0.40252854  1
  H+  H322  1  0.58140077  0.66357551  0.73425684  1
  H+  H323  1  0.58792877  0.41947657  0.09374406  1
  H+  H324  1  0.33786852  0.68668547  0.10924565  1
  H+  H325  1  0.03203018  0.88790134  0.33856607  1
  H+  H326  1  0.34860951  0.87626854  0.83122170  1
  H+  H327  1  0.59917890  0.20292364  0.42877669  1
  H+  H328  1  0.16415246  0.09137173  0.93280657  1
  H+  H329  1  0.46741999  0.12117245  0.17146090  1
  H+  H330  1  0.59945017  0.14239152  0.15267395  1
  H+  H331  1  0.92133817  0.34442140  0.60992118  1
  H+  H332  1  0.13636537  0.36099828  0.84805419  1
  H+  H333  1  0.40961447  0.31838439  0.26852324  1
  H+  H334  1  0.74098714  0.46372980  0.61661842  1
  H+  H335  1  0.09048125  0.17531811  0.75956002  1
  H+  H336  1  0.90185774  0.07885595  0.57626351  1
  H+  H337  1  0.17479313  0.58451858  0.27145266  1
  H+  H338  1  0.31213759  0.15544441  0.09956222  1
  H+  H339  1  0.32865722  0.90686425  0.74240291  1
  H+  H340  1  0.08137991  0.03523372  0.20979595  1
  H+  H341  1  0.59541791  0.67669028  0.06850896  1
  H+  H342  1  0.66834989  0.34122264  0.23114629  1
  H+  H343  1  0.41334114  0.32166375  0.58691486  1
  H+  H344  1  0.27486663  0.14043873  0.35223461  1
  H+  H345  1  0.66255975  0.58640558  0.25735208  1
  H+  H346  1  0.93015036  0.82879363  0.26644861  1
  H+  H347  1  0.60021100  0.96580280  0.82301680  1
  H+  H348  1  0.88172558  0.46654459  0.73915854  1
  H+  H349  1  0.27746272  0.38693162  0.16190011  1
  H+  H350  1  0.73901172  0.09701957  0.14376542  1
  H+  H351  1  0.14497467  0.82399279  0.22989690  1
  H+  H352  1  0.40731741  0.82815646  0.89614343  1
  H+  H353  1  0.17377117  0.09651444  0.27526111  1
  H+  H354  1  0.60091563  0.13652121  0.83004193  1
  H+  H355  1  0.09893041  0.67045017  0.71728238  1
  H+  H356  1  0.63882730  0.63582041  0.50425351  1
  H+  H357  1  0.85232510  0.68974262  0.75577751  1
  H+  H358  1  0.68029368  0.34198070  0.56041317  1
  H+  H359  1  0.66697364  0.04283311  0.57568437  1
  H+  H360  1  0.65407270  0.07243231  0.20788710  1
  H+  H361  1  0.58447519  0.91221904  0.07602753  1
  H+  H362  1  0.42239862  0.59433535  0.60005192  1
  H+  H363  1  0.12309429  -0.03414631  0.49249447  1
  H+  H364  1  0.68500343  -0.01808902  0.25097281  1
  H+  H365  1  0.74525223  0.63056823  0.17509121  1
  H+  H366  1  0.12286691  0.85561470  0.16804059  1
  H+  H367  1  0.35398840  0.13040879  0.00986716  1
  H+  H368  1  0.31412352  0.42433015  0.70931038  1
  H+  H369  1  0.83332096  0.89868906  0.47220436  1
  H+  H370  1  0.06437147  0.93043197  0.76216610  1
  H+  H371  1  0.96341597  0.07147497  0.88400117  1
  H+  H372  1  0.15204673  0.55770927  0.89915279  1
  H+  H373  1  0.92174569  0.08740222  0.23276621  1
  H+  H374  1  0.65690637  0.85591867  0.22078997  1
  H+  H375  1  0.31875987  0.88492484  0.38490964  1
  H+  H376  1  0.67571481  0.33466025  0.93224441  1
  H+  H377  1  0.08879096  0.71774608  0.34864893  1
  H+  H378  1  0.31044750  0.15169689  0.75833502  1
  H+  H379  1  0.16595878  0.34145621  0.61328980  1
  H+  H380  1  0.82343216  0.16239843  0.43882923  1
  H+  H381  1  0.83830881  0.42689195  0.06264366  1
  H+  H382  1  0.15729764  0.87595673  0.65824718  1
  H+  H383  1  0.09343939  0.42893220  0.10336063  1
  O2-  O384  1  0.08300296  0.17879479  0.14460324  1
  O2-  O385  1  0.05107208  0.11067962  0.48268745  1
  O2-  O386  1  0.08978553  0.17556516  0.80476255  1
  O2-  O387  1  0.09660602  0.43346403  0.14922660  1
  O2-  O388  1  0.08485087  0.41889273  0.48166576  1
  O2-  O389  1  0.08827293  0.40032876  0.81352751  1
  O2-  O390  1  0.07278723  0.65874836  0.15722172  1
  O2-  O391  1  0.06531349  0.65580966  0.48786153  1
  O2-  O392  1  0.10943437  0.66053483  0.80177140  1
  O2-  O393  1  0.08034927  0.92134865  0.12763174  1
  O2-  O394  1  0.08869770  0.90681204  0.47639276  1
  O2-  O395  1  0.03896562  0.94598864  0.79626482  1
  O2-  O396  1  0.31195128  0.15639020  0.14557808  1
  O2-  O397  1  0.35390358  0.15948585  0.48470221  1
  O2-  O398  1  0.31177544  0.13925929  0.80477782  1
  O2-  O399  1  0.33764662  0.41435004  0.14603989  1
  O2-  O400  1  0.33773273  0.40734960  0.49611780  1
  O2-  O401  1  0.32076628  0.45186455  0.79931552  1
  O2-  O402  1  0.35099937  0.68077731  0.15241115  1
  O2-  O403  1  0.31801287  0.65949601  0.49020969  1
  O2-  O404  1  0.28643146  0.68517762  0.80384620  1
  O2-  O405  1  0.35195206  0.92687011  0.13355376  1
  O2-  O406  1  0.32435257  0.88946876  0.46425259  1
  O2-  O407  1  0.31619078  0.90385198  0.81532157  1
  O2-  O408  1  0.57181349  0.17599279  0.14046093  1
  O2-  O409  1  0.59473895  0.13939082  0.49465122  1
  O2-  O410  1  0.56995533  0.16884416  0.82134369  1
  O2-  O411  1  0.57852704  0.42557073  0.14056960  1
  O2-  O412  1  0.52858583  0.46700516  0.44075088  1
  O2-  O413  1  0.57921226  0.41770100  0.81634392  1
  O2-  O414  1  0.59552906  0.68074850  0.14184820  1
  O2-  O415  1  0.57466641  0.67325022  0.47188155  1
  O2-  O416  1  0.59348520  0.67162244  0.82225035  1
  O2-  O417  1  0.53402579  0.90538865  0.14390973  1
  O2-  O418  1  0.67548527  0.91173462  0.45035300  1
  O2-  O419  1  0.57334039  0.90439552  0.81131262  1
  O2-  O420  1  0.80319805  0.12631370  0.13836877  1
  O2-  O421  1  0.82152794  0.16283393  0.48400499  1
  O2-  O422  1  0.82588881  0.15838764  0.81233428  1
  O2-  O423  1  0.83495281  0.42363251  0.14313561  1
  O2-  O424  1  0.84409829  0.41200539  0.47963325  1
  O2-  O425  1  0.85448175  0.43235182  0.81631515  1
  O2-  O426  1  0.84165685  0.67203203  0.15603832  1
  O2-  O427  1  0.83232135  0.66487029  0.48577303  1
  O2-  O428  1  0.85091931  0.68802322  0.80292480  1
  O2-  O429  1  0.88082631  0.88736597  0.19803938  1
  O2-  O430  1  0.81689653  0.90079301  0.51417152  1
  O2-  O431  1  0.82628235  0.91760497  0.81786249  1
  O2-  O432  1  0.13552853  0.08035517  0.19287879  1
  O2-  O433  1  0.18882033  0.07716786  0.51697735  1
  O2-  O434  1  0.16050973  0.08572917  0.85738334  1
  O2-  O435  1  0.17303740  0.34178129  0.18852896  1
  O2-  O436  1  0.18105075  0.35274917  0.53950646  1
  O2-  O437  1  0.17756175  0.33870183  0.86028273  1
  O2-  O438  1  0.18139013  0.59553531  0.19629355  1
  O2-  O439  1  0.16369474  0.58734653  0.51858624  1
  O2-  O440  1  0.15046564  0.55373652  0.85402019  1
  O2-  O441  1  0.14743124  0.82224206  0.18487768  1
  O2-  O442  1  0.17217089  0.82589698  0.51967326  1
  O2-  O443  1  0.13309727  0.82997433  0.84458230  1
  O2-  O444  1  0.40679807  0.08448602  0.18479487  1
  O2-  O445  1  0.42277340  0.06043337  0.50619438  1
  O2-  O446  1  0.39688811  0.06920353  0.85896824  1
  O2-  O447  1  0.40643194  0.31518643  0.18999395  1
  O2-  O448  1  0.42647818  0.32047421  0.54014626  1
  O2-  O449  1  0.41894902  0.29830330  0.86109370  1
  O2-  O450  1  0.42185747  0.58324460  0.18491937  1
  O2-  O451  1  0.41147487  0.58755050  0.51730061  1
  O2-  O452  1  0.44318133  0.59906779  0.86177969  1
  O2-  O453  1  0.45777367  0.86062138  0.16940102  1
  O2-  O454  1  0.40065697  0.81152386  0.52282587  1
  O2-  O455  1  0.40956500  0.83008236  0.85100125  1
  O2-  O456  1  0.64027699  0.07190198  0.16453876  1
  O2-  O457  1  0.67035741  0.05600552  0.52706577  1
  O2-  O458  1  0.65285393  0.07982675  0.85025371  1
  O2-  O459  1  0.66634382  0.34019392  0.18567601  1
  O2-  O460  1  0.68351345  0.30493892  0.52640292  1
  O2-  O461  1  0.67964426  0.34161242  0.85212792  1
  O2-  O462  1  0.68105666  0.59887611  0.18439294  1
  O2-  O463  1  0.66304055  0.59822292  0.51560007  1
  O2-  O464  1  0.68708306  0.60988237  0.80985838  1
  O2-  O465  1  0.68949619  0.91306355  0.20194696  1
  O2-  O466  1  0.65086328  0.84489699  0.49689963  1
  O2-  O467  1  0.65983168  0.82929346  0.85672960  1
  O2-  O468  1  0.92591998  0.08552280  0.18804217  1
  O2-  O469  1  0.88992717  0.07522276  0.53096225  1
  O2-  O470  1  0.92215448  0.07568109  0.85752506  1
  O2-  O471  1  0.93851458  0.35913414  0.19184923  1
  O2-  O472  1  0.92432935  0.33323363  0.52682061  1
  O2-  O473  1  0.92411178  0.32812990  0.79152054  1
  O2-  O474  1  0.91816703  0.58730733  0.19296752  1
  O2-  O475  1  0.90016232  0.57380148  0.51921796  1
  O2-  O476  1  0.92933939  0.60213699  0.84778117  1
  O2-  O477  1  0.92525124  0.84889923  0.19057190  1
  O2-  O478  1  0.92696167  0.80987638  0.52070095  1
  O2-  O479  1  0.90903040  0.83940276  0.85716306  1
  O2-  O480  1  0.17222546  0.09257711  0.32006008  1
  O2-  O481  1  0.16336904  0.09839249  0.64533180  1
  O2-  O482  1  0.16087480  0.09037208  0.97854133  1
  O2-  O483  1  0.17318117  0.33720652  0.31718894  1
  O2-  O484  1  0.14619124  0.32715468  0.65681108  1
  O2-  O485  1  0.17755366  0.33885208  0.98281210  1
  O2-  O486  1  0.17970617  0.58366355  0.31688497  1
  O2-  O487  1  0.21152591  0.60401354  0.65288135  1
  O2-  O488  1  0.15887700  0.57759747  0.97577590  1
  O2-  O489  1  0.14844614  0.81530988  0.30912334  1
  O2-  O490  1  0.18937911  0.84820417  0.64151098  1
  O2-  O491  1  0.19157548  0.84887549  0.98596145  1
  O2-  O492  1  0.33251196  0.02719718  0.29609460  1
  O2-  O493  1  0.45456790  0.08128328  0.70918612  1
  O2-  O494  1  0.41040580  0.08733154  0.98162602  1
  O2-  O495  1  0.41600087  0.32279793  0.31368849  1
  O2-  O496  1  0.40575552  0.33012181  0.65370824  1
  O2-  O497  1  0.42412293  0.32607459  0.98849800  1
  O2-  O498  1  0.40726849  0.57278051  0.30464938  1
  O2-  O499  1  0.41899577  0.58453776  0.64424200  1
  O2-  O500  1  0.42114209  0.57697995  0.98526530  1
  O2-  O501  1  0.40761347  0.80797280  0.30697138  1
  O2-  O502  1  0.40171427  0.81908647  0.64690645  1
  O2-  O503  1  0.41151226  0.83895248  0.97529048  1
  O2-  O504  1  0.67841073  0.02288542  0.27910408  1
  O2-  O505  1  0.66372428  0.02894088  0.63724053  1
  O2-  O506  1  0.66061803  0.08512299  0.97720096  1
  O2-  O507  1  0.67778628  0.35038792  0.30907312  1
  O2-  O508  1  0.68524482  0.41145063  0.60599890  1
  O2-  O509  1  0.67510851  0.33265069  0.97744371  1
  O2-  O510  1  0.65611111  0.57933632  0.30288030  1
  O2-  O511  1  0.65938260  0.57556726  0.64010311  1
  O2-  O512  1  0.65271915  0.58018094  0.94973373  1
  O2-  O513  1  0.63866706  0.78834255  0.29113835  1
  O2-  O514  1  0.69239397  0.84488810  0.62951036  1
  O2-  O515  1  0.67025490  0.82912475  0.97696321  1
  O2-  O516  1  0.92620460  0.09667958  0.31603895  1
  O2-  O517  1  0.92116971  0.07528788  0.64837044  1
  O2-  O518  1  0.89679829  0.07668686  0.98602054  1
  O2-  O519  1  0.92053093  0.32994002  0.31628984  1
  O2-  O520  1  0.93287989  0.36060285  0.65339267  1
  O2-  O521  1  0.92974028  0.34513762  0.98605300  1
  O2-  O522  1  0.90162977  0.57282394  0.31272371  1
  O2-  O523  1  0.83900201  0.55408852  0.63085275  1
  O2-  O524  1  0.91708643  0.59489518  0.97751125  1
  O2-  O525  1  0.92968869  0.82377708  0.31174088  1
  O2-  O526  1  0.94205190  0.82980452  0.63805468  1
  O2-  O527  1  0.92448327  0.84512257  0.97244103  1
  O2-  O528  1  0.07449528  0.16896135  0.02086630  1
  O2-  O529  1  0.08599800  0.17263185  0.35843382  1
  O2-  O530  1  0.08207859  0.17474183  0.67962244  1
  O2-  O531  1  0.08589562  0.41980058  0.02831990  1
  O2-  O532  1  0.08330466  0.41608643  0.35893789  1
  O2-  O533  1  0.10315264  0.44211881  0.68499596  1
  O2-  O534  1  0.09042755  0.68285679  0.00543929  1
  O2-  O535  1  0.05566570  0.66288852  0.37110821  1
  O2-  O536  1  0.10930819  0.68435713  0.67361276  1
  O2-  O537  1  0.08026718  0.92147793  0.00571905  1
  O2-  O538  1  0.09115449  0.92075875  0.35590840  1
  O2-  O539  1  0.10142759  0.92357606  0.68438797  1
  O2-  O540  1  0.32320365  0.16067670  0.02533096  1
  O2-  O541  1  0.33533754  0.16517902  0.36633410  1
  O2-  O542  1  0.30949118  0.17396275  0.69234032  1
  O2-  O543  1  0.34290810  0.41355317  0.02216450  1
  O2-  O544  1  0.37765974  0.42920947  0.37343940  1
  O2-  O545  1  0.33500128  0.42312670  0.66846039  1
  O2-  O546  1  0.29966197  0.70433707  0.04061893  1
  O2-  O547  1  0.33148886  0.65803858  0.34498481  1
  O2-  O548  1  0.28678429  0.64390482  0.67854388  1
  O2-  O549  1  0.34877512  0.92722379  0.01707749  1
  O2-  O550  1  0.31648211  0.88186500  0.33974383  1
  O2-  O551  1  0.34223322  0.91733317  0.69730189  1
  O2-  O552  1  0.57767024  0.16615351  0.01637904  1
  O2-  O553  1  0.60153382  0.25378954  0.40919344  1
  O2-  O554  1  0.61428693  0.11711025  0.70154919  1
  O2-  O555  1  0.59425197  0.41095935  0.02814412  1
  O2-  O556  1  0.58149382  0.42271957  0.34114857  1
  O2-  O557  1  0.57002223  0.41935564  0.69641644  1
  O2-  O558  1  0.59295441  0.67587391  0.02231870  1
  O2-  O559  1  0.56717404  0.64552943  0.34938007  1
  O2-  O560  1  0.57882433  0.66230111  0.68990262  1
  O2-  O561  1  0.63015611  0.93527226  0.04416904  1
  O2-  O562  1  0.57478799  0.87176928  0.35318197  1
  O2-  O563  1  0.56611192  0.87991136  0.68513273  1
  O2-  O564  1  0.82618369  0.17001864  0.01791086  1
  O2-  O565  1  0.83228689  0.16662172  0.35607779  1
  O2-  O566  1  0.82440499  0.12782821  0.68995334  1
  O2-  O567  1  0.84085014  0.42656144  0.01750428  1
  O2-  O568  1  0.83441463  0.41016518  0.35607717  1
  O2-  O569  1  0.90767741  0.48773392  0.69873905  1
  O2-  O570  1  0.79041025  0.61900076  0.03176993  1
  O2-  O571  1  0.81092143  0.64737760  0.34176151  1
  O2-  O572  1  0.83564255  0.68954472  0.68596645  1
  O2-  O573  1  0.83612855  0.90422318  0.01777786  1
  O2-  O574  1  0.82158979  0.95301296  0.38590424  1
  O2-  O575  1  0.85166328  0.90893773  0.69632121  1
