# generated using pymatgen
data_H2O
_symmetry_space_group_name_H-M   'P 1'
_cell_length_a   17.98230451
_cell_length_b   17.97950199
_cell_length_c   21.99875589
_cell_angle_alpha   90.03904221
_cell_angle_beta   89.98411043
_cell_angle_gamma   120.00125322
_symmetry_Int_Tables_number   1
_chemical_formula_structural   H2O
_chemical_formula_sum   'H384 O192'
_cell_volume   6159.51009911
_cell_formula_units_Z   192
loop_
 _symmetry_equiv_pos_site_id
 _symmetry_equiv_pos_as_xyz
  1  'x, y, z'
loop_
 _atom_type_symbol
 _atom_type_oxidation_number
  H+  1.0
  O2-  -2.0
loop_
 _atom_site_type_symbol
 _atom_site_label
 _atom_site_symmetry_multiplicity
 _atom_site_fract_x
 _atom_site_fract_y
 _atom_site_fract_z
 _atom_site_occupancy
  H+  H0  1  0.14221531  0.61983637  0.66552282  1
  H+  H1  1  0.11938150  0.72848546  0.67919128  1
  H+  H2  1  0.13951553  0.25632846  0.17389775  1
  H+  H3  1  0.41765301  0.34288121  0.24879568  1
  H+  H4  1  0.29815998  0.14751715  0.00744608  1
  H+  H5  1  0.61911243  0.60689607  0.52041491  1
  H+  H6  1  0.11710964  0.22179333  0.49925539  1
  H+  H7  1  0.13344119  0.10804354  0.66984184  1
  H+  H8  1  0.31541775  0.18672102  0.42057383  1
  H+  H9  1  0.77959953  0.38711465  -0.00642487  1
  H+  H10  1  0.38372096  0.04237721  0.32562791  1
  H+  H11  1  0.23761607  0.79614148  0.19494468  1
  H+  H12  1  0.07749202  0.15997695  -0.00350115  1
  H+  H13  1  0.09396910  0.85303780  0.33625711  1
  H+  H14  1  0.85177103  0.95638106  0.49304943  1
  H+  H15  1  0.89823681  0.28615381  0.66980778  1
  H+  H16  1  0.14921286  0.11910584  0.85141028  1
  H+  H17  1  0.09170982  0.89980992  0.53843796  1
  H+  H18  1  0.87053255  0.14974673  0.68404969  1
  H+  H19  1  0.64026067  0.11159739  0.65642430  1
  H+  H20  1  0.21315122  0.11836323  0.34256372  1
  H+  H21  1  0.83300854  0.44322781  0.42052871  1
  H+  H22  1  0.02080459  0.87843895  0.68219407  1
  H+  H23  1  0.48808173  0.37549156  -0.01139013  1
  H+  H24  1  0.71946802  0.12542392  0.99248105  1
  H+  H25  1  0.86174759  0.12993228  0.82860820  1
  H+  H26  1  0.15355220  0.87543811  1.00169631  1
  H+  H27  1  0.32932800  0.81723498  0.36392279  1
  H+  H28  1  0.88873052  0.52503507  0.66358105  1
  H+  H29  1  0.99779791  0.36070887  0.84823677  1
  H+  H30  1  0.73220916  0.11938131  0.66256653  1
  H+  H31  1  0.11249252  0.26028842  0.85638459  1
  H+  H32  1  0.89219464  0.12750955  0.31496220  1
  H+  H33  1  0.66391362  0.11255437  0.49925618  1
  H+  H34  1  0.86800679  0.47605775  0.14681360  1
  H+  H35  1  0.94823636  0.11591387  1.00494672  1
  H+  H36  1  0.63647890  0.11423993  0.83517431  1
  H+  H37  1  0.38121574  0.52423866  0.51494625  1
  H+  H38  1  0.39582797  0.49690412  0.08192982  1
  H+  H39  1  0.35940030  0.39575731  0.47989946  1
  H+  H40  1  0.51366003  0.63300850  0.69636916  1
  H+  H41  1  0.28532663  0.89469663  1.01203147  1
  H+  H42  1  0.60593510  0.36717785  0.81754328  1
  H+  H43  1  0.76830168  0.63921684  0.14440995  1
  H+  H44  1  0.88623846  0.60538863  0.84001292  1
  H+  H45  1  0.51481914  0.61764246  0.13658213  1
  H+  H46  1  0.76887455  0.13806180  0.15982051  1
  H+  H47  1  0.88919456  0.86653899  0.99171923  1
  H+  H48  1  0.83702306  0.66996527  0.05083821  1
  H+  H49  1  0.96570694  0.85555675  0.50387921  1
  H+  H50  1  0.36903047  0.72665843  0.67787119  1
  H+  H51  1  0.08525064  0.74919772  0.17641703  1
  H+  H52  1  1.02277748  0.64335607  0.33126449  1
  H+  H53  1  0.87434199  0.64386946  0.99393002  1
  H+  H54  1  0.29511098  0.24490791  0.37809910  1
  H+  H55  1  0.00104927  0.61702511  0.15391217  1
  H+  H56  1  0.13884926  0.11765192  0.51491773  1
  H+  H57  1  0.47068094  0.80344884  0.29278451  1
  H+  H58  1  0.83600892  0.65882668  0.77348857  1
  H+  H59  1  0.63206613  0.54529974  0.31568550  1
  H+  H60  1  0.14307457  0.36453536  0.51207717  1
  H+  H61  1  0.82389971  0.65989999  0.42529889  1
  H+  H62  1  0.38618487  0.52048568  0.66891324  1
  H+  H63  1  0.26957275  0.38906416  0.49460215  1
  H+  H64  1  0.37937600  0.78006810  0.17898717  1
  H+  H65  1  0.62422547  0.97842192  0.67007234  1
  H+  H66  1  0.94702048  0.32366745  0.91234711  1
  H+  H67  1  0.61075010  0.71558527  0.51165688  1
  H+  H68  1  0.62051821  0.37907632  0.66665621  1
  H+  H69  1  0.33044889  0.65714114  0.44297600  1
  H+  H70  1  0.37599945  0.34157375  0.83448961  1
  H+  H71  1  0.26913923  0.12382685  0.68508775  1
  H+  H72  1  0.42839843  0.59862521  0.91884936  1
  H+  H73  1  0.85508158  0.73134166  0.32170036  1
  H+  H74  1  0.72909998  0.12037823  0.83917331  1
  H+  H75  1  0.27712137  0.38688839  0.82639964  1
  H+  H76  1  0.10168369  0.21795504  0.32536995  1
  H+  H77  1  0.14705362  0.37294908  0.66299023  1
  H+  H78  1  0.89747661  0.63867141  0.50870020  1
  H+  H79  1  0.25530036  0.58385967  0.14478765  1
  H+  H80  1  0.36704900  0.54627585  0.12751876  1
  H+  H81  1  0.55064733  0.91759868  0.33160277  1
  H+  H82  1  0.89349653  0.77808568  0.98722018  1
  H+  H83  1  0.52214182  0.90711230  0.16153599  1
  H+  H84  1  0.10878948  0.36142822  0.34211026  1
  H+  H85  1  0.12916978  1.02415516  0.34020393  1
  H+  H86  1  0.88758859  0.76294510  0.66398221  1
  H+  H87  1  0.77289326  0.88580976  0.99769957  1
  H+  H88  1  0.41091630  0.58005671  0.57797979  1
  H+  H89  1  0.39923506  0.04915865  0.16887217  1
  H+  H90  1  0.46145405  0.11978708  0.53928383  1
  H+  H91  1  0.48099465  0.86568184  0.98853893  1
  H+  H92  1  0.71927696  0.63214672  0.32317247  1
  H+  H93  1  0.38359473  0.60957243  0.66975618  1
  H+  H94  1  0.64089519  0.27239955  0.83249008  1
  H+  H95  1  0.36735949  0.23709730  0.52904825  1
  H+  H96  1  0.50935076  0.15389813  0.33777202  1
  H+  H97  1  0.63946395  0.78051531  0.81916570  1
  H+  H98  1  0.65643364  0.14414396  0.32452453  1
  H+  H99  1  0.53446875  0.15261716  0.16750462  1
  H+  H100  1  0.88665102  0.51704430  0.98451659  1
  H+  H101  1  0.86807367  0.87375785  0.67471874  1
  H+  H102  1  0.78017763  0.88226143  0.82487568  1
  H+  H103  1  0.63834136  1.01369207  0.33572883  1
  H+  H104  1  0.32338936  0.90602437  0.15834461  1
  H+  H105  1  0.61753039  0.36979192  0.16171311  1
  H+  H106  1  0.73288541  0.87994852  0.32772466  1
  H+  H107  1  0.84784826  0.86675092  0.49909780  1
  H+  H108  1  0.64433359  0.39044127  0.31679508  1
  H+  H109  1  0.37084583  0.89138712  0.68969618  1
  H+  H110  1  0.84994173  0.97252870  0.15519479  1
  H+  H111  1  0.33529246  0.72575945  0.36622676  1
  H+  H112  1  0.88788130  0.28783010  0.32400425  1
  H+  H113  1  -0.01808853  0.35499729  0.16936539  1
  H+  H114  1  0.41135054  0.38106096  0.56612455  1
  H+  H115  1  0.35529076  0.24048699  0.16323171  1
  H+  H116  1  0.14464236  0.78394129  0.84210938  1
  H+  H117  1  0.77716717  0.63048654  0.67769120  1
  H+  H118  1  0.27668498  0.64054760  0.67605022  1
  H+  H119  1  0.53106981  0.38713691  0.53185309  1
  H+  H120  1  0.61706232  0.49787517  0.82036286  1
  H+  H121  1  0.82858740  0.42346546  0.74022199  1
  H+  H122  1  0.22829936  0.62490244  0.84232773  1
  H+  H123  1  0.03323841  0.89664020  0.00645009  1
  H+  H124  1  0.62898233  0.76206432  0.17472704  1
  H+  H125  1  0.22870521  0.90302152  0.33578936  1
  H+  H126  1  0.22577053  0.61768168  0.99112248  1
  H+  H127  1  -0.02885254  0.10853351  0.16395565  1
  H+  H128  1  0.11326431  0.64753181  0.33570059  1
  H+  H129  1  0.87673830  0.99835724  0.66170260  1
  H+  H130  1  0.27818941  0.38016608  0.67386588  1
  H+  H131  1  0.86791535  0.63299796  0.67605036  1
  H+  H132  1  0.60172186  0.64471573  0.34393243  1
  H+  H133  1  -0.05597746  0.81542479  0.31572990  1
  H+  H134  1  0.76700188  0.61563046  0.82454513  1
  H+  H135  1  0.63223456  0.51030084  0.66731795  1
  H+  H136  1  0.03147025  0.12973253  0.49399309  1
  H+  H137  1  0.73522657  0.36459170  0.66310987  1
  H+  H138  1  0.36101743  0.51841821  0.33842145  1
  H+  H139  1  0.84902631  0.38926376  0.81668120  1
  H+  H140  1  0.12459563  0.48600366  0.67186136  1
  H+  H141  1  0.04242479  0.65811325  0.50638331  1
  H+  H142  1  0.62215946  0.88757762  0.67640543  1
  H+  H143  1  0.14123191  0.52831283  0.50911262  1
  H+  H144  1  0.62186411  0.98465593  0.82772676  1
  H+  H145  1  0.48968040  0.86874884  0.66688213  1
  H+  H146  1  0.13460217  0.73646618  0.48582228  1
  H+  H147  1  0.71706419  0.84530785  0.51836714  1
  H+  H148  1  0.87824075  0.39242380  0.14409793  1
  H+  H149  1  0.40316728  0.54119505  0.97931272  1
  H+  H150  1  0.11833476  0.48072842  0.01122485  1
  H+  H151  1  0.86137206  0.23660249  0.00751494  1
  H+  H152  1  0.72804999  0.36691308  0.82674679  1
  H+  H153  1  0.12397880  0.39493440  1.01446471  1
  H+  H154  1  0.89032476  0.53747398  0.31850483  1
  H+  H155  1  0.17468619  0.33444850  0.57007295  1
  H+  H156  1  0.65367602  0.28256124  0.50045190  1
  H+  H157  1  0.38572598  0.61660768  0.82817380  1
  H+  H158  1  0.37668532  0.67105665  0.34631695  1
  H+  H159  1  0.45205982  0.66791809  0.26817956  1
  H+  H160  1  0.62037520  0.04174321  0.19011210  1
  H+  H161  1  0.12137909  0.89485754  0.83531812  1
  H+  H162  1  0.99524182  0.13685490  0.68065640  1
  H+  H163  1  0.52545923  0.13389750  0.67418745  1
  H+  H164  1  0.48581860  0.87023270  0.83978201  1
  H+  H165  1  0.52947441  0.65925768  -0.00298249  1
  H+  H166  1  0.77434732  0.40443155  0.33054626  1
  H+  H167  1  0.01903165  0.12317643  0.84052665  1
  H+  H168  1  0.61951985  0.24338625  0.16159657  1
  H+  H169  1  0.50847557  0.79304511  0.10738025  1
  H+  H170  1  0.27478810  0.14486570  0.16265418  1
  H+  H171  1  0.35926644  0.14662990  0.51570123  1
  H+  H172  1  0.36815188  0.38120198  0.67346820  1
  H+  H173  1  0.35964917  0.62744628  0.50766295  1
  H+  H174  1  0.56042314  0.13267961  0.48082489  1
  H+  H175  1  0.51004094  0.35386839  0.81331317  1
  H+  H176  1  1.03399770  0.38710655  0.50273964  1
  H+  H177  1  0.77373535  0.63989530  0.49253516  1
  H+  H178  1  0.39836158  0.29095881  0.99399757  1
  H+  H179  1  0.30281049  0.41452866  0.00581384  1
  H+  H180  1  1.00190346  0.88662501  0.84534684  1
  H+  H181  1  0.38944127  0.52828093  0.82709448  1
  H+  H182  1  0.50795498  0.40296370  0.15182988  1
  H+  H183  1  0.61581378  0.98339836  -0.00283173  1
  H+  H184  1  0.73457823  0.37766539  0.50036579  1
  H+  H185  1  0.37521517  0.01530565  0.97671344  1
  H+  H186  1  0.61169393  -0.04002370  0.51848050  1
  H+  H187  1  0.08442110  0.87761320  0.16209461  1
  H+  H188  1  0.02496331  0.64029972  0.82938734  1
  H+  H189  1  0.83520782  0.84982101  0.34123547  1
  H+  H190  1  0.86871030  0.85791963  0.16775979  1
  H+  H191  1  0.15484289  1.02856005  -0.00011983  1
  H+  H192  1  0.13660987  0.99601911  0.51302233  1
  H+  H193  1  0.59637704  0.84367336  0.14365595  1
  H+  H194  1  0.62252630  0.20526383  0.98961279  1
  H+  H195  1  0.23450668  0.78218917  0.16204991  1
  H+  H196  1  0.39256128  0.13495119  0.17672355  1
  H+  H197  1  0.14587169  0.62320257  0.51159039  1
  H+  H198  1  0.09692562  0.12343358  0.32965292  1
  H+  H199  1  0.22843553  0.86119406  0.67707858  1
  H+  H200  1  0.16252046  1.03913877  0.84623455  1
  H+  H201  1  0.63432021  0.62348571  0.15842918  1
  H+  H202  1  0.64108335  0.13826635  0.17959706  1
  H+  H203  1  0.51871010  0.62789442  0.50967422  1
  H+  H204  1  0.03004542  0.63802308  0.67706209  1
  H+  H205  1  0.23598450  0.88484202  0.42753505  1
  H+  H206  1  0.37746466  0.43694590  0.16609811  1
  H+  H207  1  0.38378617  0.10822351  0.68423180  1
  H+  H208  1  0.64595011  0.35758169  -0.01227362  1
  H+  H209  1  0.86034230  0.22495955  0.15711036  1
  H+  H210  1  0.61727366  0.22235880  0.66938428  1
  H+  H211  1  0.87982484  0.76315624  0.50226447  1
  H+  H212  1  0.85670030  0.97557181  0.00576849  1
  H+  H213  1  0.79040391  0.12801880  0.49182648  1
  H+  H214  1  0.61986741  0.74623270  -0.00155964  1
  H+  H215  1  0.50567382  0.68747909  0.32999512  1
  H+  H216  1  0.16910437  0.59089593  0.23570417  1
  H+  H217  1  0.48818762  0.35783201  0.65196944  1
  H+  H218  1  0.10732006  -0.03045102  0.68140020  1
  H+  H219  1  0.36879032  0.97973339  0.68965973  1
  H+  H220  1  0.11619835  0.37417104  0.16350888  1
  H+  H221  1  0.10949575  0.12448810  0.16482788  1
  H+  H222  1  0.61824159  0.39126155  0.51033419  1
  H+  H223  1  0.13447735  0.27917608  0.66450876  1
  H+  H224  1  0.62745980  0.84461994  0.52881954  1
  H+  H225  1  0.71549858  0.85405876  0.16993035  1
  H+  H226  1  0.73432225  0.60696921  0.97128146  1
  H+  H227  1  0.62115727  0.58877287  0.81592177  1
  H+  H228  1  0.36263216  0.64032424  -0.00941105  1
  H+  H229  1  0.35561604  0.83312512  0.39294553  1
  H+  H230  1  0.89664058  0.55239755  0.50390266  1
  H+  H231  1  0.77728074  0.87277857  0.68021342  1
  H+  H232  1  0.29380028  0.18454991  0.83750447  1
  H+  H233  1  0.39408387  0.86322551  0.57794885  1
  H+  H234  1  1.00224467  0.61227780  0.99717648  1
  H+  H235  1  0.52990776  0.23579576  0.37813856  1
  H+  H236  1  0.63713477  0.76895754  0.67874768  1
  H+  H237  1  0.13293038  0.01944409  0.17752893  1
  H+  H238  1  0.21469219  0.33193567  0.32532079  1
  H+  H239  1  0.64668835  0.87776305  0.97631837  1
  H+  H240  1  0.91468488  0.33503556  0.22321064  1
  H+  H241  1  0.65508229  0.57716012  0.58479518  1
  H+  H242  1  0.12355942  0.49579238  0.82612395  1
  H+  H243  1  0.64607410  0.87176283  0.82858375  1
  H+  H244  1  0.86531781  0.39735205  0.67782298  1
  H+  H245  1  0.36365608  0.73944870  0.16076258  1
  H+  H246  1  0.23293028  0.12672902  0.52341203  1
  H+  H247  1  0.22369376  0.60437041  0.33574506  1
  H+  H248  1  0.40612605  0.28267515  0.31241521  1
  H+  H249  1  0.40138092  0.87829772  0.84300697  1
  H+  H250  1  0.88292204  0.11323142  0.16300324  1
  H+  H251  1  0.51318914  0.63929362  0.79292500  1
  H+  H252  1  0.38999635  0.40925404  0.00097664  1
  H+  H253  1  0.35321289  0.35504408  0.33411361  1
  H+  H254  1  0.87556627  0.61192021  0.16248629  1
  H+  H255  1  0.17046584  0.29432806  1.00761301  1
  H+  H256  1  0.52202780  0.39968958  0.32386859  1
  H+  H257  1  0.85716994  0.72681248  0.14589111  1
  H+  H258  1  0.00926692  0.89591276  0.15601871  1
  H+  H259  1  0.38529152  1.02285704  0.53314045  1
  H+  H260  1  -0.00409373  0.12540743  0.31746913  1
  H+  H261  1  0.88479479  0.51622664  0.83336506  1
  H+  H262  1  0.13341897  0.51872865  0.33061167  1
  H+  H263  1  0.59950563  0.18563554  0.42232654  1
  H+  H264  1  0.09547600  0.62464042  0.15842079  1
  H+  H265  1  0.51634383  0.11359443  0.81749494  1
  H+  H266  1  0.02253647  0.31890816  0.37705571  1
  H+  H267  1  0.13798710  0.62444752  0.84136762  1
  H+  H268  1  0.09073731  0.41396396  0.44224623  1
  H+  H269  1  0.10464237  0.61941192  0.00435044  1
  H+  H270  1  0.88473363  0.01595817  0.84448334  1
  H+  H271  1  0.78789494  0.15696116  0.33710903  1
  H+  H272  1  0.32805202  0.50200639  0.31343579  1
  H+  H273  1  0.22208671  0.67113596  0.19504760  1
  H+  H274  1  0.97403786  0.37577389  0.31955458  1
  H+  H275  1  0.62965680  0.59844705  0.67709445  1
  H+  H276  1  0.87874693  0.43281793  0.47772335  1
  H+  H277  1  0.68013577  0.11142919  0.26275987  1
  H+  H278  1  -0.01705133  0.36929274  0.00220443  1
  H+  H279  1  0.83799206  0.05002263  0.63068950  1
  H+  H280  1  0.88202966  0.21311738  0.49708201  1
  H+  H281  1  0.83840522  0.17695389  0.74249886  1
  H+  H282  1  0.11309143  0.77407906  0.33062977  1
  H+  H283  1  0.18020358  0.88984115  0.48132593  1
  H+  H284  1  0.63803891  0.29986206  0.31811673  1
  H+  H285  1  0.46426986  0.95002682  0.17144747  1
  H+  H286  1  0.66693688  0.81848661  0.61498685  1
  H+  H287  1  0.88814606  0.33142439  0.51910096  1
  H+  H288  1  0.47860014  0.88462882  0.25571004  1
  H+  H289  1  0.66187550  0.35446121  0.21882157  1
  H+  H290  1  0.16235429  0.08253720  0.60854241  1
  H+  H291  1  0.09696258  0.42958573  0.73236361  1
  H+  H292  1  0.16496250  0.07821815  0.23781373  1
  H+  H293  1  0.92283332  0.57827215  0.92413118  1
  H+  H294  1  0.89480070  0.37164262  -0.01069740  1
  H+  H295  1  0.84522169  0.91290129  0.76891723  1
  H+  H296  1  0.90550482  0.07703173  0.90366844  1
  H+  H297  1  0.67955236  0.33348456  0.60105801  1
  H+  H298  1  0.89349079  0.81645832  0.22332204  1
  H+  H299  1  0.60098494  0.48748475  0.15119080  1
  H+  H300  1  0.67015887  0.85691321  0.26686013  1
  H+  H301  1  0.92073522  0.06412139  0.55870771  1
  H+  H302  1  0.84330446  0.42165517  0.05295975  1
  H+  H303  1  0.92235354  0.59032932  0.60569433  1
  H+  H304  1  0.25942809  0.62489208  0.50396471  1
  H+  H305  1  0.31178473  0.62299957  0.08474682  1
  H+  H306  1  0.77773048  0.58084072  0.35974078  1
  H+  H307  1  0.33241668  0.67267403  0.77044619  1
  H+  H308  1  0.42919938  0.08885979  0.26254619  1
  H+  H309  1  0.16178926  0.31898905  0.26242686  1
  H+  H310  1  0.93201589  0.32582762  0.57928605  1
  H+  H311  1  0.82437156  0.17287999  0.06543755  1
  H+  H312  1  0.07874805  0.15958505  0.78270596  1
  H+  H313  1  0.66939054  0.56730437  0.91562692  1
  H+  H314  1  0.66344368  0.09073998  0.93130708  1
  H+  H315  1  0.91432699  0.09039680  0.25303710  1
  H+  H316  1  0.31819344  0.38592273  0.39155606  1
  H+  H317  1  0.82063587  0.91175050  0.09639098  1
  H+  H318  1  0.16253068  0.58543526  0.93374220  1
  H+  H319  1  0.38894912  0.03922683  0.87861310  1
  H+  H320  1  0.08947011  0.41267845  0.10837551  1
  H+  H321  1  0.52789198  0.88105302  0.54684004  1
  H+  H322  1  0.86267903  0.40145097  0.33356177  1
  H+  H323  1  0.00355781  0.92252851  0.38190580  1
  H+  H324  1  0.06234975  0.64121727  0.06639611  1
  H+  H325  1  0.15539705  0.14766222  0.01139050  1
  H+  H326  1  0.57250667  0.66128754  0.40915512  1
  H+  H327  1  0.47276359  0.55056758  0.24604292  1
  H+  H328  1  0.58342939  0.67782259  0.08802185  1
  H+  H329  1  0.89447669  0.09770120  0.49980833  1
  H+  H330  1  0.93167693  0.85016331  0.90851746  1
  H+  H331  1  0.34826730  0.93364526  0.77822034  1
  H+  H332  1  0.35886779  0.18195340  0.06381359  1
  H+  H333  1  0.10321613  0.80681592  0.23733810  1
  H+  H334  1  0.58853024  0.41937563  0.05501961  1
  H+  H335  1  0.23334077  0.87454078  0.84456684  1
  H+  H336  1  0.86340191  0.11872476  0.99551119  1
  H+  H337  1  0.91730849  0.82245602  0.60420437  1
  H+  H338  1  0.06004434  0.30300279  0.88073101  1
  H+  H339  1  0.36186171  0.72781322  0.00139129  1
  H+  H340  1  0.30030923  0.89329767  0.50690311  1
  H+  H341  1  0.02039306  0.21453945  0.72382331  1
  H+  H342  1  0.13951539  0.85954279  0.67595884  1
  H+  H343  1  0.98949340  0.37417743  0.66557611  1
  H+  H344  1  0.07472967  0.92387875  0.42390067  1
  H+  H345  1  0.64746638  0.91806013  0.33060317  1
  H+  H346  1  0.23459571  0.33698615  0.18471110  1
  H+  H347  1  0.62369708  0.50971582  0.52340096  1
  H+  H348  1  0.90628435  0.58803493  0.22486992  1
  H+  H349  1  0.48785718  0.51939434  0.25293643  1
  H+  H350  1  0.62580773  0.47243214  0.99313918  1
  H+  H351  1  0.58592010  0.90788210  0.04818002  1
  H+  H352  1  0.08415353  0.92417594  0.06928865  1
  H+  H353  1  0.33379089  0.40941101  0.76652654  1
  H+  H354  1  0.08709157  0.67260997  0.77139185  1
  H+  H355  1  0.18189455  0.84547720  0.94342485  1
  H+  H356  1  0.17403560  0.59195935  0.60543417  1
  H+  H357  1  0.90087787  0.87790077  0.84202664  1
  H+  H358  1  0.38803020  0.10856245  -0.03204810  1
  H+  H359  1  0.81406540  0.88506054  0.40215449  1
  H+  H360  1  0.67630035  0.84156662  0.91963390  1
  H+  H361  1  0.59116427  0.92540789  0.76794947  1
  H+  H362  1  0.68526454  0.08825257  0.56450456  1
  H+  H363  1  0.41743591  0.83463916  0.93283564  1
  H+  H364  1  0.58065348  0.15611525  0.76202891  1
  H+  H365  1  0.67485397  0.33329911  0.92621675  1
  H+  H366  1  0.33623675  0.18078463  0.73630008  1
  H+  H367  1  0.40404135  0.07628960  0.62332623  1
  H+  H368  1  0.88893296  0.62430458  0.32459526  1
  H+  H369  1  0.84878691  0.17545714  0.39530830  1
  H+  H370  1  0.57927287  0.39776954  0.72594147  1
  H+  H371  1  0.12435034  0.40678088  0.82719013  1
  H+  H372  1  0.37423059  0.89334037  0.00691429  1
  H+  H373  1  0.39552719  0.92180690  0.48905118  1
  H+  H374  1  0.36672172  0.73345760  0.82921269  1
  H+  H375  1  0.31670065  0.90776515  0.34823969  1
  H+  H376  1  0.09376288  0.16049914  0.10256446  1
  H+  H377  1  0.18940707  0.08969349  0.94036365  1
  H+  H378  1  0.88105291  0.22463312  0.83577078  1
  H+  H379  1  0.17075844  0.34001791  0.94646707  1
  H+  H380  1  0.57760952  0.43388231  0.38506394  1
  H+  H381  1  0.66634035  0.60137061  0.21989351  1
  H+  H382  1  0.36547274  0.94256766  0.09345930  1
  H+  H383  1  0.08834150  0.92244781  0.77588261  1
  O2-  O384  1  0.08038494  0.15500713  0.14678251  1
  O2-  O385  1  0.09392305  0.16201567  0.48494366  1
  O2-  O386  1  0.08088177  0.15716303  0.82733440  1
  O2-  O387  1  0.08358299  0.40305825  0.15298023  1
  O2-  O388  1  0.09399258  0.42207887  0.48715861  1
  O2-  O389  1  0.09563669  0.43569093  0.80852805  1
  O2-  O390  1  0.06180486  0.64711398  0.13728718  1
  O2-  O391  1  0.10375210  0.67642679  0.49951732  1
  O2-  O392  1  0.08706480  0.67548947  0.81693838  1
  O2-  O393  1  0.07131078  0.92247782  0.14527204  1
  O2-  O394  1  0.11054324  0.93209544  0.50047666  1
  O2-  O395  1  0.09165342  0.92721647  0.82160409  1
  O2-  O396  1  0.33524505  0.18031182  0.14910765  1
  O2-  O397  1  0.33608654  0.18456514  0.50410877  1
  O2-  O398  1  0.33342567  0.22560304  0.80646545  1
  O2-  O399  1  0.34756757  0.38451259  0.19321637  1
  O2-  O400  1  0.32827179  0.42685860  0.47543099  1
  O2-  O401  1  0.33634706  0.41365688  0.81216720  1
  O2-  O402  1  0.30897093  0.59596423  0.12471826  1
  O2-  O403  1  0.32649438  0.65486981  0.48921482  1
  O2-  O404  1  0.33267118  0.67203484  0.81594492  1
  O2-  O405  1  0.37551431  0.95156422  0.13965191  1
  O2-  O406  1  0.36142413  0.92179630  0.52363057  1
  O2-  O407  1  0.35083076  0.93757606  0.82464570  1
  O2-  O408  1  0.59583390  0.17959007  0.15625116  1
  O2-  O409  1  0.61556563  0.17644143  0.46463729  1
  O2-  O410  1  0.57715666  0.15367856  0.80735736  1
  O2-  O411  1  0.56720386  0.42740597  0.13593155  1
  O2-  O412  1  0.58298548  0.42017981  0.50620108  1
  O2-  O413  1  0.56980182  0.39061975  0.79894455  1
  O2-  O414  1  0.57536781  0.66551358  0.13395267  1
  O2-  O415  1  0.58005832  0.65336402  0.49682584  1
  O2-  O416  1  0.57561101  0.66950585  0.77818386  1
  O2-  O417  1  0.55400769  0.85094901  0.11733379  1
  O2-  O418  1  0.57545915  0.89684075  0.51800238  1
  O2-  O419  1  0.59232219  0.92314737  0.81313772  1
  O2-  O420  1  0.82780354  0.16382234  0.14195418  1
  O2-  O421  1  0.85063640  0.15752649  0.47512154  1
  O2-  O422  1  0.84000898  0.16876384  0.81546564  1
  O2-  O423  1  0.85253172  0.42322793  0.12368050  1
  O2-  O424  1  0.83465763  0.44674241  0.46691943  1
  O2-  O425  1  0.82308460  0.42242379  0.80257302  1
  O2-  O426  1  0.82911696  0.66680141  0.12968181  1
  O2-  O427  1  0.83114958  0.67086494  0.47454088  1
  O2-  O428  1  0.82973915  0.65068510  0.81803941  1
  O2-  O429  1  0.81746284  0.91118665  0.14184077  1
  O2-  O430  1  0.81490696  0.89398124  0.48370840  1
  O2-  O431  1  0.84335730  0.91406740  0.81453945  1
  O2-  O432  1  0.16544983  0.08042292  0.19276224  1
  O2-  O433  1  0.17066550  0.08891689  0.53411880  1
  O2-  O434  1  0.18889919  0.09808385  0.86336625  1
  O2-  O435  1  0.17237617  0.31630630  0.19058417  1
  O2-  O436  1  0.17423539  0.33406200  0.52456117  1
  O2-  O437  1  0.12003573  0.31464988  0.87435808  1
  O2-  O438  1  0.17732546  0.61083758  0.19278157  1
  O2-  O439  1  0.17616344  0.58904706  0.52370122  1
  O2-  O440  1  0.16716193  0.59233753  0.85648848  1
  O2-  O441  1  0.08406400  0.79874557  0.19451016  1
  O2-  O442  1  0.21238754  0.86090760  0.46869333  1
  O2-  O443  1  0.17253735  0.84425781  0.85771805  1
  O2-  O444  1  0.42361744  0.10492338  0.19099951  1
  O2-  O445  1  0.39952080  0.08357628  0.54306701  1
  O2-  O446  1  0.39981685  0.03182608  0.83337701  1
  O2-  O447  1  0.40273907  0.34471949  0.19058560  1
  O2-  O448  1  0.43178612  0.34003700  0.57158072  1
  O2-  O449  1  0.39713476  0.30020240  0.84057427  1
  O2-  O450  1  0.40733310  0.52309182  0.12368322  1
  O2-  O451  1  0.41136472  0.58379810  0.53212890  1
  O2-  O452  1  0.42363020  0.59111048  0.83490377  1
  O2-  O453  1  0.51088235  0.94309475  0.19048208  1
  O2-  O454  1  0.42434694  0.83205340  0.59027095  1
  O2-  O455  1  0.42470117  0.84004758  0.85375562  1
  O2-  O456  1  0.66856317  0.10131058  0.19569444  1
  O2-  O457  1  0.68877295  0.08111007  0.51947137  1
  O2-  O458  1  0.66848156  0.08644218  0.85265643  1
  O2-  O459  1  0.65161553  0.34322755  0.17508176  1
  O2-  O460  1  0.67654617  0.34059084  0.51841803  1
  O2-  O461  1  0.66675434  0.33310030  0.84489754  1
  O2-  O462  1  0.66627792  0.59516752  0.17507041  1
  O2-  O463  1  0.65221716  0.57517731  0.53749513  1
  O2-  O464  1  0.65039205  0.55963015  0.83256842  1
  O2-  O465  1  0.65629186  0.82352960  0.18798109  1
  O2-  O466  1  0.65920354  0.81251712  0.53837347  1
  O2-  O467  1  0.67443839  0.83698404  0.83891639  1
  O2-  O468  1  0.91043806  0.08020335  0.17881003  1
  O2-  O469  1  0.92167749  0.06367788  0.51385738  1
  O2-  O470  1  0.91382934  0.07705764  0.85880024  1
  O2-  O471  1  0.91828127  0.32806978  0.17897178  1
  O2-  O472  1  0.93140694  0.31776124  0.53288799  1
  O2-  O473  1  0.96353192  0.30761702  0.87243270  1
  O2-  O474  1  0.90416242  0.58105801  0.17981182  1
  O2-  O475  1  0.92805280  0.60883445  0.52429243  1
  O2-  O476  1  0.92004522  0.57648910  0.85195369  1
  O2-  O477  1  0.90118668  0.82815983  0.17899808  1
  O2-  O478  1  0.90930155  0.82235853  0.52291110  1
  O2-  O479  1  0.93812955  0.85575547  0.86091112  1
  O2-  O480  1  0.15750329  0.08105817  0.32033776  1
  O2-  O481  1  0.15869375  0.07493923  0.65425434  1
  O2-  O482  1  0.18970709  0.08988807  0.98590323  1
  O2-  O483  1  0.15634695  0.31601659  0.30864589  1
  O2-  O484  1  0.17301911  0.33744609  0.64866106  1
  O2-  O485  1  0.18739829  0.35148196  0.99014398  1
  O2-  O486  1  0.16594288  0.57795331  0.31626325  1
  O2-  O487  1  0.17422060  0.59011699  0.65050465  1
  O2-  O488  1  0.16297813  0.58439008  0.97941762  1
  O2-  O489  1  0.12993575  0.83415104  0.31524865  1
  O2-  O490  1  0.16954389  0.82997099  0.66011277  1
  O2-  O491  1  0.18608915  0.84734999  0.98817893  1
  O2-  O492  1  0.43973682  0.07906601  0.30633669  1
  O2-  O493  1  0.41584727  0.07895834  0.66742646  1
  O2-  O494  1  0.37510763  0.05574520  0.94600068  1
  O2-  O495  1  0.42853909  0.34256524  0.30027300  1
  O2-  O496  1  0.42558520  0.33058111  0.63841482  1
  O2-  O497  1  0.42569345  0.35139782  0.97966580  1
  O2-  O498  1  0.46262240  0.69876561  0.30652743  1
  O2-  O499  1  0.41726377  0.58178040  0.65540454  1
  O2-  O500  1  0.42517228  0.60150676  0.96365913  1
  O2-  O501  1  0.46831219  0.85699968  0.29691560  1
  O2-  O502  1  0.42557784  0.83741031  0.65725955  1
  O2-  O503  1  0.41825422  0.83371644  0.97822404  1
  O2-  O504  1  0.68589691  0.11421362  0.31053608  1
  O2-  O505  1  0.67545351  0.08511232  0.64255711  1
  O2-  O506  1  0.66069877  0.08586044  0.97656483  1
  O2-  O507  1  0.67523202  0.35971986  0.30413134  1
  O2-  O508  1  0.67434569  0.32975900  0.64593043  1
  O2-  O509  1  0.67944644  0.33123040  0.97125852  1
  O2-  O510  1  0.66143760  0.60702742  0.30389948  1
  O2-  O511  1  0.65902284  0.57295447  0.65442293  1
  O2-  O512  1  0.67400385  0.56723970  0.96032366  1
  O2-  O513  1  0.67638667  0.87211114  0.31068016  1
  O2-  O514  1  0.67145143  0.82694855  0.66044223  1
  O2-  O515  1  0.67892054  0.84748895  0.96463350  1
  O2-  O516  1  0.91969140  0.09501591  0.29889016  1
  O2-  O517  1  0.89346058  0.05735774  0.64318366  1
  O2-  O518  1  0.89453313  0.08622186  0.98245262  1
  O2-  O519  1  0.91338824  0.34739569  0.30704189  1
  O2-  O520  1  0.92924177  0.34307731  0.64927092  1
  O2-  O521  1  0.92555316  0.33800141  0.98186452  1
  O2-  O522  1  0.91996366  0.59796337  0.30353445  1
  O2-  O523  1  0.92274404  0.58750311  0.65082719  1
  O2-  O524  1  0.92254289  0.57994604  0.97082047  1
  O2-  O525  1  0.88420727  0.79108443  0.30365793  1
  O2-  O526  1  0.91857910  0.82468801  0.64939418  1
  O2-  O527  1  0.92359116  0.84116730  0.97504787  1
  O2-  O528  1  0.12522682  0.18090465  0.02491743  1
  O2-  O529  1  0.06430298  0.15508542  0.33778454  1
  O2-  O530  1  0.04400145  0.18210871  0.70411092  1
  O2-  O531  1  0.08897042  0.42106935  0.02769613  1
  O2-  O532  1  0.06869395  0.37598550  0.36538475  1
  O2-  O533  1  0.09571923  0.42482321  0.68675102  1
  O2-  O534  1  0.06471082  0.64080085  0.01966072  1
  O2-  O535  1  0.08213477  0.67698062  0.34830122  1
  O2-  O536  1  0.09011201  0.66619598  0.69291143  1
  O2-  O537  1  0.09191262  0.92662298  0.02386198  1
  O2-  O538  1  0.05721742  0.92134218  0.38071756  1
  O2-  O539  1  0.07972266  0.91127514  0.69998423  1
  O2-  O540  1  0.35965196  0.18258544  0.01888536  1
  O2-  O541  1  0.30187652  0.19322141  0.37808076  1
  O2-  O542  1  0.33044730  0.15367063  0.69621667  1
  O2-  O543  1  0.36548684  0.44828942  0.01306232  1
  O2-  O544  1  0.30077234  0.34255530  0.35921768  1
  O2-  O545  1  0.33847161  0.41121197  0.68951470  1
  O2-  O546  1  0.32872765  0.66462084  0.01003719  1
  O2-  O547  1  0.32642017  0.66738270  0.37040154  1
  O2-  O548  1  0.33684031  0.66617544  0.69228483  1
  O2-  O549  1  0.34832510  0.92670854  0.02408687  1
  O2-  O550  1  0.28496231  0.93713223  0.35847864  1
  O2-  O551  1  0.33896973  0.91874378  0.70576714  1
  O2-  O552  1  0.57490594  0.14488632  -0.00467457  1
  O2-  O553  1  0.55888071  0.20685319  0.36110613  1
  O2-  O554  1  0.58850049  0.16105201  0.68293012  1
  O2-  O555  1  0.59333836  0.41260645  0.01073473  1
  O2-  O556  1  0.58353761  0.43586165  0.34090084  1
  O2-  O557  1  0.58600158  0.40651531  0.68010471  1
  O2-  O558  1  0.58578409  0.68933690  0.01807124  1
  O2-  O559  1  0.56345417  0.66156456  0.36516644  1
  O2-  O560  1  0.57558395  0.66097800  0.71069104  1
  O2-  O561  1  0.58867858  0.91958266  0.00395717  1
  O2-  O562  1  0.61173682  0.95239497  0.35007777  1
  O2-  O563  1  0.59153441  0.91929296  0.68749780  1
  O2-  O564  1  0.82475384  0.17475512  0.01973167  1
  O2-  O565  1  0.84950693  0.18464707  0.35048701  1
  O2-  O566  1  0.84005518  0.17975626  0.69619256  1
  O2-  O567  1  0.84216398  0.42132243  0.00644177  1
  O2-  O568  1  0.83429241  0.43389710  0.34811245  1
  O2-  O569  1  0.83143887  0.42436093  0.68959690  1
  O2-  O570  1  0.84525344  0.67640521  0.00569853  1
  O2-  O571  1  0.81459172  0.64290407  0.36246169  1
  O2-  O572  1  0.83780619  0.66459512  0.69038388  1
  O2-  O573  1  0.83164289  0.91439582  0.01744047  1
  O2-  O574  1  0.81698621  0.88957087  0.35716136  1
  O2-  O575  1  0.83989970  0.90632576  0.69132099  1
