# generated using pymatgen
data_H2O
_symmetry_space_group_name_H-M   'P 1'
_cell_length_a   17.99981683
_cell_length_b   17.99426725
_cell_length_c   22.00543617
_cell_angle_alpha   90.00631496
_cell_angle_beta   89.99992348
_cell_angle_gamma   119.98603766
_symmetry_Int_Tables_number   1
_chemical_formula_structural   H2O
_chemical_formula_sum   'H384 O192'
_cell_volume   6173.39330445
_cell_formula_units_Z   192
loop_
 _symmetry_equiv_pos_site_id
 _symmetry_equiv_pos_as_xyz
  1  'x, y, z'
loop_
 _atom_type_symbol
 _atom_type_oxidation_number
  H+  1.0
  O2-  -2.0
loop_
 _atom_site_type_symbol
 _atom_site_label
 _atom_site_symmetry_multiplicity
 _atom_site_fract_x
 _atom_site_fract_y
 _atom_site_fract_z
 _atom_site_occupancy
  H+  H0  1  0.59722440  0.96172672  0.82859511  1
  H+  H1  1  0.61099194  0.97865483  0.01618141  1
  H+  H2  1  0.11289791  0.22677075  0.67980199  1
  H+  H3  1  0.78570921  0.14479464  1.01391789  1
  H+  H4  1  0.35647550  0.39226631  1.00562815  1
  H+  H5  1  0.34003756  0.72618176  0.83259417  1
  H+  H6  1  0.58993239  0.70211655  0.82960324  1
  H+  H7  1  0.66264577  0.25879959  0.14156402  1
  H+  H8  1  0.34728531  0.37702351  0.49246412  1
  H+  H9  1  0.74898636  0.37430585  0.31169813  1
  H+  H10  1  0.67181003  0.07455814  0.55877359  1
  H+  H11  1  0.34894855  0.22491236  0.01343316  1
  H+  H12  1  0.34385540  0.13405430  0.01406983  1
  H+  H13  1  0.23007902  0.37528673  0.66979027  1
  H+  H14  1  0.25763118  0.88262799  0.01782263  1
  H+  H15  1  0.35638861  0.63758367  0.00521112  1
  H+  H16  1  0.60699855  0.87835200  0.67139197  1
  H+  H17  1  0.38021492  0.52503366  0.99101466  1
  H+  H18  1  0.13503300  0.15351156  0.34368213  1
  H+  H19  1  0.62732561  0.51848985  -0.01742998  1
  H+  H20  1  0.68601136  0.36780717  0.58002191  1
  H+  H21  1  0.21923222  0.37273519  0.32796853  1
  H+  H22  1  0.67277185  0.82290514  0.80004124  1
  H+  H23  1  0.26927907  0.39410172  0.00991064  1
  H+  H24  1  0.87118244  0.38512972  1.01122321  1
  H+  H25  1  0.73309729  0.45975627  0.60837345  1
  H+  H26  1  0.72330832  0.77171949  0.94885149  1
  H+  H27  1  0.61813000  0.64748135  0.49256110  1
  H+  H28  1  0.16025849  0.58451046  0.94004780  1
  H+  H29  1  0.89807926  0.47197574  0.46864312  1
  H+  H30  1  0.35643674  0.72638204  0.00823417  1
  H+  H31  1  0.47041992  0.85219937  0.65235710  1
  H+  H32  1  0.81521218  0.89386002  0.16791847  1
  H+  H33  1  -0.01615506  0.36839790  -0.00342486  1
  H+  H34  1  0.21210222  0.86041869  0.84815189  1
  H+  H35  1  0.73355658  0.10121991  0.17930738  1
  H+  H36  1  0.89043810  0.12159152  0.17338606  1
  H+  H37  1  0.87143757  -0.02155477  0.34976307  1
  H+  H38  1  0.77053761  0.13889359  0.67861625  1
  H+  H39  1  0.10333588  0.13485869  0.83430750  1
  H+  H40  1  0.58514491  0.26404692  0.88757376  1
  H+  H41  1  0.14069434  0.76025280  0.32984317  1
  H+  H42  1  0.97543037  0.61832249  0.32918991  1
  H+  H43  1  0.01494482  0.63984353  0.00610174  1
  H+  H44  1  0.50352518  0.87615651  0.83069884  1
  H+  H45  1  0.75408459  0.31701661  0.85756246  1
  H+  H46  1  0.89897080  0.66290921  0.50861051  1
  H+  H47  1  0.61331804  0.63586402  0.66608352  1
  H+  H48  1  0.98672569  0.36615563  0.83817763  1
  H+  H49  1  0.51316683  0.63334516  0.00506493  1
  H+  H50  1  0.12073542  0.23000005  0.16169765  1
  H+  H51  1  0.52459109  0.60188704  0.84040967  1
  H+  H52  1  0.37579561  0.63873845  0.16111764  1
  H+  H53  1  0.39417829  0.77197581  0.17792643  1
  H+  H54  1  0.12094928  0.40439986  0.80302745  1
  H+  H55  1  0.62669680  0.64183901  0.16482134  1
  H+  H56  1  0.48252406  0.86464895  0.32770727  1
  H+  H57  1  0.25959363  0.61031991  0.56541304  1
  H+  H58  1  0.27151058  0.13291555  0.49178866  1
  H+  H59  1  0.88407242  0.86999813  0.84564929  1
  H+  H60  1  0.66332422  0.34093833  0.96950602  1
  H+  H61  1  0.47816730  0.37373504  0.83679548  1
  H+  H62  1  0.10686993  -0.00177878  0.84143749  1
  H+  H63  1  0.44720242  0.10302308  0.99647909  1
  H+  H64  1  0.51483512  0.60731774  0.16186861  1
  H+  H65  1  0.73746919  0.34300624  0.84202478  1
  H+  H66  1  0.36887552  0.52078022  0.82884617  1
  H+  H67  1  0.56217549  0.44879823  0.66576755  1
  H+  H68  1  0.60437696  0.88791495  1.00792293  1
  H+  H69  1  0.60430252  0.35768148  0.20550625  1
  H+  H70  1  0.03480322  0.89678828  0.49775196  1
  H+  H71  1  0.07053640  0.67109396  0.09999626  1
  H+  H72  1  0.64501901  0.12374367  0.14635984  1
  H+  H73  1  0.33169768  -0.01126677  0.18286689  1
  H+  H74  1  0.67115183  0.58195048  0.89739510  1
  H+  H75  1  0.36527345  0.48423790  0.67222294  1
  H+  H76  1  0.45902903  0.36075721  0.98891482  1
  H+  H77  1  0.89475448  1.03138209  -0.01148942  1
  H+  H78  1  0.05827667  0.62648263  0.40127126  1
  H+  H79  1  0.12697005  0.11058838  1.00728692  1
  H+  H80  1  0.59889948  0.39109211  0.01803445  1
  H+  H81  1  0.37850854  0.85308609  0.49922352  1
  H+  H82  1  0.03290326  0.56123262  0.50194040  1
  H+  H83  1  0.87935219  0.37382216  0.36934160  1
  H+  H84  1  0.33409842  0.11986819  0.16913075  1
  H+  H85  1  -0.02285026  0.60502654  0.17264161  1
  H+  H86  1  0.50181966  0.11756863  0.86806989  1
  H+  H87  1  0.97476202  0.33901872  0.50586961  1
  H+  H88  1  0.97878430  0.60788903  0.49295762  1
  H+  H89  1  0.34111108  0.96793093  0.83564357  1
  H+  H90  1  0.72589082  0.12071745  0.33108433  1
  H+  H91  1  0.79053272  0.88806356  0.00538951  1
  H+  H92  1  0.63441433  0.01321737  0.65687125  1
  H+  H93  1  0.64496465  0.27134626  0.50285793  1
  H+  H94  1  0.78197193  0.65555373  0.66871552  1
  H+  H95  1  0.87918419  0.89221548  0.01487878  1
  H+  H96  1  0.38360178  0.12539017  0.33481326  1
  H+  H97  1  0.38146620  0.27003045  0.17668617  1
  H+  H98  1  0.88484646  0.11932965  0.83818247  1
  H+  H99  1  0.11499354  0.37745858  0.49936722  1
  H+  H100  1  0.88900094  0.78605833  0.66547138  1
  H+  H101  1  0.02163063  0.89358765  0.67494369  1
  H+  H102  1  0.23336699  0.61253627  0.33138301  1
  H+  H103  1  0.10464033  0.16391710  0.07302642  1
  H+  H104  1  0.27024416  0.86259382  0.16371252  1
  H+  H105  1  0.10668385  0.72882665  0.67439238  1
  H+  H106  1  0.73591011  0.35888351  0.49577646  1
  H+  H107  1  0.05969745  0.74952305  0.52116586  1
  H+  H108  1  0.48646373  0.15193917  0.15227744  1
  H+  H109  1  0.00569770  0.10955825  0.32038088  1
  H+  H110  1  0.48009012  0.10827865  0.15999191  1
  H+  H111  1  0.23610939  0.59979849  0.17976918  1
  H+  H112  1  0.14313564  0.36142685  0.17307015  1
  H+  H113  1  0.64118094  0.11025633  0.50349732  1
  H+  H114  1  0.57347550  0.38527729  0.31060885  1
  H+  H115  1  0.85270207  0.24238419  0.34495673  1
  H+  H116  1  0.39051516  0.51955820  0.17539480  1
  H+  H117  1  0.97556201  0.70189785  0.89486414  1
  H+  H118  1  0.02897731  0.14271489  0.15572697  1
  H+  H119  1  0.11243904  0.62440770  0.34461757  1
  H+  H120  1  0.05300560  0.89217330  0.15291854  1
  H+  H121  1  0.60762870  0.13052303  0.34880830  1
  H+  H122  1  0.45430895  0.33989404  0.65621230  1
  H+  H123  1  0.43533300  0.61887254  0.81413278  1
  H+  H124  1  0.38451512  0.11308537  0.50007243  1
  H+  H125  1  0.24654249  0.12496215  0.32585097  1
  H+  H126  1  0.90941483  0.38068736  0.83659466  1
  H+  H127  1  0.88992922  0.62370208  0.66030446  1
  H+  H128  1  0.37409692  0.10840721  0.84484572  1
  H+  H129  1  0.87610513  0.77623201  0.84148689  1
  H+  H130  1  0.86927973  0.22417225  0.16687051  1
  H+  H131  1  0.13379528  -0.01552457  0.15578743  1
  H+  H132  1  0.51449018  0.87892813  0.48873517  1
  H+  H133  1  0.39192321  0.86274960  0.32709828  1
  H+  H134  1  0.10342867  0.48864065  0.52485626  1
  H+  H135  1  0.13074255  0.36261597  1.00261700  1
  H+  H136  1  0.09731984  0.87604030  0.83050910  1
  H+  H137  1  0.62618940  0.85814531  0.51566875  1
  H+  H138  1  0.60725465  0.71706607  0.00736242  1
  H+  H139  1  0.78321756  0.90649928  0.83884215  1
  H+  H140  1  0.02034221  0.39871689  0.34993728  1
  H+  H141  1  0.34132418  0.38007358  0.33962219  1
  H+  H142  1  0.86119417  0.63662114  0.33857649  1
  H+  H143  1  0.19819986  0.07680383  0.85464719  1
  H+  H144  1  0.37313663  0.85915001  0.99653306  1
  H+  H145  1  0.35273397  0.71631803  0.66717733  1
  H+  H146  1  0.02371385  0.39053169  0.66502581  1
  H+  H147  1  0.37695931  0.60659732  0.66392015  1
  H+  H148  1  0.82400757  0.64524891  0.09415730  1
  H+  H149  1  0.89485150  0.36641217  0.65323683  1
  H+  H150  1  0.87951292  1.02807412  0.68366720  1
  H+  H151  1  0.13581860  0.28011456  0.32914543  1
  H+  H152  1  0.37881052  -0.01614252  0.67906754  1
  H+  H153  1  0.86846195  0.21098096  0.49309089  1
  H+  H154  1  0.64160295  0.01266770  0.17830575  1
  H+  H155  1  0.85845406  0.88549969  0.35228730  1
  H+  H156  1  0.79690943  0.37903805  0.16257123  1
  H+  H157  1  0.35796953  0.26314289  0.32458187  1
  H+  H158  1  0.10967788  -0.00660348  0.33863327  1
  H+  H159  1  0.35798718  0.38761378  0.67066943  1
  H+  H160  1  0.85931879  0.72552126  0.34125434  1
  H+  H161  1  0.37329938  0.64065207  0.34370524  1
  H+  H162  1  0.88286181  0.87263502  0.66353810  1
  H+  H163  1  0.90110637  0.35762703  0.18283512  1
  H+  H164  1  0.36352741  -0.01758564  0.48975965  1
  H+  H165  1  0.22550744  0.35961100  0.51061956  1
  H+  H166  1  0.63043932  0.83893064  0.16722168  1
  H+  H167  1  0.36322524  0.25799182  0.65498643  1
  H+  H168  1  0.63054361  0.39625929  0.47917791  1
  H+  H169  1  0.60877768  0.20943431  0.60719025  1
  H+  H170  1  0.11362675  0.13714807  0.49665420  1
  H+  H171  1  0.92923382  0.08472981  0.22785084  1
  H+  H172  1  0.27574673  0.39235423  0.81166919  1
  H+  H173  1  0.60160811  0.35397258  0.86077774  1
  H+  H174  1  0.63704443  0.52007734  0.50073994  1
  H+  H175  1  0.64765032  0.08694804  0.79024272  1
  H+  H176  1  0.36938810  0.72575082  0.33860359  1
  H+  H177  1  0.21900494  0.61815918  0.83600927  1
  H+  H178  1  0.79537068  0.40742209  0.66519962  1
  H+  H179  1  0.59728227  0.12897730  0.86448623  1
  H+  H180  1  0.97987086  0.84702931  0.99481935  1
  H+  H181  1  0.14608590  0.76155472  0.49628436  1
  H+  H182  1  0.36793585  0.85784145  0.84362734  1
  H+  H183  1  1.01744361  0.14070138  0.83072901  1
  H+  H184  1  0.38560201  0.85680436  0.65588185  1
  H+  H185  1  0.66616466  0.11361710  1.05323885  1
  H+  H186  1  0.13560048  0.11389377  0.66432101  1
  H+  H187  1  0.36122284  0.01196174  1.00217550  1
  H+  H188  1  0.71876236  0.33400463  0.24785788  1
  H+  H189  1  0.60834095  0.84469147  0.83280551  1
  H+  H190  1  0.52626964  0.37298944  0.20990076  1
  H+  H191  1  0.85563761  0.71773473  1.00532669  1
  H+  H192  1  0.46848650  0.11198982  0.64351383  1
  H+  H193  1  0.22943823  0.84875566  0.32579708  1
  H+  H194  1  0.46742175  0.60826727  0.65800938  1
  H+  H195  1  0.10402206  0.72009755  0.16312529  1
  H+  H196  1  0.26389614  0.12588299  0.67034123  1
  H+  H197  1  0.48957714  0.36549577  0.34250479  1
  H+  H198  1  0.88355694  0.46983721  0.16891267  1
  H+  H199  1  0.87246161  0.59780598  1.00189495  1
  H+  H200  1  0.52730454  0.13839237  0.49784198  1
  H+  H201  1  0.59353515  0.21981300  0.01250967  1
  H+  H202  1  0.94650336  0.78118715  0.53568463  1
  H+  H203  1  0.28737719  0.17128431  0.80829621  1
  H+  H204  1  0.76264046  0.63090751  1.00228462  1
  H+  H205  1  0.38805692  0.37194953  0.83338406  1
  H+  H206  1  0.52520558  0.88284208  0.16855518  1
  H+  H207  1  0.77634051  0.64003919  0.82642011  1
  H+  H208  1  0.87992190  0.69448951  0.15073805  1
  H+  H209  1  0.88530144  0.10728181  0.49771868  1
  H+  H210  1  0.13185114  0.21633908  1.00756263  1
  H+  H211  1  0.56267219  0.15832680  -0.04422301  1
  H+  H212  1  0.83728810  0.72996771  0.47922088  1
  H+  H213  1  0.22542621  0.11627850  0.17388675  1
  H+  H214  1  0.67041888  0.34418735  0.11804888  1
  H+  H215  1  0.88606938  0.27418198  0.66469518  1
  H+  H216  1  0.10771002  0.48180289  0.64854796  1
  H+  H217  1  -0.01917292  0.62621336  0.65984226  1
  H+  H218  1  0.61183549  0.39649250  0.65772722  1
  H+  H219  1  0.62519787  0.60610899  -0.00895099  1
  H+  H220  1  0.10931763  0.65280570  1.00434530  1
  H+  H221  1  0.73492974  0.36357717  1.01956272  1
  H+  H222  1  0.32915841  0.68666199  0.52619357  1
  H+  H223  1  0.11549209  0.72672748  0.83516219  1
  H+  H224  1  0.11341446  0.22613331  0.49894813  1
  H+  H225  1  0.60465941  0.96858003  0.48971731  1
  H+  H226  1  0.27619242  0.38867273  0.16388492  1
  H+  H227  1  0.93599971  0.64433332  0.57270802  1
  H+  H228  1  0.86694007  0.00558430  0.15983333  1
  H+  H229  1  0.32124393  0.91243067  0.77535853  1
  H+  H230  1  0.87465724  0.23369457  1.00822323  1
  H+  H231  1  0.37336922  0.26941936  0.50123300  1
  H+  H232  1  0.11114516  0.78829645  1.00419946  1
  H+  H233  1  0.82759440  0.17491204  0.77436189  1
  H+  H234  1  0.03568266  0.38260414  0.16530943  1
  H+  H235  1  0.16392687  0.33470108  0.75197865  1
  H+  H236  1  0.13895550  0.37638423  0.66594797  1
  H+  H237  1  0.89207276  0.11839205  0.99017067  1
  H+  H238  1  0.58139412  0.13481219  0.09919312  1
  H+  H239  1  0.38765902  0.36265392  0.17327439  1
  H+  H240  1  0.11605970  0.88893332  0.48589784  1
  H+  H241  1  1.02554647  0.64365416  0.83638185  1
  H+  H242  1  0.15480766  0.86086616  0.17921373  1
  H+  H243  1  0.00688811  0.87519110  0.82864559  1
  H+  H244  1  0.87846298  0.58204102  0.17189656  1
  H+  H245  1  0.53109110  0.64618316  0.48940349  1
  H+  H246  1  0.61513396  0.97617259  0.34073759  1
  H+  H247  1  0.12671885  0.47265962  0.16656690  1
  H+  H248  1  0.76264078  0.88442150  0.67411958  1
  H+  H249  1  0.72166540  0.62212905  0.32777089  1
  H+  H250  1  0.61963531  0.47794105  0.82207154  1
  H+  H251  1  0.73943384  0.64290061  0.17801222  1
  H+  H252  1  0.57525773  0.37958733  -0.04918995  1
  H+  H253  1  0.60572450  0.20673799  0.67860406  1
  H+  H254  1  0.64419219  0.60893462  0.83607647  1
  H+  H255  1  0.62585361  0.60886420  0.32381550  1
  H+  H256  1  0.11391749  0.48063848  0.01373838  1
  H+  H257  1  0.63359630  0.10085469  0.64529394  1
  H+  H258  1  -0.03140651  0.87093707  0.32756912  1
  H+  H259  1  0.15299778  0.83897728  0.90790266  1
  H+  H260  1  0.27339644  0.89652153  0.49065966  1
  H+  H261  1  0.86128888  0.23265988  0.83427890  1
  H+  H262  1  0.59378200  0.74810205  0.32134565  1
  H+  H263  1  0.86974327  0.81705418  0.17475957  1
  H+  H264  1  0.92380312  0.60660174  0.91569950  1
  H+  H265  1  0.67209544  0.54423395  0.65285556  1
  H+  H266  1  0.51695381  0.12514012  0.35598838  1
  H+  H267  1  0.12635210  0.51864306  0.82665630  1
  H+  H268  1  0.98312199  0.11638338  0.50183679  1
  H+  H269  1  0.36643571  0.87752399  0.16271512  1
  H+  H270  1  0.22161112  0.61900141  0.99801587  1
  H+  H271  1  0.12181085  0.61274219  0.83775161  1
  H+  H272  1  0.85693516  0.46714287  0.81797750  1
  H+  H273  1  0.37980569  0.24419162  0.82044005  1
  H+  H274  1  0.36473079  0.97429222  0.33517147  1
  H+  H275  1  0.88262064  0.51298041  1.00213012  1
  H+  H276  1  0.89106030  0.90231541  0.49730881  1
  H+  H277  1  0.37640066  0.10488191  0.65353942  1
  H+  H278  1  0.17056655  0.81738257  0.23859875  1
  H+  H279  1  0.77744756  0.12290003  0.48771690  1
  H+  H280  1  0.87207477  0.65722164  0.83104554  1
  H+  H281  1  0.13228620  0.86135017  0.65793751  1
  H+  H282  1  0.89436455  0.01177539  0.50138394  1
  H+  H283  1  0.14337146  0.52383388  0.33491084  1
  H+  H284  1  0.39459076  0.52116307  0.50191599  1
  H+  H285  1  0.87068276  -0.00788258  0.82891249  1
  H+  H286  1  0.14043527  1.02729163  0.50825466  1
  H+  H287  1  0.10249636  0.38548702  0.34245935  1
  H+  H288  1  0.42205210  0.83231519  0.23749329  1
  H+  H289  1  0.39876458  0.33198475  0.93205088  1
  H+  H290  1  0.88329829  0.49384582  0.66024560  1
  H+  H291  1  0.61783858  0.84492766  0.32052079  1
  H+  H292  1  0.40860569  0.82499059  0.55802175  1
  H+  H293  1  0.43498992  0.96227248  0.72104665  1
  H+  H294  1  0.88242986  0.44689943  0.75468371  1
  H+  H295  1  0.16777006  0.33006831  0.57235842  1
  H+  H296  1  0.39288674  0.59908365  0.53097257  1
  H+  H297  1  0.91649988  0.58545227  0.27058803  1
  H+  H298  1  0.13332804  0.10870186  0.17453165  1
  H+  H299  1  0.46464763  0.86389665  0.99483734  1
  H+  H300  1  0.33337507  0.42209367  0.10318419  1
  H+  H301  1  0.18326692  0.09649086  0.26826666  1
  H+  H302  1  0.63187692  0.77246124  0.51548640  1
  H+  H303  1  0.43249371  0.58392416  0.23246830  1
  H+  H304  1  0.10860569  0.89945544  0.06090554  1
  H+  H305  1  0.34069539  0.03824302  0.24491695  1
  H+  H306  1  0.67398378  0.58885429  0.58864813  1
  H+  H307  1  0.83451672  0.17134921  0.39402797  1
  H+  H308  1  0.32655943  0.16634584  0.10701431  1
  H+  H309  1  0.16893292  0.33285632  0.23479449  1
  H+  H310  1  0.09250754  0.17289107  0.40176238  1
  H+  H311  1  0.58347336  0.41230767  0.76517947  1
  H+  H312  1  0.67742980  0.81684110  0.92051721  1
  H+  H313  1  0.12653909  0.00002752  0.99735140  1
  H+  H314  1  0.84338912  0.17039811  0.10409392  1
  H+  H315  1  0.58691894  0.16512563  0.43924874  1
  H+  H316  1  0.38786646  0.32470971  0.26574834  1
  H+  H317  1  0.68865150  0.63633675  0.24261085  1
  H+  H318  1  0.57852534  0.91169992  0.10701767  1
  H+  H319  1  0.15250649  0.82160840  0.60055592  1
  H+  H320  1  0.92696897  0.34109377  0.93531738  1
  H+  H321  1  0.08754603  0.41909555  0.07276957  1
  H+  H322  1  0.91532534  0.31008702  0.56430362  1
  H+  H323  1  0.85102794  0.92603061  0.43859175  1
  H+  H324  1  0.15734074  0.33276609  0.94300740  1
  H+  H325  1  0.31463136  0.41008685  0.43559422  1
  H+  H326  1  0.33873707  0.66612225  0.10445936  1
  H+  H327  1  0.82483566  0.66612348  0.42416420  1
  H+  H328  1  0.72228510  0.61126825  0.50175533  1
  H+  H329  1  0.58222043  0.91206011  0.39780956  1
  H+  H330  1  0.64396546  0.10881145  0.98611940  1
  H+  H331  1  0.17593077  0.56968857  0.23880975  1
  H+  H332  1  0.13262900  0.02263378  0.66400274  1
  H+  H333  1  0.36089232  0.47622695  0.34396357  1
  H+  H334  1  0.34318894  0.42722321  0.75904848  1
  H+  H335  1  -0.02940359  0.11567132  0.68556032  1
  H+  H336  1  0.33465954  0.63316990  0.83014531  1
  H+  H337  1  0.57552626  0.64224565  0.09790141  1
  H+  H338  1  0.07588409  0.93165572  0.39585388  1
  H+  H339  1  0.31769916  0.66532182  0.72874357  1
  H+  H340  1  0.92838078  0.32274023  0.24084874  1
  H+  H341  1  0.38251794  0.06844000  0.90895161  1
  H+  H342  1  0.89212263  0.83419611  0.27667067  1
  H+  H343  1  0.60094030  0.21193957  0.76378091  1
  H+  H344  1  0.61176509  0.47584658  0.12538152  1
  H+  H345  1  0.93103162  0.84247496  0.57798842  1
  H+  H346  1  0.85955509  0.14203850  0.69246566  1
  H+  H347  1  0.65706919  0.83175166  0.60179381  1
  H+  H348  1  0.13532999  0.05427121  0.93611002  1
  H+  H349  1  0.57024922  0.90540154  0.72881695  1
  H+  H350  1  0.41761061  0.22411720  0.36690393  1
  H+  H351  1  0.62302531  0.18553849  0.76219752  1
  H+  H352  1  0.07949291  0.91481217  0.73379439  1
  H+  H353  1  0.82264590  0.91315778  0.73404715  1
  H+  H354  1  0.44943085  0.11265205  0.28175482  1
  H+  H355  1  0.98036643  0.02528276  0.28503360  1
  H+  H356  1  0.58823592  0.41644887  0.42319965  1
  H+  H357  1  0.63136104  0.77297474  0.66341158  1
  H+  H358  1  0.64450020  0.79997182  0.22550437  1
  H+  H359  1  0.32324302  0.90412837  0.07325849  1
  H+  H360  1  0.08739190  0.44072637  0.74979887  1
  H+  H361  1  0.07337437  0.66862828  0.73322966  1
  H+  H362  1  0.83544697  0.67720154  0.73172663  1
  H+  H363  1  0.40761857  0.58421527  0.93104480  1
  H+  H364  1  0.33617092  0.91739259  0.39510230  1
  H+  H365  1  0.85286115  0.41462044  0.07601755  1
  H+  H366  1  0.77784071  0.76664668  0.20392493  1
  H+  H367  1  0.40756951  0.07699963  0.55938684  1
  H+  H368  1  0.33401233  0.16046048  0.43194695  1
  H+  H369  1  0.66459753  0.08350847  0.27340175  1
  H+  H370  1  0.72194627  0.11306126  0.83568287  1
  H+  H371  1  0.40055099  0.82874440  0.90216051  1
  H+  H372  1  0.33559217  0.16283278  0.72430444  1
  H+  H373  1  0.13343509  0.27801270  0.81110501  1
  H+  H374  1  0.62094284  0.50199971  0.09683393  1
  H+  H375  1  0.08555738  0.16610593  0.73817724  1
  H+  H376  1  0.83384550  0.93457243  0.09756488  1
  H+  H377  1  0.57711486  0.64989791  0.72824162  1
  H+  H378  1  0.16699937  0.08555657  0.56841162  1
  H+  H379  1  0.39419978  0.32547191  0.56092769  1
  H+  H380  1  0.08566515  0.41199921  0.44052783  1
  H+  H381  1  0.91786190  0.83167628  0.93827296  1
  H+  H382  1  0.87741590  0.37350943  0.30015293  1
  H+  H383  1  0.91460681  0.08858047  0.89810358  1
  O2-  O384  1  0.09046225  0.17002460  0.14386669  1
  O2-  O385  1  0.08319965  0.16694965  0.48044125  1
  O2-  O386  1  0.07934873  0.16909119  0.81705027  1
  O2-  O387  1  0.09373551  0.41215918  0.14680085  1
  O2-  O388  1  0.08178446  0.40547088  0.48574799  1
  O2-  O389  1  0.09105464  0.43810049  0.79630772  1
  O2-  O390  1  0.06542212  0.66294139  0.14434462  1
  O2-  O391  1  -0.00577877  0.56798822  0.47303674  1
  O2-  O392  1  0.08434850  0.66643797  0.81932182  1
  O2-  O393  1  0.11131735  0.92521283  0.13745103  1
  O2-  O394  1  0.09224618  0.92675143  0.47743187  1
  O2-  O395  1  0.06753917  0.90568010  0.81321678  1
  O2-  O396  1  0.32494202  0.16707792  0.15300850  1
  O2-  O397  1  0.33230191  0.16081247  0.47797646  1
  O2-  O398  1  0.34619246  0.18280944  0.80494849  1
  O2-  O399  1  0.33679888  0.42111031  0.14836335  1
  O2-  O400  1  0.31519060  0.40817146  0.48076141  1
  O2-  O401  1  0.33925883  0.42706319  0.80600331  1
  O2-  O402  1  0.34342219  0.66784801  0.14947775  1
  O2-  O403  1  0.30849764  0.62701528  0.53772699  1
  O2-  O404  1  0.30542214  0.66523671  0.81687595  1
  O2-  O405  1  0.32938164  0.89985292  0.14598271  1
  O2-  O406  1  0.33156585  0.92071998  0.47510927  1
  O2-  O407  1  0.31176524  0.90718317  0.82021076  1
  O2-  O408  1  0.64125811  0.15991128  0.11167430  1
  O2-  O409  1  0.58899575  0.16780618  0.48596262  1
  O2-  O410  1  0.56300078  0.15364585  0.88096587  1
  O2-  O411  1  0.58555305  0.39456057  0.22464089  1
  O2-  O412  1  0.60720320  0.43263392  0.46596802  1
  O2-  O413  1  0.58196128  0.41665747  0.81003223  1
  O2-  O414  1  0.56944270  0.61566619  0.13908324  1
  O2-  O415  1  0.59341647  0.68247520  0.47886594  1
  O2-  O416  1  0.57251909  0.64286221  0.81524740  1
  O2-  O417  1  0.58543545  0.91380437  0.15156554  1
  O2-  O418  1  0.57568254  0.90818859  0.47508760  1
  O2-  O419  1  0.56409063  0.90055045  0.81587037  1
  O2-  O420  1  0.83915574  0.16446659  0.14953452  1
  O2-  O421  1  0.83834855  0.15051208  0.47410521  1
  O2-  O422  1  0.82771325  0.17174998  0.82030935  1
  O2-  O423  1  0.85842428  0.40910802  0.15147991  1
  O2-  O424  1  0.84553226  0.41305999  0.47029577  1
  O2-  O425  1  0.90055231  0.45874589  0.79817420  1
  O2-  O426  1  0.82767594  0.64192486  0.13967099  1
  O2-  O427  1  0.82295271  0.67080024  0.47105063  1
  O2-  O428  1  0.83618407  0.67790318  0.81086645  1
  O2-  O429  1  0.82178151  0.94341391  0.14134415  1
  O2-  O430  1  0.86000810  0.93158971  0.48518547  1
  O2-  O431  1  0.83824547  0.92800960  0.81828397  1
  O2-  O432  1  0.16425431  0.07925718  0.18923206  1
  O2-  O433  1  0.16788591  0.08790988  0.52303700  1
  O2-  O434  1  0.13775401  0.05833192  0.86045433  1
  O2-  O435  1  0.17246124  0.33001739  0.18922804  1
  O2-  O436  1  0.16399484  0.32573883  0.52775895  1
  O2-  O437  1  0.16542363  0.33926174  0.79703277  1
  O2-  O438  1  0.17670723  0.56164333  0.19397273  1
  O2-  O439  1  0.10263929  0.53984789  0.54414331  1
  O2-  O440  1  0.15345747  0.57937193  0.84990876  1
  O2-  O441  1  0.17224446  0.81931950  0.19185645  1
  O2-  O442  1  0.12160890  0.79325322  0.51565198  1
  O2-  O443  1  0.15114330  0.82894346  0.86347913  1
  O2-  O444  1  0.31800368  0.02979059  0.20304155  1
  O2-  O445  1  0.41515691  0.08177964  0.51446744  1
  O2-  O446  1  0.39125332  0.06908445  0.86336115  1
  O2-  O447  1  0.41218453  0.33008806  0.19311034  1
  O2-  O448  1  0.39496694  0.32873740  0.51618068  1
  O2-  O449  1  0.41678415  0.34067806  0.84993014  1
  O2-  O450  1  0.42846415  0.58181253  0.18731346  1
  O2-  O451  1  0.43274006  0.57919732  0.51814631  1
  O2-  O452  1  0.39320436  0.58262832  0.84465485  1
  O2-  O453  1  0.42352388  0.83318685  0.19139114  1
  O2-  O454  1  0.40750190  0.82173299  0.51286549  1
  O2-  O455  1  0.39870421  0.82670782  0.85640987  1
  O2-  O456  1  0.67225013  0.07489659  0.19149901  1
  O2-  O457  1  0.66969737  0.07627203  0.51374032  1
  O2-  O458  1  0.65701717  0.07825942  0.83275563  1
  O2-  O459  1  0.67675658  0.31759032  0.15492271  1
  O2-  O460  1  0.67884497  0.33352263  0.51550780  1
  O2-  O461  1  0.60135473  0.32361544  0.89864175  1
  O2-  O462  1  0.70480934  0.66433517  0.19870123  1
  O2-  O463  1  0.66485410  0.57878970  0.52140247  1
  O2-  O464  1  0.67585239  0.58085966  0.85191445  1
  O2-  O465  1  0.65157440  0.80065320  0.18046257  1
  O2-  O466  1  0.65484135  0.83021792  0.53632029  1
  O2-  O467  1  0.64158044  0.81272949  0.83838297  1
  O2-  O468  1  0.92107970  0.08761956  0.18278547  1
  O2-  O469  1  0.92101154  0.08084506  0.51526151  1
  O2-  O470  1  0.91587741  0.08899375  0.85155399  1
  O2-  O471  1  0.92857266  0.32290543  0.19640421  1
  O2-  O472  1  0.91473085  0.30165555  0.51979083  1
  O2-  O473  1  0.92848886  0.34205075  0.85544392  1
  O2-  O474  1  0.91706890  0.56434650  0.19032225  1
  O2-  O475  1  0.95209137  0.67698269  0.53273159  1
  O2-  O476  1  0.94285714  0.64404336  0.87803688  1
  O2-  O477  1  0.83272228  0.82490956  0.20317068  1
  O2-  O478  1  0.94000508  0.83253134  0.53384560  1
  O2-  O479  1  0.90886490  0.83458747  0.86100539  1
  O2-  O480  1  0.18633376  0.10258557  0.31353003  1
  O2-  O481  1  0.16520086  0.08322573  0.64824505  1
  O2-  O482  1  0.14361673  0.05789499  0.98125752  1
  O2-  O483  1  0.15903748  0.33873510  0.31153417  1
  O2-  O484  1  0.16586939  0.33893031  0.66486689  1
  O2-  O485  1  0.16001627  0.33039068  0.98717083  1
  O2-  O486  1  0.17211304  0.58240620  0.31679348  1
  O2-  O487  1  0.14650572  0.56020161  0.59912289  1
  O2-  O488  1  0.15992941  0.58938514  0.98451776  1
  O2-  O489  1  0.17010199  0.81679688  0.30953532  1
  O2-  O490  1  0.15986208  0.82816318  0.64485574  1
  O2-  O491  1  0.14464232  0.85110223  0.99154449  1
  O2-  O492  1  0.40897687  0.08121145  0.31420445  1
  O2-  O493  1  0.40591115  0.07327815  0.63848140  1
  O2-  O494  1  0.38563246  0.07059990  0.98392084  1
  O2-  O495  1  0.37741579  0.32278693  0.31085157  1
  O2-  O496  1  0.39487792  0.32024457  0.64362979  1
  O2-  O497  1  0.39741637  0.33283267  0.97721248  1
  O2-  O498  1  0.44722226  0.58490160  0.31425041  1
  O2-  O499  1  0.40494414  0.57226110  0.65306864  1
  O2-  O500  1  0.41220372  0.58626320  0.97579184  1
  O2-  O501  1  0.42180948  0.83230142  0.31171120  1
  O2-  O502  1  0.41003287  0.82368939  0.63746211  1
  O2-  O503  1  0.40480319  0.83117692  0.97929663  1
  O2-  O504  1  0.66372456  0.08418463  0.31839329  1
  O2-  O505  1  0.66880556  0.07326354  0.64084125  1
  O2-  O506  1  0.67247398  0.08839853  1.01397658  1
  O2-  O507  1  0.76917919  0.36181753  0.27406964  1
  O2-  O508  1  0.69659766  0.40013643  0.62094465  1
  O2-  O509  1  0.67120004  0.33682023  1.01362981  1
  O2-  O510  1  0.66845722  0.59928332  0.30288724  1
  O2-  O511  1  0.68043038  0.59786358  0.63607690  1
  O2-  O512  1  0.65987342  0.58175138  0.97381709  1
  O2-  O513  1  0.63428320  0.80399328  0.30369185  1
  O2-  O514  1  0.66037581  0.83394725  0.65038521  1
  O2-  O515  1  0.69674567  0.80576760  0.95988385  1
  O2-  O516  1  0.95760413  0.06281096  0.29549870  1
  O2-  O517  1  0.90804268  0.09072853  0.69076834  1
  O2-  O518  1  0.91873518  0.08825037  0.96945843  1
  O2-  O519  1  0.90781010  0.36217932  0.33286183  1
  O2-  O520  1  0.92117407  0.33053343  0.64376483  1
  O2-  O521  1  0.92358816  0.33731785  0.98067130  1
  O2-  O522  1  0.91589850  0.59667110  0.31454845  1
  O2-  O523  1  0.92070736  0.59770991  0.63966662  1
  O2-  O524  1  0.90829857  0.57377555  0.98673390  1
  O2-  O525  1  0.90519331  0.83135947  0.31977551  1
  O2-  O526  1  0.91859628  0.84671026  0.65033708  1
  O2-  O527  1  0.91951117  0.82748830  0.98377800  1
  O2-  O528  1  0.10939068  0.15941742  0.02704667  1
  O2-  O529  1  0.09615848  0.17571234  0.35629155  1
  O2-  O530  1  0.08574211  0.16573756  0.69277584  1
  O2-  O531  1  0.08610263  0.41945197  0.02663497  1
  O2-  O532  1  0.08032074  0.41988678  0.36324930  1
  O2-  O533  1  0.08506295  0.43037615  0.67746179  1
  O2-  O534  1  0.07631184  0.68162419  0.01557665  1
  O2-  O535  1  0.07932666  0.65160683  0.36064348  1
  O2-  O536  1  0.06981325  0.66807963  0.68872920  1
  O2-  O537  1  0.09550879  0.89086618  0.01574157  1
  O2-  O538  1  0.06501509  0.93588330  0.35232748  1
  O2-  O539  1  0.08273591  0.92044830  0.68878779  1
  O2-  O540  1  0.32101451  0.16826651  0.03343722  1
  O2-  O541  1  0.36070790  0.17463147  0.35876625  1
  O2-  O542  1  0.32775293  0.15638576  0.67965499  1
  O2-  O543  1  0.33076550  0.42664939  0.02205896  1
  O2-  O544  1  0.31834910  0.41719259  0.35615751  1
  O2-  O545  1  0.33310121  0.42082796  0.68923414  1
  O2-  O546  1  0.32566489  0.66565917  0.02284726  1
  O2-  O547  1  0.33676932  0.66507843  0.35259652  1
  O2-  O548  1  0.32590910  0.65832718  0.68563513  1
  O2-  O549  1  0.31915879  0.90761476  0.02715077  1
  O2-  O550  1  0.33758921  0.91391296  0.35008350  1
  O2-  O551  1  0.37660714  0.93691102  0.70538464  1
  O2-  O552  1  0.55854977  0.15834858  0.00129384  1
  O2-  O553  1  0.57765078  0.15835132  0.36846449  1
  O2-  O554  1  0.58428114  0.17111573  0.64209922  1
  O2-  O555  1  0.57070380  0.40928657  -0.01216698  1
  O2-  O556  1  0.54549436  0.37001833  0.35105412  1
  O2-  O557  1  0.56797837  0.40195282  0.68299530  1
  O2-  O558  1  0.57268098  0.65771261  0.02240037  1
  O2-  O559  1  0.52431590  0.62471527  0.33700917  1
  O2-  O560  1  0.58065794  0.66139257  0.68440258  1
  O2-  O561  1  0.57289744  0.91527887  0.02275963  1
  O2-  O562  1  0.58272351  0.91424407  0.35224023  1
  O2-  O563  1  0.57479166  0.90940187  0.68411696  1
  O2-  O564  1  0.84721997  0.17431628  0.02577813  1
  O2-  O565  1  0.82781698  0.17987293  0.35020496  1
  O2-  O566  1  0.82683170  0.17422330  0.69894012  1
  O2-  O567  1  0.84235131  0.41443577  0.03095213  1
  O2-  O568  1  0.81713968  0.39180621  0.41106950  1
  O2-  O569  1  0.85609876  0.43385331  0.67719690  1
  O2-  O570  1  0.82228633  0.65673242  0.01889466  1
  O2-  O571  1  0.82729648  0.66439096  0.35478338  1
  O2-  O572  1  0.84073292  0.68163681  0.68653523  1
  O2-  O573  1  0.84648288  0.92168130  0.02602164  1
  O2-  O574  1  0.83807812  0.92291845  0.37041980  1
  O2-  O575  1  0.82396468  0.91405451  0.68915759  1
