# generated using pymatgen
data_H2O
_symmetry_space_group_name_H-M   'P 1'
_cell_length_a   17.99821749
_cell_length_b   17.99816149
_cell_length_c   21.99820469
_cell_angle_alpha   89.98493217
_cell_angle_beta   90.00861069
_cell_angle_gamma   119.99152681
_symmetry_Int_Tables_number   1
_chemical_formula_structural   H2O
_chemical_formula_sum   'H384 O192'
_cell_volume   6171.81031071
_cell_formula_units_Z   192
loop_
 _symmetry_equiv_pos_site_id
 _symmetry_equiv_pos_as_xyz
  1  'x, y, z'
loop_
 _atom_type_symbol
 _atom_type_oxidation_number
  H+  1.0
  O2-  -2.0
loop_
 _atom_site_type_symbol
 _atom_site_label
 _atom_site_symmetry_multiplicity
 _atom_site_fract_x
 _atom_site_fract_y
 _atom_site_fract_z
 _atom_site_occupancy
  H+  H0  1  0.93440418  0.08113752  0.58271727  1
  H+  H1  1  0.88974355  0.52498951  0.66645028  1
  H+  H2  1  0.84802320  0.72476352  0.67004934  1
  H+  H3  1  0.60861028  0.50113124  0.32122012  1
  H+  H4  1  0.66864069  1.03608752  0.80247868  1
  H+  H5  1  0.89978166  0.28901902  0.66293081  1
  H+  H6  1  0.14099726  0.51195741  -0.01227539  1
  H+  H7  1  0.87982567  0.47724322  1.00170284  1
  H+  H8  1  0.22362918  0.37699199  0.32671424  1
  H+  H9  1  0.26056494  0.39769018  0.14904529  1
  H+  H10  1  0.47151436  0.12033475  0.84141190  1
  H+  H11  1  0.36540788  0.48933762  0.67322291  1
  H+  H12  1  0.63526479  0.75834322  0.16356792  1
  H+  H13  1  0.99627865  0.12550663  0.99916130  1
  H+  H14  1  0.03478165  0.63210861  0.00067331  1
  H+  H15  1  0.86025605  0.87576584  0.15417782  1
  H+  H16  1  0.70773665  0.10539190  0.51047652  1
  H+  H17  1  0.77068879  0.40530294  0.16873274  1
  H+  H18  1  0.22470680  0.11329152  0.00010374  1
  H+  H19  1  0.13035727  0.48307566  0.22168322  1
  H+  H20  1  0.11705457  0.23684584  -0.02049479  1
  H+  H21  1  0.14532320  0.61623424  0.65804463  1
  H+  H22  1  0.60027954  0.63613753  0.33851637  1
  H+  H23  1  0.65804891  0.30121366  -0.00721063  1
  H+  H24  1  0.72057505  0.86211142  1.01141889  1
  H+  H25  1  0.44976559  0.37177863  0.35824715  1
  H+  H26  1  0.13974822  0.76584905  0.32386714  1
  H+  H27  1  0.69161325  0.58938887  0.32543897  1
  H+  H28  1  0.46690029  0.08863346  0.17830971  1
  H+  H29  1  0.38533671  0.27891715  0.50965489  1
  H+  H30  1  0.89256771  0.28347972  0.98900524  1
  H+  H31  1  0.13678528  1.02395181  0.34074277  1
  H+  H32  1  0.78315985  0.39023558  0.82632116  1
  H+  H33  1  0.66676788  0.37209582  0.32425834  1
  H+  H34  1  0.88179331  0.79365939  0.50113552  1
  H+  H35  1  0.55270841  0.04355894  0.13261428  1
  H+  H36  1  0.65845406  0.57772565  0.89769015  1
  H+  H37  1  0.39335509  0.86746439  0.65805039  1
  H+  H38  1  0.92485832  0.32834655  0.22494080  1
  H+  H39  1  0.22754004  0.86919681  0.66376899  1
  H+  H40  1  0.23408040  0.37606015  0.65267775  1
  H+  H41  1  0.62538107  0.60649227  0.83693794  1
  H+  H42  1  0.11300126  0.89657831  0.50510113  1
  H+  H43  1  0.90740088  0.37808353  0.65593066  1
  H+  H44  1  0.36201364  -0.02615078  0.82982110  1
  H+  H45  1  0.63015296  0.60348204  0.99120985  1
  H+  H46  1  0.89010505  0.46220576  0.33266996  1
  H+  H47  1  0.16551316  0.83950255  0.56982283  1
  H+  H48  1  0.24839811  0.16152930  0.67859841  1
  H+  H49  1  0.39626863  0.79612365  0.17826259  1
  H+  H50  1  0.35676546  0.47624045  0.49144075  1
  H+  H51  1  0.63913150  0.35493681  0.66164826  1
  H+  H52  1  0.93551223  0.67954985  0.36239293  1
  H+  H53  1  0.63539553  0.40190020  0.83309164  1
  H+  H54  1  0.61731530  -0.01042233  0.16710215  1
  H+  H55  1  0.90144693  0.58425661  0.51264362  1
  H+  H56  1  0.37374866  0.11573933  1.00030639  1
  H+  H57  1  0.35630724  0.23308056  0.01161464  1
  H+  H58  1  0.62697907  0.13809737  0.67703877  1
  H+  H59  1  0.60417798  0.89824230  0.00987449  1
  H+  H60  1  0.38166856  0.87673796  0.17882491  1
  H+  H61  1  0.11486115  0.88445159  0.83623587  1
  H+  H62  1  0.86926731  0.22324534  0.16302568  1
  H+  H63  1  0.38547294  0.36802224  0.50560077  1
  H+  H64  1  0.37342291  0.50962759  0.83628963  1
  H+  H65  1  0.35476767  0.64727218  0.38827164  1
  H+  H66  1  0.26682955  0.38868380  0.49577215  1
  H+  H67  1  0.97298633  1.03297816  0.54587507  1
  H+  H68  1  0.72277467  0.36203830  0.50246942  1
  H+  H69  1  0.63280137  0.27494591  0.50498538  1
  H+  H70  1  0.37694611  0.13871731  0.16748305  1
  H+  H71  1  0.10878976  0.97503587  0.00570273  1
  H+  H72  1  0.14011796  0.28914202  0.50606726  1
  H+  H73  1  0.24033660  0.37955002  0.82762970  1
  H+  H74  1  0.39566444  0.33189005  0.93717525  1
  H+  H75  1  0.55161259  0.38323598  0.17973700  1
  H+  H76  1  0.63319690  0.74938454  0.83562402  1
  H+  H77  1  0.71224882  0.58256598  0.65485814  1
  H+  H78  1  0.37071260  0.40408518  0.67254734  1
  H+  H79  1  0.83442188  0.65840725  0.51534036  1
  H+  H80  1  1.02630427  0.38801978  0.47776622  1
  H+  H81  1  0.74727772  0.11571533  0.18391909  1
  H+  H82  1  0.45617533  0.36072989  0.99798810  1
  H+  H83  1  0.17370055  0.49277077  0.21018532  1
  H+  H84  1  0.22410112  0.62750005  0.35106685  1
  H+  H85  1  0.85642600  0.89717716  0.48357169  1
  H+  H86  1  0.13275007  0.25503367  0.18752148  1
  H+  H87  1  0.11856509  0.63638673  0.82762079  1
  H+  H88  1  0.21938051  0.11421412  0.84750442  1
  H+  H89  1  0.60681502  0.13867312  0.49445746  1
  H+  H90  1  0.86703217  0.38012084  0.82785279  1
  H+  H91  1  0.03013375  0.14490142  0.49541759  1
  H+  H92  1  0.62663903  0.49618101  0.82913915  1
  H+  H93  1  0.88057674  0.38520098  -0.00411735  1
  H+  H94  1  0.89199556  0.11341103  0.31903288  1
  H+  H95  1  0.77224166  0.15302764  0.68279773  1
  H+  H96  1  0.34525947  0.32288133  0.16454901  1
  H+  H97  1  0.62454127  0.98111291  0.33687695  1
  H+  H98  1  0.13441448  0.38641585  0.32467034  1
  H+  H99  1  0.69938711  0.61136859  0.50033109  1
  H+  H100  1  0.36916334  -0.02386677  0.67726898  1
  H+  H101  1  0.14222403  0.77673226  0.66218625  1
  H+  H102  1  0.52362889  0.15444049  0.33652943  1
  H+  H103  1  0.14028132  0.77247346  0.84108114  1
  H+  H104  1  0.02455228  0.13518560  0.33782937  1
  H+  H105  1  0.02937068  0.63468167  0.15211737  1
  H+  H106  1  0.11974418  0.13294478  0.68031829  1
  H+  H107  1  0.39820344  0.88565219  0.33392872  1
  H+  H108  1  0.97552911  0.87910587  0.50416658  1
  H+  H109  1  0.89654535  0.34412797  0.31899920  1
  H+  H110  1  0.67261574  0.41073424  0.17598024  1
  H+  H111  1  0.17600971  0.59102139  0.55867838  1
  H+  H112  1  0.10250432  0.46849553  0.82607377  1
  H+  H113  1  0.81547526  0.12506429  0.82762531  1
  H+  H114  1  0.11955975  0.14771128  0.99207571  1
  H+  H115  1  0.19920828  0.63519927  0.24552617  1
  H+  H116  1  0.77725207  0.63201690  0.15904243  1
  H+  H117  1  0.73127942  0.86693564  0.31487404  1
  H+  H118  1  0.37520070  0.84852953  0.84421297  1
  H+  H119  1  0.27025028  0.88967551  0.49742823  1
  H+  H120  1  0.14503726  0.37463736  0.65400275  1
  H+  H121  1  0.26249034  0.87978031  0.16073860  1
  H+  H122  1  0.38105219  0.77248320  0.52365824  1
  H+  H123  1  0.61584160  0.26273224  0.14781039  1
  H+  H124  1  0.84512894  0.41367502  0.08783032  1
  H+  H125  1  0.77178832  0.63496938  0.82815453  1
  H+  H126  1  0.62055534  0.48189731  0.16118279  1
  H+  H127  1  0.84121843  0.11552809  0.49394371  1
  H+  H128  1  0.72022798  0.60522829  -0.00962019  1
  H+  H129  1  0.12066612  0.15200036  0.49172827  1
  H+  H130  1  0.86663694  0.63105616  0.15858813  1
  H+  H131  1  0.38885596  0.62489416  0.65959751  1
  H+  H132  1  0.60283229  0.88878837  0.50751912  1
  H+  H133  1  0.35131950  0.71196432  0.82849772  1
  H+  H134  1  0.72019451  0.86935030  0.50626631  1
  H+  H135  1  0.52274699  0.29862218  0.72358682  1
  H+  H136  1  0.27963980  0.64410710  0.66897083  1
  H+  H137  1  0.08032613  0.16534726  0.40507590  1
  H+  H138  1  0.88850048  0.85750672  0.84069356  1
  H+  H139  1  0.86880004  0.45692295  0.49435337  1
  H+  H140  1  0.58806955  0.24763450  0.17561832  1
  H+  H141  1  0.35091341  0.48359231  0.35066022  1
  H+  H142  1  0.41406952  0.11400715  0.67716952  1
  H+  H143  1  0.87088129  0.98487687  0.33092952  1
  H+  H144  1  0.35306824  0.87904360  0.48986157  1
  H+  H145  1  0.49768153  0.88721192  0.32521193  1
  H+  H146  1  0.12232462  0.49304126  0.33796242  1
  H+  H147  1  1.02218393  0.12529739  0.17239565  1
  H+  H148  1  0.07339957  0.66915468  0.39460048  1
  H+  H149  1  0.32511940  0.91406372  0.10230281  1
  H+  H150  1  0.35716840  0.62602540  0.82185691  1
  H+  H151  1  0.89392560  0.61150277  -0.01220331  1
  H+  H152  1  0.30503427  0.59917867  -0.01043452  1
  H+  H153  1  0.03261650  0.39437080  0.66866354  1
  H+  H154  1  0.54327761  0.35003178  0.33533853  1
  H+  H155  1  0.10903237  0.38361686  0.82104049  1
  H+  H156  1  0.96686509  0.35074478  0.84071141  1
  H+  H157  1  0.86340548  0.97181161  0.00385956  1
  H+  H158  1  0.15354589  0.86013091  0.31915629  1
  H+  H159  1  0.51710464  0.91508168  0.16287961  1
  H+  H160  1  0.97439207  0.34666933  0.15989273  1
  H+  H161  1  0.63361589  0.61504316  0.16636838  1
  H+  H162  1  0.46172171  0.86798158  0.99620839  1
  H+  H163  1  0.12931115  0.85792582  0.99270673  1
  H+  H164  1  0.91923847  0.11155910  0.84690794  1
  H+  H165  1  0.88878527  0.26136914  0.48370304  1
  H+  H166  1  0.63956458  0.29301450  0.83739612  1
  H+  H167  1  1.01201646  0.62093973  0.32802335  1
  H+  H168  1  0.63419191  0.77884067  0.50831524  1
  H+  H169  1  0.56136464  0.88517766  0.76837899  1
  H+  H170  1  0.61728480  0.17201666  0.83317796  1
  H+  H171  1  0.33842425  0.69899745  0.10043020  1
  H+  H172  1  0.34845979  0.97187550  0.01012438  1
  H+  H173  1  0.88392117  0.03216252  0.66577750  1
  H+  H174  1  0.15687659  0.60671925  0.99113857  1
  H+  H175  1  0.13397565  0.76606810  0.16710957  1
  H+  H176  1  0.27267939  0.88588711  0.82957444  1
  H+  H177  1  1.03906440  0.64041293  0.49804035  1
  H+  H178  1  0.65839941  0.11283753  0.19568338  1
  H+  H179  1  0.88387634  0.10655129  0.17140624  1
  H+  H180  1  0.60961467  0.38450392  0.49159158  1
  H+  H181  1  0.88853768  0.22419135  0.83631152  1
  H+  H182  1  0.38467381  1.03095879  0.33348694  1
  H+  H183  1  0.61171337  0.88742257  0.32274231  1
  H+  H184  1  0.88500570  0.76637399  0.17011515  1
  H+  H185  1  0.37978807  0.28912144  0.65980034  1
  H+  H186  1  0.86884269  0.96746086  0.83171576  1
  H+  H187  1  0.14037468  0.53382196  0.49941350  1
  H+  H188  1  0.51314248  0.88231577  0.49342069  1
  H+  H189  1  0.13665890  0.78173024  0.50893432  1
  H+  H190  1  0.62564324  0.03390689  0.79968696  1
  H+  H191  1  0.16293581  0.65351660  0.18268757  1
  H+  H192  1  0.10918368  0.87571981  0.15928393  1
  H+  H193  1  0.29043646  0.67625045  0.16638639  1
  H+  H194  1  0.76207022  0.21832828  0.87288270  1
  H+  H195  1  0.73659043  0.85309596  0.16257642  1
  H+  H196  1  0.02160004  0.87692659  0.34200631  1
  H+  H197  1  0.50055178  0.11603477  0.66475733  1
  H+  H198  1  0.09851790  0.86482191  0.68003645  1
  H+  H199  1  0.66319834  0.08248841  0.60629731  1
  H+  H200  1  0.51911635  0.64306260  0.15366204  1
  H+  H201  1  0.63769254  0.02262434  0.66633675  1
  H+  H202  1  0.52033347  0.14151701  0.49231552  1
  H+  H203  1  0.16934751  0.57622112  0.89618840  1
  H+  H204  1  0.72763781  0.87003271  0.66566851  1
  H+  H205  1  0.22219961  0.60336042  0.83398207  1
  H+  H206  1  0.58716870  0.67968027  0.39890188  1
  H+  H207  1  0.59741824  0.46218236  0.00737658  1
  H+  H208  1  0.31549824  0.41627292  0.40517918  1
  H+  H209  1  0.64182204  0.77700866  0.31829190  1
  H+  H210  1  0.35249285  0.88343682  0.00926351  1
  H+  H211  1  0.51341068  0.62299843  0.82765037  1
  H+  H212  1  0.37195017  0.76551955  0.45316662  1
  H+  H213  1  0.79525196  0.38009956  0.33434391  1
  H+  H214  1  0.16644868  0.82211388  0.22907548  1
  H+  H215  1  0.78156124  0.39117497  0.67192796  1
  H+  H216  1  0.14730712  0.28702947  0.81631597  1
  H+  H217  1  0.13678673  0.04016570  0.51708540  1
  H+  H218  1  0.82685754  0.66814586  0.73039249  1
  H+  H219  1  0.29605535  0.15067320  0.16758864  1
  H+  H220  1  0.40735162  0.08359967  0.27176058  1
  H+  H221  1  0.16701463  0.08148511  0.93877874  1
  H+  H222  1  0.35167708  0.22658166  0.35050592  1
  H+  H223  1  0.87935028  0.01399135  0.17170135  1
  H+  H224  1  0.35986451  0.13864069  0.50379348  1
  H+  H225  1  0.76330925  1.02639282  0.36123523  1
  H+  H226  1  0.59034045  0.84781095  0.82310466  1
  H+  H227  1  0.65109195  0.83200969  1.06192954  1
  H+  H228  1  0.45638033  0.10673721  1.00627486  1
  H+  H229  1  0.89188257  0.87473263  0.32411434  1
  H+  H230  1  0.51255005  0.36441185  0.68303133  1
  H+  H231  1  0.33644651  0.49343951  0.13541091  1
  H+  H232  1  0.11976715  0.39902068  0.48687449  1
  H+  H233  1  0.61730723  0.51813690  0.49670781  1
  H+  H234  1  0.56756730  0.17637415  -0.02883213  1
  H+  H235  1  0.28110082  0.88362329  0.34156299  1
  H+  H236  1  0.87091276  0.38107309  0.15030025  1
  H+  H237  1  0.84026500  0.41782277  0.73198668  1
  H+  H238  1  0.09306206  0.66451551  0.09393824  1
  H+  H239  1  0.03048750  0.64093103  0.67536400  1
  H+  H240  1  0.93058392  0.07819153  1.05184016  1
  H+  H241  1  1.03406837  0.12771779  0.80785140  1
  H+  H242  1  0.02146003  0.87934363  0.15826501  1
  H+  H243  1  0.32706194  0.15092535  0.66227003  1
  H+  H244  1  0.84138313  0.64224113  0.34168218  1
  H+  H245  1  0.11506317  0.12474015  0.34591541  1
  H+  H246  1  0.43189620  0.26752139  0.20156421  1
  H+  H247  1  0.14561244  0.52754333  0.65838502  1
  H+  H248  1  0.61158017  0.73120871  0.68310984  1
  H+  H249  1  0.61418616  0.89052092  0.67537412  1
  H+  H250  1  0.36843239  0.37057691  0.84835103  1
  H+  H251  1  0.89422873  0.52301841  0.83430318  1
  H+  H252  1  0.36763991  0.28067582  0.84796362  1
  H+  H253  1  -0.02190071  0.85810829  0.84610292  1
  H+  H254  1  0.11240672  0.12631785  0.16687423  1
  H+  H255  1  0.18379947  0.09011642  0.11118911  1
  H+  H256  1  1.01495959  0.80861574  0.71688531  1
  H+  H257  1  0.34283319  0.17979596  0.07357282  1
  H+  H258  1  0.22377149  0.11434691  0.34128681  1
  H+  H259  1  0.36941654  0.36579578  0.18005605  1
  H+  H260  1  0.38844643  0.63693598  0.15587184  1
  H+  H261  1  0.63961709  1.03533031  -0.00178364  1
  H+  H262  1  0.88826509  0.61371453  0.66035905  1
  H+  H263  1  0.13698350  0.62651888  0.33435855  1
  H+  H264  1  0.91257875  0.82865504  0.93455406  1
  H+  H265  1  0.59771734  0.63720003  0.48904514  1
  H+  H266  1  0.21985537  0.86118837  0.99675436  1
  H+  H267  1  0.89564728  0.78778051  0.32752316  1
  H+  H268  1  0.62831875  0.22917528  0.67104020  1
  H+  H269  1  0.37161273  1.01253158  0.17847251  1
  H+  H270  1  0.22074019  0.36892101  -0.03033717  1
  H+  H271  1  0.86175564  0.89737592  0.67211410  1
  H+  H272  1  0.96723984  0.12249710  0.67459136  1
  H+  H273  1  0.12659394  0.33821938  0.17224317  1
  H+  H274  1  0.83580022  0.92233425  0.73501145  1
  H+  H275  1  0.75488968  0.37638119  0.98563242  1
  H+  H276  1  0.61755771  1.01987877  0.51575025  1
  H+  H277  1  0.87271116  0.14185814  1.01403247  1
  H+  H278  1  0.32198367  0.17323076  0.76972710  1
  H+  H279  1  0.10706714  0.43786380  0.13661554  1
  H+  H280  1  0.40787783  0.58133768  0.89296222  1
  H+  H281  1  0.77704622  0.87838458  0.82753169  1
  H+  H282  1  0.89349519  0.56963270  0.30932328  1
  H+  H283  1  0.33299881  0.91525663  0.73548737  1
  H+  H284  1  0.90064898  0.52336749  0.16160103  1
  H+  H285  1  -0.02913495  0.86057695  -0.00544604  1
  H+  H286  1  0.13493501  0.02293357  0.85051831  1
  H+  H287  1  0.37022509  0.51537344  0.99045314  1
  H+  H288  1  0.83787306  0.16399149  0.10357129  1
  H+  H289  1  0.71301112  0.09146477  0.28470239  1
  H+  H290  1  0.10279835  0.37714973  -0.01459821  1
  H+  H291  1  0.96447286  0.86165304  0.65660398  1
  H+  H292  1  0.78269938  0.14152509  0.01499097  1
  H+  H293  1  0.92590885  0.08711995  0.26028070  1
  H+  H294  1  0.38443375  0.02382606  0.51177676  1
  H+  H295  1  1.01272431  0.38000086  0.99052379  1
  H+  H296  1  0.15184661  0.11639116  0.61478312  1
  H+  H297  1  0.08895362  0.93005832  0.44573178  1
  H+  H298  1  0.70921160  0.37357425  0.23600082  1
  H+  H299  1  0.91422007  0.83145372  0.22738521  1
  H+  H300  1  0.16713158  0.83055340  0.90166392  1
  H+  H301  1  0.95499387  0.07786633  0.89998185  1
  H+  H302  1  0.40057706  0.61572825  0.30581601  1
  H+  H303  1  0.09242723  0.67066001  0.73344618  1
  H+  H304  1  0.67138632  0.33619636  0.59860659  1
  H+  H305  1  0.51783584  0.65222362  0.48490232  1
  H+  H306  1  0.64766476  0.55563932  0.60142002  1
  H+  H307  1  0.98949848  0.35999070  0.31457790  1
  H+  H308  1  0.58114980  0.40120944  0.39938266  1
  H+  H309  1  0.41807372  0.59390618  0.60135733  1
  H+  H310  1  0.91362833  0.32751056  0.90676274  1
  H+  H311  1  0.83725996  0.40850200  0.42989569  1
  H+  H312  1  0.83296816  0.92817260  0.39160184  1
  H+  H313  1  0.57428694  0.93640949  0.06372559  1
  H+  H314  1  0.29397764  0.63232601  0.44274358  1
  H+  H315  1  0.39604755  0.78169664  0.65735365  1
  H+  H316  1  0.08014489  0.91173823  0.77885534  1
  H+  H317  1  0.93451449  0.57443596  0.22439264  1
  H+  H318  1  0.16082016  0.33822603  0.26190100  1
  H+  H319  1  0.67279786  0.82536074  0.22649024  1
  H+  H320  1  0.42020628  0.08420523  0.57036328  1
  H+  H321  1  0.85890534  0.71991226  0.00265225  1
  H+  H322  1  0.86189769  0.72227639  0.83004215  1
  H+  H323  1  0.32949736  0.16684587  0.44406735  1
  H+  H324  1  0.39687856  0.82453109  0.94191937  1
  H+  H325  1  0.12001662  0.72230146  0.00249009  1
  H+  H326  1  0.65499523  0.58172327  0.22743360  1
  H+  H327  1  0.35569096  0.14063301  0.82579526  1
  H+  H328  1  0.64903944  0.27691564  0.31756722  1
  H+  H329  1  0.88445142  0.34678412  0.48697317  1
  H+  H330  1  0.42474744  0.34777323  0.60142422  1
  H+  H331  1  0.88872091  0.60968517  0.83431065  1
  H+  H332  1  0.59796082  0.71479961  1.00850417  1
  H+  H333  1  0.13038797  0.65162380  0.49072636  1
  H+  H334  1  0.44731243  0.33164166  0.25556704  1
  H+  H335  1  0.30898265  0.42288233  0.04936676  1
  H+  H336  1  0.61998571  0.14715899  0.01024112  1
  H+  H337  1  0.57104100  0.40753161  0.06772923  1
  H+  H338  1  0.56743082  0.13091694  0.10454172  1
  H+  H339  1  0.68230133  0.34964646  0.89921365  1
  H+  H340  1  0.45669476  0.83580827  0.84512183  1
  H+  H341  1  0.83015773  0.90674464  0.09391718  1
  H+  H342  1  0.33435604  0.91903591  0.40435861  1
  H+  H343  1  0.06065322  0.83350567  0.38298553  1
  H+  H344  1  0.83884127  0.67478979  0.44389589  1
  H+  H345  1  0.92510152  0.58418780  0.92833410  1
  H+  H346  1  0.03042513  0.63837597  0.82520833  1
  H+  H347  1  0.68309442  0.11366015  0.94915096  1
  H+  H348  1  0.33426160  0.42453750  0.77408998  1
  H+  H349  1  0.39814345  0.58208861  0.20830877  1
  H+  H350  1  0.50719671  0.62748502  0.00535463  1
  H+  H351  1  0.41104673  0.08709737  0.90036898  1
  H+  H352  1  0.51847628  0.38254160  0.48950190  1
  H+  H353  1  0.42340720  0.85663920  0.26702750  1
  H+  H354  1  0.85902800  0.87971147  0.00057182  1
  H+  H355  1  0.84700688  0.17669000  0.73079366  1
  H+  H356  1  0.66317752  0.81188429  0.89261911  1
  H+  H357  1  0.14243656  1.01478066  0.15701780  1
  H+  H358  1  0.09286190  0.42798204  0.39607103  1
  H+  H359  1  0.83221796  0.65876406  0.06024609  1
  H+  H360  1  0.33542944  0.67032619  0.73013798  1
  H+  H361  1  0.58696456  0.18034189  0.76659164  1
  H+  H362  1  0.35285726  0.38986508  -0.00153609  1
  H+  H363  1  0.07090180  0.38242832  0.07764505  1
  H+  H364  1  0.35677964  0.13953719  0.34515689  1
  H+  H365  1  0.80461350  0.12800056  0.43198166  1
  H+  H366  1  0.58583872  0.18272017  0.39327636  1
  H+  H367  1  0.66735089  0.83636012  0.60678851  1
  H+  H368  1  0.57572827  0.65743771  0.76754733  1
  H+  H369  1  0.58555394  0.41330283  0.77221769  1
  H+  H370  1  0.69978241  0.12536126  0.84792128  1
  H+  H371  1  0.52319567  0.64393590  0.67811693  1
  H+  H372  1  0.47595529  0.62696264  0.34820782  1
  H+  H373  1  0.90987527  0.84708259  0.59558281  1
  H+  H374  1  0.52546320  0.89145009  0.67111755  1
  H+  H375  1  0.86018790  0.98430521  0.49055719  1
  H+  H376  1  0.36460339  0.36657244  0.33749680  1
  H+  H377  1  0.08824020  0.42092017  0.72964571  1
  H+  H378  1  0.17317673  0.35002149  0.56651668  1
  H+  H379  1  0.22627406  0.12706363  0.51599238  1
  H+  H380  1  0.16405377  0.33632807  0.90807603  1
  H+  H381  1  0.07858924  0.91153769  0.06316050  1
  H+  H382  1  0.93072189  0.56880783  0.57618831  1
  H+  H383  1  0.57644174  0.66236226  0.09402809  1
  O2-  O384  1  0.08450141  0.16177858  0.16518748  1
  O2-  O385  1  0.08634216  0.17719503  0.47360270  1
  O2-  O386  1  0.08394280  0.17099425  0.78331014  1
  O2-  O387  1  0.07183554  0.37806401  0.12438653  1
  O2-  O388  1  0.08912208  0.42641290  0.46749670  1
  O2-  O389  1  0.07117306  0.40850298  0.81044625  1
  O2-  O390  1  0.09108231  0.66843989  0.13949835  1
  O2-  O391  1  0.09515461  0.67939337  0.47877486  1
  O2-  O392  1  0.09165681  0.67016928  0.81179378  1
  O2-  O393  1  0.08156257  0.90835526  0.14310894  1
  O2-  O394  1  0.08397296  0.92910183  0.49039335  1
  O2-  O395  1  0.08222996  0.91398232  0.82382457  1
  O2-  O396  1  0.35732538  0.18031855  0.15606762  1
  O2-  O397  1  0.33040899  0.17019694  0.48938194  1
  O2-  O398  1  0.32359643  0.17014764  0.81463562  1
  O2-  O399  1  0.28923363  0.44111774  0.11720634  1
  O2-  O400  1  0.32751099  0.41559894  0.47763309  1
  O2-  O401  1  0.32766913  0.42427293  0.81865712  1
  O2-  O402  1  0.34872954  0.69751060  0.14391537  1
  O2-  O403  1  0.35894175  0.62517538  0.51592705  1
  O2-  O404  1  0.32461003  0.65502590  0.80750480  1
  O2-  O405  1  0.32473306  0.91376287  0.14823563  1
  O2-  O406  1  0.33019313  0.91837415  0.48115504  1
  O2-  O407  1  0.33304329  0.91423157  0.81386871  1
  O2-  O408  1  0.55823422  0.09997674  0.14290539  1
  O2-  O409  1  0.58050888  0.17211577  0.47742367  1
  O2-  O410  1  0.57926950  0.18763672  0.81121447  1
  O2-  O411  1  0.60320045  0.42054845  0.15320290  1
  O2-  O412  1  0.57795818  0.41111089  0.47165795  1
  O2-  O413  1  0.60119491  0.43010127  0.81634137  1
  O2-  O414  1  0.58074509  0.66960005  0.14010747  1
  O2-  O415  1  0.57879453  0.67733053  0.47237778  1
  O2-  O416  1  0.57576090  0.65193722  0.81426877  1
  O2-  O417  1  0.56944073  0.95427097  0.13872765  1
  O2-  O418  1  0.57557155  0.92155729  0.49278707  1
  O2-  O419  1  0.55111967  0.86889251  0.81212494  1
  O2-  O420  1  0.83870207  0.16093794  0.14952201  1
  O2-  O421  1  0.81168524  0.14305138  0.47583089  1
  O2-  O422  1  0.87581631  0.16533468  0.82041977  1
  O2-  O423  1  0.84457617  0.41518347  0.13458559  1
  O2-  O424  1  0.82602864  0.40277033  0.47485702  1
  O2-  O425  1  0.84308596  0.41581380  0.81106788  1
  O2-  O426  1  0.83732964  0.66283900  0.14415155  1
  O2-  O427  1  0.81713889  0.68372633  0.48303774  1
  O2-  O428  1  0.83141820  0.66311162  0.81218989  1
  O2-  O429  1  0.82622333  0.90332561  0.13979307  1
  O2-  O430  1  0.82695122  0.92862716  0.46898515  1
  O2-  O431  1  0.83782479  0.90898360  0.81334032  1
  O2-  O432  1  0.17665231  0.07919963  0.15486980  1
  O2-  O433  1  0.16442876  0.10202764  0.52742380  1
  O2-  O434  1  0.16257551  0.08160985  0.86768057  1
  O2-  O435  1  0.15982175  0.31933104  0.19781851  1
  O2-  O436  1  0.17246588  0.34978929  0.51876611  1
  O2-  O437  1  0.17078149  0.34261372  0.83701000  1
  O2-  O438  1  0.21438595  0.65887727  0.20370042  1
  O2-  O439  1  0.17334340  0.59424851  0.51360659  1
  O2-  O440  1  0.16247817  0.57744987  0.85105093  1
  O2-  O441  1  0.16217694  0.82637733  0.18409349  1
  O2-  O442  1  0.16390353  0.84243202  0.52424885  1
  O2-  O443  1  0.16884948  0.83326215  0.85600796  1
  O2-  O444  1  0.40880976  0.07241494  0.19445710  1
  O2-  O445  1  0.41310806  0.08481016  0.52570454  1
  O2-  O446  1  0.41112102  0.08532767  0.85524586  1
  O2-  O447  1  0.47756173  0.31503992  0.22612155  1
  O2-  O448  1  0.41905777  0.34108420  0.52056157  1
  O2-  O449  1  0.39582296  0.33785470  0.86696571  1
  O2-  O450  1  0.41404232  0.59901901  0.16620565  1
  O2-  O451  1  0.40757080  0.59059499  0.51247440  1
  O2-  O452  1  0.41116279  0.57827252  0.84845208  1
  O2-  O453  1  0.41958147  0.85479700  0.19623561  1
  O2-  O454  1  0.39283620  0.80754800  0.48705117  1
  O2-  O455  1  0.39721234  0.81268055  0.86231590  1
  O2-  O456  1  0.69203873  0.08598974  0.20840291  1
  O2-  O457  1  0.64981304  0.08262241  0.52836434  1
  O2-  O458  1  0.70402466  0.16858698  0.87717186  1
  O2-  O459  1  0.72500942  0.40880834  0.19680798  1
  O2-  O460  1  0.66334188  0.33616358  0.51949021  1
  O2-  O461  1  0.67791054  0.35257780  0.85248324  1
  O2-  O462  1  0.66477425  0.58664332  0.18285422  1
  O2-  O463  1  0.63866508  0.57762632  0.51203634  1
  O2-  O464  1  0.66063017  0.57926521  0.85187256  1
  O2-  O465  1  0.67343954  0.82154485  0.17951555  1
  O2-  O466  1  0.66385499  0.83717708  0.52675327  1
  O2-  O467  1  0.66837129  0.81232784  0.84858717  1
  O2-  O468  1  0.91161548  0.07330857  0.18757029  1
  O2-  O469  1  0.94541796  0.06705665  0.53826943  1
  O2-  O470  1  0.94246762  0.07203440  0.85653927  1
  O2-  O471  1  0.91672614  0.32510228  0.17893520  1
  O2-  O472  1  0.92427963  0.32396601  0.48735999  1
  O2-  O473  1  0.90688562  0.31689503  0.85725715  1
  O2-  O474  1  0.92673747  0.58202575  0.17931421  1
  O2-  O475  1  0.93596613  0.56242122  0.53069962  1
  O2-  O476  1  0.92304952  0.58370813  0.84912263  1
  O2-  O477  1  0.91218628  0.82851937  0.18226555  1
  O2-  O478  1  0.91335493  0.85429390  0.51485792  1
  O2-  O479  1  0.91600488  0.82574305  0.85855728  1
  O2-  O480  1  0.16142148  0.08370830  0.32818302  1
  O2-  O481  1  0.15671558  0.11336211  0.65909580  1
  O2-  O482  1  0.16440096  0.08076229  0.98545899  1
  O2-  O483  1  0.16309442  0.34983421  0.30949632  1
  O2-  O484  1  0.17561082  0.34758041  0.63412590  1
  O2-  O485  1  0.16073124  0.33513248  0.95458532  1
  O2-  O486  1  0.17364351  0.60110657  0.32335803  1
  O2-  O487  1  0.17630988  0.58798885  0.64159782  1
  O2-  O488  1  0.18146752  0.57246997  0.97451081  1
  O2-  O489  1  0.18047902  0.82619133  0.30764149  1
  O2-  O490  1  0.16699145  0.83783011  0.64809781  1
  O2-  O491  1  0.16082476  0.82851332  0.97862024  1
  O2-  O492  1  0.40855748  0.09001699  0.31710047  1
  O2-  O493  1  0.43737833  0.08559020  0.65245978  1
  O2-  O494  1  0.40105647  0.08197281  0.98495705  1
  O2-  O495  1  0.40043395  0.33834007  0.33183843  1
  O2-  O496  1  0.42446107  0.34797764  0.64675761  1
  O2-  O497  1  0.39484258  0.33028859  0.98417237  1
  O2-  O498  1  0.41135683  0.59730414  0.34479218  1
  O2-  O499  1  0.41914494  0.59337085  0.64598943  1
  O2-  O500  1  0.40450117  0.58193614  0.97856300  1
  O2-  O501  1  0.43069584  0.85869266  0.31344572  1
  O2-  O502  1  0.42647575  0.84169784  0.64162240  1
  O2-  O503  1  0.39991007  0.83486618  0.98671027  1
  O2-  O504  1  0.70596774  0.08467481  0.33042775  1
  O2-  O505  1  0.66809419  0.08404944  0.65171928  1
  O2-  O506  1  0.67612555  0.09947293  0.99301287  1
  O2-  O507  1  0.68967432  0.33898417  0.30375316  1
  O2-  O508  1  0.67477379  0.33264351  0.64391819  1
  O2-  O509  1  0.69517956  0.35143683  0.96798232  1
  O2-  O510  1  0.63446831  0.56234234  0.30755208  1
  O2-  O511  1  0.66150605  0.53281387  0.63742114  1
  O2-  O512  1  0.66020436  0.57458851  0.97434504  1
  O2-  O513  1  0.67223317  0.83407930  0.29704055  1
  O2-  O514  1  0.66650122  0.83769228  0.65202742  1
  O2-  O515  1  0.65664078  0.83229626  1.01781577  1
  O2-  O516  1  0.93014937  0.09149887  0.30635746  1
  O2-  O517  1  0.91640058  0.09101810  0.64793024  1
  O2-  O518  1  0.92845675  0.08441243  1.00790092  1
  O2-  O519  1  0.93126822  0.32269483  0.29812167  1
  O2-  O520  1  0.93681307  0.34642500  0.64431382  1
  O2-  O521  1  0.91975383  0.34015975  0.96941701  1
  O2-  O522  1  0.94113753  0.56122172  0.29909432  1
  O2-  O523  1  0.92171343  0.58529799  0.64897527  1
  O2-  O524  1  0.92730971  0.58437532  0.97379201  1
  O2-  O525  1  0.92377456  0.84552887  0.30933950  1
  O2-  O526  1  0.90563041  0.84053105  0.64053622  1
  O2-  O527  1  0.90960929  0.82903821  0.98032312  1
  O2-  O528  1  0.08615433  0.17754378  -0.00213800  1
  O2-  O529  1  0.08284980  0.15916742  0.35813703  1
  O2-  O530  1  0.05931587  0.15771635  0.72282528  1
  O2-  O531  1  0.07479458  0.40515139  0.00780466  1
  O2-  O532  1  0.09533662  0.43074342  0.34936934  1
  O2-  O533  1  0.09419892  0.42660397  0.68456674  1
  O2-  O534  1  0.09469912  0.66168499  0.01673854  1
  O2-  O535  1  0.07215607  0.67327106  0.34973986  1
  O2-  O536  1  0.09192992  0.67306824  0.68783576  1
  O2-  O537  1  0.07633824  0.91269804  0.01788160  1
  O2-  O538  1  0.07557214  0.88814797  0.36361247  1
  O2-  O539  1  0.04980458  0.86686822  0.70131884  1
  O2-  O540  1  0.33163591  0.17288402  0.02903641  1
  O2-  O541  1  0.32412695  0.16575320  0.36400481  1
  O2-  O542  1  0.31384409  0.18680112  0.68797175  1
  O2-  O543  1  0.32283933  0.42446369  0.00475629  1
  O2-  O544  1  0.31602122  0.42080847  0.35880284  1
  O2-  O545  1  0.33503186  0.42823825  0.68688248  1
  O2-  O546  1  0.36013650  0.62020652  0.01158913  1
  O2-  O547  1  0.31436281  0.66457909  0.40422523  1
  O2-  O548  1  0.33997778  0.67594914  0.68474750  1
  O2-  O549  1  0.32027023  0.91246676  0.02643574  1
  O2-  O550  1  0.34009705  0.92021760  0.35866801  1
  O2-  O551  1  0.33123896  0.91581541  0.68987744  1
  O2-  O552  1  0.58300366  0.17469812  0.01350127  1
  O2-  O553  1  0.58480442  0.18766457  0.34841280  1
  O2-  O554  1  0.59686934  0.17092389  0.69050267  1
  O2-  O555  1  0.55820718  0.40469085  0.02408195  1
  O2-  O556  1  0.58686383  0.40445348  0.35293294  1
  O2-  O557  1  0.55521049  0.35778726  0.70937397  1
  O2-  O558  1  0.56824966  0.65358195  0.02050067  1
  O2-  O559  1  0.58326014  0.67770183  0.35266615  1
  O2-  O560  1  0.58050827  0.67106374  0.69786835  1
  O2-  O561  1  0.57693334  0.93314442  0.01841212  1
  O2-  O562  1  0.58342790  0.91783863  0.33977327  1
  O2-  O563  1  0.58403587  0.92082752  0.69084482  1
  O2-  O564  1  0.84325987  0.17266411  0.02922329  1
  O2-  O565  1  0.78509492  0.08759526  0.35247005  1
  O2-  O566  1  0.82245638  0.20108113  0.70300165  1
  O2-  O567  1  0.84934520  0.41673569  0.01621266  1
  O2-  O568  1  0.85309365  0.40458389  0.35294514  1
  O2-  O569  1  0.84166352  0.42512428  0.68692276  1
  O2-  O570  1  0.82925499  0.65826548  0.01517275  1
  O2-  O571  1  0.88532869  0.68735310  0.36707191  1
  O2-  O572  1  0.82896444  0.66616796  0.68517108  1
  O2-  O573  1  0.82891261  0.91057208  0.01700305  1
  O2-  O574  1  0.83555333  0.92456951  0.34597788  1
  O2-  O575  1  0.83271491  0.92726833  0.68997462  1
