# generated using pymatgen
data_H2O
_symmetry_space_group_name_H-M   'P 1'
_cell_length_a   17.99155600
_cell_length_b   17.99674976
_cell_length_c   21.99980599
_cell_angle_alpha   90.00721143
_cell_angle_beta   89.99912515
_cell_angle_gamma   119.97550075
_symmetry_Int_Tables_number   1
_chemical_formula_structural   H2O
_chemical_formula_sum   'H384 O192'
_cell_volume   6170.48701709
_cell_formula_units_Z   192
loop_
 _symmetry_equiv_pos_site_id
 _symmetry_equiv_pos_as_xyz
  1  'x, y, z'
loop_
 _atom_type_symbol
 _atom_type_oxidation_number
  H+  1.0
  O2-  -2.0
loop_
 _atom_site_type_symbol
 _atom_site_label
 _atom_site_symmetry_multiplicity
 _atom_site_fract_x
 _atom_site_fract_y
 _atom_site_fract_z
 _atom_site_occupancy
  H+  H0  1  0.63781582  0.86038805  0.66317941  1
  H+  H1  1  0.64042575  0.77901010  0.16640271  1
  H+  H2  1  0.66407955  0.57291819  0.56577556  1
  H+  H3  1  0.36187462  0.71006613  0.82808941  1
  H+  H4  1  -0.03279926  0.86040253  0.32515373  1
  H+  H5  1  0.87946539  0.76926115  0.31992616  1
  H+  H6  1  0.36094383  0.63449715  0.15899889  1
  H+  H7  1  0.27093763  0.63367375  0.16056129  1
  H+  H8  1  0.78425338  0.14011116  1.01985767  1
  H+  H9  1  0.47950549  0.11297489  0.32979297  1
  H+  H10  1  -0.01982336  0.86329189  0.66380526  1
  H+  H11  1  0.76065659  0.12391975  0.34044198  1
  H+  H12  1  0.52084105  0.63588726  0.82283523  1
  H+  H13  1  0.10316740  0.12965497  0.33584537  1
  H+  H14  1  0.78034005  0.14096016  0.68220186  1
  H+  H15  1  0.38310240  0.77647808  0.99927900  1
  H+  H16  1  0.87786525  0.26683534  0.32586996  1
  H+  H17  1  0.96694867  0.10751877  0.83884524  1
  H+  H18  1  0.63382968  0.36944635  0.50634988  1
  H+  H19  1  0.08857463  0.66079636  0.40173084  1
  H+  H20  1  0.48124935  0.09310464  0.66664702  1
  H+  H21  1  0.60679092  0.20271111  0.16298294  1
  H+  H22  1  0.11089012  0.38538525  0.81648108  1
  H+  H23  1  0.86430776  0.88708640  0.00342841  1
  H+  H24  1  0.01403403  0.12918414  -0.01056855  1
  H+  H25  1  0.13433275  0.09315121  1.00070087  1
  H+  H26  1  0.32766236  0.91928479  0.09787219  1
  H+  H27  1  0.86207103  0.88472086  0.15729046  1
  H+  H28  1  0.60974047  -0.03853405  0.81959408  1
  H+  H29  1  0.52773945  0.64207877  1.00704566  1
  H+  H30  1  0.86589782  0.38599230  0.34343512  1
  H+  H31  1  0.13434059  0.61426276  0.99394746  1
  H+  H32  1  0.10718756  0.48220500  0.00204455  1
  H+  H33  1  0.32807137  0.41484747  -0.08391415  1
  H+  H34  1  0.38817869  0.77242669  0.16133890  1
  H+  H35  1  0.52512004  0.13264059  -0.00235247  1
  H+  H36  1  0.35381092  0.96945807  0.00339777  1
  H+  H37  1  0.47020954  0.60782335  0.51149200  1
  H+  H38  1  0.87463803  -0.00092438  0.50467914  1
  H+  H39  1  0.92418125  0.59044450  0.27232334  1
  H+  H40  1  0.88844999  0.34295372  0.49131188  1
  H+  H41  1  0.63588072  0.85717662  0.51375951  1
  H+  H42  1  0.64116089  0.13688558  0.51032527  1
  H+  H43  1  0.40593388  0.30811762  0.27288630  1
  H+  H44  1  0.38870366  0.26654510  0.50286843  1
  H+  H45  1  0.76676265  0.37524461  0.98731538  1
  H+  H46  1  0.13362291  0.85880999  0.66481830  1
  H+  H47  1  0.62968425  0.60199140  0.51016694  1
  H+  H48  1  0.22627961  0.10979418  0.65578143  1
  H+  H49  1  0.02688428  0.63585236  0.34390878  1
  H+  H50  1  -0.02341882  0.36623629  -0.01382279  1
  H+  H51  1  0.06678158  0.65656459  0.74101562  1
  H+  H52  1  0.76356471  0.38358290  0.49979183  1
  H+  H53  1  0.61124210  0.23439220  0.49840237  1
  H+  H54  1  0.64356081  0.05109466  0.52648764  1
  H+  H55  1  0.66187784  0.55373908  0.16042769  1
  H+  H56  1  0.52379154  0.88342791  0.15976138  1
  H+  H57  1  0.87259293  0.89109918  0.67732031  1
  H+  H58  1  0.76397367  0.88094025  0.15378262  1
  H+  H59  1  0.72878176  0.85863589  0.85101423  1
  H+  H60  1  0.36322516  0.13255704  -0.00406936  1
  H+  H61  1  0.85170213  0.12439228  0.34272607  1
  H+  H62  1  0.01271142  0.38755978  0.34156932  1
  H+  H63  1  0.22064067  0.34624784  0.65854616  1
  H+  H64  1  0.86900620  0.22767895  0.67666211  1
  H+  H65  1  0.11682801  0.84647319  0.83547582  1
  H+  H66  1  0.99283287  0.12659637  0.17371449  1
  H+  H67  1  0.76719332  0.62698074  0.33444284  1
  H+  H68  1  0.89027837  0.11294828  0.66159902  1
  H+  H69  1  0.91767371  0.55741616  0.17543609  1
  H+  H70  1  0.08077556  0.71111969  0.83569036  1
  H+  H71  1  0.36614596  0.37996208  0.83330019  1
  H+  H72  1  0.37722719  0.61387447  0.00719074  1
  H+  H73  1  0.60988516  0.87382201  0.83035751  1
  H+  H74  1  0.36261892  0.12900748  0.49398480  1
  H+  H75  1  0.12304660  0.76924790  0.33105291  1
  H+  H76  1  0.87312346  0.86586237  0.83587437  1
  H+  H77  1  0.37788188  0.21112921  0.81646856  1
  H+  H78  1  0.32415988  0.40040763  0.73300626  1
  H+  H79  1  0.32951396  0.15287599  0.43275182  1
  H+  H80  1  0.64162084  0.86951844  0.16702771  1
  H+  H81  1  0.52327072  0.38268346  0.48941563  1
  H+  H82  1  0.63879080  0.01872512  1.01477410  1
  H+  H83  1  0.64178249  0.61968169  0.99033144  1
  H+  H84  1  0.35912333  -0.02244577  0.16086918  1
  H+  H85  1  0.37907500  -0.02726212  0.49192742  1
  H+  H86  1  0.61023216  0.47226712  0.82558964  1
  H+  H87  1  0.10921791  -0.02579176  0.15665156  1
  H+  H88  1  0.88945782  0.77466523  0.66318539  1
  H+  H89  1  0.61174213  0.12882164  0.34848968  1
  H+  H90  1  1.01946943  0.63465613  0.67739093  1
  H+  H91  1  0.26228162  0.38315423  0.16981998  1
  H+  H92  1  0.64271898  0.35520459  0.32880208  1
  H+  H93  1  0.63444203  0.35483803  -0.02491376  1
  H+  H94  1  0.64674205  0.62010435  0.66050835  1
  H+  H95  1  0.35020686  0.88521451  0.69153152  1
  H+  H96  1  0.02427518  0.12970785  0.67166728  1
  H+  H97  1  0.35065448  0.62034566  0.49343073  1
  H+  H98  1  0.21789717  0.35434020  0.83884160  1
  H+  H99  1  0.92104678  0.07655117  0.57072090  1
  H+  H100  1  0.13255890  0.76971275  0.67009374  1
  H+  H101  1  0.09233749  0.62964147  0.83685646  1
  H+  H102  1  0.38293348  0.61695038  0.32988887  1
  H+  H103  1  0.63057133  0.73270745  0.67276172  1
  H+  H104  1  0.62888830  0.50765506  0.32137220  1
  H+  H105  1  0.52640089  0.37065853  0.33895046  1
  H+  H106  1  0.86524097  0.46727772  0.84234742  1
  H+  H107  1  0.37227070  0.96957857  0.33544314  1
  H+  H108  1  0.63760204  0.10325312  0.17440992  1
  H+  H109  1  -0.03558470  0.09948962  0.33662689  1
  H+  H110  1  0.09998061  -0.02592432  0.33652122  1
  H+  H111  1  0.73331490  0.35861187  0.33221415  1
  H+  H112  1  0.13495954  0.61115787  0.32791518  1
  H+  H113  1  0.02669387  0.39051530  0.81540563  1
  H+  H114  1  0.45401941  0.82261867  0.51635679  1
  H+  H115  1  0.58714823  0.10642690  0.80861837  1
  H+  H116  1  0.12809257  0.10167177  0.84021342  1
  H+  H117  1  0.47165313  0.86625548  1.00033498  1
  H+  H118  1  0.86507548  0.63523359  -0.00608479  1
  H+  H119  1  0.38325095  0.10368651  0.17146390  1
  H+  H120  1  0.01502046  0.87606142  0.00443862  1
  H+  H121  1  0.24407316  0.88105986  0.16069382  1
  H+  H122  1  0.36596321  0.09581650  0.65601399  1
  H+  H123  1  0.36009974  0.88434118  0.00787946  1
  H+  H124  1  0.22005375  0.10172921  0.16663323  1
  H+  H125  1  0.11880106  0.13716698  0.49339321  1
  H+  H126  1  0.86663182  0.13735464  0.83006166  1
  H+  H127  1  0.79190586  0.65327243  0.15823821  1
  H+  H128  1  0.47734105  0.35481875  0.83513433  1
  H+  H129  1  0.55975981  0.93151313  0.49196775  1
  H+  H130  1  0.13497158  0.52781834  0.16962436  1
  H+  H131  1  0.87503194  0.77746806  0.83767536  1
  H+  H132  1  0.07779554  0.15545611  0.76648699  1
  H+  H133  1  0.77374820  0.63651150  0.67491868  1
  H+  H134  1  0.90466514  0.63864259  0.17478500  1
  H+  H135  1  0.16602140  0.32554269  0.56661942  1
  H+  H136  1  0.12772236  0.85150309  0.99461032  1
  H+  H137  1  0.73495328  0.87355302  0.66512016  1
  H+  H138  1  0.35102509  0.11106846  0.80880112  1
  H+  H139  1  0.76883569  0.89434463  0.50350258  1
  H+  H140  1  0.24137411  0.63293390  0.66077986  1
  H+  H141  1  0.87832578  0.53326472  0.50268086  1
  H+  H142  1  0.37302817  0.88039259  0.49531474  1
  H+  H143  1  0.10766629  0.96050794  0.00767765  1
  H+  H144  1  0.47351203  0.62065641  0.33273719  1
  H+  H145  1  0.68049931  0.71133784  0.37714499  1
  H+  H146  1  0.23851529  0.63509273  0.83968847  1
  H+  H147  1  0.08245976  0.91748106  0.73109878  1
  H+  H148  1  0.34902168  0.91208554  0.39366417  1
  H+  H149  1  0.61133478  0.72277246  0.83149802  1
  H+  H150  1  0.83362642  0.66560634  0.73479621  1
  H+  H151  1  0.81929427  0.44780516  0.13760044  1
  H+  H152  1  0.37159725  0.76814964  0.67482593  1
  H+  H153  1  0.63928192  0.52759189  0.66268082  1
  H+  H154  1  0.12778023  0.76702594  0.50736084  1
  H+  H155  1  0.97871399  0.34549776  0.49989176  1
  H+  H156  1  0.88869066  0.52397179  0.32898780  1
  H+  H157  1  0.61803674  0.64770941  0.16039613  1
  H+  H158  1  0.87593938  0.26063628  0.83659957  1
  H+  H159  1  0.61837125  0.22066553  0.34636130  1
  H+  H160  1  1.08019439  0.42115998  0.09761056  1
  H+  H161  1  0.21801356  0.85395273  0.99220652  1
  H+  H162  1  0.96627457  0.60219362  0.86814333  1
  H+  H163  1  0.86409814  0.22002571  0.48569444  1
  H+  H164  1  0.15116357  0.62927879  0.66387724  1
  H+  H165  1  1.02141948  0.36896232  0.66437942  1
  H+  H166  1  0.88332596  0.77379875  -0.01401250  1
  H+  H167  1  0.38484016  0.51601064  0.50531145  1
  H+  H168  1  0.88315247  0.35843094  0.98304447  1
  H+  H169  1  0.13868813  0.87315251  0.16439004  1
  H+  H170  1  0.41612106  0.31757812  0.89317050  1
  H+  H171  1  0.36923969  0.47445792  0.33486114  1
  H+  H172  1  0.44839093  0.33273453  0.18368740  1
  H+  H173  1  0.61009645  0.88971011  0.01260467  1
  H+  H174  1  0.73004671  0.11194030  0.82307871  1
  H+  H175  1  0.61295570  0.13204395  0.00959605  1
  H+  H176  1  0.63311175  0.10192400  0.66986388  1
  H+  H177  1  0.72680370  0.86883603  0.00022805  1
  H+  H178  1  0.10457196  0.47600534  0.33998008  1
  H+  H179  1  0.01543717  0.88642328  0.82158990  1
  H+  H180  1  0.85637909  0.63730105  0.84089901  1
  H+  H181  1  0.14177466  0.62028889  0.17007590  1
  H+  H182  1  0.11400055  0.21716170  0.67064186  1
  H+  H183  1  0.26884501  0.63824265  0.00501479  1
  H+  H184  1  0.88687261  0.36463068  0.65509171  1
  H+  H185  1  0.76349339  0.13872616  0.48942914  1
  H+  H186  1  0.77787115  0.93522081  0.79309315  1
  H+  H187  1  0.87756935  0.74219248  0.15539362  1
  H+  H188  1  0.21820515  0.36625136  -0.02276428  1
  H+  H189  1  0.91311173  0.78978715  0.50867548  1
  H+  H190  1  0.22197150  0.70426018  0.86894566  1
  H+  H191  1  0.10633935  0.39321784  1.00292867  1
  H+  H192  1  0.10746858  -0.02876631  0.82517008  1
  H+  H193  1  0.46059619  0.16189026  0.92576930  1
  H+  H194  1  0.90615454  0.06904997  0.27826866  1
  H+  H195  1  0.23567868  0.11611319  0.50456972  1
  H+  H196  1  0.07497698  0.90851367  0.09900246  1
  H+  H197  1  0.57570654  0.15132892  0.09994336  1
  H+  H198  1  0.09601796  0.88265794  0.34239131  1
  H+  H199  1  0.86627263  -0.02173393  1.00416401  1
  H+  H200  1  0.39712690  0.77526491  0.33571876  1
  H+  H201  1  0.29936429  0.38370124  0.31153634  1
  H+  H202  1  0.85506690  -0.03485556  0.34886672  1
  H+  H203  1  0.61409950  0.39568564  0.67334057  1
  H+  H204  1  0.47158639  0.10017507  0.17067378  1
  H+  H205  1  0.61944197  0.48437415  -0.01810753  1
  H+  H206  1  0.85866870  0.63181194  0.33412481  1
  H+  H207  1  0.97640805  0.87261921  0.17233362  1
  H+  H208  1  0.09320904  0.21401397  0.33841036  1
  H+  H209  1  0.72670966  0.86465148  0.32525900  1
  H+  H210  1  0.16902998  0.58291348  0.57269538  1
  H+  H211  1  0.76784412  0.63432310  0.82891466  1
  H+  H212  1  0.89008583  1.02312942  0.66327187  1
  H+  H213  1  0.45682359  0.04850203  0.83167968  1
  H+  H214  1  0.41036534  0.82255343  0.89982885  1
  H+  H215  1  0.87347570  0.36000304  0.83856611  1
  H+  H216  1  0.27090159  0.63353386  0.33923650  1
  H+  H217  1  0.90547802  0.63198020  0.49993338  1
  H+  H218  1  0.35106418  0.58813722  0.66421062  1
  H+  H219  1  0.88901407  0.11181633  0.99061360  1
  H+  H220  1  0.01900965  0.63144172  -0.00299092  1
  H+  H221  1  0.11112503  0.00355257  0.49009854  1
  H+  H222  1  0.13026231  0.51044573  0.51861286  1
  H+  H223  1  0.85475155  0.41993018  0.52960341  1
  H+  H224  1  0.25907514  0.61655134  0.49522908  1
  H+  H225  1  0.25975056  0.88067613  0.68841420  1
  H+  H226  1  0.62766797  0.73667662  0.33649260  1
  H+  H227  1  0.87468617  0.48905750  0.67376354  1
  H+  H228  1  0.58703775  0.41107589  0.39712285  1
  H+  H229  1  0.34778066  0.20647378  0.15820767  1
  H+  H230  1  0.46752081  0.84550486  0.84082082  1
  H+  H231  1  0.34228157  0.45839810  0.67295108  1
  H+  H232  1  0.66045063  0.30156442  0.67108756  1
  H+  H233  1  0.61383027  0.88672536  0.34135272  1
  H+  H234  1  0.26939412  0.37649343  0.49544842  1
  H+  H235  1  0.18829941  0.34573936  0.34634739  1
  H+  H236  1  0.58595018  0.42449171  0.20894965  1
  H+  H237  1  0.47390519  0.36080020  -0.01437575  1
  H+  H238  1  0.38330166  0.35763730  0.97771594  1
  H+  H239  1  0.52076583  0.38715641  0.67109873  1
  H+  H240  1  0.36194941  0.22143372  0.66252254  1
  H+  H241  1  0.10361989  0.16823007  -0.04335880  1
  H+  H242  1  0.61546990  0.97311416  0.16519399  1
  H+  H243  1  0.63826113  0.77923676  0.00100628  1
  H+  H244  1  0.63171859  0.59916574  0.32206226  1
  H+  H245  1  0.77306585  0.38276659  0.82748357  1
  H+  H246  1  0.39300681  0.34556051  0.33428269  1
  H+  H247  1  0.02547702  0.62539222  0.49373884  1
  H+  H248  1  0.63160169  0.26451668  0.98619100  1
  H+  H249  1  0.63175870  0.61046665  0.83352520  1
  H+  H250  1  0.11353038  -0.02528038  0.66968019  1
  H+  H251  1  0.93173330  0.84133784  0.57305651  1
  H+  H252  1  0.38950907  0.52533977  0.17961217  1
  H+  H253  1  0.62745858  0.32694285  0.18654584  1
  H+  H254  1  1.00639602  0.90344936  0.49929105  1
  H+  H255  1  0.21699130  0.10369886  0.32407536  1
  H+  H256  1  0.11943437  0.23100923  0.14636546  1
  H+  H257  1  0.35727137  0.00100722  0.66471898  1
  H+  H258  1  0.13058006  0.36606578  0.17151645  1
  H+  H259  1  0.88476451  0.61654397  0.66190567  1
  H+  H260  1  0.87671599  0.15040321  0.16789604  1
  H+  H261  1  0.87143004  0.22838243  1.00765912  1
  H+  H262  1  0.12848925  0.28035613  0.99115517  1
  H+  H263  1  0.32964410  0.96370900  0.78371921  1
  H+  H264  1  0.86811040  0.69116251  0.41967613  1
  H+  H265  1  0.37698125  0.60737861  0.83101775  1
  H+  H266  1  0.87228062  0.01509625  0.83703480  1
  H+  H267  1  0.50924023  0.86610007  0.67337209  1
  H+  H268  1  0.13615634  0.26800804  0.50608090  1
  H+  H269  1  0.40481931  0.56319631  1.05042678  1
  H+  H270  1  0.88150293  0.51495031  -0.03306924  1
  H+  H271  1  0.38474619  0.35706925  0.65847975  1
  H+  H272  1  0.22526201  0.09806695  0.99633027  1
  H+  H273  1  0.56751841  0.17964070  0.66131746  1
  H+  H274  1  0.61414941  0.72637858  0.50627832  1
  H+  H275  1  0.13589601  0.11030060  0.16366417  1
  H+  H276  1  0.36404559  0.34133827  0.18172711  1
  H+  H277  1  0.63108690  0.01320312  0.33414336  1
  H+  H278  1  0.02341017  0.39264268  0.15852538  1
  H+  H279  1  0.10523068  0.21749449  0.82391466  1
  H+  H280  1  0.35408201  0.20430590  0.34115060  1
  H+  H281  1  0.04011829  0.66063362  0.15997880  1
  H+  H282  1  0.64570396  0.36599096  0.82880420  1
  H+  H283  1  0.75407185  0.35335095  0.15352773  1
  H+  H284  1  0.74590548  0.38755956  0.66307351  1
  H+  H285  1  0.11098168  0.37442407  0.49534466  1
  H+  H286  1  0.88534215  0.36373514  0.17079317  1
  H+  H287  1  0.73022735  0.11109081  0.17777939  1
  H+  H288  1  0.14750233  0.81851539  0.89475254  1
  H+  H289  1  0.06791566  0.93473867  0.42802808  1
  H+  H290  1  0.82041715  0.15724234  0.42137660  1
  H+  H291  1  0.39914418  0.86528104  0.33090845  1
  H+  H292  1  0.98587447  0.17899027  0.22626632  1
  H+  H293  1  0.90746254  0.32408405  0.59626962  1
  H+  H294  1  0.67306321  0.84108583  0.26235529  1
  H+  H295  1  0.08706279  0.67550955  0.09549898  1
  H+  H296  1  0.82865859  0.91915645  0.44130061  1
  H+  H297  1  0.35691777  0.47519110  -0.02497563  1
  H+  H298  1  0.88986808  0.27792435  0.17359639  1
  H+  H299  1  0.08042405  0.40932169  0.43783968  1
  H+  H300  1  0.35275236  0.11600915  0.33941739  1
  H+  H301  1  0.13592770  0.10782400  0.65683683  1
  H+  H302  1  0.91549250  0.58928204  0.60111186  1
  H+  H303  1  0.17338791  0.08621083  0.56478764  1
  H+  H304  1  0.96418497  0.74094608  0.44100321  1
  H+  H305  1  0.17428846  0.59940573  0.93397073  1
  H+  H306  1  0.42242622  0.08217813  0.26852446  1
  H+  H307  1  0.53602235  0.12525506  0.75977027  1
  H+  H308  1  0.09087190  0.17178722  0.08704821  1
  H+  H309  1  0.84620111  0.17329193  0.10585145  1
  H+  H310  1  0.82361433  0.40358746  0.04683289  1
  H+  H311  1  0.61120572  0.47460436  0.49214951  1
  H+  H312  1  0.91075589  0.83738122  0.92870238  1
  H+  H313  1  0.38568142  0.35398791  0.50381526  1
  H+  H314  1  0.84536844  0.66711039  0.05718999  1
  H+  H315  1  0.47316076  0.11256648  0.51384583  1
  H+  H316  1  0.40305822  0.06966423  0.56734955  1
  H+  H317  1  0.66886073  0.32478876  0.88421616  1
  H+  H318  1  0.36089749  0.74525378  0.51404546  1
  H+  H319  1  0.65804209  0.08926158  0.87216573  1
  H+  H320  1  0.41743523  0.58912447  0.89048291  1
  H+  H321  1  0.32898706  0.15175554  0.09638056  1
  H+  H322  1  0.91273112  0.84045838  0.23087914  1
  H+  H323  1  0.90970980  0.33011600  0.26767408  1
  H+  H324  1  0.38857215  0.86085871  0.16535717  1
  H+  H325  1  0.57212754  0.89181013  0.43202503  1
  H+  H326  1  0.68533065  0.07708211  0.95879664  1
  H+  H327  1  0.16268203  0.58065688  0.26781798  1
  H+  H328  1  0.34247593  0.16379242  0.72200527  1
  H+  H329  1  0.66159195  0.07341143  0.27382669  1
  H+  H330  1  0.67283128  0.58727237  0.22933070  1
  H+  H331  1  0.39240495  0.82085259  0.61310696  1
  H+  H332  1  0.15805458  0.06866889  0.89743723  1
  H+  H333  1  0.68665031  0.11417038  0.61076933  1
  H+  H334  1  0.66684883  0.34429772  0.56793648  1
  H+  H335  1  0.84756116  0.42703893  0.73270979  1
  H+  H336  1  0.32631843  0.40312490  0.43513344  1
  H+  H337  1  0.08352467  0.40416084  0.72149392  1
  H+  H338  1  0.67222515  0.30812956  0.24089860  1
  H+  H339  1  0.85497327  0.87651513  0.34679650  1
  H+  H340  1  0.58043095  0.91597107  0.07384974  1
  H+  H341  1  0.07968674  0.15900178  0.43489410  1
  H+  H342  1  0.57588433  0.40373453  0.13939634  1
  H+  H343  1  0.41571090  0.06368946  0.91553755  1
  H+  H344  1  0.58446601  0.67214602  0.44547189  1
  H+  H345  1  0.41826223  0.33185651  0.59798362  1
  H+  H346  1  0.15055027  0.32855071  0.89249778  1
  H+  H347  1  0.42299759  0.59277892  0.23389306  1
  H+  H348  1  0.56852854  0.88939322  0.73162506  1
  H+  H349  1  0.10610254  0.72193589  0.00123620  1
  H+  H350  1  0.66506748  0.83005229  0.90834884  1
  H+  H351  1  0.66368222  0.58439870  0.89328966  1
  H+  H352  1  0.90962193  0.07840410  0.92683270  1
  H+  H353  1  0.67511431  0.83835131  0.57468049  1
  H+  H354  1  0.33707397  0.65945924  0.76106766  1
  H+  H355  1  0.58690450  0.66950760  0.06546071  1
  H+  H356  1  0.35959744  0.21822048  0.00332848  1
  H+  H357  1  0.84752853  0.92588253  0.73769299  1
  H+  H358  1  0.13005261  0.34551315  0.65600043  1
  H+  H359  1  0.60111198  0.42491713  0.03744413  1
  H+  H360  1  0.15102523  0.82348458  0.56531299  1
  H+  H361  1  0.57959183  0.41397306  0.76618822  1
  H+  H362  1  0.11122761  0.35845011  0.32999432  1
  H+  H363  1  -0.01825717  0.10320813  0.50924965  1
  H+  H364  1  0.14476442  0.78330176  0.16148355  1
  H+  H365  1  0.38112521  0.56049535  0.60299480  1
  H+  H366  1  0.32647645  0.66652260  0.06599749  1
  H+  H367  1  0.58310058  0.16978200  0.44060088  1
  H+  H368  1  0.16976867  0.84005954  0.27993282  1
  H+  H369  1  0.51980436  0.88050380  0.34481787  1
  H+  H370  1  0.52533937  0.64099107  0.16027902  1
  H+  H371  1  0.11274573  0.62195579  0.49549544  1
  H+  H372  1  0.73083430  0.61831109  0.98778020  1
  H+  H373  1  0.84032120  0.41935241  0.40291239  1
  H+  H374  1  0.84382028  0.17205333  0.76776087  1
  H+  H375  1  0.15212185  0.33055301  0.23235208  1
  H+  H376  1  0.91071799  0.32617095  0.89995577  1
  H+  H377  1  0.15946024  0.07977259  0.26351283  1
  H+  H378  1  0.41614773  0.69845495  0.69856801  1
  H+  H379  1  0.83318475  0.91437334  0.09112328  1
  H+  H380  1  0.32565005  0.40780322  0.11403030  1
  H+  H381  1  0.32459632  0.65632360  0.40112731  1
  H+  H382  1  0.59611243  0.67109738  0.73020125  1
  H+  H383  1  0.36574889  0.47207241  0.83134436  1
  O2-  O384  1  0.09121618  0.17061097  0.13175275  1
  O2-  O385  1  0.08184428  0.16153292  0.48008747  1
  O2-  O386  1  0.07441442  0.15578283  0.81200069  1
  O2-  O387  1  0.08375086  0.42121308  0.14315002  1
  O2-  O388  1  0.07588970  0.40154444  0.48274250  1
  O2-  O389  1  0.08508507  0.41838964  0.79943492  1
  O2-  O390  1  0.09772259  0.68555464  0.14039815  1
  O2-  O391  1  0.08359250  0.65097359  0.47585425  1
  O2-  O392  1  0.04885059  0.64622734  0.82657780  1
  O2-  O393  1  0.07910502  0.91162543  0.14490587  1
  O2-  O394  1  0.06040318  0.95026197  0.47096755  1
  O2-  O395  1  0.07561646  0.91112853  0.80769430  1
  O2-  O396  1  0.32411748  0.14723261  0.14171768  1
  O2-  O397  1  0.33396013  0.16103029  0.47786024  1
  O2-  O398  1  0.37658479  0.16743996  0.78884056  1
  O2-  O399  1  0.32514843  0.40972740  0.15836906  1
  O2-  O400  1  0.33015450  0.40537342  0.47965969  1
  O2-  O401  1  0.32962907  0.40783793  0.83117155  1
  O2-  O402  1  0.32964664  0.66214020  0.14189788  1
  O2-  O403  1  0.31867891  0.64869998  0.47761424  1
  O2-  O404  1  0.32863763  0.65033817  0.81104984  1
  O2-  O405  1  0.32340279  0.91669274  0.14375743  1
  O2-  O406  1  0.36913766  0.92209845  0.46823655  1
  O2-  O407  1  0.33019037  0.99666292  0.82052257  1
  O2-  O408  1  0.57446253  0.14400868  0.14500169  1
  O2-  O409  1  0.58469512  0.17264163  0.48632494  1
  O2-  O410  1  0.53960849  0.11847017  0.80439587  1
  O2-  O411  1  0.56182949  0.37730234  0.17962016  1
  O2-  O412  1  0.58402015  0.41379202  0.47436781  1
  O2-  O413  1  0.58178722  0.41123289  0.81172761  1
  O2-  O414  1  0.58506433  0.67364900  0.14330530  1
  O2-  O415  1  0.57988685  0.66661022  0.48997749  1
  O2-  O416  1  0.58307009  0.66457961  0.81251596  1
  O2-  O417  1  0.58726109  0.91394551  0.14765004  1
  O2-  O418  1  0.56469074  0.88290746  0.47807658  1
  O2-  O419  1  0.57653725  0.89894305  0.81242550  1
  O2-  O420  1  0.84145437  0.17412484  0.15121460  1
  O2-  O421  1  0.82226747  0.15909420  0.46971753  1
  O2-  O422  1  0.83841972  0.17109460  0.81403220  1
  O2-  O423  1  0.81007427  0.39022943  0.13145800  1
  O2-  O424  1  0.82745581  0.41086996  0.48976800  1
  O2-  O425  1  0.83950352  0.41229064  0.81957012  1
  O2-  O426  1  0.85139023  0.68077514  0.14207811  1
  O2-  O427  1  0.90553289  0.71043169  0.45667091  1
  O2-  O428  1  0.83080402  0.66664123  0.81874718  1
  O2-  O429  1  0.82796557  0.91091785  0.13835682  1
  O2-  O430  1  0.82965533  0.92837367  0.48626152  1
  O2-  O431  1  0.82408656  0.93186494  0.81377863  1
  O2-  O432  1  0.15953338  0.07579496  0.18182119  1
  O2-  O433  1  0.17412319  0.08974279  0.51880313  1
  O2-  O434  1  0.15711578  0.06939727  0.85277923  1
  O2-  O435  1  0.15896743  0.33369700  0.18750024  1
  O2-  O436  1  0.16683668  0.32880499  0.52032073  1
  O2-  O437  1  0.15529691  0.32444417  0.84785512  1
  O2-  O438  1  0.16759046  0.58705109  0.18684211  1
  O2-  O439  1  0.16218869  0.57275447  0.52676632  1
  O2-  O440  1  0.19360467  0.64208904  0.86355692  1
  O2-  O441  1  0.17447999  0.84543554  0.17675999  1
  O2-  O442  1  0.13112306  0.81972270  0.52309928  1
  O2-  O443  1  0.13806574  0.80823057  0.85061283  1
  O2-  O444  1  0.41176423  0.07216321  0.18756617  1
  O2-  O445  1  0.41087731  0.07903630  0.52227109  1
  O2-  O446  1  0.40304038  0.00462907  0.85637725  1
  O2-  O447  1  0.38713959  0.30391127  0.19540554  1
  O2-  O448  1  0.41959260  0.32717761  0.51799900  1
  O2-  O449  1  0.41552459  0.32246167  0.84832683  1
  O2-  O450  1  0.42205591  0.58766522  0.18847490  1
  O2-  O451  1  0.40774623  0.57521555  0.52096970  1
  O2-  O452  1  0.41288453  0.57933710  0.84677111  1
  O2-  O453  1  0.42436271  0.83437503  0.17051510  1
  O2-  O454  1  0.39606239  0.80410385  0.53188423  1
  O2-  O455  1  0.40780414  0.81102866  0.85590848  1
  O2-  O456  1  0.67023483  0.07750491  0.19295118  1
  O2-  O457  1  0.67959565  0.11326094  0.52600370  1
  O2-  O458  1  0.66636625  0.07714805  0.83051488  1
  O2-  O459  1  0.66497388  0.30274581  0.19518052  1
  O2-  O460  1  0.66519337  0.33953789  0.52282200  1
  O2-  O461  1  0.67921890  0.33746481  0.84025131  1
  O2-  O462  1  0.68376041  0.60550895  0.18503722  1
  O2-  O463  1  0.65774695  0.56838507  0.52063144  1
  O2-  O464  1  0.66264486  0.57993013  0.84823237  1
  O2-  O465  1  0.67556687  0.84030789  0.17975303  1
  O2-  O466  1  0.67380690  0.83519431  0.52821117  1
  O2-  O467  1  0.66665679  0.82508683  0.86330864  1
  O2-  O468  1  0.95088113  0.12589214  0.20370905  1
  O2-  O469  1  0.92089527  0.07260963  0.52464822  1
  O2-  O470  1  0.90721014  0.08119865  0.85512244  1
  O2-  O471  1  0.91855427  0.33890540  0.18886331  1
  O2-  O472  1  0.91429069  0.31189909  0.51056326  1
  O2-  O473  1  0.90405675  0.32422862  0.85300328  1
  O2-  O474  1  0.93971641  0.61414898  0.19319275  1
  O2-  O475  1  0.91665119  0.58938090  0.52123899  1
  O2-  O476  1  0.90407347  0.56975556  0.88572799  1
  O2-  O477  1  0.91435646  0.84332104  0.18488330  1
  O2-  O478  1  0.93446212  0.84686069  0.52736398  1
  O2-  O479  1  0.90480840  0.83819519  0.85206311  1
  O2-  O480  1  0.15665931  0.07981713  0.30872573  1
  O2-  O481  1  0.16594029  0.07818813  0.63947166  1
  O2-  O482  1  0.16337471  0.06332451  0.98445715  1
  O2-  O483  1  0.14097790  0.32489575  0.31729857  1
  O2-  O484  1  0.16196736  0.31541890  0.64015541  1
  O2-  O485  1  0.15437267  0.33915101  0.97454762  1
  O2-  O486  1  0.16189045  0.57697370  0.31301171  1
  O2-  O487  1  0.18408476  0.60689949  0.64237575  1
  O2-  O488  1  0.16658660  0.58601284  0.97881620  1
  O2-  O489  1  0.12915836  0.82294752  0.31334493  1
  O2-  O490  1  0.16627111  0.82928023  0.65399819  1
  O2-  O491  1  0.15751619  0.82135487  0.97824753  1
  O2-  O492  1  0.41985186  0.08337169  0.31356340  1
  O2-  O493  1  0.39000986  0.05842576  0.64272341  1
  O2-  O494  1  0.43396436  0.10873538  0.94935071  1
  O2-  O495  1  0.41852102  0.31241631  0.31741954  1
  O2-  O496  1  0.41901408  0.33072851  0.64334533  1
  O2-  O497  1  0.41228254  0.32284965  0.97585166  1
  O2-  O498  1  0.41704375  0.58910981  0.31358727  1
  O2-  O499  1  0.36254248  0.54396252  0.64542254  1
  O2-  O500  1  0.40812291  0.57895133  1.00761972  1
  O2-  O501  1  0.43325297  0.83511433  0.32204529  1
  O2-  O502  1  0.39683522  0.82856983  0.65792063  1
  O2-  O503  1  0.41127028  0.83748260  0.98554055  1
  O2-  O504  1  0.66277012  0.07500743  0.31921387  1
  O2-  O505  1  0.68461135  0.10195504  0.65444112  1
  O2-  O506  1  0.67508747  0.08198074  1.00166369  1
  O2-  O507  1  0.67370791  0.32462424  0.31558110  1
  O2-  O508  1  0.68399833  0.35530011  0.64868013  1
  O2-  O509  1  0.66391659  0.32191638  0.96608864  1
  O2-  O510  1  0.65751907  0.56718218  0.30319105  1
  O2-  O511  1  0.67516665  0.58634282  0.64584660  1
  O2-  O512  1  0.67031119  0.58902645  0.97281771  1
  O2-  O513  1  0.66756904  0.83577644  0.30734819  1
  O2-  O514  1  0.67697051  0.83945500  0.64679015  1
  O2-  O515  1  0.66543716  0.84032103  0.98761559  1
  O2-  O516  1  0.90236889  0.06832848  0.32305864  1
  O2-  O517  1  0.91929729  0.08242619  0.64476698  1
  O2-  O518  1  0.91514489  0.07871179  0.97360628  1
  O2-  O519  1  0.90824142  0.32804208  0.31324166  1
  O2-  O520  1  0.90880191  0.32648406  0.64108015  1
  O2-  O521  1  0.91633930  0.32972838  0.96977609  1
  O2-  O522  1  0.91759081  0.58581533  0.31717569  1
  O2-  O523  1  0.91494159  0.58581802  0.64630926  1
  O2-  O524  1  0.91335232  0.57637192  0.95318758  1
  O2-  O525  1  0.90740306  0.83089653  0.30754342  1
  O2-  O526  1  0.91938635  0.83498561  0.64791555  1
  O2-  O527  1  0.91233636  0.83554020  0.97461465  1
  O2-  O528  1  0.07923528  0.16192319  -0.00262117  1
  O2-  O529  1  0.06853330  0.15426953  0.35363218  1
  O2-  O530  1  0.08427960  0.15691802  0.68749510  1
  O2-  O531  1  0.07447447  0.42180401  0.01809333  1
  O2-  O532  1  0.07325560  0.41533953  0.35625164  1
  O2-  O533  1  0.08145009  0.39220001  0.67706166  1
  O2-  O534  1  0.07518783  0.66125391  0.01788102  1
  O2-  O535  1  0.08828351  0.66480034  0.35583418  1
  O2-  O536  1  0.07722488  0.66337361  0.69668274  1
  O2-  O537  1  0.07323959  0.90025807  0.02341222  1
  O2-  O538  1  0.06725318  0.91622001  0.35586166  1
  O2-  O539  1  0.08165061  0.91461767  0.68545817  1
  O2-  O540  1  0.33184820  0.15718321  0.01728574  1
  O2-  O541  1  0.31888519  0.14339390  0.35396578  1
  O2-  O542  1  0.32924993  0.16070939  0.67685014  1
  O2-  O543  1  0.32717001  0.41413294  -0.03859236  1
  O2-  O544  1  0.33992321  0.41189798  0.34472909  1
  O2-  O545  1  0.32376651  0.39744582  0.68852464  1
  O2-  O546  1  0.32983051  0.66799193  0.02029109  1
  O2-  O547  1  0.33050226  0.66020379  0.35552773  1
  O2-  O548  1  0.35395102  0.67357428  0.70019066  1
  O2-  O549  1  0.32640345  0.91297264  0.02250432  1
  O2-  O550  1  0.34449056  0.90905604  0.34823678  1
  O2-  O551  1  0.31987733  0.91614092  0.70528564  1
  O2-  O552  1  0.58063772  0.16206079  0.01997608  1
  O2-  O553  1  0.58421252  0.16175080  0.36360030  1
  O2-  O554  1  0.54416967  0.12449264  0.68153710  1
  O2-  O555  1  0.58953706  0.42153547  -0.00597756  1
  O2-  O556  1  0.58770774  0.40775955  0.35121730  1
  O2-  O557  1  0.57987992  0.42053835  0.68929620  1
  O2-  O558  1  0.58864547  0.67080299  0.01986472  1
  O2-  O559  1  0.62261525  0.68609495  0.36014507  1
  O2-  O560  1  0.60253225  0.67166446  0.68553251  1
  O2-  O561  1  0.58013758  0.92028859  0.02792766  1
  O2-  O562  1  0.58434654  0.91456469  0.36098047  1
  O2-  O563  1  0.56933629  0.88721696  0.68665243  1
  O2-  O564  1  0.84735148  0.17094954  0.02741326  1
  O2-  O565  1  0.82263065  0.15701529  0.35598442  1
  O2-  O566  1  0.84274295  0.16910505  0.69485156  1
  O2-  O567  1  0.82806186  0.40793916  0.00203006  1
  O2-  O568  1  0.83787495  0.41894320  0.35821101  1
  O2-  O569  1  0.84463101  0.42695102  0.68776340  1
  O2-  O570  1  0.83748614  0.66561880  0.01243661  1
  O2-  O571  1  0.82817840  0.66353150  0.34643354  1
  O2-  O572  1  0.83533921  0.66727256  0.68970279  1
  O2-  O573  1  0.83643940  0.91866858  0.02198172  1
  O2-  O574  1  0.82358021  0.90462203  0.36411035  1
  O2-  O575  1  0.84530494  0.92465535  0.69191635  1
