# generated using pymatgen
data_H2O
_symmetry_space_group_name_H-M   'P 1'
_cell_length_a   17.94379295
_cell_length_b   17.93649352
_cell_length_c   21.93104314
_cell_angle_alpha   90.15598155
_cell_angle_beta   89.90285878
_cell_angle_gamma   119.97509217
_symmetry_Int_Tables_number   1
_chemical_formula_structural   H2O
_chemical_formula_sum   'H384 O192'
_cell_volume   6114.33206388
_cell_formula_units_Z   192
loop_
 _symmetry_equiv_pos_site_id
 _symmetry_equiv_pos_as_xyz
  1  'x, y, z'
loop_
 _atom_type_symbol
 _atom_type_oxidation_number
  H+  1.0
  O2-  -2.0
loop_
 _atom_site_type_symbol
 _atom_site_label
 _atom_site_symmetry_multiplicity
 _atom_site_fract_x
 _atom_site_fract_y
 _atom_site_fract_z
 _atom_site_occupancy
  H+  H0  1  0.88811544  0.62479120  0.67402350  1
  H+  H1  1  0.25554623  0.87272818  0.49198124  1
  H+  H2  1  0.38772247  0.78437690  0.50153547  1
  H+  H3  1  0.51462041  0.53020854  0.82790860  1
  H+  H4  1  0.63308312  0.50622870  0.84381154  1
  H+  H5  1  0.12590179  0.99101851  0.82793134  1
  H+  H6  1  0.36718820  0.23218059  0.49957052  1
  H+  H7  1  0.37246360  0.86502327  0.49861549  1
  H+  H8  1  0.65700828  0.40332289  0.64302241  1
  H+  H9  1  0.40357588  0.80049135  0.18275983  1
  H+  H10  1  0.52576282  0.38295494  0.67454753  1
  H+  H11  1  0.86460287  0.01886151  0.51649239  1
  H+  H12  1  0.84983795  0.13675311  0.50297264  1
  H+  H13  1  0.32533928  0.78675201  0.34505305  1
  H+  H14  1  0.76077353  0.88511150  0.67830121  1
  H+  H15  1  0.73397104  0.36121635  1.00506157  1
  H+  H16  1  0.14623071  0.56345180  0.84611321  1
  H+  H17  1  -0.00433136  0.83690238  0.13720553  1
  H+  H18  1  0.37780965  0.27250088  0.17846307  1
  H+  H19  1  0.51693535  0.39046577  0.17155449  1
  H+  H20  1  0.73720937  0.86938838  0.84713568  1
  H+  H21  1  0.97895562  0.14694376  0.46383448  1
  H+  H22  1  0.87893521  0.23804019  1.01199204  1
  H+  H23  1  0.27946594  0.09991777  0.83940838  1
  H+  H24  1  0.86348342  0.98311214  0.33823386  1
  H+  H25  1  0.39285126  0.54487844  0.67736223  1
  H+  H26  1  0.38987686  0.53013651  0.51992151  1
  H+  H27  1  0.73953819  0.85481919  -0.00061188  1
  H+  H28  1  0.89213743  0.85377557  0.98518036  1
  H+  H29  1  0.77744131  0.63087994  0.33394122  1
  H+  H30  1  0.10179054  0.74207975  0.84692367  1
  H+  H31  1  0.60670769  -0.01101581  0.48727962  1
  H+  H32  1  0.16575016  0.09563925  0.81957808  1
  H+  H33  1  0.16077998  0.61654137  1.01786713  1
  H+  H34  1  0.85642079  0.88992780  0.33272494  1
  H+  H35  1  0.02747664  0.05506313  0.53286458  1
  H+  H36  1  0.47161904  0.87525813  0.65861310  1
  H+  H37  1  0.35744989  0.00934895  0.52519003  1
  H+  H38  1  0.99919624  0.16263341  0.43297394  1
  H+  H39  1  0.67870061  0.67507467  0.34615267  1
  H+  H40  1  0.09405619  0.47873302  0.33359809  1
  H+  H41  1  0.39244164  0.08441377  0.62641922  1
  H+  H42  1  0.51627660  0.37949366  0.48936118  1
  H+  H43  1  0.42715118  0.86723100  0.96972943  1
  H+  H44  1  0.78337089  0.62087092  0.98177400  1
  H+  H45  1  0.39781197  0.33839011  0.27059874  1
  H+  H46  1  0.48888543  0.71740541  0.80028618  1
  H+  H47  1  0.15670980  0.28808575  0.47616546  1
  H+  H48  1  0.87295257  0.62998137  0.00137587  1
  H+  H49  1  0.12362796  0.76645430  0.50847509  1
  H+  H50  1  0.10993288  0.02452057  0.19586926  1
  H+  H51  1  0.16920525  0.17732108  0.45848535  1
  H+  H52  1  0.02915349  0.13987002  0.00251403  1
  H+  H53  1  0.60115688  0.38221316  0.17048421  1
  H+  H54  1  0.12534028  0.41607181  0.68078337  1
  H+  H55  1  0.97521689  0.11954369  0.32375220  1
  H+  H56  1  0.72398681  0.10746682  0.65606860  1
  H+  H57  1  0.18964322  0.61613375  0.31166583  1
  H+  H58  1  0.29737200  0.41588789  0.67340609  1
  H+  H59  1  0.37312034  0.01029290  0.14821063  1
  H+  H60  1  0.65378002  0.74654133  0.82834985  1
  H+  H61  1  0.35654993  0.12919421  0.16044730  1
  H+  H62  1  0.72967245  0.11323491  0.32678520  1
  H+  H63  1  0.89413129  0.11621121  1.00009254  1
  H+  H64  1  0.73654152  0.13023068  0.84238660  1
  H+  H65  1  0.65749968  0.08053859  0.56160641  1
  H+  H66  1  0.97767049  0.86791605  0.82789308  1
  H+  H67  1  0.85392884  0.72739890  0.66828650  1
  H+  H68  1  0.10953461  0.43147484  0.86909000  1
  H+  H69  1  0.25604288  0.68927929  0.82571518  1
  H+  H70  1  0.27411846  0.55246132  0.45210629  1
  H+  H71  1  0.53388505  0.13868899  0.00327750  1
  H+  H72  1  0.60304456  0.12802697  0.16187819  1
  H+  H73  1  0.49159369  0.37689873  0.33901552  1
  H+  H74  1  0.63995693  0.78345675  0.51864522  1
  H+  H75  1  0.88750350  0.38263798  0.82045908  1
  H+  H76  1  0.22477352  0.63224573  0.66581293  1
  H+  H77  1  0.61063514  0.18498146  0.73741425  1
  H+  H78  1  0.72114388  0.11759369  0.16774701  1
  H+  H79  1  0.11167301  0.14546194  0.15654852  1
  H+  H80  1  0.38284977  0.61319269  0.51578922  1
  H+  H81  1  0.89226603  0.76615034  -0.02847789  1
  H+  H82  1  0.60891120  0.47559885  0.68089280  1
  H+  H83  1  0.87170147  0.50467441  0.17707795  1
  H+  H84  1  0.10627052  0.63676922  0.49695230  1
  H+  H85  1  0.42481475  0.14657314  0.32122524  1
  H+  H86  1  0.02773602  0.41334526  0.83004032  1
  H+  H87  1  1.03956377  0.05515711  0.56565303  1
  H+  H88  1  0.38567825  0.72484489  0.00018554  1
  H+  H89  1  0.10630727  0.96506275  0.47820972  1
  H+  H90  1  0.17776542  0.07284613  0.42398620  1
  H+  H91  1  0.37085508  0.37511911  0.33022283  1
  H+  H92  1  0.39618061  0.11142047  0.98880783  1
  H+  H93  1  0.71794328  0.61193833  0.66462392  1
  H+  H94  1  0.26660622  0.87103464  0.83292503  1
  H+  H95  1  0.61540314  0.22640274  0.83904486  1
  H+  H96  1  0.11556815  0.23766828  0.31871969  1
  H+  H97  1  0.78280346  0.41766237  0.66867768  1
  H+  H98  1  0.86551972  -0.01534199  0.82845674  1
  H+  H99  1  0.52864806  0.64823926  0.49837510  1
  H+  H100  1  0.40211052  0.98330573  -0.00894603  1
  H+  H101  1  0.87949384  0.36204516  0.50015315  1
  H+  H102  1  0.86092254  0.13393763  0.67945385  1
  H+  H103  1  0.97655067  0.10470346  0.17227815  1
  H+  H104  1  0.86852325  0.37104831  1.01841305  1
  H+  H105  1  0.17161921  0.07877476  0.92831221  1
  H+  H106  1  0.37564014  0.36134808  0.17606491  1
  H+  H107  1  1.00925841  0.38718927  0.49382837  1
  H+  H108  1  0.89565328  0.61616350  0.52390590  1
  H+  H109  1  0.58129029  0.92796253  0.41401867  1
  H+  H110  1  0.47801196  0.61386801  0.17792729  1
  H+  H111  1  0.94989322  0.84473761  0.31718059  1
  H+  H112  1  0.85878718  0.39716053  0.67923753  1
  H+  H113  1  0.06711829  0.91006531  0.73324141  1
  H+  H114  1  0.27235151  0.15923814  0.68181663  1
  H+  H115  1  0.06424215  0.40832032  0.09945322  1
  H+  H116  1  0.07374223  0.42566045  0.39648407  1
  H+  H117  1  0.86720241  0.96522748  0.15964080  1
  H+  H118  1  0.96779324  0.85653649  0.50292840  1
  H+  H119  1  0.78089553  0.62247155  0.51009451  1
  H+  H120  1  0.36079274  0.09892141  0.52426362  1
  H+  H121  1  0.87685399  0.84548392  0.16342958  1
  H+  H122  1  1.00086965  0.60493565  1.03486818  1
  H+  H123  1  0.86128975  0.23713814  0.82017877  1
  H+  H124  1  0.37850850  0.15980520  0.33925117  1
  H+  H125  1  0.25780616  0.88630498  0.67538204  1
  H+  H126  1  0.92439102  0.35445997  0.76577530  1
  H+  H127  1  0.13100795  0.01991251  0.03413737  1
  H+  H128  1  0.89325965  0.53787197  0.67824048  1
  H+  H129  1  0.35536905  0.61983857  0.32301700  1
  H+  H130  1  0.10177146  0.87466875  0.48839567  1
  H+  H131  1  0.60208720  0.22234331  0.67485638  1
  H+  H132  1  0.39426408  0.08839680  0.84121749  1
  H+  H133  1  0.51193932  0.89934194  0.48269094  1
  H+  H134  1  0.22001560  0.37121528  0.17058305  1
  H+  H135  1  0.02206461  0.65002986  0.69173267  1
  H+  H136  1  0.86183860  0.22461566  0.67440796  1
  H+  H137  1  0.13592994  0.04591143  0.12657731  1
  H+  H138  1  0.80566322  0.72155133  0.30614534  1
  H+  H139  1  0.35177583  0.69482842  0.11053079  1
  H+  H140  1  0.64350803  0.11703130  0.99233258  1
  H+  H141  1  0.88348175  0.11933461  0.84362450  1
  H+  H142  1  0.60632347  0.21677144  0.47875229  1
  H+  H143  1  0.43141179  -0.06046679  0.25185659  1
  H+  H144  1  0.11919715  0.51914329  0.51483056  1
  H+  H145  1  0.63264491  0.78174762  0.66506231  1
  H+  H146  1  0.61984754  0.98488823  0.15477204  1
  H+  H147  1  0.11201233  0.65209996  0.69002410  1
  H+  H148  1  0.87065848  0.01314576  0.67222041  1
  H+  H149  1  0.10099849  0.96141965  0.33150990  1
  H+  H150  1  0.13922138  0.36586086  0.99339814  1
  H+  H151  1  0.12781274  0.37116328  0.32302510  1
  H+  H152  1  0.63417961  0.10216075  0.32388312  1
  H+  H153  1  0.84668607  0.74812475  0.82003371  1
  H+  H154  1  0.13661189  0.54218531  0.67145256  1
  H+  H155  1  0.12090120  0.10323366  0.68205641  1
  H+  H156  1  0.72478287  0.36254386  0.85167610  1
  H+  H157  1  0.84483459  0.45131340  0.42306651  1
  H+  H158  1  0.47122209  0.58652093  0.82500722  1
  H+  H159  1  0.39572815  0.61725218  1.02451635  1
  H+  H160  1  0.73069648  0.87601853  0.32813146  1
  H+  H161  1  0.64767955  0.78348845  0.33038218  1
  H+  H162  1  0.63466758  0.64665412  0.82946484  1
  H+  H163  1  0.89266072  0.33117526  0.28233664  1
  H+  H164  1  0.23440659  0.84039174  0.33357266  1
  H+  H165  1  0.39112121  0.27225391  0.99913827  1
  H+  H166  1  0.09824135  0.38680170  0.48679167  1
  H+  H167  1  0.62127014  0.72220087  0.01395726  1
  H+  H168  1  0.72234625  0.35481589  0.47368267  1
  H+  H169  1  0.55412875  0.89288100  -0.00443939  1
  H+  H170  1  0.40574393  0.00368403  0.83933467  1
  H+  H171  1  0.62672886  0.11240611  0.50155598  1
  H+  H172  1  0.61768411  0.63844145  0.17387831  1
  H+  H173  1  1.08226990  0.93644725  1.08194143  1
  H+  H174  1  0.41555539  0.60037371  0.61669694  1
  H+  H175  1  0.08376627  0.83760350  0.13757780  1
  H+  H176  1  0.95798660  0.36272988  0.33687542  1
  H+  H177  1  0.15092675  0.77326419  0.14443518  1
  H+  H178  1  0.36650796  0.19198564  0.84212302  1
  H+  H179  1  0.27282807  0.39309189  0.49808957  1
  H+  H180  1  0.41355484  0.84739822  0.59730612  1
  H+  H181  1  0.82781847  0.17147582  0.10318520  1
  H+  H182  1  0.10504683  0.62381360  0.11396303  1
  H+  H183  1  0.57245630  0.35199971  0.33697463  1
  H+  H184  1  0.57915692  0.63187074  0.33937258  1
  H+  H185  1  0.83372059  0.36473335  0.39955278  1
  H+  H186  1  0.08723400  0.12363864  0.85506254  1
  H+  H187  1  0.40262115  0.37789461  0.65986662  1
  H+  H188  1  0.16129262  0.88270876  0.88942738  1
  H+  H189  1  0.36953160  0.43644553  0.82559894  1
  H+  H190  1  0.35099395  0.23763412  0.34573286  1
  H+  H191  1  0.33509161  0.90858029  0.32305329  1
  H+  H192  1  0.13143806  0.28160846  0.17015996  1
  H+  H193  1  0.44281712  0.68319464  0.79512403  1
  H+  H194  1  0.49019711  0.86155772  0.87530305  1
  H+  H195  1  0.36081414  0.47985484  0.16171999  1
  H+  H196  1  0.87082492  0.89680822  0.82643082  1
  H+  H197  1  0.28231148  0.13760019  0.00149282  1
  H+  H198  1  0.37977000  0.32621954  0.84072657  1
  H+  H199  1  0.75028349  0.36740971  0.16631896  1
  H+  H200  1  0.52592522  0.38312041  0.01603454  1
  H+  H201  1  0.37708797  0.65941941  0.16687995  1
  H+  H202  1  0.09930271  -0.02985999  0.67310509  1
  H+  H203  1  0.14359259  0.22720587  0.60692244  1
  H+  H204  1  0.62332368  0.22807237  0.00989042  1
  H+  H205  1  0.85854705  0.48554561  0.84367932  1
  H+  H206  1  0.53073437  0.12875455  0.83106049  1
  H+  H207  1  0.62255304  0.98359148  0.33884345  1
  H+  H208  1  0.71784199  0.46497779  0.59277891  1
  H+  H209  1  0.86071606  0.72149979  0.50040309  1
  H+  H210  1  0.64403298  0.11971227  0.65853079  1
  H+  H211  1  0.92057417  0.83881089  0.89134421  1
  H+  H212  1  0.71560665  0.60242973  0.84430779  1
  H+  H213  1  0.17138874  0.33486963  0.93406343  1
  H+  H214  1  0.11788337  0.23124222  1.00254853  1
  H+  H215  1  0.36131258  0.66059814  0.68587693  1
  H+  H216  1  0.50087191  0.06868220  0.32513142  1
  H+  H217  1  0.38814796  0.36848232  0.51005137  1
  H+  H218  1  0.49390443  0.61394990  0.02643977  1
  H+  H219  1  0.61929671  0.63038076  1.01336201  1
  H+  H220  1  0.84716296  0.22499400  0.16604356  1
  H+  H221  1  0.97393998  0.11961614  0.84649629  1
  H+  H222  1  0.87457555  0.86076075  0.65905178  1
  H+  H223  1  0.72743121  0.87154205  0.51680827  1
  H+  H224  1  0.86990320  -0.02668275  1.00596921  1
  H+  H225  1  0.36905770  0.87906047  0.14437970  1
  H+  H226  1  0.12973671  0.64280105  0.85296698  1
  H+  H227  1  0.63484261  0.77560198  0.17724215  1
  H+  H228  1  0.07243238  0.68383303  0.78564094  1
  H+  H229  1  0.95588662  0.35530401  0.18293049  1
  H+  H230  1  0.58255464  0.40399575  0.77034467  1
  H+  H231  1  0.35001522  0.89143185  0.67331706  1
  H+  H232  1  0.14365914  0.34392860  0.83133632  1
  H+  H233  1  0.14840868  0.12478683  -0.01685224  1
  H+  H234  1  0.64968013  0.02860092  0.98825555  1
  H+  H235  1  0.78961579  0.14727604  1.00583011  1
  H+  H236  1  0.11061972  0.46930463  1.00787717  1
  H+  H237  1  0.26892637  0.13082868  0.15954212  1
  H+  H238  1  0.61785015  0.89061662  0.34490307  1
  H+  H239  1  0.27860725  0.39082152  0.00430115  1
  H+  H240  1  -0.02384325  0.37375968  0.66242439  1
  H+  H241  1  0.55570920  0.17027604  0.32998464  1
  H+  H242  1  0.12808720  0.77901067  0.66663295  1
  H+  H243  1  0.34616434  0.17833191  0.43726994  1
  H+  H244  1  0.48975533  0.88782190  0.16938365  1
  H+  H245  1  0.76382735  0.14081049  0.49504218  1
  H+  H246  1  0.77770032  0.62630627  0.15909196  1
  H+  H247  1  0.96710690  0.62069433  0.86624922  1
  H+  H248  1  0.52448532  0.64856911  0.68177388  1
  H+  H249  1  0.39200920  0.51594700  1.02217974  1
  H+  H250  1  0.29150341  0.64075174  0.00887284  1
  H+  H251  1  0.86568599  0.35249861  0.18500119  1
  H+  H252  1  0.12800362  0.24735938  0.84525346  1
  H+  H253  1  0.09251182  0.87239592  0.80919691  1
  H+  H254  1  0.06949704  0.50705660  0.16667944  1
  H+  H255  1  0.36696140  0.38579295  1.00662179  1
  H+  H256  1  0.60346574  0.97795805  0.67480906  1
  H+  H257  1  0.85940185  0.88696049  0.49238883  1
  H+  H258  1  0.34942891  0.48820015  0.34418948  1
  H+  H259  1  -0.03781150  0.09757850  0.68103114  1
  H+  H260  1  0.64506203  0.50487720  0.51249033  1
  H+  H261  1  0.44823070  0.63610673  0.33246308  1
  H+  H262  1  0.31473388  0.79921433  0.80639005  1
  H+  H263  1  0.65380865  0.86063933  0.99932269  1
  H+  H264  1  0.24427212  0.60518124  0.49227374  1
  H+  H265  1  0.23461209  0.11876427  0.32719890  1
  H+  H266  1  0.61062567  0.37470698  0.83208183  1
  H+  H267  1  0.10711248  0.83659540  0.31562677  1
  H+  H268  1  0.96464497  0.86134093  0.65910982  1
  H+  H269  1  0.64052402  0.13165391  0.84382754  1
  H+  H270  1  0.38720967  0.28137340  0.66240169  1
  H+  H271  1  0.88464923  0.60601337  0.90537328  1
  H+  H272  1  0.19635454  0.77412893  1.00981625  1
  H+  H273  1  0.63978616  0.52651969  0.19214607  1
  H+  H274  1  0.59756550  0.98467472  0.83044838  1
  H+  H275  1  0.28462271  0.84272529  0.97861331  1
  H+  H276  1  0.06993861  0.70090870  0.34173935  1
  H+  H277  1  0.29684826  0.65583743  0.39442224  1
  H+  H278  1  0.09780356  0.21953861  0.60743240  1
  H+  H279  1  0.17181147  0.33442945  0.62852894  1
  H+  H280  1  0.61316541  0.25764479  0.17314784  1
  H+  H281  1  0.21212891  0.86059753  0.17765889  1
  H+  H282  1  0.88474624  0.11747894  0.32828358  1
  H+  H283  1  0.01648384  0.63477406  0.50471464  1
  H+  H284  1  0.83092326  0.92048336  0.43432760  1
  H+  H285  1  0.75095269  0.70729150  0.79514772  1
  H+  H286  1  0.64447741  0.36361810  1.00752005  1
  H+  H287  1  0.60481270  0.37680422  0.47740481  1
  H+  H288  1  0.11529377  0.29294640  0.53802390  1
  H+  H289  1  0.30803048  0.89360777  0.42955323  1
  H+  H290  1  0.90029125  0.82564196  0.25364449  1
  H+  H291  1  0.36142863  0.74904648  0.67077641  1
  H+  H292  1  0.91733382  0.33317716  0.95054556  1
  H+  H293  1  0.40688661  0.01103232  0.24425777  1
  H+  H294  1  0.84081978  0.91167187  0.06438510  1
  H+  H295  1  0.46300125  0.09521486  0.16172316  1
  H+  H296  1  0.90929038  0.83183024  0.56376784  1
  H+  H297  1  0.84597021  0.62521907  0.42557190  1
  H+  H298  1  0.13220180  0.79523153  0.25973220  1
  H+  H299  1  0.15371390  0.09131270  0.61697288  1
  H+  H300  1  0.37108955  1.03630138  0.68768642  1
  H+  H301  1  0.58112136  0.41521802  0.07791580  1
  H+  H302  1  0.87697354  0.27343291  0.51016512  1
  H+  H303  1  0.89250334  0.07476887  0.57816381  1
  H+  H304  1  0.09068410  0.19709102  0.70403405  1
  H+  H305  1  0.18059276  0.60788800  0.94794941  1
  H+  H306  1  0.95082249  0.57607077  0.97161495  1
  H+  H307  1  0.05968346  0.65452015  0.40660956  1
  H+  H308  1  0.15386742  0.83033629  0.56682912  1
  H+  H309  1  0.63677030  0.31176601  0.23427951  1
  H+  H310  1  0.69575365  0.60413337  0.24078567  1
  H+  H311  1  0.06775977  0.14330818  0.76747800  1
  H+  H312  1  0.18268724  0.08811962  0.26531149  1
  H+  H313  1  0.82602901  0.43613273  0.77800061  1
  H+  H314  1  0.67525276  0.09618122  0.91008310  1
  H+  H315  1  0.11804478  0.14776589  0.31904997  1
  H+  H316  1  0.66668197  0.33123176  0.91205857  1
  H+  H317  1  0.09640783  0.60213889  0.32446482  1
  H+  H318  1  0.82545172  0.91353003  0.73663029  1
  H+  H319  1  0.15784742  0.58501917  0.57305539  1
  H+  H320  1  0.16335212  0.34863394  0.26190183  1
  H+  H321  1  0.93574028  0.58515923  0.36599651  1
  H+  H322  1  1.01495814  0.37884653  1.00765411  1
  H+  H323  1  0.77260540  0.88237930  0.15700702  1
  H+  H324  1  0.91266141  0.34198279  0.60506509  1
  H+  H325  1  0.87597496  0.75371179  0.16733982  1
  H+  H326  1  0.42107361  0.32749911  0.93892826  1
  H+  H327  1  0.31389085  0.89471240  0.76573275  1
  H+  H328  1  0.33127296  0.41730989  0.10323391  1
  H+  H329  1  0.20875550  0.42217289  0.59591861  1
  H+  H330  1  0.68237835  0.34949065  0.53946619  1
  H+  H331  1  0.60092988  0.67906051  0.73240179  1
  H+  H332  1  0.47381417  0.33898608  0.84357704  1
  H+  H333  1  0.35860277  0.15628028  0.68853510  1
  H+  H334  1  0.96781359  0.57524139  0.18265018  1
  H+  H335  1  0.33063307  0.42631554  0.43929196  1
  H+  H336  1  0.59617898  0.67743707  0.44380579  1
  H+  H337  1  0.56589227  0.14175589  0.42943538  1
  H+  H338  1  0.59060269  0.66451073  0.11171278  1
  H+  H339  1  0.12355138  0.86515666  0.66029194  1
  H+  H340  1  0.62869549  0.61256804  0.66245673  1
  H+  H341  1  0.19362710  0.82028758  0.91871029  1
  H+  H342  1  0.67896637  0.82624864  0.90659797  1
  H+  H343  1  0.31793679  0.71824169  0.76121636  1
  H+  H344  1  0.81924440  0.67665008  0.73107356  1
  H+  H345  1  0.56000170  0.40226847  0.40011878  1
  H+  H346  1  0.91746007  0.07202741  0.23203261  1
  H+  H347  1  0.13719639  0.20819432  0.40161923  1
  H+  H348  1  0.63854328  0.51686457  1.00359519  1
  H+  H349  1  0.65882923  0.56902143  0.94089456  1
  H+  H350  1  0.42605732  0.64510650  0.90706859  1
  H+  H351  1  0.06783433  0.90012409  0.38976087  1
  H+  H352  1  0.41006939  0.58697727  0.23257248  1
  H+  H353  1  0.42119022  0.33997225  0.56920102  1
  H+  H354  1  0.10030474  0.57832937  0.21806272  1
  H+  H355  1  0.61728277  0.89359860  0.15624214  1
  H+  H356  1  0.66660992  0.84069712  0.23348412  1
  H+  H357  1  0.60094652  0.88836232  0.67876813  1
  H+  H358  1  0.33591641  0.16132835  0.06386567  1
  H+  H359  1  0.86644588  0.62692021  0.15933144  1
  H+  H360  1  0.82796235  0.16523598  0.40356862  1
  H+  H361  1  0.60135734  0.92739087  0.06065748  1
  H+  H362  1  0.55311137  0.92178536  0.77504911  1
  H+  H363  1  0.93112083  0.59461938  0.58363717  1
  H+  H364  1  0.23618457  0.11114195  0.48107330  1
  H+  H365  1  0.37361738  0.91588468  0.04607549  1
  H+  H366  1  0.27883433  0.83698552  0.10763142  1
  H+  H367  1  0.37911134  0.62236939  0.89900020  1
  H+  H368  1  0.66775545  0.55776111  0.57626964  1
  H+  H369  1  0.26207758  0.39794500  0.34162254  1
  H+  H370  1  0.66361754  0.08069338  0.22886124  1
  H+  H371  1  0.08493637  0.17516320  0.09665490  1
  H+  H372  1  0.34177332  0.41360208  0.73572263  1
  H+  H373  1  0.27052246  0.35697559  0.82656887  1
  H+  H374  1  0.09762431  0.39011472  0.16118467  1
  H+  H375  1  0.43013604  0.08152360  0.92972416  1
  H+  H376  1  0.66489492  0.84451559  0.60686905  1
  H+  H377  1  0.57895632  0.15891098  0.10038696  1
  H+  H378  1  0.87116940  0.46187486  0.02833126  1
  H+  H379  1  0.09624221  0.43663770  0.74421612  1
  H+  H380  1  0.91604281  0.08452427  0.93812321  1
  H+  H381  1  0.81543278  0.39269745  0.10890180  1
  H+  H382  1  0.82634501  0.16800392  0.76664359  1
  H+  H383  1  0.85564217  0.22803735  0.34615456  1
  O2-  O384  1  0.08423480  0.17863910  0.14224051  1
  O2-  O385  1  0.17372994  0.22946812  0.43938480  1
  O2-  O386  1  0.07345515  0.16007055  0.83015898  1
  O2-  O387  1  0.05931876  0.41053102  0.14482838  1
  O2-  O388  1  0.07011279  0.42159363  0.47840377  1
  O2-  O389  1  0.09256195  0.44608358  0.83062605  1
  O2-  O390  1  0.16445149  0.74283113  0.07937495  1
  O2-  O391  1  0.07488470  0.66584294  0.48252593  1
  O2-  O392  1  0.06838188  0.68160213  0.83136425  1
  O2-  O393  1  0.04428861  0.84524780  0.11056494  1
  O2-  O394  1  0.07055386  0.90250846  0.46952610  1
  O2-  O395  1  0.07118388  0.91162579  0.80113121  1
  O2-  O396  1  0.33013545  0.16413556  0.14717420  1
  O2-  O397  1  0.34066121  0.17254232  0.48256044  1
  O2-  O398  1  0.34218802  0.13070994  0.83047744  1
  O2-  O399  1  0.32861004  0.41792784  0.14853734  1
  O2-  O400  1  0.33349095  0.42597987  0.48490964  1
  O2-  O401  1  0.32894984  0.37886960  0.80797726  1
  O2-  O402  1  0.35540229  0.69845509  0.15529865  1
  O2-  O403  1  0.29393218  0.61127624  0.46585695  1
  O2-  O404  1  0.30953306  0.73641438  0.80378210  1
  O2-  O405  1  0.33050423  0.89255635  0.11774584  1
  O2-  O406  1  0.31525895  0.90122385  0.47454207  1
  O2-  O407  1  0.31881947  0.88002357  0.81013337  1
  O2-  O408  1  0.56927245  0.15510167  0.14536846  1
  O2-  O409  1  0.57567464  0.15355993  0.47353317  1
  O2-  O410  1  0.59398855  0.16765422  0.82030732  1
  O2-  O411  1  0.57791756  0.42039245  0.15774935  1
  O2-  O412  1  0.57278714  0.40787784  0.46704117  1
  O2-  O413  1  0.57966026  0.40395960  0.81609763  1
  O2-  O414  1  0.58532078  0.66603085  0.15681036  1
  O2-  O415  1  0.59033606  0.67952716  0.48829865  1
  O2-  O416  1  0.64401100  0.69411479  0.80210403  1
  O2-  O417  1  0.58991179  0.92459595  0.13719184  1
  O2-  O418  1  0.57271183  0.92943020  0.46744287  1
  O2-  O419  1  0.54490164  0.93231796  0.81836061  1
  O2-  O420  1  0.81385655  0.16671518  0.14740047  1
  O2-  O421  1  0.82637985  0.17222811  0.48384936  1
  O2-  O422  1  0.82758847  0.17415010  0.81277405  1
  O2-  O423  1  0.81197439  0.39552815  0.15449676  1
  O2-  O424  1  0.82743587  0.39218433  0.43668029  1
  O2-  O425  1  0.82875002  0.42786369  0.82271046  1
  O2-  O426  1  0.83696523  0.65758050  0.14312792  1
  O2-  O427  1  0.83936466  0.65910617  0.49179732  1
  O2-  O428  1  0.79725724  0.69300960  0.80176494  1
  O2-  O429  1  0.83198180  0.90559314  0.14100189  1
  O2-  O430  1  0.83047191  0.91961166  0.47972067  1
  O2-  O431  1  0.83629546  0.92435350  0.81254406  1
  O2-  O432  1  0.15216708  0.07407747  0.17261359  1
  O2-  O433  1  0.17349550  0.07865675  0.46793183  1
  O2-  O434  1  0.16774958  0.05513593  0.84815654  1
  O2-  O435  1  0.15963536  0.34235394  0.18597795  1
  O2-  O436  1  0.15194543  0.33163800  0.50596297  1
  O2-  O437  1  0.16858935  0.31588414  0.85499746  1
  O2-  O438  1  0.07466765  0.56393425  0.17683392  1
  O2-  O439  1  0.15677453  0.58074940  0.52752784  1
  O2-  O440  1  0.17288963  0.62320649  0.86157275  1
  O2-  O441  1  0.15459774  0.81048121  0.18134743  1
  O2-  O442  1  0.15428165  0.82887702  0.52115671  1
  O2-  O443  1  0.17624951  0.83931837  0.87783771  1
  O2-  O444  1  0.40062098  0.06186422  0.17434662  1
  O2-  O445  1  0.36265070  0.05611717  0.55138872  1
  O2-  O446  1  0.43390307  0.06387749  0.85342664  1
  O2-  O447  1  0.40527820  0.33227444  0.19503340  1
  O2-  O448  1  0.41864002  0.33781094  0.52298953  1
  O2-  O449  1  0.41512688  0.30527455  0.86173425  1
  O2-  O450  1  0.41506371  0.58467355  0.18776204  1
  O2-  O451  1  0.41613267  0.59005159  0.53595832  1
  O2-  O452  1  0.46324036  0.53194929  0.84024458  1
  O2-  O453  1  0.43129799  0.86472036  0.18804306  1
  O2-  O454  1  0.41258970  0.84393879  0.51497274  1
  O2-  O455  1  0.44605681  0.80907388  0.89818462  1
  O2-  O456  1  0.65837936  0.08217099  0.18369348  1
  O2-  O457  1  0.65852590  0.08150076  0.51607759  1
  O2-  O458  1  0.67531940  0.10067039  0.86038231  1
  O2-  O459  1  0.64215465  0.31799100  0.18964981  1
  O2-  O460  1  0.66716485  0.33333345  0.49620553  1
  O2-  O461  1  0.66415260  0.32722745  0.86614634  1
  O2-  O462  1  0.67240026  0.58987218  0.19877206  1
  O2-  O463  1  0.69192323  0.54124178  0.54113500  1
  O2-  O464  1  0.65712544  0.56540313  0.86189025  1
  O2-  O465  1  0.66534765  0.83804001  0.18800976  1
  O2-  O466  1  0.66964383  0.84280278  0.53588537  1
  O2-  O467  1  0.67731915  0.82925283  0.86140181  1
  O2-  O468  1  0.92116206  0.05896809  0.18863359  1
  O2-  O469  1  0.88529235  0.07730410  0.53375868  1
  O2-  O470  1  0.91063916  0.08694635  0.85913816  1
  O2-  O471  1  0.89821175  0.32513984  0.20249194  1
  O2-  O472  1  0.90761705  0.33585671  0.52387474  1
  O2-  O473  1  0.92300347  0.35412797  0.81035850  1
  O2-  O474  1  0.90952612  0.56613127  0.18824081  1
  O2-  O475  1  0.92891488  0.58880282  0.53857311  1
  O2-  O476  1  0.91384570  0.57667760  0.88714594  1
  O2-  O477  1  0.90690767  0.81647442  0.18156521  1
  O2-  O478  1  0.90728345  0.82803317  0.51810714  1
  O2-  O479  1  0.91622193  0.84086650  0.84498099  1
  O2-  O480  1  0.17420678  0.08523639  0.30965639  1
  O2-  O481  1  0.15760149  0.08307776  0.66043539  1
  O2-  O482  1  0.18073966  0.09449674  0.97230390  1
  O2-  O483  1  0.16332212  0.34597227  0.30789281  1
  O2-  O484  1  0.19812504  0.39649600  0.63657649  1
  O2-  O485  1  0.17505286  0.33981948  0.97941191  1
  O2-  O486  1  0.12854463  0.57854611  0.30111983  1
  O2-  O487  1  0.16330669  0.59997526  0.65217521  1
  O2-  O488  1  0.18626144  0.59099000  0.98980961  1
  O2-  O489  1  0.13060266  0.79810365  0.30509220  1
  O2-  O490  1  0.15649542  0.83618617  0.64590546  1
  O2-  O491  1  0.22661063  0.79370363  0.96887470  1
  O2-  O492  1  0.41897459  -0.02118968  0.27605599  1
  O2-  O493  1  0.40191034  0.09518167  0.67114791  1
  O2-  O494  1  0.43202854  0.08605896  0.97531475  1
  O2-  O495  1  0.39858917  0.34118162  0.31663156  1
  O2-  O496  1  0.42606370  0.34194563  0.64391066  1
  O2-  O497  1  0.42037592  0.33335810  0.98447128  1
  O2-  O498  1  0.39329319  0.59440372  0.31449077  1
  O2-  O499  1  0.41525047  0.60486970  0.66211770  1
  O2-  O500  1  0.42682943  0.58163154  1.03038468  1
  O2-  O501  1  0.36049774  0.75686580  0.34196566  1
  O2-  O502  1  0.41057278  0.84565719  0.64260046  1
  O2-  O503  1  0.45526208  0.83085337  0.96303763  1
  O2-  O504  1  0.67038862  0.07782481  0.30895127  1
  O2-  O505  1  0.66350626  0.08049762  0.64147303  1
  O2-  O506  1  0.67521081  0.08970730  0.97253421  1
  O2-  O507  1  0.59834126  0.29273723  0.31666482  1
  O2-  O508  1  0.70567352  0.41240415  0.61556488  1
  O2-  O509  1  0.67289383  0.33312036  0.98910579  1
  O2-  O510  1  0.75407573  0.66274293  0.31138157  1
  O2-  O511  1  0.65617642  0.57738688  0.65173059  1
  O2-  O512  1  0.66715803  0.57634366  0.98599985  1
  O2-  O513  1  0.66837916  0.84249184  0.31458325  1
  O2-  O514  1  0.66054542  0.84372683  0.65369009  1
  O2-  O515  1  0.67649960  0.82211610  0.98747021  1
  O2-  O516  1  0.91330668  0.08542800  0.31268649  1
  O2-  O517  1  0.90516599  0.07658256  0.66135882  1
  O2-  O518  1  0.92217258  0.08384755  0.98338024  1
  O2-  O519  1  0.89529313  0.33100263  0.32796678  1
  O2-  O520  1  0.91472012  0.34173307  0.65078112  1
  O2-  O521  1  0.92248002  0.33308419  0.99468184  1
  O2-  O522  1  0.87228103  0.54732240  0.37500282  1
  O2-  O523  1  0.92527783  0.59888741  0.66429044  1
  O2-  O524  1  0.94292142  0.57488606  1.01616197  1
  O2-  O525  1  0.89227549  0.82549736  0.29976234  1
  O2-  O526  1  0.90437088  0.83056963  0.64214161  1
  O2-  O527  1  0.92234795  0.82859936  0.96284496  1
  O2-  O528  1  0.09077498  0.17031453  0.01647634  1
  O2-  O529  1  0.08775319  0.17726928  0.33483210  1
  O2-  O530  1  0.06348545  0.13764895  0.71780706  1
  O2-  O531  1  0.08096659  0.40839218  0.02037327  1
  O2-  O532  1  0.07218974  0.41987942  0.35132913  1
  O2-  O533  1  0.08720842  0.43487592  0.69977500  1
  O2-  O534  1  0.11053367  0.64808117  0.07152845  1
  O2-  O535  1  0.04404828  0.64345672  0.36212178  1
  O2-  O536  1  0.08317719  0.68229180  0.70772409  1
  O2-  O537  1  0.10195311  0.99964197  0.07381184  1
  O2-  O538  1  0.06661334  0.90066254  0.34406256  1
  O2-  O539  1  0.06636459  0.90865800  0.68520508  1
  O2-  O540  1  0.34208199  0.16403180  0.01866401  1
  O2-  O541  1  0.33026503  0.17695689  0.35882981  1
  O2-  O542  1  0.33305873  0.19480491  0.69390295  1
  O2-  O543  1  0.33843251  0.41839372  0.02198436  1
  O2-  O544  1  0.32184381  0.42805176  0.35952916  1
  O2-  O545  1  0.35391033  0.43638475  0.69268045  1
  O2-  O546  1  0.35312968  0.67038741  0.02332738  1
  O2-  O547  1  0.29762849  0.66469183  0.34918023  1
  O2-  O548  1  0.32899813  0.69194564  0.69320907  1
  O2-  O549  1  0.38598624  0.92261856  0.00123266  1
  O2-  O550  1  0.29353409  0.86115932  0.35020862  1
  O2-  O551  1  0.31577729  0.91265050  0.69553576  1
  O2-  O552  1  0.59336343  0.16520161  0.02081311  1
  O2-  O553  1  0.55143342  0.11674541  0.34558009  1
  O2-  O554  1  0.63500542  0.20034457  0.69602864  1
  O2-  O555  1  0.58585251  0.41314583  0.03247597  1
  O2-  O556  1  0.55381381  0.39685773  0.35255430  1
  O2-  O557  1  0.58580187  0.41350272  0.69178550  1
  O2-  O558  1  0.58958202  0.66120327  0.03027601  1
  O2-  O559  1  0.62742357  0.68063331  0.35918464  1
  O2-  O560  1  0.58765179  0.67409040  0.68768217  1
  O2-  O561  1  0.61121646  0.93002136  0.01518263  1
  O2-  O562  1  0.58935099  0.92423113  0.35820713  1
  O2-  O563  1  0.56860931  0.91838356  0.69139108  1
  O2-  O564  1  0.84726296  0.17310819  0.02417758  1
  O2-  O565  1  0.82912680  0.16541034  0.35797735  1
  O2-  O566  1  0.82984564  0.16590449  0.69177039  1
  O2-  O567  1  0.83241798  0.39886086  0.03320244  1
  O2-  O568  1  0.67664688  0.31709146  0.33674391  1
  O2-  O569  1  0.83162268  0.42914713  0.69648451  1
  O2-  O570  1  0.84531109  0.64844409  -0.02924980  1
  O2-  O571  1  0.84444870  0.61078324  0.38041888  1
  O2-  O572  1  0.82491244  0.66786822  0.68620630  1
  O2-  O573  1  0.84114180  0.91165719  0.01854894  1
  O2-  O574  1  0.83041304  0.92181474  0.35277092  1
  O2-  O575  1  0.82326666  0.91217362  0.69072779  1
