# generated using pymatgen
data_H2O
_symmetry_space_group_name_H-M   'P 1'
_cell_length_a   17.93748247
_cell_length_b   17.91345297
_cell_length_c   21.96429223
_cell_angle_alpha   90.15522677
_cell_angle_beta   90.00707752
_cell_angle_gamma   120.01466511
_symmetry_Int_Tables_number   1
_chemical_formula_structural   H2O
_chemical_formula_sum   'H384 O192'
_cell_volume   6111.13979475
_cell_formula_units_Z   192
loop_
 _symmetry_equiv_pos_site_id
 _symmetry_equiv_pos_as_xyz
  1  'x, y, z'
loop_
 _atom_type_symbol
 _atom_type_oxidation_number
  H+  1.0
  O2-  -2.0
loop_
 _atom_site_type_symbol
 _atom_site_label
 _atom_site_symmetry_multiplicity
 _atom_site_fract_x
 _atom_site_fract_y
 _atom_site_fract_z
 _atom_site_occupancy
  H+  H0  1  0.88088293  0.35823037  0.66668603  1
  H+  H1  1  0.71930977  0.36582798  -0.00960803  1
  H+  H2  1  0.13257457  0.27550304  -0.00258528  1
  H+  H3  1  0.93317719  0.33670303  0.75067947  1
  H+  H4  1  0.38254958  0.11673569  1.00706863  1
  H+  H5  1  0.12015468  0.71558512  -0.00661891  1
  H+  H6  1  0.83845864  0.92336859  0.08960720  1
  H+  H7  1  0.72144208  0.85942981  0.66836656  1
  H+  H8  1  0.97244892  0.61945394  0.83190393  1
  H+  H9  1  0.97274743  0.10863650  0.82788492  1
  H+  H10  1  0.13294679  0.11922242  0.99678125  1
  H+  H11  1  0.65993076  0.10372004  0.56529683  1
  H+  H12  1  0.61639385  0.08048505  0.70085789  1
  H+  H13  1  0.06666310  0.96320214  0.68955464  1
  H+  H14  1  0.10438912  0.64687857  0.83290209  1
  H+  H15  1  0.62980569  0.86081202  0.84246005  1
  H+  H16  1  0.63349259  0.74318559  1.00680563  1
  H+  H17  1  0.24065457  0.11734236  0.49608401  1
  H+  H18  1  0.52141424  0.14144298  0.33955064  1
  H+  H19  1  0.66218229  0.09465629  0.23104115  1
  H+  H20  1  0.12811593  0.11636046  0.83450229  1
  H+  H21  1  0.11382168  0.47480094  0.01893289  1
  H+  H22  1  0.77228141  0.15463626  0.49714412  1
  H+  H23  1  0.63634404  0.11866826  1.00277057  1
  H+  H24  1  0.63630097  0.77443138  0.83799339  1
  H+  H25  1  0.72711100  0.61549570  -0.00192646  1
  H+  H26  1  1.02519039  0.63301142  0.99724635  1
  H+  H27  1  0.28773361  0.88827398  0.00075600  1
  H+  H28  1  0.22251144  0.86673125  0.51131315  1
  H+  H29  1  0.20489010  0.23290529  0.61551753  1
  H+  H30  1  0.52359559  0.39337180  1.01266051  1
  H+  H31  1  0.27291215  0.16003641  0.66546738  1
  H+  H32  1  0.58832271  0.84834960  0.18679856  1
  H+  H33  1  0.52440328  0.14398210  1.01322400  1
  H+  H34  1  0.47495562  0.11415193  0.51012047  1
  H+  H35  1  0.76733697  0.88904679  0.83454204  1
  H+  H36  1  0.79145739  0.88711737  0.49625736  1
  H+  H37  1  0.02165907  0.79667770  0.34247602  1
  H+  H38  1  0.68342855  0.66315940  0.17038809  1
  H+  H39  1  0.63371274  1.01810785  0.84916162  1
  H+  H40  1  0.61774659  0.23827436  0.16399298  1
  H+  H41  1  0.61279837  0.23379994  0.00814991  1
  H+  H42  1  0.38566171  0.36545798  0.99916087  1
  H+  H43  1  0.47251861  0.86046748  0.65769762  1
  H+  H44  1  0.12492886  0.86216431  0.67257502  1
  H+  H45  1  0.81784078  0.15162260  0.72792779  1
  H+  H46  1  0.33671328  0.43032145  0.72348312  1
  H+  H47  1  0.36968564  0.63880295  0.00733305  1
  H+  H48  1  0.91194685  0.58628950  0.74391701  1
  H+  H49  1  0.41243931  0.62887759  0.49471711  1
  H+  H50  1  0.56130318  0.07180251  0.77481428  1
  H+  H51  1  0.74951658  0.61873181  0.64518735  1
  H+  H52  1  0.37709699  0.89345764  0.00933465  1
  H+  H53  1  -0.04947515  0.83844268  0.68988869  1
  H+  H54  1  0.10856675  0.36759768  0.35771473  1
  H+  H55  1  0.38654141  0.76504640  0.84290249  1
  H+  H56  1  0.14429051  0.51298881  0.84009687  1
  H+  H57  1  0.60671314  -0.01424751  0.50783141  1
  H+  H58  1  0.38631262  0.11275894  0.50833132  1
  H+  H59  1  0.27582679  0.63117932  1.00761209  1
  H+  H60  1  0.63534564  0.52197085  0.31554569  1
  H+  H61  1  0.88003214  0.61653206  0.83240737  1
  H+  H62  1  0.13954659  0.60376583  0.66950694  1
  H+  H63  1  0.88756836  0.26741456  0.80184013  1
  H+  H64  1  0.12212834  0.50528203  0.35099847  1
  H+  H65  1  0.91228482  0.34151486  0.12764902  1
  H+  H66  1  0.21328067  0.85902829  0.67294455  1
  H+  H67  1  0.88360099  0.74425824  0.14966980  1
  H+  H68  1  0.24771836  0.61382398  0.34095189  1
  H+  H69  1  0.83749866  0.17800405  0.44262285  1
  H+  H70  1  0.11915614  0.99158684  0.00347795  1
  H+  H71  1  0.65050407  0.15347195  0.32394796  1
  H+  H72  1  0.28654226  0.40155630  0.65746885  1
  H+  H73  1  0.62054840  0.81146771  0.24790571  1
  H+  H74  1  0.26853369  0.12262295  0.33795063  1
  H+  H75  1  0.90535890  0.66997524  0.32829177  1
  H+  H76  1  0.40005603  0.05878902  0.60184641  1
  H+  H77  1  0.61477101  0.39544555  0.82798736  1
  H+  H78  1  0.28151166  0.41596019  0.19096688  1
  H+  H79  1  0.02034548  0.14305482  0.00496979  1
  H+  H80  1  0.35791812  0.70728044  0.16380262  1
  H+  H81  1  0.28656989  0.62296105  0.83006272  1
  H+  H82  1  0.11595211  0.72322712  0.15709786  1
  H+  H83  1  0.49051843  0.37688865  0.49648416  1
  H+  H84  1  0.96364284  0.86165067  0.31584065  1
  H+  H85  1  0.09072563  0.67173853  0.73624654  1
  H+  H86  1  0.87350800  0.85895675  0.85037178  1
  H+  H87  1  0.62480755  0.28135822  0.82199818  1
  H+  H88  1  0.27044050  0.42201137  0.86074096  1
  H+  H89  1  0.58468258  0.83391788  0.36938130  1
  H+  H90  1  0.10184758  0.97567303  0.84137644  1
  H+  H91  1  0.79375504  0.65587343  0.15469169  1
  H+  H92  1  0.22991381  0.60663426  0.67115212  1
  H+  H93  1  0.40258921  0.08272330  0.91863661  1
  H+  H94  1  0.11073474  0.10322810  0.65576005  1
  H+  H95  1  1.02867262  0.37370529  0.51223385  1
  H+  H96  1  0.10907456  0.72260259  0.67377809  1
  H+  H97  1  0.63505981  0.52940907  1.00233770  1
  H+  H98  1  0.61156228  0.39179801  1.00963322  1
  H+  H99  1  0.77390982  0.13044071  0.82654540  1
  H+  H100  1  0.35164449  0.07010356  0.65815406  1
  H+  H101  1  0.07825701  0.20673090  0.78132496  1
  H+  H102  1  0.47670852  0.20558685  0.76573216  1
  H+  H103  1  0.86439495  0.38100826  0.81326631  1
  H+  H104  1  0.24107275  0.86260943  0.32664057  1
  H+  H105  1  0.54037104  0.64194455  0.52811164  1
  H+  H106  1  0.86152089  0.47720446  0.68557102  1
  H+  H107  1  0.53619670  0.63593995  0.66428107  1
  H+  H108  1  0.11036712  0.38404154  0.02029390  1
  H+  H109  1  0.35973154  -0.02460312  0.49413558  1
  H+  H110  1  0.85848503  0.38307283  0.34479320  1
  H+  H111  1  0.87274830  0.40873466  0.49973996  1
  H+  H112  1  0.53676294  0.41130998  0.67448179  1
  H+  H113  1  1.01616515  0.13619000  0.16463815  1
  H+  H114  1  0.63224238  0.85862833  0.65172745  1
  H+  H115  1  0.17529437  0.85388830  0.79855897  1
  H+  H116  1  0.49689889  0.62505616  0.83538051  1
  H+  H117  1  0.01477783  0.04148956  0.63900077  1
  H+  H118  1  0.89992727  0.06776596  0.23034482  1
  H+  H119  1  0.46188826  0.84825300  0.17402940  1
  H+  H120  1  0.38601151  0.75829753  0.68339627  1
  H+  H121  1  0.13807023  1.00275659  0.31951301  1
  H+  H122  1  0.12101858  0.45798339  0.51137902  1
  H+  H123  1  0.96233067  0.85999089  0.85548437  1
  H+  H124  1  0.02839172  0.39082438  0.17035669  1
  H+  H125  1  0.65460880  0.53461473  0.67525964  1
  H+  H126  1  0.47794050  0.12892963  0.17555357  1
  H+  H127  1  0.87035211  0.62728682  0.49435106  1
  H+  H128  1  0.88740077  0.28501621  0.51107061  1
  H+  H129  1  0.52215812  0.38655702  0.33843666  1
  H+  H130  1  0.87342742  0.76112447  0.65439327  1
  H+  H131  1  0.38132688  0.35318425  0.33373716  1
  H+  H132  1  0.10202346  0.11465064  0.32626447  1
  H+  H133  1  0.57888694  0.91566760  0.10728320  1
  H+  H134  1  0.15877904  1.02569919  0.51376381  1
  H+  H135  1  0.82914264  0.12009407  0.66098221  1
  H+  H136  1  0.21842957  0.12020511  0.84214477  1
  H+  H137  1  0.39107307  0.77173712  0.00162400  1
  H+  H138  1  0.11244518  0.74397728  0.82751374  1
  H+  H139  1  0.62827258  0.77909058  0.17451121  1
  H+  H140  1  0.36833113  0.89496832  0.16459900  1
  H+  H141  1  0.78474258  0.89395833  0.99599366  1
  H+  H142  1  0.45622575  0.58832751  0.30991688  1
  H+  H143  1  0.91564318  0.90317583  -0.04067507  1
  H+  H144  1  0.99898831  0.06731673  0.52963587  1
  H+  H145  1  0.36680494  0.97799268  0.83923184  1
  H+  H146  1  0.76159217  0.12949806  0.16445821  1
  H+  H147  1  0.10020492  0.08100908  0.47075505  1
  H+  H148  1  0.62241297  0.37792413  0.17146359  1
  H+  H149  1  0.47640335  0.36761984  0.84063056  1
  H+  H150  1  -0.01681279  0.36053709  0.34266167  1
  H+  H151  1  0.51875430  0.03546769  0.76313915  1
  H+  H152  1  0.13485954  0.85311951  0.17604541  1
  H+  H153  1  0.62650308  0.49348239  0.48832094  1
  H+  H154  1  0.87538176  0.22797350  0.34558910  1
  H+  H155  1  0.62920472  0.65175550  0.01621032  1
  H+  H156  1  0.65006370  0.73376210  0.09646864  1
  H+  H157  1  0.88041045  0.87465950  0.31571170  1
  H+  H158  1  0.87960132  0.10619626  0.32709900  1
  H+  H159  1  0.21933162  0.34448511  0.33605490  1
  H+  H160  1  0.57408275  0.91239913  0.58671141  1
  H+  H161  1  0.65356142  0.87485825  0.51199644  1
  H+  H162  1  0.65206090  0.61468005  0.52793267  1
  H+  H163  1  0.16537652  0.06923812  0.26443451  1
  H+  H164  1  0.36835142  0.88194370  0.34056073  1
  H+  H165  1  0.77195932  0.13996299  1.01383441  1
  H+  H166  1  0.05422310  0.86929510  0.39568984  1
  H+  H167  1  0.62724487  0.75310552  0.32801826  1
  H+  H168  1  0.84713308  0.87083546  0.68675444  1
  H+  H169  1  0.12320122  0.45502320  0.66581371  1
  H+  H170  1  0.39579131  0.78265119  0.49963459  1
  H+  H171  1  0.45885781  0.83124586  0.33803196  1
  H+  H172  1  0.87480409  0.26523784  0.66457860  1
  H+  H173  1  0.91974669  0.97857275  0.53949259  1
  H+  H174  1  0.70993986  0.11854464  0.67088833  1
  H+  H175  1  0.97114255  0.36799347  1.03996755  1
  H+  H176  1  0.40081443  0.31488950  0.65395574  1
  H+  H177  1  0.38514945  0.53124403  0.25968351  1
  H+  H178  1  0.79434368  0.01588043  0.59476893  1
  H+  H179  1  0.38619762  0.85581621  0.84599063  1
  H+  H180  1  0.86024296  0.72797095  0.00000347  1
  H+  H181  1  0.11494809  0.89998658  1.00393055  1
  H+  H182  1  0.64199274  0.11008156  0.85102909  1
  H+  H183  1  0.39272697  0.03691698  0.17377049  1
  H+  H184  1  0.73544277  0.37739467  0.49720685  1
  H+  H185  1  0.88266827  0.27000678  0.17561738  1
  H+  H186  1  0.45014814  0.74156535  0.43260552  1
  H+  H187  1  0.71315234  0.84782958  0.33033155  1
  H+  H188  1  0.35167239  0.13377118  0.83557427  1
  H+  H189  1  0.82521040  0.15932378  0.10735569  1
  H+  H190  1  0.62171615  0.40218869  0.48216474  1
  H+  H191  1  0.23294340  0.61462228  0.16448386  1
  H+  H192  1  0.37274742  0.23307341  0.48705494  1
  H+  H193  1  0.10688104  0.22573671  0.16635992  1
  H+  H194  1  0.72521496  0.61792140  0.84593330  1
  H+  H195  1  0.39688577  0.54024235  0.65380920  1
  H+  H196  1  0.38192682  0.63913392  0.82832152  1
  H+  H197  1  0.13192318  0.11448752  0.17843618  1
  H+  H198  1  0.87228759  0.10134559  0.17236232  1
  H+  H199  1  0.89067830  0.61693681  0.98624377  1
  H+  H200  1  0.12868514  0.72132665  0.35744700  1
  H+  H201  1  0.62766546  0.11503498  0.17083031  1
  H+  H202  1  0.84350343  0.74135172  0.32530753  1
  H+  H203  1  0.65626451  0.62955858  0.66729472  1
  H+  H204  1  0.13693427  0.61948435  0.16140953  1
  H+  H205  1  0.03112763  0.30799227  0.79696820  1
  H+  H206  1  0.74041627  0.38710618  0.66277648  1
  H+  H207  1  0.73305485  0.81357246  0.13252973  1
  H+  H208  1  1.06309366  0.66317141  0.45472042  1
  H+  H209  1  0.66350656  0.58877217  0.90475457  1
  H+  H210  1  0.41687094  0.54281323  0.99373144  1
  H+  H211  1  0.51387477  0.87996736  0.83494785  1
  H+  H212  1  0.21369981  0.49866496  0.87698223  1
  H+  H213  1  0.13726558  0.60393207  0.99224829  1
  H+  H214  1  0.27081610  0.14411905  0.00889572  1
  H+  H215  1  -0.01481104  0.62229189  0.17669126  1
  H+  H216  1  0.35581231  0.21562845  0.33632841  1
  H+  H217  1  0.59515982  0.67106370  0.76093461  1
  H+  H218  1  0.85911229  0.46823445  0.82333506  1
  H+  H219  1  0.37052785  0.39565505  0.81786790  1
  H+  H220  1  0.78261449  0.14865225  0.34352258  1
  H+  H221  1  0.85100993  0.62858613  0.58507147  1
  H+  H222  1  0.88156152  0.27898727  1.03908981  1
  H+  H223  1  0.50001470  0.63420739  1.00050268  1
  H+  H224  1  0.84467837  0.67628197  0.06200264  1
  H+  H225  1  0.98034382  0.61121339  0.69087931  1
  H+  H226  1  0.37559978  0.39589140  0.49437209  1
  H+  H227  1  0.52280261  0.38277238  0.16596496  1
  H+  H228  1  0.61386850  0.17080531  0.64016058  1
  H+  H229  1  0.86014457  0.49265403  0.49708894  1
  H+  H230  1  0.35067076  0.46029656  0.34133601  1
  H+  H231  1  0.85788254  0.40019428  0.18188402  1
  H+  H232  1  0.51453759  0.14361187  0.76697629  1
  H+  H233  1  0.63752770  0.37100134  0.32885137  1
  H+  H234  1  1.03167397  0.65695243  0.35451251  1
  H+  H235  1  0.36206461  0.23159526  0.00903104  1
  H+  H236  1  0.09940866  0.87398204  0.49281409  1
  H+  H237  1  0.53037571  0.88690785  1.01267404  1
  H+  H238  1  0.72099150  0.35681700  0.83461814  1
  H+  H239  1  0.33633889  0.43744575  0.08054229  1
  H+  H240  1  0.14666933  0.85134897  0.32726971  1
  H+  H241  1  0.64496168  0.39060437  0.66254062  1
  H+  H242  1  0.32865934  0.17483526  0.10754523  1
  H+  H243  1  0.38585999  0.27906886  0.84063850  1
  H+  H244  1  0.39543478  0.38007157  0.18563949  1
  H+  H245  1  0.14354619  0.37011822  0.18548865  1
  H+  H246  1  0.60095012  0.61691714  0.32325948  1
  H+  H247  1  0.37347367  0.97489735  0.33835057  1
  H+  H248  1  0.06244653  0.12661912  0.38571665  1
  H+  H249  1  0.89463300  0.88017546  0.15763188  1
  H+  H250  1  0.73188922  0.38270988  0.18466451  1
  H+  H251  1  0.21938026  0.60202276  0.51474037  1
  H+  H252  1  0.89175927  0.03714887  0.98485179  1
  H+  H253  1  0.73734969  0.62334269  0.50069260  1
  H+  H254  1  0.38590116  0.10724826  0.32819693  1
  H+  H255  1  0.33660891  0.61356022  0.32642001  1
  H+  H256  1  0.58385127  0.41074733  0.10405198  1
  H+  H257  1  0.59889602  0.97429823  0.16778160  1
  H+  H258  1  0.21987098  0.35965677  0.01413884  1
  H+  H259  1  0.71936113  0.61753226  0.31964347  1
  H+  H260  1  0.09148018  0.72719127  0.51007718  1
  H+  H261  1  0.03418070  0.36892696  0.65858113  1
  H+  H262  1  0.12036210  0.59383017  0.34871901  1
  H+  H263  1  0.14630909  0.35527834  0.53445614  1
  H+  H264  1  0.85490082  0.47429871  -0.00315743  1
  H+  H265  1  0.82462951  0.69507667  0.39079530  1
  H+  H266  1  0.44005106  0.59461518  0.89672590  1
  H+  H267  1  0.14895120  0.34650561  0.62741070  1
  H+  H268  1  0.62853347  0.12677526  0.50428941  1
  H+  H269  1  0.35344580  0.95650546  0.67707383  1
  H+  H270  1  0.61158929  0.23807971  0.49148699  1
  H+  H271  1  0.09996159  0.88426229  0.84056969  1
  H+  H272  1  -0.03617573  0.09726979  0.31979697  1
  H+  H273  1  0.60676407  0.23652802  0.34164441  1
  H+  H274  1  0.85864212  0.73499464  0.83809488  1
  H+  H275  1  0.84911570  0.97026145  0.34168471  1
  H+  H276  1  0.46610918  0.12281989  0.86449963  1
  H+  H277  1  0.12962601  0.25447293  0.32958941  1
  H+  H278  1  0.01311935  0.89774501  0.15281513  1
  H+  H279  1  0.27889938  0.88825087  0.83594614  1
  H+  H280  1  0.37091411  0.18919033  0.67404421  1
  H+  H281  1  0.40709122  0.40412369  0.65353098  1
  H+  H282  1  0.38475671  0.49055950  0.81677599  1
  H+  H283  1  0.86328069  0.13040173  0.82043226  1
  H+  H284  1  0.84821059  0.96740605  0.15495654  1
  H+  H285  1  0.29882411  0.33803502  0.08025308  1
  H+  H286  1  0.38203348  0.86374361  0.50681531  1
  H+  H287  1  0.13528452  0.52308639  0.17284946  1
  H+  H288  1  0.63061965  0.72877460  0.52462743  1
  H+  H289  1  0.68475885  0.60212475  0.22177769  1
  H+  H290  1  0.95493235  0.65842779  0.27264328  1
  H+  H291  1  0.86342577  0.49246795  0.18604206  1
  H+  H292  1  0.57863403  0.17501678  0.43391104  1
  H+  H293  1  0.90293073  0.63326685  0.17456334  1
  H+  H294  1  0.08496417  0.93011423  0.08791794  1
  H+  H295  1  0.67455133  0.35884590  0.55374097  1
  H+  H296  1  0.56386749  0.87823033  0.42530198  1
  H+  H297  1  0.86640589  0.62532287  0.65522895  1
  H+  H298  1  0.61635284  -0.02060650  1.01567567  1
  H+  H299  1  0.88254873  0.02285695  0.83933944  1
  H+  H300  1  0.62191825  0.72623111  0.66598985  1
  H+  H301  1  0.06568883  0.91206145  0.74865336  1
  H+  H302  1  0.41591168  0.34214445  0.93613559  1
  H+  H303  1  0.36671439  0.75268180  0.32488556  1
  H+  H304  1  0.62247888  0.64321552  0.82374403  1
  H+  H305  1  0.35105477  0.55330395  0.14650032  1
  H+  H306  1  0.55804576  0.63030333  0.38263451  1
  H+  H307  1  0.37882790  0.85558626  0.68450977  1
  H+  H308  1  0.66232725  0.34252434  0.24075594  1
  H+  H309  1  0.89397855  0.05375259  0.59759833  1
  H+  H310  1  0.16717339  0.33078177  0.24302846  1
  H+  H311  1  0.85870194  0.85438997  0.48498456  1
  H+  H312  1  0.51448632  0.89251251  0.51147920  1
  H+  H313  1  0.34794925  0.92916278  0.10418776  1
  H+  H314  1  0.59935773  0.97499055  0.64356203  1
  H+  H315  1  0.86371377  0.14463675  0.00809756  1
  H+  H316  1  0.32886494  0.65598933  0.10050662  1
  H+  H317  1  0.96747219  0.32817096  0.92627194  1
  H+  H318  1  0.91869440  0.34128929  0.57178303  1
  H+  H319  1  0.57360421  0.91288157  0.77582128  1
  H+  H320  1  0.42235231  0.82823964  0.94120430  1
  H+  H321  1  0.65406081  0.33195347  0.93369363  1
  H+  H322  1  0.82619104  0.91496727  0.77528528  1
  H+  H323  1  0.85032073  0.38921271  0.02377458  1
  H+  H324  1  0.19907622  0.15153470  0.57950360  1
  H+  H325  1  0.64919540  0.87361471  -0.00435166  1
  H+  H326  1  0.81767118  0.40492278  0.73504938  1
  H+  H327  1  0.83284618  0.90982154  0.40031919  1
  H+  H328  1  0.16444751  0.81985995  0.23361615  1
  H+  H329  1  0.73256426  0.21049676  0.28494012  1
  H+  H330  1  0.41997851  0.08598906  0.26742756  1
  H+  H331  1  0.01182703  0.01054560  0.44316324  1
  H+  H332  1  0.17263543  0.56491662  0.93970645  1
  H+  H333  1  0.68528240  0.84377534  0.56850669  1
  H+  H334  1  0.38773108  0.02812610  1.00540744  1
  H+  H335  1  0.72582047  0.36538818  0.33020632  1
  H+  H336  1  0.32987356  0.41065333  0.40517037  1
  H+  H337  1  0.33097302  0.90932195  0.74278431  1
  H+  H338  1  0.23631044  0.77803845  0.93882720  1
  H+  H339  1  0.95329677  0.62637838  0.51673606  1
  H+  H340  1  0.38373163  0.28444189  0.17586456  1
  H+  H341  1  0.09215462  0.33632187  0.74109494  1
  H+  H342  1  0.91472401  0.58374376  0.92608479  1
  H+  H343  1  0.28704544  0.39419019  0.50640609  1
  H+  H344  1  0.34543291  0.66230208  0.73755384  1
  H+  H345  1  0.33102751  0.91500413  0.43489040  1
  H+  H346  1  0.92114450  0.09834364  0.92699705  1
  H+  H347  1  0.36200693  0.14770018  0.16656674  1
  H+  H348  1  0.61238332  0.48416630  0.83149718  1
  H+  H349  1  0.09042677  0.42021390  0.11273283  1
  H+  H350  1  0.08183343  0.39271239  0.42129752  1
  H+  H351  1  0.92671523  0.85667148  0.22070917  1
  H+  H352  1  0.67139280  0.84045806  0.93318520  1
  H+  H353  1  0.05787123  0.11861746  0.74728073  1
  H+  H354  1  0.00355213  0.85501784  0.48532904  1
  H+  H355  1  0.42787082  0.60126556  0.59525386  1
  H+  H356  1  0.95355213  0.28106934  0.92488203  1
  H+  H357  1  0.22446210  0.11923886  0.17661152  1
  H+  H358  1  0.33969447  0.16802307  0.42916319  1
  H+  H359  1  0.41443402  0.32986440  0.27271024  1
  H+  H360  1  0.16511220  0.84352093  0.57251662  1
  H+  H361  1  0.83093208  0.68974123  0.77335256  1
  H+  H362  1  0.64051345  0.29484076  0.64126419  1
  H+  H363  1  0.37843205  0.64455917  0.67174947  1
  H+  H364  1  0.82985531  0.41894853  0.40057867  1
  H+  H365  1  0.07557978  0.16755574  0.06735308  1
  H+  H366  1  0.11465487  -0.01142626  0.15423404  1
  H+  H367  1  0.18722438  0.82068749  0.91043203  1
  H+  H368  1  0.39742533  0.53260722  0.50526463  1
  H+  H369  1  0.54802487  0.19144284  0.67283581  1
  H+  H370  1  0.08705271  0.66478655  0.09474803  1
  H+  H371  1  0.40587829  0.81469781  0.23428253  1
  H+  H372  1  0.16227112  0.09310184  0.93513794  1
  H+  H373  1  0.21327633  0.39360075  0.92295894  1
  H+  H374  1  0.35534991  0.67293690  0.41669462  1
  H+  H375  1  0.58769047  0.42942523  0.39444787  1
  H+  H376  1  0.58696683  0.17986693  0.10344736  1
  H+  H377  1  0.84273545  0.95897962  0.67352601  1
  H+  H378  1  0.66739476  0.08471801  0.94578270  1
  H+  H379  1  0.93471947  0.34320492  0.27868225  1
  H+  H380  1  0.32094460  0.15670576  0.77204611  1
  H+  H381  1  0.17093348  0.56886328  0.57775700  1
  H+  H382  1  0.59021441  0.42903863  0.73835472  1
  H+  H383  1  0.43561382  0.35211543  0.55761202  1
  O2-  O384  1  0.07749137  0.16549891  0.15075067  1
  O2-  O385  1  0.04486583  0.07216335  0.45270392  1
  O2-  O386  1  0.06648834  0.14635102  0.78773241  1
  O2-  O387  1  0.09078164  0.42386619  0.15886587  1
  O2-  O388  1  0.09004767  0.39465728  0.50061184  1
  O2-  O389  1  0.07998989  0.30474011  0.77995146  1
  O2-  O390  1  0.08863005  0.66176632  0.14000116  1
  O2-  O391  1  0.05216099  0.66636267  0.49868720  1
  O2-  O392  1  0.07605926  0.67534573  0.81396213  1
  O2-  O393  1  0.08050456  0.92811203  0.13613700  1
  O2-  O394  1  0.06374929  0.89556627  0.47242008  1
  O2-  O395  1  0.06746295  0.91419106  0.82856351  1
  O2-  O396  1  0.32920336  0.17706662  0.15301369  1
  O2-  O397  1  0.34113034  0.17100335  0.47496333  1
  O2-  O398  1  0.32961668  0.16931395  0.81639937  1
  O2-  O399  1  0.34701008  0.45604308  0.19240962  1
  O2-  O400  1  0.34238840  0.42536399  0.48356480  1
  O2-  O401  1  0.34671206  0.43095667  0.80077085  1
  O2-  O402  1  0.32432881  0.64729675  0.14585631  1
  O2-  O403  1  0.39556270  0.69916747  0.45252177  1
  O2-  O404  1  0.34506583  0.66367343  0.81339803  1
  O2-  O405  1  0.35609009  0.93900257  0.14850850  1
  O2-  O406  1  0.32728237  0.91408754  0.48037578  1
  O2-  O407  1  0.34037718  0.91828659  0.82240381  1
  O2-  O408  1  0.58547840  0.17776854  0.14912948  1
  O2-  O409  1  0.57907041  0.17585252  0.47971414  1
  O2-  O410  1  0.52922192  0.20309933  0.75826811  1
  O2-  O411  1  0.58334879  0.40699995  0.15023507  1
  O2-  O412  1  0.59082050  0.43306160  0.46978539  1
  O2-  O413  1  0.58329965  0.42475605  0.81280938  1
  O2-  O414  1  0.67697074  0.75851226  0.13767606  1
  O2-  O415  1  0.60180364  0.66929344  0.54024072  1
  O2-  O416  1  0.59472376  0.67512008  0.80636861  1
  O2-  O417  1  0.57027909  0.91304256  0.15257978  1
  O2-  O418  1  0.58082784  0.92163980  0.50958833  1
  O2-  O419  1  0.57590605  0.91568214  0.82017777  1
  O2-  O420  1  0.82385640  0.15870589  0.15302652  1
  O2-  O421  1  0.83425808  0.18549014  0.48711878  1
  O2-  O422  1  0.82866549  0.15643109  0.80343402  1
  O2-  O423  1  0.82583482  0.43071189  0.17441208  1
  O2-  O424  1  0.83766494  0.43219316  0.48194424  1
  O2-  O425  1  0.82631727  0.40699451  0.80934523  1
  O2-  O426  1  0.85431590  0.68321515  0.13648735  1
  O2-  O427  1  0.84044164  0.70275988  0.46534966  1
  O2-  O428  1  0.82979030  0.67584165  0.81654252  1
  O2-  O429  1  0.82877936  0.91029606  0.13410858  1
  O2-  O430  1  0.85103066  0.90647733  0.48139108  1
  O2-  O431  1  0.82873953  0.91855014  0.82073434  1
  O2-  O432  1  0.16242510  0.08215745  0.18927724  1
  O2-  O433  1  0.18039631  0.08806361  0.51384381  1
  O2-  O434  1  0.15814509  0.09065370  0.85709383  1
  O2-  O435  1  0.17588604  0.34056371  0.19771163  1
  O2-  O436  1  0.18846460  0.33444515  0.54489165  1
  O2-  O437  1  0.24866501  0.44188885  0.89485767  1
  O2-  O438  1  0.16911333  0.58874224  0.17902667  1
  O2-  O439  1  0.16556549  0.55901649  0.53298524  1
  O2-  O440  1  0.19448327  0.54356891  0.86645272  1
  O2-  O441  1  0.15403360  0.81326045  0.18866776  1
  O2-  O442  1  0.16264494  0.84125643  0.52742429  1
  O2-  O443  1  0.16055057  0.83208445  0.84005402  1
  O2-  O444  1  0.41712208  0.09782306  0.19002785  1
  O2-  O445  1  0.41412236  0.08068954  0.52472841  1
  O2-  O446  1  0.40487738  0.08418739  0.87185087  1
  O2-  O447  1  0.42227706  0.34405017  0.19239450  1
  O2-  O448  1  0.42986733  0.34315711  0.51305100  1
  O2-  O449  1  0.41587508  0.33963049  0.85573469  1
  O2-  O450  1  0.36877990  0.50982639  0.13723652  1
  O2-  O451  1  0.42906636  0.59345515  0.52045812  1
  O2-  O452  1  0.43633499  0.59312966  0.85161212  1
  O2-  O453  1  0.40197444  0.81112431  0.18885089  1
  O2-  O454  1  0.41579700  0.83722106  0.52257795  1
  O2-  O455  1  0.41694014  0.82538413  0.85998490  1
  O2-  O456  1  0.65361815  0.08048478  0.18674873  1
  O2-  O457  1  0.65806167  0.09540941  0.52128208  1
  O2-  O458  1  0.67028269  0.07859999  0.86464285  1
  O2-  O459  1  0.66565932  0.34625026  0.19420325  1
  O2-  O460  1  0.67250335  0.34775621  0.50990775  1
  O2-  O461  1  0.65948883  0.33287895  0.84704284  1
  O2-  O462  1  0.69786494  0.61782392  0.17811679  1
  O2-  O463  1  0.68415982  0.58249225  0.52248794  1
  O2-  O464  1  0.66362308  0.58677288  0.85914067  1
  O2-  O465  1  0.59337179  0.79818027  0.20547404  1
  O2-  O466  1  0.68898669  0.84894592  0.52312803  1
  O2-  O467  1  0.66266972  0.83326573  0.85707813  1
  O2-  O468  1  0.90256488  0.06924952  0.18469433  1
  O2-  O469  1  0.96029581  0.03180603  0.56289048  1
  O2-  O470  1  0.91593475  0.08644715  0.84905669  1
  O2-  O471  1  0.91548816  0.33435659  0.17320673  1
  O2-  O472  1  0.92273390  0.34641882  0.52713543  1
  O2-  O473  1  0.92519744  0.33082355  0.79510940  1
  O2-  O474  1  0.93020746  0.60541279  0.19804765  1
  O2-  O475  1  0.88813467  0.59641192  0.52325883  1
  O2-  O476  1  0.90830316  0.58086287  0.83764156  1
  O2-  O477  1  0.93246847  0.85757901  0.17461420  1
  O2-  O478  1  0.88733637  0.78060985  0.49238484  1
  O2-  O479  1  0.90088979  0.82764527  0.86877435  1
  O2-  O480  1  0.16405822  0.06418506  0.31011345  1
  O2-  O481  1  0.20729086  0.17922125  0.62040218  1
  O2-  O482  1  0.16558626  0.09123328  0.98066776  1
  O2-  O483  1  0.15937595  0.31720372  0.31933192  1
  O2-  O484  1  0.19344095  0.33231035  0.61184608  1
  O2-  O485  1  0.16572426  0.33928932  0.99061168  1
  O2-  O486  1  0.14870692  0.56278869  0.33159970  1
  O2-  O487  1  0.16932968  0.57156214  0.65760033  1
  O2-  O488  1  0.17106232  0.57415784  0.98447095  1
  O2-  O489  1  0.18051286  0.82590484  0.31128896  1
  O2-  O490  1  0.15447952  0.83208698  0.65550047  1
  O2-  O491  1  0.20388185  0.80615958  0.95069414  1
  O2-  O492  1  0.42086746  0.08163050  0.31298216  1
  O2-  O493  1  0.39306999  0.05157745  0.64716595  1
  O2-  O494  1  0.41494832  0.08915844  0.99017140  1
  O2-  O495  1  0.41258308  0.32370662  0.31777951  1
  O2-  O496  1  0.43988869  0.37378275  0.64080535  1
  O2-  O497  1  0.41821510  0.33944054  0.98160815  1
  O2-  O498  1  0.39335112  0.55563209  0.30118917  1
  O2-  O499  1  0.43059078  0.60210031  0.64131426  1
  O2-  O500  1  0.44152864  0.60260318  0.98080187  1
  O2-  O501  1  0.40582148  0.81513789  0.31424361  1
  O2-  O502  1  0.41779496  0.82826994  0.68264680  1
  O2-  O503  1  0.42371971  0.83260254  0.98641180  1
  O2-  O504  1  0.69812827  0.15172415  0.30019812  1
  O2-  O505  1  0.64557895  0.09257483  0.66131175  1
  O2-  O506  1  0.66594561  0.08576707  0.99092309  1
  O2-  O507  1  0.66454713  0.33721293  0.31312299  1
  O2-  O508  1  0.67861805  0.36472765  0.64208722  1
  O2-  O509  1  0.65534454  0.33436248  0.97859223  1
  O2-  O510  1  0.66098098  0.58252081  0.30008170  1
  O2-  O511  1  0.69260158  0.59927794  0.67083441  1
  O2-  O512  1  0.66551896  0.58908163  0.98523084  1
  O2-  O513  1  0.65108374  0.81537379  0.31770870  1
  O2-  O514  1  0.66530197  0.82872857  0.64511459  1
  O2-  O515  1  0.68035173  0.84491300  0.97846262  1
  O2-  O516  1  0.90141602  0.06921573  0.30879954  1
  O2-  O517  1  0.84290529  0.04521067  0.62272504  1
  O2-  O518  1  0.92034153  0.09876130  0.97270677  1
  O2-  O519  1  0.92457993  0.33414056  0.32241754  1
  O2-  O520  1  0.91460140  0.32872359  0.65979862  1
  O2-  O521  1  0.90944456  0.34079312  1.05194845  1
  O2-  O522  1  0.96345541  0.68254431  0.31460218  1
  O2-  O523  1  0.91603165  0.58095401  0.69954182  1
  O2-  O524  1  0.92074293  0.58644415  0.97087010  1
  O2-  O525  1  0.90925931  0.84658056  0.29370656  1
  O2-  O526  1  0.88647989  0.80436332  0.68651775  1
  O2-  O527  1  0.88943019  0.88134830  0.99946371  1
  O2-  O528  1  0.08024258  0.16982007  0.02216080  1
  O2-  O529  1  0.07078437  0.14363651  0.34176876  1
  O2-  O530  1  0.05559080  0.05737867  0.67344431  1
  O2-  O531  1  0.08360536  0.41667056  0.03849018  1
  O2-  O532  1  0.07758305  0.39541497  0.37599882  1
  O2-  O533  1  0.09593983  0.39106810  0.66650098  1
  O2-  O534  1  0.08538301  0.65905993  0.01369363  1
  O2-  O535  1  0.08530728  0.66450009  0.37391137  1
  O2-  O536  1  0.08619115  0.66337320  0.69098681  1
  O2-  O537  1  0.08887283  0.93140746  0.02160689  1
  O2-  O538  1  0.05113735  0.86002543  0.35022211  1
  O2-  O539  1  0.06227054  0.90812808  0.70318494  1
  O2-  O540  1  0.33022104  0.17239353  0.02670691  1
  O2-  O541  1  0.32923578  0.15551321  0.35276361  1
  O2-  O542  1  0.31392851  0.14880131  0.68984070  1
  O2-  O543  1  0.31664034  0.38647447  0.05249202  1
  O2-  O544  1  0.32562155  0.40170242  0.36000688  1
  O2-  O545  1  0.34326306  0.43652268  0.67789367  1
  O2-  O546  1  0.33623042  0.66496707  0.02383790  1
  O2-  O547  1  0.31373018  0.64772258  0.34601187  1
  O2-  O548  1  0.34508560  0.67039433  0.69195857  1
  O2-  O549  1  0.34416897  0.92284260  0.02100342  1
  O2-  O550  1  0.34106989  0.91548479  0.35565990  1
  O2-  O551  1  0.32514688  0.89807911  0.69793399  1
  O2-  O552  1  0.58601354  0.17413040  0.02599971  1
  O2-  O553  1  0.58136354  0.17574598  0.35695692  1
  O2-  O554  1  0.58618858  0.20685543  0.63705402  1
  O2-  O555  1  0.58331712  0.42199155  0.02954626  1
  O2-  O556  1  0.58462571  0.42227223  0.34870034  1
  O2-  O557  1  0.59606275  0.43343144  0.69213136  1
  O2-  O558  1  0.60480891  0.68842489  0.03099665  1
  O2-  O559  1  0.56437507  0.64249543  0.33907532  1
  O2-  O560  1  0.59609195  0.66546308  0.68155642  1
  O2-  O561  1  0.59057930  0.91796869  0.02898434  1
  O2-  O562  1  0.53754662  0.83500564  0.39251183  1
  O2-  O563  1  0.57098179  0.91303528  0.63264738  1
  O2-  O564  1  0.83208624  0.16899313  0.03018942  1
  O2-  O565  1  0.84093103  0.16686735  0.35974799  1
  O2-  O566  1  0.81005113  0.15677417  0.68291689  1
  O2-  O567  1  0.81520621  0.41481060  0.01042345  1
  O2-  O568  1  0.82212617  0.40792984  0.35608880  1
  O2-  O569  1  0.82226485  0.41241536  0.68905630  1
  O2-  O570  1  0.83682826  0.66963281  0.01602857  1
  O2-  O571  1  0.81780629  0.68404218  0.34546077  1
  O2-  O572  1  0.83719259  0.64465011  0.62592960  1
  O2-  O573  1  0.84583391  0.93141026  0.01212970  1
  O2-  O574  1  0.82207657  0.90866831  0.35556005  1
  O2-  O575  1  0.81809205  0.90517681  0.69743268  1
