# generated using pymatgen
data_H2O
_symmetry_space_group_name_H-M   'P 1'
_cell_length_a   17.98761354
_cell_length_b   17.98710294
_cell_length_c   21.99252866
_cell_angle_alpha   89.98596190
_cell_angle_beta   90.03233967
_cell_angle_gamma   119.96446202
_symmetry_Int_Tables_number   1
_chemical_formula_structural   H2O
_chemical_formula_sum   'H384 O192'
_cell_volume   6164.47234224
_cell_formula_units_Z   192
loop_
 _symmetry_equiv_pos_site_id
 _symmetry_equiv_pos_as_xyz
  1  'x, y, z'
loop_
 _atom_type_symbol
 _atom_type_oxidation_number
  H+  1.0
  O2-  -2.0
loop_
 _atom_site_type_symbol
 _atom_site_label
 _atom_site_symmetry_multiplicity
 _atom_site_fract_x
 _atom_site_fract_y
 _atom_site_fract_z
 _atom_site_occupancy
  H+  H0  1  0.60143379  0.11077645  0.18422445  1
  H+  H1  1  0.38027333  0.03021049  1.03519601  1
  H+  H2  1  0.88296273  0.00874033  0.51144354  1
  H+  H3  1  0.78039061  0.40168424  0.16742685  1
  H+  H4  1  0.13319545  0.77229483  0.50804653  1
  H+  H5  1  0.39195957  0.52008379  0.66243367  1
  H+  H6  1  0.88802772  0.36764644  0.99754119  1
  H+  H7  1  0.40475558  0.53082822  0.31247749  1
  H+  H8  1  0.13541053  0.01938109  1.00143225  1
  H+  H9  1  0.71378681  0.33552088  0.51580305  1
  H+  H10  1  0.38565859  0.77304452  0.50562781  1
  H+  H11  1  0.87265074  0.86507410  0.83953841  1
  H+  H12  1  0.25928359  0.88245005  -0.00284673  1
  H+  H13  1  0.83279511  0.41476180  0.07254560  1
  H+  H14  1  0.63492871  0.36594080  1.00419869  1
  H+  H15  1  0.77514144  0.88719129  0.48851756  1
  H+  H16  1  0.38110732  0.11956529  1.03877695  1
  H+  H17  1  0.14966085  0.75791747  0.65708263  1
  H+  H18  1  0.62849626  0.61766276  0.83798931  1
  H+  H19  1  0.63064516  0.78352985  0.98214838  1
  H+  H20  1  0.26558671  0.13507027  0.66551091  1
  H+  H21  1  0.12361239  0.22589481  0.67913065  1
  H+  H22  1  0.66013235  0.16443214  0.82932308  1
  H+  H23  1  0.89235493  0.77313137  0.19928036  1
  H+  H24  1  0.14382040  0.32667127  0.23657183  1
  H+  H25  1  0.11421308  -0.01580925  0.37633444  1
  H+  H26  1  0.73832478  0.87094069  0.32696986  1
  H+  H27  1  0.20585976  0.09416031  0.50051063  1
  H+  H28  1  0.35661634  0.39379114  0.48405024  1
  H+  H29  1  0.89220766  0.12037945  0.00753934  1
  H+  H30  1  0.57973782  0.64369240  0.15574922  1
  H+  H31  1  0.37339097  0.72275980  0.67872581  1
  H+  H32  1  0.38241761  0.85864924  0.00372516  1
  H+  H33  1  0.38377473  0.69732599  0.83609293  1
  H+  H34  1  0.60509141  0.12801874  0.33346534  1
  H+  H35  1  0.60546561  -0.10712825  0.80032206  1
  H+  H36  1  0.76588719  0.88920351  1.00090843  1
  H+  H37  1  0.52336491  0.14257486  1.03101518  1
  H+  H38  1  0.02419260  0.88665297  0.66664253  1
  H+  H39  1  0.88443327  0.77705021  0.99284058  1
  H+  H40  1  0.85338923  0.88553366  0.00567573  1
  H+  H41  1  0.85186436  0.45242768  0.79722088  1
  H+  H42  1  0.75068877  0.62575506  0.65775706  1
  H+  H43  1  0.52181284  0.87175368  0.16176484  1
  H+  H44  1  0.16281310  0.75320770  0.41314033  1
  H+  H45  1  0.92428072  0.66192012  0.67012870  1
  H+  H46  1  0.86359289  0.65075090  0.33136982  1
  H+  H47  1  0.27144954  0.64190947  0.49724272  1
  H+  H48  1  0.44535575  0.06575660  0.86002124  1
  H+  H49  1  0.87950482  0.90514475  0.34333236  1
  H+  H50  1  0.34306633  0.13418496  0.17274808  1
  H+  H51  1  0.89323664  0.77766275  0.49911153  1
  H+  H52  1  0.51941075  0.37968463  1.01661091  1
  H+  H53  1  0.86099329  0.38684687  0.16691040  1
  H+  H54  1  0.13631339  0.62776629  0.51914969  1
  H+  H55  1  0.36819144  1.01232016  0.65335622  1
  H+  H56  1  0.61106836  0.23032008  0.01355612  1
  H+  H57  1  0.63680325  0.84987005  0.17259333  1
  H+  H58  1  0.02502007  0.13601833  0.02297387  1
  H+  H59  1  0.27772631  0.89264706  0.65500015  1
  H+  H60  1  0.91031964  0.79580724  0.34634854  1
  H+  H61  1  0.77095039  0.38524946  1.01391231  1
  H+  H62  1  0.18203561  0.83753774  0.22463321  1
  H+  H63  1  0.11454366  0.39205337  0.15277595  1
  H+  H64  1  0.15821545  0.07783529  0.59794991  1
  H+  H65  1  0.10724077  0.38680301  0.67230077  1
  H+  H66  1  0.83927176  0.21935518  0.30722295  1
  H+  H67  1  0.35534105  0.79576162  0.83140087  1
  H+  H68  1  0.64489047  0.61379259  0.50701812  1
  H+  H69  1  0.37140374  0.40257768  -0.00216610  1
  H+  H70  1  0.90242595  0.37002531  0.84333472  1
  H+  H71  1  0.86026240  0.14408935  0.32450768  1
  H+  H72  1  0.63737620  0.78577671  0.67307526  1
  H+  H73  1  0.73555621  0.08344807  0.17836353  1
  H+  H74  1  0.48074304  0.85761182  0.32531254  1
  H+  H75  1  0.31522486  0.88547125  0.80685606  1
  H+  H76  1  0.16752316  0.70011157  0.35659919  1
  H+  H77  1  0.52519096  0.88311797  0.49264941  1
  H+  H78  1  0.13689335  0.39003722  0.89796636  1
  H+  H79  1  0.93099877  0.55596292  0.44166462  1
  H+  H80  1  0.86629672  0.74131881  0.66689151  1
  H+  H81  1  0.62784874  0.41972703  0.17225311  1
  H+  H82  1  1.01711957  0.13591668  0.49871527  1
  H+  H83  1  0.53908521  0.64060145  0.33571990  1
  H+  H84  1  0.97463160  0.12261113  0.32415391  1
  H+  H85  1  0.41599637  0.82927772  0.23306408  1
  H+  H86  1  0.85514282  0.14411146  0.46169639  1
  H+  H87  1  0.11547116  0.14678330  0.84196411  1
  H+  H88  1  0.98608340  0.85066542  0.19202089  1
  H+  H89  1  0.23246992  0.61808444  0.66620124  1
  H+  H90  1  0.38467470  0.60445331  0.65878152  1
  H+  H91  1  0.53231360  0.18187379  0.17078212  1
  H+  H92  1  0.86291629  0.23399471  1.00902411  1
  H+  H93  1  0.72121990  0.11312359  0.51250622  1
  H+  H94  1  0.63298000  0.87191220  0.98784030  1
  H+  H95  1  0.97555674  0.63958350  0.84985487  1
  H+  H96  1  0.36277606  0.10971010  0.65575245  1
  H+  H97  1  0.88619762  0.86466087  0.65386728  1
  H+  H98  1  0.87729297  0.64546242  0.47148159  1
  H+  H99  1  0.79964814  0.68704797  0.31916800  1
  H+  H100  1  0.40259920  0.29311527  0.17341603  1
  H+  H101  1  0.52692764  0.64631693  0.67295736  1
  H+  H102  1  0.31873445  0.43837537  0.16319949  1
  H+  H103  1  0.47361837  0.85999481  1.00895700  1
  H+  H104  1  0.51792372  0.13167503  0.32967686  1
  H+  H105  1  0.16922318  0.33240143  0.60533342  1
  H+  H106  1  0.64425758  0.86241300  0.49657356  1
  H+  H107  1  0.10672222  0.86939092  0.84317752  1
  H+  H108  1  0.19138400  0.07605430  0.17952737  1
  H+  H109  1  0.14344298  0.61277961  0.16521111  1
  H+  H110  1  0.71662482  0.03574061  0.87992263  1
  H+  H111  1  0.11259370  0.97514955  0.67035617  1
  H+  H112  1  0.86916077  0.08395871  0.53772620  1
  H+  H113  1  0.63433965  0.36460986  0.66267012  1
  H+  H114  1  0.96973047  0.35339457  0.65857065  1
  H+  H115  1  0.52847712  0.63405082  0.49573643  1
  H+  H116  1  0.79594955  0.12102262  0.67388081  1
  H+  H117  1  0.71236994  0.16395832  0.68211274  1
  H+  H118  1  0.40038505  0.86328294  0.65605308  1
  H+  H119  1  0.62993422  0.56947058  0.92767497  1
  H+  H120  1  0.41598229  0.32967274  0.93365583  1
  H+  H121  1  0.38526447  0.53105888  0.50132125  1
  H+  H122  1  0.11919550  0.55607126  0.34433943  1
  H+  H123  1  0.35166546  0.21669675  0.33403342  1
  H+  H124  1  0.77444231  0.39030667  0.33053111  1
  H+  H125  1  0.29405846  0.18134799  0.19906114  1
  H+  H126  1  0.10323738  0.13271664  0.49442034  1
  H+  H127  1  0.36857273  0.73042523  0.16342647  1
  H+  H128  1  0.58083141  0.67414465  0.73385455  1
  H+  H129  1  0.11232304  0.13263489  0.02014728  1
  H+  H130  1  0.38149993  0.27326598  0.99445300  1
  H+  H131  1  0.88760654  0.03272311  0.32579442  1
  H+  H132  1  0.85928347  0.64040980  0.16041885  1
  H+  H133  1  0.98058682  0.86713286  0.49037027  1
  H+  H134  1  0.34449531  0.94075852  -0.03862966  1
  H+  H135  1  0.60467800  0.73187180  0.82723139  1
  H+  H136  1  0.50907149  0.13545470  0.48556057  1
  H+  H137  1  0.27471164  0.88712506  0.49201188  1
  H+  H138  1  0.96974118  0.86820120  0.99354872  1
  H+  H139  1  0.65178445  0.53035921  0.65797376  1
  H+  H140  1  0.37341403  0.14302258  0.81467277  1
  H+  H141  1  0.73313341  0.30870979  0.68360923  1
  H+  H142  1  0.35485823  0.00411730  0.16961148  1
  H+  H143  1  0.35599660  0.66061480  0.73496444  1
  H+  H144  1  0.77093308  0.88323289  0.67683871  1
  H+  H145  1  0.72457738  0.37279463  0.84690343  1
  H+  H146  1  0.10756495  0.13982837  0.34643114  1
  H+  H147  1  1.00586062  0.64174153  0.47277949  1
  H+  H148  1  0.06654527  0.76003968  0.26292308  1
  H+  H149  1  0.64774554  0.77541208  0.49971839  1
  H+  H150  1  0.84812008  0.34753259  0.27654711  1
  H+  H151  1  0.75126924  0.87917052  0.16347732  1
  H+  H152  1  0.14571183  0.65710173  0.66583319  1
  H+  H153  1  0.12651022  0.72959313  0.16504487  1
  H+  H154  1  0.11014128  0.39173278  0.50197133  1
  H+  H155  1  0.10066252  0.95100763  0.16834799  1
  H+  H156  1  0.86585945  0.14162474  0.15862853  1
  H+  H157  1  0.35967304  0.22358039  0.66634552  1
  H+  H158  1  1.02253426  0.89031929  0.36936967  1
  H+  H159  1  0.86731452  0.88926082  0.48911095  1
  H+  H160  1  0.36743400  0.10247395  0.50492567  1
  H+  H161  1  0.13338248  0.02593359  0.84186121  1
  H+  H162  1  0.62253250  0.38568035  0.49832123  1
  H+  H163  1  0.43325855  0.55339507  0.15327189  1
  H+  H164  1  0.03515896  0.63896765  0.16368737  1
  H+  H165  1  0.38188639  0.85639810  0.17374536  1
  H+  H166  1  0.09138955  0.20170279  0.17049010  1
  H+  H167  1  0.06557405  0.41990527  0.83278077  1
  H+  H168  1  0.61337675  0.39674861  0.83058959  1
  H+  H169  1  0.77276702  0.14484545  0.01130394  1
  H+  H170  1  0.05959952  0.66996315  0.55053447  1
  H+  H171  1  0.45700593  0.34746383  0.33385842  1
  H+  H172  1  0.87638326  0.21617280  0.66877094  1
  H+  H173  1  0.83593406  0.46198133  0.50780235  1
  H+  H174  1  0.88105429  0.27228900  0.49686200  1
  H+  H175  1  0.61699675  0.11533130  0.67054011  1
  H+  H176  1  0.31613620  0.50740679  0.81496510  1
  H+  H177  1  0.58903207  0.64007100  -0.00062597  1
  H+  H178  1  0.46657552  0.62974909  -0.03003220  1
  H+  H179  1  0.38877841  0.40861530  0.16020559  1
  H+  H180  1  0.71823816  0.61895745  0.83819492  1
  H+  H181  1  0.36487558  0.74129770  1.01440039  1
  H+  H182  1  0.51761268  0.64107541  0.82452569  1
  H+  H183  1  0.25463530  0.86726712  0.15975655  1
  H+  H184  1  0.23600940  0.61192737  0.16507732  1
  H+  H185  1  0.89009171  0.11002483  0.83416263  1
  H+  H186  1  0.40778449  0.60085058  0.88476677  1
  H+  H187  1  0.86831369  0.46757099  0.68352040  1
  H+  H188  1  0.36030529  0.64084655  0.49396419  1
  H+  H189  1  0.88542263  0.51823241  1.00433617  1
  H+  H190  1  0.00579631  0.89251980  0.82420780  1
  H+  H191  1  0.53744178  0.52067187  -0.04586207  1
  H+  H192  1  0.11510560  0.86918809  0.16077862  1
  H+  H193  1  0.14051803  0.11464386  0.66086134  1
  H+  H194  1  0.93959073  0.68308531  0.89416728  1
  H+  H195  1  0.64500760  0.15040442  0.18114016  1
  H+  H196  1  0.83280766  0.47637146  0.69259667  1
  H+  H197  1  0.09391823  0.73190683  0.82721747  1
  H+  H198  1  0.85329177  0.65014302  0.82430276  1
  H+  H199  1  1.02531288  0.39454066  1.00470588  1
  H+  H200  1  0.16047741  0.56740229  0.85161484  1
  H+  H201  1  0.82145427  0.30661443  0.68328954  1
  H+  H202  1  0.82440299  0.90590537  0.76581794  1
  H+  H203  1  0.63964807  0.28616048  0.84750139  1
  H+  H204  1  0.38201730  0.64873421  0.15594859  1
  H+  H205  1  0.13961402  0.50931728  0.15245486  1
  H+  H206  1  0.93056085  0.57970917  0.65774995  1
  H+  H207  1  0.62788594  0.64459241  0.34367104  1
  H+  H208  1  0.14031320  0.53126259  -0.00325782  1
  H+  H209  1  0.71604609  0.10666485  0.32453330  1
  H+  H210  1  0.35165359  0.38653548  0.33615539  1
  H+  H211  1  0.67463902  0.08408887  0.57660131  1
  H+  H212  1  0.96768405  0.65096505  0.30740447  1
  H+  H213  1  0.37404382  0.01524748  0.50793274  1
  H+  H214  1  0.36278625  0.39670154  0.74198875  1
  H+  H215  1  0.09811115  0.75401807  0.32949790  1
  H+  H216  1  0.85455591  0.97229027  0.82209256  1
  H+  H217  1  -0.11114465  0.03076533  0.00459556  1
  H+  H218  1  0.12751241  0.76800913  0.00091421  1
  H+  H219  1  0.03918878  0.13326217  0.68326503  1
  H+  H220  1  0.64710552  0.01784966  0.83088081  1
  H+  H221  1  0.70871385  0.57036424  0.35551987  1
  H+  H222  1  0.02062653  0.39006206  0.49989318  1
  H+  H223  1  0.22742888  0.35855046  0.66514880  1
  H+  H224  1  0.19634163  0.87549457  0.85096920  1
  H+  H225  1  0.37593265  0.01311153  0.32008575  1
  H+  H226  1  0.61890476  0.88628638  0.33973764  1
  H+  H227  1  0.73731274  0.61717889  0.50376576  1
  H+  H228  1  0.61040756  0.48615043  0.82811216  1
  H+  H229  1  0.89369068  0.53044934  0.16672073  1
  H+  H230  1  0.27856171  0.70784129  0.85846852  1
  H+  H231  1  0.71442323  0.86843341  0.82954967  1
  H+  H232  1  0.59031789  0.44756240  0.34477428  1
  H+  H233  1  0.11059611  0.39334106  -0.01196393  1
  H+  H234  1  0.65077217  0.78023980  0.32751444  1
  H+  H235  1  0.49049819  0.37573424  0.82758160  1
  H+  H236  1  0.55622233  0.67318350  0.05478897  1
  H+  H237  1  0.62027513  0.95119003  0.16557050  1
  H+  H238  1  0.08178621  0.42187837  0.40884701  1
  H+  H239  1  0.27765380  -0.13932882  0.35319299  1
  H+  H240  1  0.13070834  0.36859939  0.33023252  1
  H+  H241  1  0.10389178  0.47315236  0.67091713  1
  H+  H242  1  0.85085300  0.73674363  0.82370806  1
  H+  H243  1  0.87069134  0.64519684  1.01336912  1
  H+  H244  1  0.56850407  0.16670754  0.42590839  1
  H+  H245  1  0.21535176  0.10318517  0.33715653  1
  H+  H246  1  0.21920187  0.36456782  0.50594104  1
  H+  H247  1  0.10287061  0.88292401  0.01180763  1
  H+  H248  1  0.50031917  0.13263774  0.67635752  1
  H+  H249  1  0.13684640  0.61927413  0.00589962  1
  H+  H250  1  0.13112760  0.27938841  0.32953724  1
  H+  H251  1  0.53130689  0.40181935  0.67283299  1
  H+  H252  1  0.35529620  0.44562729  0.05429931  1
  H+  H253  1  0.63920381  0.31422470  0.17717560  1
  H+  H254  1  0.36552865  0.88836371  0.49832783  1
  H+  H255  1  0.40749799  0.08488033  0.13157096  1
  H+  H256  1  0.41950637  0.27712802  0.51046674  1
  H+  H257  1  0.40775752  0.96149163  0.79702471  1
  H+  H258  1  0.90815713  0.10603052  0.66871848  1
  H+  H259  1  0.51497513  0.10695288  0.80995245  1
  H+  H260  1  0.48663307  0.86577464  0.67279314  1
  H+  H261  1  0.35312958  0.12675329  0.33255243  1
  H+  H262  1  0.62110500  -0.00430412  0.70870013  1
  H+  H263  1  0.30643586  0.20813670  0.47658332  1
  H+  H264  1  0.38586625  0.53507678  -0.03074096  1
  H+  H265  1  0.14171452  0.87203571  0.64890476  1
  H+  H266  1  0.19234246  0.32819698  0.17610828  1
  H+  H267  1  0.86741000  0.96690382  0.67786241  1
  H+  H268  1  0.61501674  0.96989396  0.49764007  1
  H+  H269  1  0.02352543  0.39414530  0.34989100  1
  H+  H270  1  0.22585853  0.11051486  0.84285167  1
  H+  H271  1  0.11205724  0.29570783  0.91505698  1
  H+  H272  1  0.26607516  0.64262411  0.01397847  1
  H+  H273  1  0.77335702  0.64823766  0.16045586  1
  H+  H274  1  0.86877855  0.26280036  0.18154069  1
  H+  H275  1  0.65715733  0.08225586  -0.05437527  1
  H+  H276  1  0.62793850  0.54558494  0.17126633  1
  H+  H277  1  0.13148734  0.27473526  0.50976667  1
  H+  H278  1  0.62882380  0.47952908  0.49575953  1
  H+  H279  1  0.64738442  0.87750368  0.68657907  1
  H+  H280  1  1.02229628  0.63362594  1.01677116  1
  H+  H281  1  0.26589476  0.13734152  0.01444394  1
  H+  H282  1  0.79009472  0.14658326  0.82616949  1
  H+  H283  1  0.85092590  0.98042889  0.15572174  1
  H+  H284  1  0.05830570  0.67331276  0.67593852  1
  H+  H285  1  0.16740757  0.07975815  0.94196405  1
  H+  H286  1  0.61796271  0.25783838  0.50414878  1
  H+  H287  1  0.49471386  0.37163460  0.50799909  1
  H+  H288  1  0.10015785  0.64867706  0.83578301  1
  H+  H289  1  0.85934600  0.40784192  0.36604113  1
  H+  H290  1  0.32046005  0.15719188  0.42370001  1
  H+  H291  1  0.80246605  0.35741494  0.77090075  1
  H+  H292  1  0.34379751  0.91577064  0.71281456  1
  H+  H293  1  0.32549834  0.90193612  0.10371017  1
  H+  H294  1  0.84574896  0.53969246  0.56368328  1
  H+  H295  1  0.11153731  0.08979392  0.18532686  1
  H+  H296  1  0.17479485  0.59495755  0.60421547  1
  H+  H297  1  0.40234417  0.07099450  0.26010910  1
  H+  H298  1  0.58783111  0.22201324  0.67419542  1
  H+  H299  1  0.92303121  0.34139340  0.93805218  1
  H+  H300  1  0.07664172  0.17224252  0.40268468  1
  H+  H301  1  0.08708609  0.66890953  0.07466116  1
  H+  H302  1  0.21559661  0.62622007  0.33309882  1
  H+  H303  1  0.65366681  0.84622342  0.88725835  1
  H+  H304  1  0.59939200  0.47090024  0.01165849  1
  H+  H305  1  0.58558209  0.91233563  0.39969164  1
  H+  H306  1  0.42500393  0.33492344  0.60020916  1
  H+  H307  1  0.60618613  0.97603482  0.01577770  1
  H+  H308  1  0.13691306  0.86549795  0.48927393  1
  H+  H309  1  0.59002921  0.43282687  0.73218668  1
  H+  H310  1  0.49154559  0.38312632  0.17909391  1
  H+  H311  1  0.85044877  0.17574262  0.76770147  1
  H+  H312  1  0.90764839  0.83747875  0.89859740  1
  H+  H313  1  0.34485254  0.91985666  0.40080489  1
  H+  H314  1  0.13427542  0.53571599  0.51398826  1
  H+  H315  1  0.07338513  0.90911348  0.07190752  1
  H+  H316  1  0.07715271  0.14941023  0.10702941  1
  H+  H317  1  0.90715128  0.07995793  0.22828848  1
  H+  H318  1  0.65048466  0.32133987  0.60343544  1
  H+  H319  1  0.62818207  0.35065857  0.33670808  1
  H+  H320  1  0.83015927  0.67801002  0.42975095  1
  H+  H321  1  0.09899659  0.42605897  0.08665931  1
  H+  H322  1  0.67569850  0.04977371  0.23752652  1
  H+  H323  1  0.82330148  0.18213516  0.41189592  1
  H+  H324  1  0.06989802  0.91807108  0.76587587  1
  H+  H325  1  0.62920366  0.01517689  0.32995234  1
  H+  H326  1  0.41656412  0.58366616  0.56316023  1
  H+  H327  1  0.69823709  0.53939012  0.28924798  1
  H+  H328  1  -0.03277225  0.10110910  0.16992958  1
  H+  H329  1  0.94848570  0.84931446  0.28619494  1
  H+  H330  1  -0.02534847  0.10475137  0.83755400  1
  H+  H331  1  0.45083028  0.59260514  0.25491529  1
  H+  H332  1  0.56865694  0.39683548  0.40650681  1
  H+  H333  1  0.84169172  0.92980185  0.40001471  1
  H+  H334  1  0.90968682  0.28697952  0.84285654  1
  H+  H335  1  0.32457198  0.42335159  0.42625915  1
  H+  H336  1  0.84113247  0.68216700  0.06726627  1
  H+  H337  1  0.27153617  0.40912591  0.82717797  1
  H+  H338  1  0.17208245  0.61750206  0.91157890  1
  H+  H339  1  0.09355555  0.17790702  0.78204551  1
  H+  H340  1  0.38644762  0.35796889  0.65754356  1
  H+  H341  1  0.81796220  0.91685782  0.09439191  1
  H+  H342  1  0.14348286  0.82608748  0.94057044  1
  H+  H343  1  0.67694913  0.35724802  0.24158946  1
  H+  H344  1  0.11659188  0.00940705  0.49335968  1
  H+  H345  1  0.83261562  0.17433621  0.10254182  1
  H+  H346  1  0.32164849  0.66281903  0.39575260  1
  H+  H347  1  0.57828673  0.20961987  0.10703426  1
  H+  H348  1  0.65200632  0.61465996  0.22364577  1
  H+  H349  1  0.91591499  0.58229400  0.94696330  1
  H+  H350  1  0.92038182  0.83934537  0.59283082  1
  H+  H351  1  0.58811743  0.66224925  0.43652215  1
  H+  H352  1  0.58135182  0.90828478  0.07101283  1
  H+  H353  1  0.83326080  0.68372228  0.72965660  1
  H+  H354  1  0.41063336  0.33303188  0.26978759  1
  H+  H355  1  0.66428915  0.34002890  0.94294296  1
  H+  H356  1  0.89708643  0.54755326  0.31962912  1
  H+  H357  1  0.39782882  0.06185874  0.93028801  1
  H+  H358  1  0.16538931  0.44965075  0.81698310  1
  H+  H359  1  0.36416013  0.07140173  0.91798752  1
  H+  H360  1  0.33222235  0.67075828  0.07542778  1
  H+  H361  1  0.26848990  0.39626774  0.33300979  1
  H+  H362  1  0.63173471  0.11644744  0.00516398  1
  H+  H363  1  0.88176910  0.35984998  0.50490805  1
  H+  H364  1  0.68082523  0.83779067  0.23371778  1
  H+  H365  1  0.39461097  0.27788879  0.82421833  1
  H+  H366  1  0.39443099  0.86206519  0.32656678  1
  H+  H367  1  0.63142433  0.19201366  0.76947308  1
  H+  H368  1  0.93496174  0.07042406  0.61144241  1
  H+  H369  1  0.17149806  0.84885100  0.58410234  1
  H+  H370  1  0.58867500  0.43285553  0.10993889  1
  H+  H371  1  0.30419520  0.43320765  0.73541446  1
  H+  H372  1  0.63705011  0.26760078  0.32731942  1
  H+  H373  1  0.14307121  0.05880020  0.28676003  1
  H+  H374  1  0.79232086  0.42303325  0.44501367  1
  H+  H375  1  0.31718614  0.18202720  0.07534899  1
  H+  H376  1  0.35390149  0.71711342  0.33573364  1
  H+  H377  1  0.91556338  0.59219760  0.22379552  1
  H+  H378  1  0.33347702  0.16785474  0.75997376  1
  H+  H379  1  0.42483413  0.83080217  0.56512520  1
  H+  H380  1  0.90806437  0.31865718  0.59950330  1
  H+  H381  1  0.68591423  0.58876760  0.59189587  1
  H+  H382  1  0.87115304  0.51863484  0.57392071  1
  H+  H383  1  0.39495100  0.07886893  0.58932587  1
  O2-  O384  1  0.06990498  0.14306180  0.15480448  1
  O2-  O385  1  0.07636415  0.16762866  0.48215170  1
  O2-  O386  1  0.08465462  0.17546843  0.82646459  1
  O2-  O387  1  0.10035752  0.43292541  0.13265400  1
  O2-  O388  1  0.08136940  0.42310458  0.48606429  1
  O2-  O389  1  0.12608211  0.45874715  0.84353646  1
  O2-  O390  1  0.09618148  0.66615667  0.15007917  1
  O2-  O391  1  0.08775898  0.67992529  0.51104375  1
  O2-  O392  1  0.06336255  0.67002133  0.81753927  1
  O2-  O393  1  0.07733451  0.89472012  0.14809272  1
  O2-  O394  1  0.07953378  0.91746672  0.45846088  1
  O2-  O395  1  0.06789374  0.92143598  0.81106304  1
  O2-  O396  1  0.32347122  0.17670377  0.16323192  1
  O2-  O397  1  0.31736152  0.16076491  0.46974490  1
  O2-  O398  1  0.34245123  0.17360696  0.80506213  1
  O2-  O399  1  0.36948534  0.44734979  0.14116047  1
  O2-  O400  1  0.32370021  0.42147460  0.47212731  1
  O2-  O401  1  0.37867274  0.38063566  0.81334525  1
  O2-  O402  1  0.34134463  0.66941908  0.14626338  1
  O2-  O403  1  0.33050684  0.67183660  0.47962893  1
  O2-  O404  1  0.41136750  0.67248893  0.80733697  1
  O2-  O405  1  0.32231859  0.90293943  0.14793013  1
  O2-  O406  1  0.33780360  0.92090852  0.48213361  1
  O2-  O407  1  0.36713103  0.90078862  0.78377500  1
  O2-  O408  1  0.56213644  0.23101689  0.14374547  1
  O2-  O409  1  0.56780991  0.17318564  0.47086537  1
  O2-  O410  1  0.62395335  0.18666174  0.81387548  1
  O2-  O411  1  0.59086706  0.44220311  0.15503260  1
  O2-  O412  1  0.59535627  0.41854792  0.48171617  1
  O2-  O413  1  0.58167665  0.42442087  0.81248243  1
  O2-  O414  1  0.54067794  0.66197993  0.13692449  1
  O2-  O415  1  0.58925258  0.65869864  0.48175906  1
  O2-  O416  1  0.58027343  0.67015433  0.81605267  1
  O2-  O417  1  0.58061708  0.89358999  0.14509649  1
  O2-  O418  1  0.58523410  0.91285948  0.47699085  1
  O2-  O419  1  0.58293953  0.93190339  0.78641130  1
  O2-  O420  1  0.83291396  0.17121272  0.14823828  1
  O2-  O421  1  0.82662136  0.17784055  0.45751929  1
  O2-  O422  1  0.84979005  0.18356171  0.81244435  1
  O2-  O423  1  0.83861726  0.42306908  0.14918529  1
  O2-  O424  1  0.82532450  0.41682258  0.47795612  1
  O2-  O425  1  0.81948674  0.39233682  0.80947151  1
  O2-  O426  1  0.83505793  0.67836287  0.15064991  1
  O2-  O427  1  0.83710134  0.66951539  0.47343991  1
  O2-  O428  1  0.82136089  0.67680581  0.80596379  1
  O2-  O429  1  0.81857542  0.91876922  0.14082209  1
  O2-  O430  1  0.83929764  0.92293640  0.47641816  1
  O2-  O431  1  0.81920777  0.90878614  0.81108349  1
  O2-  O432  1  0.13947651  0.05769072  0.20363934  1
  O2-  O433  1  0.14617927  0.06746922  0.51519582  1
  O2-  O434  1  0.16866203  0.08280341  0.86187209  1
  O2-  O435  1  0.13711236  0.31831049  0.19084064  1
  O2-  O436  1  0.16146449  0.33490566  0.52543900  1
  O2-  O437  1  0.26514382  0.45088967  0.80239210  1
  O2-  O438  1  0.17278952  0.57746409  0.17372081  1
  O2-  O439  1  0.16816595  0.59495063  0.53017549  1
  O2-  O440  1  0.17483473  0.62555993  0.86651458  1
  O2-  O441  1  0.16888278  0.82541879  0.18156849  1
  O2-  O442  1  0.16930054  0.84124363  0.51044645  1
  O2-  O443  1  0.13635456  0.83881038  0.86185839  1
  O2-  O444  1  0.38480454  0.06880380  0.17391032  1
  O2-  O445  1  0.39872701  0.07664912  0.52445532  1
  O2-  O446  1  0.45224757  0.06714536  0.81578262  1
  O2-  O447  1  0.42873348  0.35136458  0.19110953  1
  O2-  O448  1  0.43341544  0.33529832  0.52181321  1
  O2-  O449  1  0.42439086  0.33870540  0.84163482  1
  O2-  O450  1  0.45901074  0.61334856  0.17014174  1
  O2-  O451  1  0.41919133  0.59014091  0.51785414  1
  O2-  O452  1  0.40603121  0.59593039  0.83568848  1
  O2-  O453  1  0.41393277  0.82702060  0.18718405  1
  O2-  O454  1  0.41829882  0.83424357  0.52070995  1
  O2-  O455  1  0.34180927  0.74907950  0.86011283  1
  O2-  O456  1  0.69183975  0.03126924  0.19970207  1
  O2-  O457  1  0.67041409  0.06843832  0.53344724  1
  O2-  O458  1  0.68741327  0.06294857  0.86034765  1
  O2-  O459  1  0.68099244  0.37043218  0.19726969  1
  O2-  O460  1  0.65370073  0.31636573  0.52595659  1
  O2-  O461  1  0.66417262  0.34629301  0.86182084  1
  O2-  O462  1  0.65319364  0.60888383  0.17969392  1
  O2-  O463  1  0.67806055  0.58524589  0.52208202  1
  O2-  O464  1  0.65734919  0.58471340  0.85231145  1
  O2-  O465  1  0.67926752  0.83316174  0.18810264  1
  O2-  O466  1  0.68120086  0.83777004  0.50748153  1
  O2-  O467  1  0.65250818  0.84418303  0.84175830  1
  O2-  O468  1  0.90560019  0.07735813  0.18293071  1
  O2-  O469  1  0.91336071  0.06833863  0.53238567  1
  O2-  O470  1  0.91099739  0.06965990  0.84171816  1
  O2-  O471  1  0.89123834  0.32019317  0.20386865  1
  O2-  O472  1  0.90996851  0.32826855  0.51927003  1
  O2-  O473  1  0.93811249  0.34674388  0.85912079  1
  O2-  O474  1  0.92216004  0.59238252  0.17876954  1
  O2-  O475  1  0.94724280  0.61513202  0.45012833  1
  O2-  O476  1  0.92071392  0.62941990  0.87219391  1
  O2-  O477  1  0.93424290  0.82818828  0.21857146  1
  O2-  O478  1  0.92314165  0.83903244  0.51180861  1
  O2-  O479  1  0.90629101  0.83630548  0.85281147  1
  O2-  O480  1  0.15139673  0.06977672  0.33136573  1
  O2-  O481  1  0.16752451  0.08153842  0.64274352  1
  O2-  O482  1  0.16897167  0.08051939  0.98728638  1
  O2-  O483  1  0.15877631  0.33822171  0.31124893  1
  O2-  O484  1  0.16744933  0.32999651  0.65075961  1
  O2-  O485  1  0.14242531  0.35453097  0.93023900  1
  O2-  O486  1  0.15453503  0.61352402  0.32727261  1
  O2-  O487  1  0.17303606  0.59725350  0.65047688  1
  O2-  O488  1  0.17216155  0.59484468  0.98869200  1
  O2-  O489  1  0.04703428  0.74519484  0.30487602  1
  O2-  O490  1  0.17661140  0.84812513  0.63046153  1
  O2-  O491  1  0.15583475  0.82876851  0.98490648  1
  O2-  O492  1  0.40362394  0.07361007  0.30492220  1
  O2-  O493  1  0.39291206  0.07728221  0.63808038  1
  O2-  O494  1  0.41344325  0.08963771  1.05057729  1
  O2-  O495  1  0.39913424  0.32211817  0.31426245  1
  O2-  O496  1  0.42046353  0.33115289  0.64574034  1
  O2-  O497  1  0.41878980  0.33271230  0.97832623  1
  O2-  O498  1  0.45327713  0.58641953  0.29915149  1
  O2-  O499  1  0.41576726  0.57620851  0.64174674  1
  O2-  O500  1  0.41076755  0.59296511  0.94944151  1
  O2-  O501  1  0.42085619  0.82974873  0.30895213  1
  O2-  O502  1  0.43171382  0.83181183  0.65075000  1
  O2-  O503  1  0.41137880  0.82512658  0.99668121  1
  O2-  O504  1  0.65460895  0.07437904  0.31212761  1
  O2-  O505  1  0.66805601  0.10678256  0.66757978  1
  O2-  O506  1  0.66023120  0.08396901  0.99024392  1
  O2-  O507  1  0.66706467  0.33136046  0.31962705  1
  O2-  O508  1  0.65108076  0.32240006  0.64897381  1
  O2-  O509  1  0.66404823  0.33498853  0.98804271  1
  O2-  O510  1  0.66865588  0.55250438  0.32114567  1
  O2-  O511  1  0.68874723  0.58933201  0.63905557  1
  O2-  O512  1  0.59736755  0.55280004  0.96716149  1
  O2-  O513  1  0.67843077  0.83963310  0.31065761  1
  O2-  O514  1  0.67339558  0.84896421  0.66442306  1
  O2-  O515  1  0.66289228  0.84419143  0.96767845  1
  O2-  O516  1  0.91497885  0.09185198  0.30779385  1
  O2-  O517  1  0.93711205  0.07315911  0.65662272  1
  O2-  O518  1  0.92628585  0.09284074  0.99725447  1
  O2-  O519  1  0.83452806  0.29210716  0.25740333  1
  O2-  O520  1  0.90880883  0.31327930  0.64453452  1
  O2-  O521  1  0.92035231  0.33886270  0.98353095  1
  O2-  O522  1  0.90631124  0.60150785  0.30134591  1
  O2-  O523  1  0.96494149  0.64226836  0.65751293  1
  O2-  O524  1  0.91947071  0.58018062  0.99182126  1
  O2-  O525  1  0.94656016  0.85654101  0.33315391  1
  O2-  O526  1  0.91964976  0.83681210  0.63822716  1
  O2-  O527  1  0.91045792  0.83771920  0.97648879  1
  O2-  O528  1  0.08462367  0.16135801  0.04075132  1
  O2-  O529  1  0.07993285  0.17409577  0.35722223  1
  O2-  O530  1  0.10096785  0.16668185  0.69568696  1
  O2-  O531  1  0.08845896  0.42416736  0.01416843  1
  O2-  O532  1  0.08323301  0.42339680  0.36301854  1
  O2-  O533  1  0.07076051  0.41205265  0.68206061  1
  O2-  O534  1  0.08446059  0.66833547  0.02877828  1
  O2-  O535  1  0.17719820  0.75885239  0.36996081  1
  O2-  O536  1  0.12385894  0.70022202  0.67976504  1
  O2-  O537  1  0.07503249  0.91549833  0.02639117  1
  O2-  O538  1  0.08529480  0.92162774  0.39071838  1
  O2-  O539  1  0.08364034  0.91405496  0.68416769  1
  O2-  O540  1  0.32572254  0.17432971  0.03211252  1
  O2-  O541  1  0.32266454  0.15604680  0.34972183  1
  O2-  O542  1  0.32731541  0.16248086  0.68094428  1
  O2-  O543  1  0.35210470  0.44306392  0.00972555  1
  O2-  O544  1  0.32871553  0.42443710  0.34851633  1
  O2-  O545  1  0.33678659  0.41485685  0.70787679  1
  O2-  O546  1  0.32847671  0.67449640  0.02921656  1
  O2-  O547  1  0.31552581  0.65832540  0.35098184  1
  O2-  O548  1  0.33880746  0.66181560  0.69206911  1
  O2-  O549  1  0.32419902  0.91803125  0.00206164  1
  O2-  O550  1  0.33646853  0.91129188  0.35595969  1
  O2-  O551  1  0.33986935  0.92566218  0.66802359  1
  O2-  O552  1  0.58713392  0.17324844  0.03417863  1
  O2-  O553  1  0.57712323  0.16227399  0.34624658  1
  O2-  O554  1  0.55966868  0.16245881  0.69141153  1
  O2-  O555  1  0.57934517  0.41465989  0.03224323  1
  O2-  O556  1  0.55950000  0.38857040  0.36153199  1
  O2-  O557  1  0.59218827  0.43363229  0.68675000  1
  O2-  O558  1  0.56712514  0.67922624  0.01042036  1
  O2-  O559  1  0.59743690  0.67403146  0.35667056  1
  O2-  O560  1  0.58574839  0.68081797  0.68908059  1
  O2-  O561  1  0.57747302  0.91366074  0.02547402  1
  O2-  O562  1  0.58449753  0.91243746  0.35402647  1
  O2-  O563  1  0.59016329  0.93351992  0.71941713  1
  O2-  O564  1  0.83267189  0.17476283  0.02657338  1
  O2-  O565  1  0.82653905  0.17241606  0.33676749  1
  O2-  O566  1  0.85421553  0.15806440  0.68896093  1
  O2-  O567  1  0.83230580  0.41459221  0.02686447  1
  O2-  O568  1  0.83913717  0.42370389  0.32987104  1
  O2-  O569  1  0.76844564  0.29055301  0.70746372  1
  O2-  O570  1  0.84378351  0.68037657  0.02230291  1
  O2-  O571  1  0.83774073  0.68508418  0.34985634  1
  O2-  O572  1  0.83810993  0.68058200  0.68407421  1
  O2-  O573  1  0.82286859  0.91517985  0.02173133  1
  O2-  O574  1  0.84332543  0.93061382  0.35417330  1
  O2-  O575  1  0.83384969  0.90491146  0.68859998  1
