# generated using pymatgen
data_H2O
_symmetry_space_group_name_H-M   'P 1'
_cell_length_a   17.98771746
_cell_length_b   17.98473905
_cell_length_c   21.99692662
_cell_angle_alpha   89.96508482
_cell_angle_beta   90.02651317
_cell_angle_gamma   119.99191787
_symmetry_Int_Tables_number   1
_chemical_formula_structural   H2O
_chemical_formula_sum   'H384 O192'
_cell_volume   6163.22625648
_cell_formula_units_Z   192
loop_
 _symmetry_equiv_pos_site_id
 _symmetry_equiv_pos_as_xyz
  1  'x, y, z'
loop_
 _atom_type_symbol
 _atom_type_oxidation_number
  H+  1.0
  O2-  -2.0
loop_
 _atom_site_type_symbol
 _atom_site_label
 _atom_site_symmetry_multiplicity
 _atom_site_fract_x
 _atom_site_fract_y
 _atom_site_fract_z
 _atom_site_occupancy
  H+  H0  1  0.62270610  0.47954344  0.66814833  1
  H+  H1  1  0.60884420  0.13356264  0.01205912  1
  H+  H2  1  0.29818465  0.65838287  0.80909803  1
  H+  H3  1  0.61169845  0.47569849  0.82862105  1
  H+  H4  1  0.89250564  0.24747794  0.84324450  1
  H+  H5  1  0.86709719  0.46812670  0.16429241  1
  H+  H6  1  0.72419971  0.34580499  0.65070234  1
  H+  H7  1  0.61697828  -0.00349331  0.82947730  1
  H+  H8  1  0.89473607  0.04468920  0.17652573  1
  H+  H9  1  0.62911507  0.12624700  0.84784847  1
  H+  H10  1  0.11287321  0.61389467  0.82509833  1
  H+  H11  1  0.35411120  0.22707359  0.67268443  1
  H+  H12  1  0.46432391  0.52985408  0.87718377  1
  H+  H13  1  0.86079879  0.31308235  0.83577126  1
  H+  H14  1  0.62536981  0.75620992  0.34166448  1
  H+  H15  1  0.13749246  0.77493625  0.34875840  1
  H+  H16  1  0.86037361  0.63041842  1.01104666  1
  H+  H17  1  0.36095733  0.72522714  -0.00064810  1
  H+  H18  1  0.88626443  0.86016464  0.32630023  1
  H+  H19  1  0.49929438  0.64838005  0.15362521  1
  H+  H20  1  0.36341997  0.13111780  0.16454626  1
  H+  H21  1  0.09534012  0.91950439  0.11589937  1
  H+  H22  1  0.38728148  0.02548835  0.32637666  1
  H+  H23  1  0.77381822  0.38347042  1.00919433  1
  H+  H24  1  0.63324198  0.10452227  0.17777742  1
  H+  H25  1  0.07327469  0.40744193  0.39579446  1
  H+  H26  1  0.78701786  0.13240506  0.37467455  1
  H+  H27  1  0.38008876  0.62028513  0.63901997  1
  H+  H28  1  0.47702300  0.36632541  -0.00874200  1
  H+  H29  1  0.72770981  0.35116819  0.16980040  1
  H+  H30  1  0.60619379  0.70075745  0.78929912  1
  H+  H31  1  0.35909404  0.47216348  0.00695204  1
  H+  H32  1  0.48350255  0.87286811  0.66025529  1
  H+  H33  1  0.74076754  0.43754379  0.87321899  1
  H+  H34  1  0.10400706  0.46735973  0.48291712  1
  H+  H35  1  0.59114723  0.73128254  0.15624564  1
  H+  H36  1  0.97308900  0.89064035  0.15738622  1
  H+  H37  1  0.20161180  0.92954019  0.14270799  1
  H+  H38  1  0.35638370  0.73507221  0.65470749  1
  H+  H39  1  0.36544628  0.87643782  0.48853594  1
  H+  H40  1  0.36206696  0.38464031  0.00380727  1
  H+  H41  1  0.83812755  0.91320941  0.40222509  1
  H+  H42  1  0.11195240  0.13445545  0.33895103  1
  H+  H43  1  0.62165249  0.91085880  0.83562692  1
  H+  H44  1  0.88342608  0.74110403  0.66606986  1
  H+  H45  1  0.33775967  0.42768255  0.74972866  1
  H+  H46  1  0.87672615  0.65109683  0.66196110  1
  H+  H47  1  0.48400948  0.34801952  0.16498767  1
  H+  H48  1  0.35805455  0.13843934  0.49067106  1
  H+  H49  1  0.11622047  0.10578152  -0.00168277  1
  H+  H50  1  0.38640698  0.86152126  -0.00365536  1
  H+  H51  1  0.39909327  0.59548766  0.57448770  1
  H+  H52  1  0.22631905  0.60858649  0.65875621  1
  H+  H53  1  0.78614284  0.63800545  0.33453993  1
  H+  H54  1  0.13732322  0.04015962  0.16461069  1
  H+  H55  1  0.09955916  0.37525880  0.48930330  1
  H+  H56  1  0.47302077  0.10715574  0.17393426  1
  H+  H57  1  0.62651886  0.76571589  0.65176200  1
  H+  H58  1  0.88804522  0.77444212  0.83543831  1
  H+  H59  1  0.77371527  0.89308643  0.83869336  1
  H+  H60  1  0.88346095  0.26412359  0.48516464  1
  H+  H61  1  0.87203711  0.49216661  0.82884485  1
  H+  H62  1  0.22084464  0.59092390  0.49486367  1
  H+  H63  1  0.90818713  0.31749944  0.93966764  1
  H+  H64  1  0.30810034  0.41892148  0.43657164  1
  H+  H65  1  0.86897494  0.47750425  0.33938346  1
  H+  H66  1  0.89552462  0.01226189  0.85434910  1
  H+  H67  1  0.34403012  0.54211608  0.48851924  1
  H+  H68  1  0.83251192  0.71313414  0.49167017  1
  H+  H69  1  0.41964927  0.83765755  0.93574076  1
  H+  H70  1  0.52117544  0.63740526  -0.00084222  1
  H+  H71  1  0.64292152  0.89339765  0.19183793  1
  H+  H72  1  0.63588940  0.61304004  -0.00617489  1
  H+  H73  1  0.35192247  0.40599117  0.49441454  1
  H+  H74  1  0.46401052  0.60131168  0.33850108  1
  H+  H75  1  0.52071979  0.87512985  0.34608805  1
  H+  H76  1  0.38072725  0.65060499  0.81195550  1
  H+  H77  1  0.91422152  0.33587023  0.26526510  1
  H+  H78  1  0.63859368  0.85919555  0.50358092  1
  H+  H79  1  0.47597292  0.11522408  0.32606336  1
  H+  H80  1  0.37471451  1.01936151  0.84267210  1
  H+  H81  1  0.60317100  0.44058549  0.38556651  1
  H+  H82  1  0.86022821  0.43217801  0.69442457  1
  H+  H83  1  0.88774809  1.02688808  0.64840196  1
  H+  H84  1  0.36208562  -0.02780917  1.00923451  1
  H+  H85  1  0.86061391  0.86526786  0.99793842  1
  H+  H86  1  -0.00481528  0.87852478  0.65053231  1
  H+  H87  1  0.12418489  0.26806174  0.50796998  1
  H+  H88  1  0.41427041  0.08046535  0.23428379  1
  H+  H89  1  0.77977553  0.92360411  0.17541310  1
  H+  H90  1  0.70378172  0.49185492  0.70553036  1
  H+  H91  1  0.40928900  0.32931305  0.59549114  1
  H+  H92  1  0.12522560  0.72744247  0.46177738  1
  H+  H93  1  0.58462769  0.22666988  0.81808251  1
  H+  H94  1  0.41538731  0.34440299  0.40060274  1
  H+  H95  1  0.77261815  0.87326731  0.34718834  1
  H+  H96  1  0.13441269  0.11591715  0.65545669  1
  H+  H97  1  0.90212305  0.10249697  0.86110301  1
  H+  H98  1  0.99805386  0.65581958  0.85380512  1
  H+  H99  1  0.22717917  0.84205884  0.48478518  1
  H+  H100  1  -0.01568415  0.60048458  0.17995184  1
  H+  H101  1  0.62296422  0.10292447  0.65110506  1
  H+  H102  1  -0.01751529  0.37379862  0.32755808  1
  H+  H103  1  0.15731099  0.32121123  0.91771742  1
  H+  H104  1  0.86617606  0.11973514  0.36534512  1
  H+  H105  1  0.34301957  0.38282561  0.35162416  1
  H+  H106  1  0.64966772  0.36757753  0.65682359  1
  H+  H107  1  0.60265107  0.14073226  0.48938170  1
  H+  H108  1  0.90190451  0.61427627  0.33226184  1
  H+  H109  1  0.64062711  0.36560279  0.31929200  1
  H+  H110  1  0.85180014  0.69247402  0.17859577  1
  H+  H111  1  0.11413086  0.97395395  0.82458165  1
  H+  H112  1  0.61051841  0.97340450  0.67022906  1
  H+  H113  1  0.10902208  0.61895749  0.16691610  1
  H+  H114  1  0.07551040  0.16123084  0.73267416  1
  H+  H115  1  0.97147216  0.10033609  1.01417450  1
  H+  H116  1  0.85873702  0.21567799  0.01264462  1
  H+  H117  1  0.33520395  0.91269484  0.06850739  1
  H+  H118  1  0.13241856  0.27320860  0.66268097  1
  H+  H119  1  0.61230365  0.38553015  1.00741654  1
  H+  H120  1  0.46129245  0.11033168  0.65234368  1
  H+  H121  1  0.02524161  0.88618861  0.82329859  1
  H+  H122  1  0.60700085  0.87060068  0.35014542  1
  H+  H123  1  0.11884045  0.70970363  0.17079012  1
  H+  H124  1  0.52775697  0.39180563  0.33993511  1
  H+  H125  1  0.75372394  0.34294999  0.81878873  1
  H+  H126  1  0.03056711  0.14950612  0.16833349  1
  H+  H127  1  0.38180901  0.27665096  0.34782606  1
  H+  H128  1  0.10564758  0.22042829  0.33673351  1
  H+  H129  1  0.59662464  0.42270694  0.76787681  1
  H+  H130  1  0.47992011  0.85782466  0.17822579  1
  H+  H131  1  0.72751549  0.36183631  0.32168553  1
  H+  H132  1  0.85541728  0.34989920  0.65843604  1
  H+  H133  1  0.78014131  0.63863252  0.81833503  1
  H+  H134  1  0.40307220  0.79190909  0.83606046  1
  H+  H135  1  0.13397838  0.36115915  -0.00430191  1
  H+  H136  1  0.88543020  0.37290961  0.32823632  1
  H+  H137  1  0.60034691  0.57862496  0.14058805  1
  H+  H138  1  0.52083925  0.88085551  1.01036087  1
  H+  H139  1  0.00304593  0.89039989  0.48802497  1
  H+  H140  1  0.12659676  0.25566947  0.85028962  1
  H+  H141  1  0.83007391  0.41145203  0.39527694  1
  H+  H142  1  0.35564055  0.73997509  0.15680175  1
  H+  H143  1  0.11969898  0.13551646  0.83112859  1
  H+  H144  1  0.13539546  0.50103178  0.67511201  1
  H+  H145  1  0.12327547  0.76237698  0.63438742  1
  H+  H146  1  0.86553954  0.96567876  0.01229671  1
  H+  H147  1  0.10701652  0.22348532  1.01352270  1
  H+  H148  1  0.37989734  0.36216739  0.65126933  1
  H+  H149  1  0.76937672  0.38638566  0.48572059  1
  H+  H150  1  0.21613513  0.56300308  0.86538999  1
  H+  H151  1  0.39190129  0.50442977  0.82751645  1
  H+  H152  1  0.38098875  0.61116212  0.99024704  1
  H+  H153  1  0.39547138  0.28705235  0.49357671  1
  H+  H154  1  0.85503619  0.12526137  0.65053335  1
  H+  H155  1  0.22230242  0.61173030  0.18459739  1
  H+  H156  1  0.88127063  0.81092536  0.14801842  1
  H+  H157  1  0.81474633  0.08971005  0.78689019  1
  H+  H158  1  0.12108114  0.35239351  0.31847137  1
  H+  H159  1  0.78032874  0.59425347  0.17200847  1
  H+  H160  1  0.60838794  0.35826676  0.15569395  1
  H+  H161  1  1.02897105  0.12813615  0.83899678  1
  H+  H162  1  0.88321068  0.35415404  -0.00243330  1
  H+  H163  1  0.16945428  0.58488406  0.24829056  1
  H+  H164  1  0.16474855  0.89092155  0.15777271  1
  H+  H165  1  0.62113833  0.02092473  0.49505598  1
  H+  H166  1  0.10982908  0.46609413  0.00821526  1
  H+  H167  1  0.36359512  0.13888058  0.33603094  1
  H+  H168  1  0.28461312  0.37736193  0.16109385  1
  H+  H169  1  0.36459028  0.88549746  0.33877645  1
  H+  H170  1  0.35854264  0.48257236  0.65147104  1
  H+  H171  1  0.60996200  0.21374537  0.16259402  1
  H+  H172  1  0.63070401  0.42055726  0.49066919  1
  H+  H173  1  0.14508066  0.12960328  0.17464869  1
  H+  H174  1  1.01256290  0.36739453  0.83154609  1
  H+  H175  1  0.72015932  0.13716560  0.85463213  1
  H+  H176  1  0.52296759  0.61305572  0.80896452  1
  H+  H177  1  0.51612254  0.14474248  0.49049668  1
  H+  H178  1  0.38890700  0.50680909  0.17540503  1
  H+  H179  1  0.48225901  0.38087026  0.49488989  1
  H+  H180  1  0.72366275  0.10751021  0.17740710  1
  H+  H181  1  1.01414307  0.13607276  0.49294506  1
  H+  H182  1  0.85603512  0.11986001  0.46656430  1
  H+  H183  1  0.89547645  0.59913823  0.18135469  1
  H+  H184  1  0.72231218  0.10671200  1.00440744  1
  H+  H185  1  0.87350897  0.25547861  0.63292460  1
  H+  H186  1  0.61329899  0.47557006  0.00833122  1
  H+  H187  1  0.39585685  0.86605870  0.17861657  1
  H+  H188  1  0.21060115  0.35669667  0.32878138  1
  H+  H189  1  0.14290969  0.61463036  0.34414387  1
  H+  H190  1  0.63473342  0.85864259  0.66231489  1
  H+  H191  1  0.41368144  0.82270689  0.27355914  1
  H+  H192  1  0.32426739  0.16734265  0.76996915  1
  H+  H193  1  0.36109137  0.89220748  0.83312673  1
  H+  H194  1  0.35185027  0.13698532  0.67406118  1
  H+  H195  1  0.86247530  0.91582235  0.16471629  1
  H+  H196  1  0.65790716  0.47554402  0.18764678  1
  H+  H197  1  0.60330842  0.22166416  0.65722310  1
  H+  H198  1  0.85362400  0.37573937  0.48219773  1
  H+  H199  1  0.34231567  0.88613318  0.68146455  1
  H+  H200  1  0.64198140  0.60673609  0.83379221  1
  H+  H201  1  0.87560089  0.76166181  -0.00626285  1
  H+  H202  1  1.02847847  0.37688398  0.18564274  1
  H+  H203  1  0.70283440  0.57315703  0.48808559  1
  H+  H204  1  0.63159945  0.79955686  0.85700180  1
  H+  H205  1  0.63235397  0.26880342  -0.00272699  1
  H+  H206  1  0.01833245  0.13552832  0.67106322  1
  H+  H207  1  0.91236426  0.66034845  0.84893971  1
  H+  H208  1  0.63428980  0.77282139  0.99672781  1
  H+  H209  1  0.86657374  0.14305231  0.17003311  1
  H+  H210  1  0.35856021  0.63056608  0.34515450  1
  H+  H211  1  0.86287068  0.47254018  1.00585233  1
  H+  H212  1  0.61855175  0.71765526  0.50073736  1
  H+  H213  1  0.46411780  0.10435138  0.83801969  1
  H+  H214  1  0.88534116  0.35846296  0.17749955  1
  H+  H215  1  0.87261957  0.72736579  0.33379258  1
  H+  H216  1  1.02324342  0.88878845  0.33513279  1
  H+  H217  1  0.13493788  0.86153206  0.33473486  1
  H+  H218  1  0.34053126  0.16762604  0.06412593  1
  H+  H219  1  0.38004349  0.02028268  0.50229385  1
  H+  H220  1  0.98762139  0.60831753  0.48104259  1
  H+  H221  1  0.26777879  0.88553680  0.83319324  1
  H+  H222  1  0.10107935  0.45580747  0.84072770  1
  H+  H223  1  0.41011763  0.57702321  0.93250753  1
  H+  H224  1  0.59308266  0.57654331  0.63325076  1
  H+  H225  1  0.38806460  0.11138115  0.99769667  1
  H+  H226  1  0.34295652  0.47124702  0.34410937  1
  H+  H227  1  0.09268717  0.92084291  0.72257517  1
  H+  H228  1  0.38246169  0.74644279  0.49968996  1
  H+  H229  1  0.52356827  0.87199184  0.49198816  1
  H+  H230  1  0.11352678  -0.02165019  0.33616020  1
  H+  H231  1  0.97278148  0.60847359  1.00300389  1
  H+  H232  1  0.12121285  0.34669725  0.85068501  1
  H+  H233  1  0.38083671  0.76576933  0.33475033  1
  H+  H234  1  0.88486956  0.86989906  0.50090289  1
  H+  H235  1  0.48604408  0.88365965  0.84132633  1
  H+  H236  1  0.61443893  0.54932149  0.29907492  1
  H+  H237  1  0.66688085  0.64328627  0.27017510  1
  H+  H238  1  0.72422336  0.61135451  -0.00405328  1
  H+  H239  1  0.27157738  0.39299217  0.66132749  1
  H+  H240  1  0.22229007  0.85082951  -0.00399819  1
  H+  H241  1  0.71166386  0.10123211  0.64562468  1
  H+  H242  1  0.13155491  0.86080779  0.83655889  1
  H+  H243  1  0.12947078  0.59818142  0.65794471  1
  H+  H244  1  0.91864756  0.08462809  0.58454342  1
  H+  H245  1  0.35659512  0.13881437  0.82895040  1
  H+  H246  1  0.36988086  0.22608981  1.00497604  1
  H+  H247  1  0.88202652  0.53599222  0.62790872  1
  H+  H248  1  0.65820329  1.13263007  0.33481147  1
  H+  H249  1  0.22452504  0.11111895  0.84549203  1
  H+  H250  1  0.22642888  0.11201789  0.32513045  1
  H+  H251  1  0.12880156  0.60767589  1.00074892  1
  H+  H252  1  0.86337207  0.98140506  0.49504837  1
  H+  H253  1  0.57647795  0.16992694  0.39827302  1
  H+  H254  1  0.12266038  0.38822679  0.67781410  1
  H+  H255  1  0.23248629  0.76244351  0.23291763  1
  H+  H256  1  0.76870195  0.87601659  1.00723307  1
  H+  H257  1  0.77458527  0.88919002  0.49398866  1
  H+  H258  1  0.75574077  0.85518613  0.68138471  1
  H+  H259  1  0.36263312  0.57760108  0.18155155  1
  H+  H260  1  -0.02579361  0.10382506  0.33066265  1
  H+  H261  1  0.12798690  0.11546307  0.50105589  1
  H+  H262  1  0.88089767  0.26688321  0.18228101  1
  H+  H263  1  0.12394378  0.23622939  0.16369160  1
  H+  H264  1  0.51941095  0.13317720  0.00830908  1
  H+  H265  1  0.12557807  0.85147657  0.63245693  1
  H+  H266  1  0.13262322  0.77304324  0.83482093  1
  H+  H267  1  0.37178881  1.02308507  0.65942071  1
  H+  H268  1  0.60870890  0.97700116  0.16384891  1
  H+  H269  1  0.27543890  0.13761922  0.16302439  1
  H+  H270  1  0.90562526  0.48050885  0.83719698  1
  H+  H271  1  0.35514907  0.38590261  0.80914282  1
  H+  H272  1  0.50855886  0.63262395  0.64320387  1
  H+  H273  1  0.12289715  0.98457402  0.66516143  1
  H+  H274  1  0.63992777  0.61736175  0.15239375  1
  H+  H275  1  0.88567400  0.01416425  0.32776410  1
  H+  H276  1  0.11116881  0.71880567  0.00983354  1
  H+  H277  1  0.59786162  0.63013126  0.35824495  1
  H+  H278  1  0.27666193  0.88836303  0.34353356  1
  H+  H279  1  0.62969096  0.28506557  0.49731235  1
  H+  H280  1  0.38050027  0.27591814  0.83800128  1
  H+  H281  1  1.02237578  0.62640536  0.65498092  1
  H+  H282  1  0.22536705  0.35960226  0.99464103  1
  H+  H283  1  0.08242687  0.65951535  0.07058566  1
  H+  H284  1  0.23037790  0.61148117  0.34016636  1
  H+  H285  1  0.10874537  0.47507541  0.34032242  1
  H+  H286  1  0.15376550  0.32919838  0.60155339  1
  H+  H287  1  0.88748430  0.86268316  0.84254735  1
  H+  H288  1  0.07739219  0.65310332  0.71702681  1
  H+  H289  1  0.57159080  0.67422470  0.06023021  1
  H+  H290  1  0.58376860  0.90795455  0.43391619  1
  H+  H291  1  0.21040266  0.36084368  0.51034004  1
  H+  H292  1  0.58584073  0.92160903  0.73331680  1
  H+  H293  1  0.01937087  0.57218393  0.80171181  1
  H+  H294  1  0.10217605  0.98880434  0.48855943  1
  H+  H295  1  0.16088393  0.82112700  0.93845277  1
  H+  H296  1  0.47040888  0.36297730  0.83471428  1
  H+  H297  1  0.38442377  0.25306039  0.16695671  1
  H+  H298  1  0.28739751  0.87790710  0.17111427  1
  H+  H299  1  0.83097281  0.16513672  0.10972852  1
  H+  H300  1  0.33308183  0.65625555  0.40877418  1
  H+  H301  1  0.85666804  0.12520614  0.01732589  1
  H+  H302  1  0.90226185  0.32287562  0.57862117  1
  H+  H303  1  0.08395172  0.16959290  0.07606944  1
  H+  H304  1  0.61678385  0.52971644  0.58088188  1
  H+  H305  1  0.92355407  0.60217559  0.94246292  1
  H+  H306  1  0.67059517  0.58459983  0.89810436  1
  H+  H307  1  0.66788476  0.32380750  0.22907628  1
  H+  H308  1  0.57640242  0.15582781  0.10335624  1
  H+  H309  1  0.91104751  0.15204600  0.77037635  1
  H+  H310  1  0.66721499  0.22933796  0.79422538  1
  H+  H311  1  0.22544226  0.12054421  0.65582278  1
  H+  H312  1  0.39172154  0.35329478  0.16454020  1
  H+  H313  1  0.67197255  0.83549163  0.56375724  1
  H+  H314  1  0.56592495  0.65692857  0.41743442  1
  H+  H315  1  0.82808670  0.16618789  0.70537958  1
  H+  H316  1  0.90212580  0.87118498  0.65308214  1
  H+  H317  1  0.79068787  0.32918017  0.75506256  1
  H+  H318  1  0.91837638  0.06789840  0.95325721  1
  H+  H319  1  0.66202432  0.82502349  0.28517567  1
  H+  H320  1  0.79604896  0.80496642  0.71212112  1
  H+  H321  1  0.34135495  0.40841056  0.09970020  1
  H+  H322  1  0.60938574  0.97082389  0.01285788  1
  H+  H323  1  0.82532486  0.90683243  0.77640803  1
  H+  H324  1  0.15598862  0.07308787  0.90124289  1
  H+  H325  1  0.67115103  0.85297731  0.91617895  1
  H+  H326  1  0.69033494  0.10037096  0.28045723  1
  H+  H327  1  0.60841708  0.22513493  0.33721528  1
  H+  H328  1  0.34245741  0.91504963  0.43094687  1
  H+  H329  1  0.41213030  0.57258229  0.27482105  1
  H+  H330  1  0.97016467  0.35420306  0.48861732  1
  H+  H331  1  0.16715911  0.08393813  0.26569095  1
  H+  H332  1  0.92307484  0.84136339  0.55730032  1
  H+  H333  1  0.91677030  0.83849179  0.26353830  1
  H+  H334  1  0.15555824  0.56758216  0.91486999  1
  H+  H335  1  0.93548029  0.58201776  0.27671025  1
  H+  H336  1  0.02316770  0.37539716  0.00715155  1
  H+  H337  1  0.13991753  0.60059590  0.47657755  1
  H+  H338  1  0.90426240  0.81949010  0.93135352  1
  H+  H339  1  0.18393729  0.80923425  0.25415116  1
  H+  H340  1  0.41468000  0.80941952  0.55660735  1
  H+  H341  1  0.57445354  0.16562744  0.71731595  1
  H+  H342  1  0.66668738  0.33438285  0.93989678  1
  H+  H343  1  0.16040429  0.08494362  0.55914661  1
  H+  H344  1  0.34589332  0.68297578  0.71500133  1
  H+  H345  1  0.58127186  0.91220865  0.10607825  1
  H+  H346  1  0.32998933  0.66834914  0.05901131  1
  H+  H347  1  0.92366736  0.09632547  0.23915934  1
  H+  H348  1  0.09499437  0.41758368  0.74087986  1
  H+  H349  1  0.14985723  0.80680669  0.53269284  1
  H+  H350  1  0.66433749  0.34176257  0.55675910  1
  H+  H351  1  0.41425208  0.07882236  0.93831342  1
  H+  H352  1  1.03122398  0.63536849  0.36264984  1
  H+  H353  1  0.93265642  0.59588347  0.57304359  1
  H+  H354  1  0.82915204  0.65794202  0.07005895  1
  H+  H355  1  0.04316980  0.93767584  -0.02323993  1
  H+  H356  1  0.82247330  0.66280122  0.43096020  1
  H+  H357  1  0.07524292  0.16573234  0.43307137  1
  H+  H358  1  0.60741989  0.62286306  0.49548030  1
  H+  H359  1  0.33021474  0.16357729  0.39633915  1
  H+  H360  1  0.22017369  0.60963292  0.99678415  1
  H+  H361  1  0.40142980  0.07868862  0.56159894  1
  H+  H362  1  0.83823852  0.41316654  0.10202582  1
  H+  H363  1  0.18145194  0.32929870  0.23294015  1
  H+  H364  1  0.69520829  0.53280366  0.24745293  1
  H+  H365  1  0.11524084  0.46742126  0.18917681  1
  H+  H366  1  0.43213687  0.90018064  0.61622504  1
  H+  H367  1  0.70589576  0.94645520  0.24392181  1
  H+  H368  1  0.27266333  0.71324538  0.11890064  1
  H+  H369  1  0.58308810  0.40259380  0.10027639  1
  H+  H370  1  0.56358054  0.64102357  0.70276636  1
  H+  H371  1  0.32635791  0.92604657  0.73976586  1
  H+  H372  1  0.07289871  0.92502732  0.42513039  1
  H+  H373  1  0.36664896  0.97436805  0.16514858  1
  H+  H374  1  0.41688520  0.33762780  0.93147266  1
  H+  H375  1  0.66108202  0.08223645  0.94604204  1
  H+  H376  1  0.89731170  0.52284358  0.49055475  1
  H+  H377  1  0.84325342  0.67429412  0.75903607  1
  H+  H378  1  0.64585767  0.07582352  0.55437169  1
  H+  H379  1  0.65001823  0.38962642  0.84178771  1
  H+  H380  1  0.27286218  0.14513245  0.48883418  1
  H+  H381  1  0.05798162  0.96569374  0.07545359  1
  H+  H382  1  0.63641109  0.86388259  1.00489217  1
  H+  H383  1  0.15247596  0.36544496  0.17968651  1
  O2-  O384  1  0.08982868  0.17431372  0.15031156  1
  O2-  O385  1  0.07617610  0.16637468  0.47856099  1
  O2-  O386  1  0.08612899  0.16499392  0.81962424  1
  O2-  O387  1  0.09159319  0.40524859  0.18266571  1
  O2-  O388  1  0.07059808  0.40427668  0.46945792  1
  O2-  O389  1  0.07525938  0.39786247  0.82143295  1
  O2-  O390  1  0.08370776  0.65352354  0.15013504  1
  O2-  O391  1  0.09006905  0.66064289  0.44315122  1
  O2-  O392  1  0.07249994  0.62772158  0.80391426  1
  O2-  O393  1  0.06394956  0.95076891  0.11871598  1
  O2-  O394  1  0.06782744  0.92713533  0.47148813  1
  O2-  O395  1  0.08532697  0.91440543  0.80778582  1
  O2-  O396  1  0.33726177  0.16618286  0.14929638  1
  O2-  O397  1  0.33331033  0.17379576  0.47448093  1
  O2-  O398  1  0.32531269  0.16864677  0.81567303  1
  O2-  O399  1  0.34591617  0.40573969  0.14514931  1
  O2-  O400  1  0.31223958  0.42618229  0.48189958  1
  O2-  O401  1  0.33475422  0.42520427  0.79532037  1
  O2-  O402  1  0.30746827  0.68934920  0.13401144  1
  O2-  O403  1  0.32839176  0.64395581  0.48198745  1
  O2-  O404  1  0.35834055  0.68672484  0.79669465  1
  O2-  O405  1  0.34272841  0.91383512  0.14986918  1
  O2-  O406  1  0.33745102  0.90984792  0.47634597  1
  O2-  O407  1  0.32885215  0.92090548  0.81933550  1
  O2-  O408  1  0.57574873  0.15259434  0.14875744  1
  O2-  O409  1  0.57650301  0.17684865  0.47598183  1
  O2-  O410  1  0.60351367  0.18887753  0.80066206  1
  O2-  O411  1  0.57799889  0.39138554  0.14531580  1
  O2-  O412  1  0.60360242  0.45254838  0.47152744  1
  O2-  O413  1  0.58347786  0.41536009  0.81261405  1
  O2-  O414  1  0.54366838  0.69613775  0.12884225  1
  O2-  O415  1  0.58074614  0.65783514  0.48629180  1
  O2-  O416  1  0.57919064  0.63861617  0.78606379  1
  O2-  O417  1  0.57911356  0.91423182  0.15136495  1
  O2-  O418  1  0.58489188  0.90754077  0.48025807  1
  O2-  O419  1  0.59010920  0.93613362  0.81501786  1
  O2-  O420  1  0.83024097  0.16767732  0.15495788  1
  O2-  O421  1  0.86676182  0.12424582  0.51185934  1
  O2-  O422  1  0.86278555  0.14785812  0.79377074  1
  O2-  O423  1  0.83500982  0.40855940  0.14735389  1
  O2-  O424  1  0.82863794  0.41178002  0.46868811  1
  O2-  O425  1  0.77052130  0.30462009  0.79723919  1
  O2-  O426  1  0.83380530  0.64322452  0.15183582  1
  O2-  O427  1  0.79756701  0.65722284  0.47184412  1
  O2-  O428  1  0.84038751  0.67520698  0.80485320  1
  O2-  O429  1  0.83443942  0.94851069  0.15228408  1
  O2-  O430  1  0.83578422  0.92021343  0.47922080  1
  O2-  O431  1  0.83250842  0.91812569  0.82120764  1
  O2-  O432  1  0.17347531  0.09515958  0.18632374  1
  O2-  O433  1  0.15779814  0.08276657  0.51353513  1
  O2-  O434  1  0.16179719  0.07804155  0.85628215  1
  O2-  O435  1  0.18693000  0.33537124  0.18757886  1
  O2-  O436  1  0.14984757  0.32740732  0.52544018  1
  O2-  O437  1  0.15165128  0.31670449  0.86807685  1
  O2-  O438  1  0.16431048  0.57924611  0.20265866  1
  O2-  O439  1  0.15713129  0.56469672  0.49975871  1
  O2-  O440  1  0.16092634  0.56063313  0.86844145  1
  O2-  O441  1  0.20325245  0.79148248  0.21656573  1
  O2-  O442  1  0.16328628  0.80688773  0.48841032  1
  O2-  O443  1  0.16175185  0.83025822  0.85286687  1
  O2-  O444  1  0.41168174  0.07816225  0.18838555  1
  O2-  O445  1  0.40464788  0.08085065  0.51612038  1
  O2-  O446  1  0.40750657  0.08165696  0.85626553  1
  O2-  O447  1  0.42063835  0.31971076  0.17937266  1
  O2-  O448  1  0.41898348  0.35000436  0.49878915  1
  O2-  O449  1  0.41098449  0.33772286  0.85067679  1
  O2-  O450  1  0.40851143  0.56595541  0.19213569  1
  O2-  O451  1  0.37944886  0.60338325  0.50019682  1
  O2-  O452  1  0.43788427  0.55717295  0.85408830  1
  O2-  O453  1  0.41850442  0.82795725  0.19273509  1
  O2-  O454  1  0.41227430  0.80968403  0.51207160  1
  O2-  O455  1  0.42527939  0.84836731  0.85580396  1
  O2-  O456  1  0.66307439  0.07357388  0.19224672  1
  O2-  O457  1  0.64240446  0.08033297  0.50988488  1
  O2-  O458  1  0.66010507  0.09756371  0.86440146  1
  O2-  O459  1  0.66644985  0.31883835  0.18348384  1
  O2-  O460  1  0.66323617  0.34626432  0.51160959  1
  O2-  O461  1  0.69608329  0.37995790  0.86145887  1
  O2-  O462  1  0.71147606  0.51643652  0.20948253  1
  O2-  O463  1  0.64134380  0.53585328  0.50329599  1
  O2-  O464  1  0.67252504  0.57959226  0.85278595  1
  O2-  O465  1  0.68751636  0.89408497  0.22030947  1
  O2-  O466  1  0.67230406  0.83151991  0.51882330  1
  O2-  O467  1  0.67136881  0.85823408  0.86971859  1
  O2-  O468  1  0.92872046  0.10503550  0.19385891  1
  O2-  O469  1  0.91675756  0.08033836  0.52250016  1
  O2-  O470  1  0.92960263  0.06999224  0.87461147  1
  O2-  O471  1  0.91253472  0.32790955  0.19785427  1
  O2-  O472  1  0.90717651  0.32257856  0.50074042  1
  O2-  O473  1  0.90676793  0.30560336  0.85545114  1
  O2-  O474  1  0.92513966  0.56941479  0.19807243  1
  O2-  O475  1  0.93261553  0.58357045  0.50341052  1
  O2-  O476  1  0.95427246  0.65934691  0.87795703  1
  O2-  O477  1  0.91645376  0.85359597  0.17837397  1
  O2-  O478  1  0.91819983  0.83976905  0.51178514  1
  O2-  O479  1  0.91852599  0.83253542  0.85535180  1
  O2-  O480  1  0.16510724  0.08052251  0.31108047  1
  O2-  O481  1  0.16593682  0.08854740  0.63792233  1
  O2-  O482  1  0.12737265  0.05995311  0.98117938  1
  O2-  O483  1  0.15346695  0.32267029  0.30806758  1
  O2-  O484  1  0.16088750  0.33341916  0.64716702  1
  O2-  O485  1  0.16421542  0.32836297  0.97984335  1
  O2-  O486  1  0.16930821  0.58366124  0.32419484  1
  O2-  O487  1  0.16355096  0.56739739  0.65171099  1
  O2-  O488  1  0.15855496  0.57649356  0.98416117  1
  O2-  O489  1  0.16598681  0.82984349  0.32546567  1
  O2-  O490  1  0.13600998  0.81146560  0.60822902  1
  O2-  O491  1  0.16147261  0.81619573  0.98311295  1
  O2-  O492  1  0.41492521  0.08549925  0.31024287  1
  O2-  O493  1  0.39968186  0.08189916  0.64055384  1
  O2-  O494  1  0.41655559  0.07770971  0.98336382  1
  O2-  O495  1  0.41144637  0.34023422  0.35597427  1
  O2-  O496  1  0.40302274  0.32422795  0.63974112  1
  O2-  O497  1  0.41624762  0.33706754  0.97690552  1
  O2-  O498  1  0.40528876  0.57211564  0.31954842  1
  O2-  O499  1  0.40637446  0.58936521  0.61936024  1
  O2-  O500  1  0.41146901  0.57967547  0.97739023  1
  O2-  O501  1  0.41051685  0.82591440  0.31854122  1
  O2-  O502  1  0.42544659  0.85156931  0.64033169  1
  O2-  O503  1  0.41685081  0.83096678  0.98082218  1
  O2-  O504  1  0.70715931  0.12669121  0.32091807  1
  O2-  O505  1  0.64863697  0.06763167  0.63783703  1
  O2-  O506  1  0.66059470  0.07686759  0.99080645  1
  O2-  O507  1  0.66750485  0.33150568  0.30588925  1
  O2-  O508  1  0.66506118  0.32766652  0.63605092  1
  O2-  O509  1  0.66448561  0.33105643  0.98477850  1
  O2-  O510  1  0.66751865  0.60540110  0.30174284  1
  O2-  O511  1  0.59655413  0.52459818  0.62335729  1
  O2-  O512  1  0.66496918  0.58193355  0.97821767  1
  O2-  O513  1  0.66513386  0.81717505  0.32945493  1
  O2-  O514  1  0.66561123  0.82929570  0.64681783  1
  O2-  O515  1  0.66874145  0.83631593  0.98691981  1
  O2-  O516  1  0.91395749  0.07544841  0.31488491  1
  O2-  O517  1  0.91749173  0.08691184  0.63568719  1
  O2-  O518  1  0.91108590  0.06522684  0.99826391  1
  O2-  O519  1  0.91877020  0.34324171  0.31256669  1
  O2-  O520  1  0.90031428  0.31789570  0.62393755  1
  O2-  O521  1  0.91056972  0.31989925  0.98458131  1
  O2-  O522  1  0.93390845  0.58365807  0.32226830  1
  O2-  O523  1  0.92656971  0.59495446  0.61995084  1
  O2-  O524  1  0.91330471  0.58098831  0.98572776  1
  O2-  O525  1  0.91848083  0.83264851  0.30809557  1
  O2-  O526  1  0.93438581  0.84659806  0.63383902  1
  O2-  O527  1  0.90036969  0.82130425  0.97690632  1
  O2-  O528  1  0.07759162  0.16422875  0.03024990  1
  O2-  O529  1  0.07879268  0.16125569  0.35457453  1
  O2-  O530  1  0.07821024  0.16559267  0.68780264  1
  O2-  O531  1  0.08499938  0.40433930  0.01779362  1
  O2-  O532  1  0.07283620  0.41227779  0.34966355  1
  O2-  O533  1  0.10015099  0.42527787  0.69610918  1
  O2-  O534  1  0.07965985  0.65714915  0.02532763  1
  O2-  O535  1  0.09319594  0.66887009  0.37601430  1
  O2-  O536  1  0.08179684  0.65123119  0.67246366  1
  O2-  O537  1  0.04681995  0.98443467  0.00198703  1
  O2-  O538  1  0.08194165  0.91852762  0.35384137  1
  O2-  O539  1  0.09227350  0.92265717  0.67753377  1
  O2-  O540  1  0.34401321  0.16605740  0.01947139  1
  O2-  O541  1  0.33076388  0.16702943  0.35081591  1
  O2-  O542  1  0.32275829  0.16754193  0.69087777  1
  O2-  O543  1  0.32953346  0.41163786  0.02170705  1
  O2-  O544  1  0.30806744  0.41081235  0.35973183  1
  O2-  O545  1  0.33362977  0.42619036  0.67261619  1
  O2-  O546  1  0.33003761  0.66382523  0.01392827  1
  O2-  O547  1  0.33067900  0.66181150  0.36248379  1
  O2-  O548  1  0.33123051  0.67620448  0.67120934  1
  O2-  O549  1  0.33390403  0.91094945  0.02325426  1
  O2-  O550  1  0.33896149  0.92064483  0.35359404  1
  O2-  O551  1  0.32426954  0.92658788  0.69463534  1
  O2-  O552  1  0.57998548  0.16635166  0.02430378  1
  O2-  O553  1  0.57592001  0.16529216  0.35278367  1
  O2-  O554  1  0.57181242  0.16097598  0.67265073  1
  O2-  O555  1  0.58155473  0.41501909  0.02333472  1
  O2-  O556  1  0.59134353  0.42749807  0.34173699  1
  O2-  O557  1  0.64398790  0.44872782  0.69779528  1
  O2-  O558  1  0.58081774  0.66876753  0.01576211  1
  O2-  O559  1  0.56253280  0.65509039  0.37043632  1
  O2-  O560  1  0.56872235  0.65618647  0.65925197  1
  O2-  O561  1  0.58088594  0.90952509  0.02671358  1
  O2-  O562  1  0.58028048  0.90504569  0.36173450  1
  O2-  O563  1  0.58229777  0.91362853  0.68852083  1
  O2-  O564  1  0.82568647  0.15584362  0.02921018  1
  O2-  O565  1  0.84011882  0.14135608  0.39506289  1
  O2-  O566  1  0.81946638  0.15309787  0.66202023  1
  O2-  O567  1  0.83522954  0.41236004  0.02187375  1
  O2-  O568  1  0.83473152  0.41454309  0.34913445  1
  O2-  O569  1  0.82103940  0.37147137  0.68665166  1
  O2-  O570  1  0.82890417  0.66069882  0.02499439  1
  O2-  O571  1  0.84555507  0.66694513  0.34932783  1
  O2-  O572  1  0.85188345  0.68203057  0.68316369  1
  O2-  O573  1  0.83154637  0.90010851  0.01791219  1
  O2-  O574  1  0.83538324  0.90693725  0.35672840  1
  O2-  O575  1  0.80901063  0.86364279  0.70379321  1
