# generated using pymatgen
data_H2O
_symmetry_space_group_name_H-M   'P 1'
_cell_length_a   17.99217771
_cell_length_b   17.98669173
_cell_length_c   22.00364977
_cell_angle_alpha   90.03359263
_cell_angle_beta   89.98554924
_cell_angle_gamma   120.00757136
_symmetry_Int_Tables_number   1
_chemical_formula_structural   H2O
_chemical_formula_sum   'H384 O192'
_cell_volume   6166.33570115
_cell_formula_units_Z   192
loop_
 _symmetry_equiv_pos_site_id
 _symmetry_equiv_pos_as_xyz
  1  'x, y, z'
loop_
 _atom_type_symbol
 _atom_type_oxidation_number
  H+  1.0
  O2-  -2.0
loop_
 _atom_site_type_symbol
 _atom_site_label
 _atom_site_symmetry_multiplicity
 _atom_site_fract_x
 _atom_site_fract_y
 _atom_site_fract_z
 _atom_site_occupancy
  H+  H0  1  0.85462253  0.46971925  0.16257069  1
  H+  H1  1  0.65197173  0.86350480  0.50609062  1
  H+  H2  1  0.80489905  0.90346074  0.63154553  1
  H+  H3  1  0.62591644  0.61014490  0.18276273  1
  H+  H4  1  0.87348613  0.61009861  0.99380608  1
  H+  H5  1  0.36228093  0.48592406  0.67452803  1
  H+  H6  1  0.61814933  0.49513703  0.51035745  1
  H+  H7  1  0.86852970  0.72814011  0.67157588  1
  H+  H8  1  0.38492976  0.41309706  0.16129139  1
  H+  H9  1  0.61672212  0.63738839  0.34529969  1
  H+  H10  1  0.92388817  0.04443194  0.51972323  1
  H+  H11  1  0.36743568  0.89036885  0.49773805  1
  H+  H12  1  0.39933252  0.51962762  -0.00842162  1
  H+  H13  1  0.33792620  0.42100373  0.75779476  1
  H+  H14  1  0.73813292  0.33634963  0.98179704  1
  H+  H15  1  0.11571887  0.98103514  0.67481194  1
  H+  H16  1  0.89690418  0.86320785  0.51484194  1
  H+  H17  1  0.08881479  0.73829314  0.02721914  1
  H+  H18  1  0.22989001  0.12080558  0.51648513  1
  H+  H19  1  0.88660382  0.74269451  0.50036505  1
  H+  H20  1  0.62955241  0.46822675  0.14175346  1
  H+  H21  1  0.85892200  0.72771484  0.82174173  1
  H+  H22  1  0.22659278  0.11073005  -0.01341651  1
  H+  H23  1  0.61591545  0.38852766  0.66791368  1
  H+  H24  1  0.38194282  0.61331019  0.65315613  1
  H+  H25  1  0.13839636  0.50791106  1.00804046  1
  H+  H26  1  0.78307663  0.28267578  0.62439829  1
  H+  H27  1  0.03433659  0.89748224  0.50116664  1
  H+  H28  1  0.14236809  0.62133171  0.65820108  1
  H+  H29  1  0.17000768  0.59237644  0.56444931  1
  H+  H30  1  0.78392599  0.39240396  0.48808597  1
  H+  H31  1  0.13518778  0.78207327  0.83183639  1
  H+  H32  1  0.11555963  0.89162069  0.82091052  1
  H+  H33  1  0.18729441  0.09575782  0.09740046  1
  H+  H34  1  1.02436546  0.38595801  0.49396190  1
  H+  H35  1  0.89633813  0.37050123  0.99151525  1
  H+  H36  1  0.82294856  0.92762817  0.05598210  1
  H+  H37  1  0.46527028  0.84977487  -0.01910947  1
  H+  H38  1  0.47640638  0.11006945  0.65997301  1
  H+  H39  1  0.90486569  0.86396560  0.15250324  1
  H+  H40  1  0.85808124  0.72741804  0.00868381  1
  H+  H41  1  0.15113855  0.27895847  0.16979101  1
  H+  H42  1  0.61277787  0.96555293  0.82010702  1
  H+  H43  1  -0.02814220  0.59632689  0.17615838  1
  H+  H44  1  0.13674333  0.52814190  0.50728501  1
  H+  H45  1  0.60666974  0.46713899  0.99381011  1
  H+  H46  1  0.63695966  0.26646653  0.98524713  1
  H+  H47  1  0.46397916  0.36812341  0.49815018  1
  H+  H48  1  0.87865395  0.97723039  0.80639147  1
  H+  H49  1  0.61890310  0.60303091  0.50701419  1
  H+  H50  1  0.13437976  0.48141747  0.14777881  1
  H+  H51  1  0.52552005  0.89089253  0.50419610  1
  H+  H52  1  0.35958655  0.97049865  0.34365424  1
  H+  H53  1  0.72316561  0.61176085  0.99293516  1
  H+  H54  1  0.14345738  0.60209394  0.16769417  1
  H+  H55  1  0.37030280  0.71777566  0.81713640  1
  H+  H56  1  0.88223757  0.59746133  0.17348946  1
  H+  H57  1  0.88885864  0.03098118  0.67899862  1
  H+  H58  1  0.89478594  0.53080436  0.65866154  1
  H+  H59  1  0.41583579  0.08692964  0.56825879  1
  H+  H60  1  0.23547477  0.86206820  -0.00792954  1
  H+  H61  1  0.88644715  0.36166406  0.49883411  1
  H+  H62  1  0.06776748  0.78828489  0.21198414  1
  H+  H63  1  0.53203018  0.64124237  0.00792629  1
  H+  H64  1  0.13464823  0.35925021  0.50844725  1
  H+  H65  1  0.03615965  0.63932735  0.34068452  1
  H+  H66  1  0.88910619  0.85761199  0.33561736  1
  H+  H67  1  0.13711657  0.02142865  0.83627044  1
  H+  H68  1  0.84891999  0.37958425  0.15220747  1
  H+  H69  1  0.61624617  0.73022116  0.16750553  1
  H+  H70  1  0.61023165  0.72743970  0.83385809  1
  H+  H71  1  0.23033536  0.86656513  0.65176697  1
  H+  H72  1  0.84982953  0.22385751  0.67391397  1
  H+  H73  1  0.39525103  0.86437909  0.65283257  1
  H+  H74  1  0.64509956  0.03357607  0.17395084  1
  H+  H75  1  0.11206846  0.88096823  0.99697053  1
  H+  H76  1  0.97971699  0.39185105  0.22887700  1
  H+  H77  1  0.86763420  0.63921029  0.66834971  1
  H+  H78  1  0.63659258  0.77779844  0.99531078  1
  H+  H79  1  0.51646572  0.62649914  0.83142240  1
  H+  H80  1  0.56766595  0.39166655  0.53638600  1
  H+  H81  1  0.86126508  0.25418857  0.83959938  1
  H+  H82  1  0.65328370  0.53285141  0.34097675  1
  H+  H83  1  0.47846186  0.35707388  0.98508868  1
  H+  H84  1  0.38292674  0.02703515  0.85770419  1
  H+  H85  1  0.02344122  0.88693054  0.82380562  1
  H+  H86  1  0.85950485  0.12599127  0.82260244  1
  H+  H87  1  1.03037810  0.14982064  0.14586458  1
  H+  H88  1  0.35486159  0.17326989  0.10038824  1
  H+  H89  1  0.15327771  0.36785795  0.17025393  1
  H+  H90  1  0.14153484  0.86866849  0.65767834  1
  H+  H91  1  0.86942798  0.24395829  0.16360585  1
  H+  H92  1  0.11377712  0.48558177  0.80809001  1
  H+  H93  1  0.89127760  0.62557500  0.83627768  1
  H+  H94  1  1.02462877  0.13334393  0.71116098  1
  H+  H95  1  0.23080819  0.86963384  0.50526745  1
  H+  H96  1  0.24470915  0.69918541  0.96474703  1
  H+  H97  1  0.34263001  0.12115026  0.33635658  1
  H+  H98  1  0.63714674  0.61524933  0.99266258  1
  H+  H99  1  0.45928703  0.32052320  0.32419757  1
  H+  H100  1  0.16481425  0.07889117  0.92821774  1
  H+  H101  1  0.14692898  0.53379956  0.65147824  1
  H+  H102  1  0.41727074  0.57923958  0.89747194  1
  H+  H103  1  0.38985786  0.51648359  0.32722858  1
  H+  H104  1  0.12877951  0.39464004  0.65459098  1
  H+  H105  1  0.41626515  0.18550916  0.84689083  1
  H+  H106  1  0.34740025  0.84495914  0.80510684  1
  H+  H107  1  0.12289246  0.89189944  0.15643307  1
  H+  H108  1  0.97351373  0.86128143  0.99065410  1
  H+  H109  1  0.61883789  0.48010732  0.82267928  1
  H+  H110  1  0.94776970  0.80397745  0.24921162  1
  H+  H111  1  0.63603118  0.27423013  0.82702478  1
  H+  H112  1  0.47590583  0.11607612  0.50950537  1
  H+  H113  1  0.62666537  0.84609803  0.83355576  1
  H+  H114  1  0.12405289  0.90035218  0.49799360  1
  H+  H115  1  -0.01064327  0.11175974  -0.00641122  1
  H+  H116  1  0.61250832  0.35450484  0.33858784  1
  H+  H117  1  0.23689824  0.61060118  0.16430714  1
  H+  H118  1  0.61681675  0.88922337  0.18266815  1
  H+  H119  1  0.60142395  0.21562977  0.34272693  1
  H+  H120  1  0.65774306  0.12289328  1.01096690  1
  H+  H121  1  0.13418728  0.41245256  0.33897761  1
  H+  H122  1  0.59927480  0.22016510  0.16428761  1
  H+  H123  1  0.87206055  0.70546169  0.17368376  1
  H+  H124  1  0.38628005  0.75574975  -0.00803948  1
  H+  H125  1  0.61417309  0.21827036  0.67011807  1
  H+  H126  1  0.40026289  0.60848479  -0.00398122  1
  H+  H127  1  0.50085794  0.39359336  0.17348604  1
  H+  H128  1  0.65160338  0.36760576  0.50060394  1
  H+  H129  1  0.61268048  0.63001165  0.83281659  1
  H+  H130  1  0.02526124  0.65217641  0.82414255  1
  H+  H131  1  0.72559707  0.61763733  0.83606576  1
  H+  H132  1  0.28690056  0.60826928  0.02363688  1
  H+  H133  1  0.88195481  0.49168594  0.33600481  1
  H+  H134  1  0.84776055  -0.00230205  0.14617526  1
  H+  H135  1  0.37718428  0.64244505  0.16537828  1
  H+  H136  1  0.14160913  0.77346617  0.33696570  1
  H+  H137  1  0.46267106  0.10418180  0.32849142  1
  H+  H138  1  0.63246432  0.85628091  0.33976421  1
  H+  H139  1  0.35965983  0.37648145  0.34291158  1
  H+  H140  1  0.72057403  0.87050008  0.18431388  1
  H+  H141  1  0.88895564  0.13777588  0.15611496  1
  H+  H142  1  0.51179351  0.62936185  0.49603716  1
  H+  H143  1  0.47529791  0.86777008  0.18328794  1
  H+  H144  1  0.53034364  0.12457392  1.00735014  1
  H+  H145  1  0.61555659  0.13498700  0.49944851  1
  H+  H146  1  0.90184405  0.12363439  0.67985072  1
  H+  H147  1  0.64470359  0.77380819  0.50084258  1
  H+  H148  1  0.61138320  0.66911771  0.66054738  1
  H+  H149  1  0.22841449  0.86435456  0.33639792  1
  H+  H150  1  0.98350401  0.11443577  0.82367837  1
  H+  H151  1  0.50890481  0.87138799  0.34977021  1
  H+  H152  1  0.59560565  0.96191332  0.35053418  1
  H+  H153  1  0.60315051  0.12814117  0.33829679  1
  H+  H154  1  0.58327545  0.15829533  0.43834818  1
  H+  H155  1  0.14130045  0.33674129  -0.01788691  1
  H+  H156  1  0.14242114  0.63364443  0.81946918  1
  H+  H157  1  0.89610725  0.35244742  0.35681813  1
  H+  H158  1  0.23005756  0.34344976  0.82489244  1
  H+  H159  1  0.11201839  0.23127240  0.34636362  1
  H+  H160  1  0.77086915  0.87710744  0.35769430  1
  H+  H161  1  0.27626113  0.64325144  0.66636962  1
  H+  H162  1  0.27185353  0.64121693  0.49248274  1
  H+  H163  1  0.35528869  0.86994247  0.00865220  1
  H+  H164  1  0.35119125  -0.03409972  0.16397568  1
  H+  H165  1  0.92085190  0.89487933  0.17939063  1
  H+  H166  1  0.04366181  0.39398421  0.14181963  1
  H+  H167  1  0.89806852  0.62156383  0.33009002  1
  H+  H168  1  0.85301318  0.20966492  0.36714949  1
  H+  H169  1  0.39066134  0.39548108  0.83078308  1
  H+  H170  1  0.10556402  0.11833779  -0.00261650  1
  H+  H171  1  0.28227312  0.15065846  0.82649410  1
  H+  H172  1  0.15726588  0.26051457  0.97694719  1
  H+  H173  1  0.41928841  0.83219344  0.56565248  1
  H+  H174  1  0.98925968  0.62198502  0.50328467  1
  H+  H175  1  0.34888639  0.70987592  0.33866547  1
  H+  H176  1  0.85530185  0.47514744  0.00029047  1
  H+  H177  1  0.57820477  0.51598954  0.20751066  1
  H+  H178  1  0.72638308  0.36417389  0.65943797  1
  H+  H179  1  0.17702624  0.85201168  0.88637955  1
  H+  H180  1  0.60236795  -0.02291180  0.96461004  1
  H+  H181  1  0.47792518  0.35580191  0.65351465  1
  H+  H182  1  0.38705243  0.11080109  0.66280255  1
  H+  H183  1  0.43155130  0.15087802  1.01084835  1
  H+  H184  1  0.11919980  0.73495649  0.49401576  1
  H+  H185  1  0.63515715  0.86643704  0.98700317  1
  H+  H186  1  0.38834375  0.60459111  0.32799246  1
  H+  H187  1  0.84732945  0.91062541  0.14672089  1
  H+  H188  1  0.89802296  0.53241657  0.50060099  1
  H+  H189  1  0.71761299  0.35351988  0.18030819  1
  H+  H190  1  0.77142155  0.12895606  0.67363664  1
  H+  H191  1  0.89341923  0.86328222  0.82798437  1
  H+  H192  1  0.11475170  0.89037640  0.34949349  1
  H+  H193  1  0.87734240  0.73533491  0.34762990  1
  H+  H194  1  0.02402638  0.35237886  0.00244662  1
  H+  H195  1  0.88678845  0.86551039  0.99062079  1
  H+  H196  1  0.22878832  0.36496763  0.32923033  1
  H+  H197  1  0.38241953  0.85993804  0.17843084  1
  H+  H198  1  0.73225914  0.90353332  0.67074471  1
  H+  H199  1  0.89680247  0.86529888  0.66719342  1
  H+  H200  1  0.36401346  0.25017859  0.31878727  1
  H+  H201  1  0.89391269  0.11842949  -0.00624282  1
  H+  H202  1  0.35741030  0.22622791  0.48813586  1
  H+  H203  1  0.85009109  0.36467818  0.65660459  1
  H+  H204  1  0.03157792  0.64367984  0.66876379  1
  H+  H205  1  0.61352163  0.38822293  0.82355204  1
  H+  H206  1  0.36953416  0.22095540  0.67045410  1
  H+  H207  1  0.63820753  0.01296073  0.66160923  1
  H+  H208  1  0.36006378  0.13860732  0.49251795  1
  H+  H209  1  0.78769179  0.64500159  0.34922363  1
  H+  H210  1  0.63733091  1.01911053  0.51220466  1
  H+  H211  1  0.28660687  0.39271455  0.16060523  1
  H+  H212  1  0.52708496  0.16100293  0.83290644  1
  H+  H213  1  0.73130576  0.09991100  0.33698075  1
  H+  H214  1  0.86022461  -0.03729064  0.36837552  1
  H+  H215  1  0.96189372  0.61208826  0.99801092  1
  H+  H216  1  0.10692499  0.66489317  1.01177169  1
  H+  H217  1  0.78985661  0.15178643  0.00027637  1
  H+  H218  1  0.79061648  0.47064275  0.70263116  1
  H+  H219  1  0.59962931  0.13207017  0.82474506  1
  H+  H220  1  0.36563552  0.97316507  0.66405922  1
  H+  H221  1  0.46526330  0.09596014  0.17565547  1
  H+  H222  1  0.37368993  0.36409517  0.50159616  1
  H+  H223  1  0.17790906  0.50880060  -0.00529213  1
  H+  H224  1  0.16859955  0.77836974  0.95587475  1
  H+  H225  1  0.59063671  0.67539559  0.06821117  1
  H+  H226  1  0.53010868  0.87500505  0.66646602  1
  H+  H227  1  0.72111855  0.10297750  0.83162748  1
  H+  H228  1  0.10874953  0.13896392  0.34479000  1
  H+  H229  1  0.38654374  0.60821359  0.83630324  1
  H+  H230  1  0.27724722  0.63471962  0.81434275  1
  H+  H231  1  0.29431390  0.14873658  0.15605145  1
  H+  H232  1  0.72757483  0.62059000  0.65682233  1
  H+  H233  1  0.47966993  0.85304468  0.83082406  1
  H+  H234  1  0.63559507  0.76933778  0.33639065  1
  H+  H235  1  0.28255427  0.38295569  0.00001968  1
  H+  H236  1  0.52737880  0.64223565  0.16289388  1
  H+  H237  1  0.38994802  0.35971527  0.99065885  1
  H+  H238  1  0.11663996  0.14273294  0.14227232  1
  H+  H239  1  0.38881318  0.77631440  0.50427687  1
  H+  H240  1  0.82570252  0.39887614  0.30836871  1
  H+  H241  1  0.76528496  0.38022792  0.81705125  1
  H+  H242  1  0.27829521  0.13489794  0.67786379  1
  H+  H243  1  0.11871417  0.55680621  0.34290504  1
  H+  H244  1  0.37915132  0.61254222  0.50485881  1
  H+  H245  1  0.52421228  0.63110956  0.33974467  1
  H+  H246  1  0.88754094  0.64608739  0.49577797  1
  H+  H247  1  0.88324084  1.01928760  -0.00910554  1
  H+  H248  1  0.35361457  0.47662577  0.49297351  1
  H+  H249  1  0.89529963  0.28177853  0.98979927  1
  H+  H250  1  0.26340577  0.85545741  0.80513667  1
  H+  H251  1  0.39291360  0.52981607  0.17118463  1
  H+  H252  1  0.60539534  0.13574269  0.15571895  1
  H+  H253  1  0.61547429  0.37536830  0.15252062  1
  H+  H254  1  0.43182462  0.15666351  0.91079544  1
  H+  H255  1  0.14059111  0.11632955  0.68078969  1
  H+  H256  1  0.52781000  0.42727396  0.36881259  1
  H+  H257  1  0.14090008  0.03435816  0.51875476  1
  H+  H258  1  1.04018568  0.39437800  0.65329003  1
  H+  H259  1  0.14246748  1.02780463  0.14795371  1
  H+  H260  1  0.16898369  0.83953885  0.56353305  1
  H+  H261  1  0.37353559  0.73103706  0.16404268  1
  H+  H262  1  0.37768645  0.85260134  0.33584718  1
  H+  H263  1  0.31566255  0.15543153  0.39449313  1
  H+  H264  1  0.36589615  0.98117354  0.84780305  1
  H+  H265  1  -0.01193355  0.86982448  0.66545378  1
  H+  H266  1  0.27421313  0.39500503  0.67563372  1
  H+  H267  1  0.59269160  0.74753068  0.66590217  1
  H+  H268  1  0.64665528  0.27520327  0.49981832  1
  H+  H269  1  0.26441404  0.87526028  0.16426359  1
  H+  H270  1  0.63778916  0.53404916  0.65848847  1
  H+  H271  1  0.70101347  0.35879127  0.34175667  1
  H+  H272  1  0.75517234  0.12690534  0.51148558  1
  H+  H273  1  0.10417509  0.70668815  0.17682627  1
  H+  H274  1  0.63292211  0.10073516  0.66490887  1
  H+  H275  1  0.36168457  0.47652536  0.82250520  1
  H+  H276  1  1.01245117  0.32688391  0.22912826  1
  H+  H277  1  0.13792899  0.26994057  0.50855929  1
  H+  H278  1  0.36656260  0.23121733  -0.00399651  1
  H+  H279  1  0.42481841  0.35543105  0.89849141  1
  H+  H280  1  0.77614042  0.15856060  0.15795455  1
  H+  H281  1  0.85801806  0.12231789  0.36785470  1
  H+  H282  1  0.98399140  0.11740350  0.35963014  1
  H+  H283  1  0.99474909  0.83415596  0.18519259  1
  H+  H284  1  0.84925019  0.36724926  0.81832012  1
  H+  H285  1  0.11538549  1.02245411  0.32980750  1
  H+  H286  1  0.26754330  0.61301909  0.34266451  1
  H+  H287  1  0.77361616  0.63051650  0.16885849  1
  H+  H288  1  0.08747173  0.37490749  0.05873699  1
  H+  H289  1  0.58295091  0.40287280  0.04865322  1
  H+  H290  1  0.17158885  0.33639036  0.26952715  1
  H+  H291  1  0.17148608  0.60676105  0.87766013  1
  H+  H292  1  0.84422079  0.42363240  0.42956866  1
  H+  H293  1  0.65943709  0.58486945  0.56773883  1
  H+  H294  1  0.65516093  0.81978785  0.89577597  1
  H+  H295  1  0.33959004  0.17935340  0.76718926  1
  H+  H296  1  0.58761155  0.90400454  0.76128907  1
  H+  H297  1  0.66667018  0.08714957  0.89100131  1
  H+  H298  1  0.92618807  0.83117096  0.57294862  1
  H+  H299  1  0.67162599  0.58419672  0.27858907  1
  H+  H300  1  0.44528000  0.37153183  0.23482249  1
  H+  H301  1  0.66773472  0.58532970  0.89751113  1
  H+  H302  1  0.89886166  0.33042961  0.56273485  1
  H+  H303  1  0.11454864  0.97036212  -0.00096835  1
  H+  H304  1  0.82171662  0.15311628  0.44919857  1
  H+  H305  1  0.33422387  0.91638311  0.40600302  1
  H+  H306  1  0.08537676  0.91853737  0.73220380  1
  H+  H307  1  0.82795760  0.66589970  0.76320811  1
  H+  H308  1  0.91952218  0.06674726  0.30721621  1
  H+  H309  1  0.85352793  0.22576694  0.50512456  1
  H+  H310  1  0.07650569  0.65985649  0.11261561  1
  H+  H311  1  0.09426120  0.17410799  0.44291122  1
  H+  H312  1  0.20326069  0.10686544  0.32202922  1
  H+  H313  1  0.58209874  0.41916558  0.42105152  1
  H+  H314  1  0.93060104  0.08364418  0.88572499  1
  H+  H315  1  0.15209826  0.82139538  0.24949509  1
  H+  H316  1  0.89897343  0.32473616  0.89397263  1
  H+  H317  1  0.82419984  0.41576793  0.05938860  1
  H+  H318  1  0.92090878  0.59671472  0.89536433  1
  H+  H319  1  0.55020522  0.17033579  0.07164964  1
  H+  H320  1  0.32497443  0.89996739  0.06778451  1
  H+  H321  1  0.40491095  0.07161770  0.26823374  1
  H+  H322  1  0.16595362  0.09508247  0.61459446  1
  H+  H323  1  0.17238161  0.30872972  0.88396292  1
  H+  H324  1  0.40847752  0.82575522  0.27570325  1
  H+  H325  1  0.58660121  0.41886540  0.72673601  1
  H+  H326  1  0.66553674  0.07738384  0.57415473  1
  H+  H327  1  0.91389348  0.83266591  0.89221485  1
  H+  H328  1  0.59050379  0.90820374  0.11984375  1
  H+  H329  1  0.92153597  0.58719329  0.26885540  1
  H+  H330  1  0.08719255  0.90963499  0.09451767  1
  H+  H331  1  0.69816956  0.19862308  0.96499252  1
  H+  H332  1  0.82837183  0.15812500  0.76552125  1
  H+  H333  1  0.82834610  0.66647753  0.06804620  1
  H+  H334  1  0.85493490  0.68038210  0.43440558  1
  H+  H335  1  0.82966546  0.90872462  0.45780406  1
  H+  H336  1  0.41440387  0.81885852  0.88813402  1
  H+  H337  1  0.08801984  0.92515355  0.40827216  1
  H+  H338  1  0.66777935  0.83423139  0.24816059  1
  H+  H339  1  0.33894154  0.41639478  0.06206791  1
  H+  H340  1  0.83401180  0.91316437  0.75096816  1
  H+  H341  1  0.67278802  0.32415086  0.88792079  1
  H+  H342  1  0.67370185  0.33087911  0.59602291  1
  H+  H343  1  0.33705998  0.66496234  0.72524330  1
  H+  H344  1  0.40728781  0.57979144  0.56420682  1
  H+  H345  1  0.49196436  0.39008034  0.83751874  1
  H+  H346  1  0.33119697  0.66475688  0.43341314  1
  H+  H347  1  0.36669273  0.98005107  0.49850596  1
  H+  H348  1  0.12208052  0.22177147  0.80801117  1
  H+  H349  1  0.17134000  0.32960516  0.59671661  1
  H+  H350  1  0.13987789  0.27790832  0.66057811  1
  H+  H351  1  0.11897418  0.64453562  0.49546865  1
  H+  H352  1  0.09480677  0.42750347  0.75195072  1
  H+  H353  1  0.38169830  0.10318093  0.17306191  1
  H+  H354  1  0.09256962  0.66687168  0.40063704  1
  H+  H355  1  0.57362402  0.65783294  0.43778938  1
  H+  H356  1  0.09039124  0.42437595  0.43834228  1
  H+  H357  1  0.47320787  0.61950526  0.65189187  1
  H+  H358  1  0.92216329  0.10666962  0.21078253  1
  H+  H359  1  0.84451053  0.17630667  0.06188423  1
  H+  H360  1  0.92515812  0.58762146  0.59740670  1
  H+  H361  1  0.17292542  0.60437988  0.97566573  1
  H+  H362  1  0.12268490  0.14556012  0.50377889  1
  H+  H363  1  0.69112012  0.02376007  0.29129270  1
  H+  H364  1  0.32818697  0.89536741  0.71463342  1
  H+  H365  1  0.39239002  0.77350343  0.65677345  1
  H+  H366  1  0.13818404  0.10951552  0.83123195  1
  H+  H367  1  0.08166612  0.16148615  0.05509752  1
  H+  H368  1  0.67359862  0.09919608  0.22838604  1
  H+  H369  1  0.82558514  0.41676052  0.74907602  1
  H+  H370  1  0.57948317  0.16186373  0.73071630  1
  H+  H371  1  0.35028874  0.66566414  0.07571380  1
  H+  H372  1  0.77019645  0.89436001  -0.00572447  1
  H+  H373  1  0.33161552  0.41207944  0.40107595  1
  H+  H374  1  0.41384758  0.32372257  0.59668413  1
  H+  H375  1  0.65371986  0.32689474  0.23821259  1
  H+  H376  1  0.98258398  0.86571578  0.33994250  1
  H+  H377  1  0.93109302  0.31323066  0.30893666  1
  H+  H378  1  0.58262326  0.91639001  0.44516626  1
  H+  H379  1  0.42170413  0.58249755  0.23441114  1
  H+  H380  1  0.08388036  0.68123434  0.76255634  1
  H+  H381  1  0.12027534  0.73316908  0.66815054  1
  H+  H382  1  0.57640764  0.96055858  0.03228341  1
  H+  H383  1  0.26501660  0.38518613  0.49362588  1
  O2-  O384  1  0.08985079  0.17798159  0.13009078  1
  O2-  O385  1  0.09379804  0.17672557  0.48802083  1
  O2-  O386  1  0.08352884  0.15754151  0.79112571  1
  O2-  O387  1  0.10482407  0.41725714  0.13465327  1
  O2-  O388  1  0.08608807  0.41875889  0.48329962  1
  O2-  O389  1  0.08118119  0.42533338  0.79523834  1
  O2-  O390  1  0.07674401  0.64889744  0.15695452  1
  O2-  O391  1  0.08743445  0.67364728  0.47965939  1
  O2-  O392  1  0.08669046  0.68384845  0.80801131  1
  O2-  O393  1  0.09025376  0.91793764  0.13964639  1
  O2-  O394  1  0.09377650  0.93207134  0.48527026  1
  O2-  O395  1  0.08340542  0.92128976  0.80757855  1
  O2-  O396  1  0.35495434  0.17065207  0.14525087  1
  O2-  O397  1  0.32701146  0.16469473  0.47525712  1
  O2-  O398  1  0.34011172  0.19166533  0.81140531  1
  O2-  O399  1  0.34429441  0.42828114  0.14147047  1
  O2-  O400  1  0.32548253  0.41602908  0.47697787  1
  O2-  O401  1  0.33929341  0.41685698  0.80656273  1
  O2-  O402  1  0.34769502  0.67195380  0.14634896  1
  O2-  O403  1  0.33305066  0.67060045  0.47854568  1
  O2-  O404  1  0.33883832  0.65640807  0.80319498  1
  O2-  O405  1  0.32351068  0.90434206  0.14922565  1
  O2-  O406  1  0.33627100  0.91992767  0.48235768  1
  O2-  O407  1  0.30492589  0.84934805  0.77917409  1
  O2-  O408  1  0.56957634  0.16173191  0.14536920  1
  O2-  O409  1  0.58827845  0.16734613  0.48304102  1
  O2-  O410  1  0.57765448  0.16833771  0.80787014  1
  O2-  O411  1  0.59179937  0.40779914  0.13082291  1
  O2-  O412  1  0.58924947  0.42237792  0.49800514  1
  O2-  O413  1  0.58502308  0.41977743  0.80738902  1
  O2-  O414  1  0.58895737  0.67205354  0.14892960  1
  O2-  O415  1  0.57318377  0.65511405  0.48290237  1
  O2-  O416  1  0.57954959  0.65996189  0.81916733  1
  O2-  O417  1  0.59094237  0.92243902  0.16266121  1
  O2-  O418  1  0.58683508  0.92417107  0.48995653  1
  O2-  O419  1  0.58350774  0.90440478  0.80693431  1
  O2-  O420  1  0.83652975  0.18922886  0.14170388  1
  O2-  O421  1  0.82128722  0.16122980  0.49557787  1
  O2-  O422  1  0.82348134  0.15149379  0.81075124  1
  O2-  O423  1  0.81736712  0.40972963  0.14506681  1
  O2-  O424  1  0.84560010  0.42375889  0.47437937  1
  O2-  O425  1  0.82558111  0.40502402  0.80077615  1
  O2-  O426  1  0.83051522  0.65268847  0.15057541  1
  O2-  O427  1  0.85921344  0.68098932  0.48123977  1
  O2-  O428  1  0.82494035  0.66613760  0.80853416  1
  O2-  O429  1  0.81239515  0.93611961  0.13379781  1
  O2-  O430  1  0.85516339  0.92509218  0.49944618  1
  O2-  O431  1  0.85981381  0.91875676  0.79128078  1
  O2-  O432  1  0.17370578  0.09143441  0.14068956  1
  O2-  O433  1  0.17185022  0.09378935  0.53576850  1
  O2-  O434  1  0.16552040  0.08135700  0.85327604  1
  O2-  O435  1  0.18055110  0.33669866  0.18908638  1
  O2-  O436  1  0.16838786  0.33302708  0.52353134  1
  O2-  O437  1  0.17119966  0.30257380  0.83906660  1
  O2-  O438  1  0.17537697  0.57089805  0.17348213  1
  O2-  O439  1  0.16730748  0.59007264  0.51862417  1
  O2-  O440  1  0.17484992  0.60445691  0.83345018  1
  O2-  O441  1  0.12942950  0.80651023  0.20620874  1
  O2-  O442  1  0.16891661  0.83999444  0.51773788  1
  O2-  O443  1  0.17095956  0.84575943  0.84190888  1
  O2-  O444  1  0.40472939  0.06615717  0.19015968  1
  O2-  O445  1  0.41492167  0.08672647  0.52235555  1
  O2-  O446  1  0.46121266  0.18180959  0.87227548  1
  O2-  O447  1  0.46925839  0.41265865  0.20060943  1
  O2-  O448  1  0.40486166  0.33238961  0.51301848  1
  O2-  O449  1  0.43924007  0.38527865  0.85778915  1
  O2-  O450  1  0.42480977  0.58924770  0.18894271  1
  O2-  O451  1  0.40662300  0.57868335  0.51817194  1
  O2-  O452  1  0.41766836  0.57836368  0.85206131  1
  O2-  O453  1  0.41428792  0.83200007  0.19504864  1
  O2-  O454  1  0.41898726  0.83659929  0.51999865  1
  O2-  O455  1  0.41787412  0.81871448  0.84336708  1
  O2-  O456  1  0.67267221  0.09633507  0.18342802  1
  O2-  O457  1  0.66909461  0.08156517  0.52811765  1
  O2-  O458  1  0.66004359  0.07397714  0.84740724  1
  O2-  O459  1  0.65617930  0.32243024  0.19345366  1
  O2-  O460  1  0.68186484  0.33661163  0.51347360  1
  O2-  O461  1  0.66719559  0.33408645  0.84416360  1
  O2-  O462  1  0.63692481  0.56596802  0.20234438  1
  O2-  O463  1  0.65187802  0.57454169  0.52242101  1
  O2-  O464  1  0.66464842  0.58519681  0.85190740  1
  O2-  O465  1  0.66260126  0.83587256  0.20223167  1
  O2-  O466  1  0.68668148  0.83566994  0.50176252  1
  O2-  O467  1  0.65030782  0.81070194  0.85114819  1
  O2-  O468  1  0.91786000  0.10363072  0.16655929  1
  O2-  O469  1  0.92988165  0.01055289  0.48722321  1
  O2-  O470  1  0.92423021  0.08375389  0.84157849  1
  O2-  O471  1  0.96061544  0.33087576  0.22320279  1
  O2-  O472  1  0.90948941  0.32690494  0.51870144  1
  O2-  O473  1  0.87071465  0.31059820  0.85378979  1
  O2-  O474  1  0.91033554  0.56612828  0.19061661  1
  O2-  O475  1  0.92672950  0.59215652  0.51703682  1
  O2-  O476  1  0.93036302  0.60558070  0.85118737  1
  O2-  O477  1  0.96291308  0.78312284  0.21163691  1
  O2-  O478  1  0.92642342  0.83021297  0.52732753  1
  O2-  O479  1  0.91898573  0.83024280  0.84752755  1
  O2-  O480  1  0.14131047  0.08138291  0.31292122  1
  O2-  O481  1  0.16769946  0.08729785  0.65955199  1
  O2-  O482  1  0.16488572  0.07717525  0.97440818  1
  O2-  O483  1  0.16824108  0.34018900  0.31458482  1
  O2-  O484  1  0.17176430  0.33540957  0.64273313  1
  O2-  O485  1  0.18383308  0.32105904  0.96452936  1
  O2-  O486  1  0.15203106  0.52938303  0.32952565  1
  O2-  O487  1  0.17544316  0.59581375  0.63949883  1
  O2-  O488  1  0.18287431  0.66020392  0.96042589  1
  O2-  O489  1  0.16686647  0.83432800  0.32262333  1
  O2-  O490  1  0.16781946  0.83613454  0.63981883  1
  O2-  O491  1  0.17567259  0.83246214  0.97143560  1
  O2-  O492  1  0.40257176  0.07302429  0.31378457  1
  O2-  O493  1  0.41647101  0.08076315  0.64415465  1
  O2-  O494  1  0.37616609  0.12605714  0.98819542  1
  O2-  O495  1  0.40554537  0.31238723  0.30749343  1
  O2-  O496  1  0.41844438  0.31562906  0.64052477  1
  O2-  O497  1  0.41560522  0.32729669  0.97115812  1
  O2-  O498  1  0.42075420  0.57698424  0.31182675  1
  O2-  O499  1  0.41127813  0.58165504  0.63875496  1
  O2-  O500  1  0.43056733  0.58096048  0.97699363  1
  O2-  O501  1  0.40654502  0.82052388  0.32081693  1
  O2-  O502  1  0.42734384  0.83398783  0.64119043  1
  O2-  O503  1  0.40372805  0.81174554  0.97178864  1
  O2-  O504  1  0.67966738  0.06662642  0.30952058  1
  O2-  O505  1  0.66655138  0.07447379  0.64821098  1
  O2-  O506  1  0.69335623  0.14080781  0.97443990  1
  O2-  O507  1  0.64427295  0.32646329  0.32273718  1
  O2-  O508  1  0.66815130  0.32461653  0.64093598  1
  O2-  O509  1  0.68941420  0.28612875  0.96058132  1
  O2-  O510  1  0.68200974  0.59121071  0.32347016  1
  O2-  O511  1  0.66708053  0.59371562  0.64246671  1
  O2-  O512  1  0.66410963  0.58322684  0.97538076  1
  O2-  O513  1  0.66671586  0.83123873  0.32307890  1
  O2-  O514  1  0.63257057  0.86217554  0.65737427  1
  O2-  O515  1  0.66663670  0.83671494  0.97587435  1
  O2-  O516  1  0.91932864  0.07916532  0.35022397  1
  O2-  O517  1  0.93384943  0.09217473  0.67764309  1
  O2-  O518  1  0.92167534  0.08394022  0.97849900  1
  O2-  O519  1  0.91275556  0.30844144  0.35149013  1
  O2-  O520  1  0.84449676  0.31476720  0.63357198  1
  O2-  O521  1  0.92639310  0.34132482  0.97452325  1
  O2-  O522  1  0.92674624  0.59006706  0.31414290  1
  O2-  O523  1  0.92667430  0.59097336  0.64260946  1
  O2-  O524  1  0.90430950  0.58000324  0.97930704  1
  O2-  O525  1  0.92319085  0.83076684  0.32152461  1
  O2-  O526  1  0.92594673  0.83649813  0.65021661  1
  O2-  O527  1  0.91246981  0.83096752  0.97690584  1
  O2-  O528  1  0.07317741  0.14867648  0.01002520  1
  O2-  O529  1  0.08349820  0.17297784  0.36470845  1
  O2-  O530  1  0.08802950  0.16565151  0.72403941  1
  O2-  O531  1  0.06651466  0.33981239  0.02146137  1
  O2-  O532  1  0.10500918  0.44293421  0.35694722  1
  O2-  O533  1  0.10018932  0.42931548  0.66460342  1
  O2-  O534  1  0.06727579  0.67705642  0.03543595  1
  O2-  O535  1  0.09599255  0.66419411  0.35543566  1
  O2-  O536  1  0.09139903  0.67339433  0.68506939  1
  O2-  O537  1  0.08284110  0.91001372  0.01481662  1
  O2-  O538  1  0.08190163  0.91861821  0.36284456  1
  O2-  O539  1  0.08573113  0.91856569  0.68634956  1
  O2-  O540  1  0.33408780  0.17073925  0.01521824  1
  O2-  O541  1  0.31327284  0.15332959  0.34905017  1
  O2-  O542  1  0.33975827  0.16178483  0.68962930  1
  O2-  O543  1  0.34244767  0.41595789  0.01670317  1
  O2-  O544  1  0.33426358  0.41188997  0.35521285  1
  O2-  O545  1  0.33191409  0.42798034  0.69430989  1
  O2-  O546  1  0.34483811  0.65693137  0.02933122  1
  O2-  O547  1  0.32831410  0.65056502  0.35435707  1
  O2-  O548  1  0.33762224  0.67088398  0.68002582  1
  O2-  O549  1  0.32461957  0.89954194  0.02265824  1
  O2-  O550  1  0.33152204  0.91084684  0.36035768  1
  O2-  O551  1  0.33458327  0.90947586  0.66961480  1
  O2-  O552  1  0.53828662  0.17622620  0.02771113  1
  O2-  O553  1  0.57306503  0.15501645  0.35702249  1
  O2-  O554  1  0.58378999  0.15807430  0.68545534  1
  O2-  O555  1  0.57703657  0.40517955  0.00409549  1
  O2-  O556  1  0.57861986  0.42189900  0.37552140  1
  O2-  O557  1  0.58846234  0.42164074  0.68139583  1
  O2-  O558  1  0.59243158  0.67762679  0.02280571  1
  O2-  O559  1  0.58323826  0.66515176  0.35755129  1
  O2-  O560  1  0.56991823  0.68559724  0.67461787  1
  O2-  O561  1  0.57893068  0.93177700  -0.00464269  1
  O2-  O562  1  0.56997088  0.90230860  0.36484843  1
  O2-  O563  1  0.58988144  0.90651430  0.68465831  1
  O2-  O564  1  0.84774043  0.16894000  0.01739125  1
  O2-  O565  1  0.81998352  0.14657352  0.37905706  1
  O2-  O566  1  0.83153927  0.16559109  0.68875683  1
  O2-  O567  1  0.83019975  0.41416631  0.01487754  1
  O2-  O568  1  0.84888083  0.42788712  0.34698880  1
  O2-  O569  1  0.81753533  0.43606424  0.69426344  1
  O2-  O570  1  0.82685176  0.66648971  0.02299151  1
  O2-  O571  1  0.84854749  0.67375968  0.36375706  1
  O2-  O572  1  0.83476254  0.66659903  0.68371527  1
  O2-  O573  1  0.83060886  0.92789523  0.01093713  1
  O2-  O574  1  0.82979452  0.89979880  0.37445666  1
  O2-  O575  1  0.79653152  0.92068993  0.67185445  1
