# generated using pymatgen
data_H2O
_symmetry_space_group_name_H-M   'P 1'
_cell_length_a   17.98350399
_cell_length_b   17.98225293
_cell_length_c   22.00377436
_cell_angle_alpha   89.99007023
_cell_angle_beta   90.03517495
_cell_angle_gamma   120.00431452
_symmetry_Int_Tables_number   1
_chemical_formula_structural   H2O
_chemical_formula_sum   'H384 O192'
_cell_volume   6162.07900000
_cell_formula_units_Z   192
loop_
 _symmetry_equiv_pos_site_id
 _symmetry_equiv_pos_as_xyz
  1  'x, y, z'
loop_
 _atom_type_symbol
 _atom_type_oxidation_number
  H+  1.0
  O2-  -2.0
loop_
 _atom_site_type_symbol
 _atom_site_label
 _atom_site_symmetry_multiplicity
 _atom_site_fract_x
 _atom_site_fract_y
 _atom_site_fract_z
 _atom_site_occupancy
  H+  H0  1  0.55150675  0.88078291  0.17486921  1
  H+  H1  1  0.35868455  0.13840776  0.82036173  1
  H+  H2  1  0.38012605  0.36204525  0.83026736  1
  H+  H3  1  0.12029843  -0.01740613  0.16339288  1
  H+  H4  1  0.33144677  0.16399587  0.72501561  1
  H+  H5  1  0.03377309  0.14802501  0.17046255  1
  H+  H6  1  0.65777286  0.87295849  0.33450321  1
  H+  H7  1  0.97853934  0.85633696  0.50416027  1
  H+  H8  1  0.37371306  0.48230302  0.15817795  1
  H+  H9  1  0.58675447  0.17652480  0.76703488  1
  H+  H10  1  0.35404568  0.63467352  0.82446501  1
  H+  H11  1  0.36433990  0.22398420  0.15520362  1
  H+  H12  1  0.73123483  0.39089468  0.84191583  1
  H+  H13  1  0.35692600  0.38461557  0.66643379  1
  H+  H14  1  0.87170926  0.73413140  0.50245376  1
  H+  H15  1  0.47927810  0.85298652  0.33586176  1
  H+  H16  1  0.61498377  0.12379164  0.18020362  1
  H+  H17  1  0.77658634  0.64616872  0.82787205  1
  H+  H18  1  0.77447767  0.63800316  0.67264797  1
  H+  H19  1  0.48606140  0.11521281  0.33570784  1
  H+  H20  1  0.97681627  0.37677170  0.64586274  1
  H+  H21  1  0.86725566  0.77480144  0.18508220  1
  H+  H22  1  0.26042682  0.13004774  0.99984599  1
  H+  H23  1  0.39387098  0.27013969  0.32961674  1
  H+  H24  1  0.44552183  0.85022486  0.83791746  1
  H+  H25  1  0.46678760  0.61548835  0.83387745  1
  H+  H26  1  0.11919257  0.28090552  -0.00388373  1
  H+  H27  1  0.12427995  0.23468538  0.16852701  1
  H+  H28  1  0.24056632  0.37298727  0.17779335  1
  H+  H29  1  0.62327791  0.35520032  0.84739430  1
  H+  H30  1  0.86120976  0.39107405  0.49489131  1
  H+  H31  1  0.10551071  0.71302168  0.82524579  1
  H+  H32  1  0.86708994  -0.02726721  0.65015449  1
  H+  H33  1  0.61423235  0.96227933  0.48498452  1
  H+  H34  1  0.12927018  0.52476872  0.00660877  1
  H+  H35  1  0.28636371  0.14010779  0.34278890  1
  H+  H36  1  0.64010052  0.36642158  0.50543919  1
  H+  H37  1  0.84532497  0.42366176  0.06578037  1
  H+  H38  1  0.62704784  0.77294824  0.83600911  1
  H+  H39  1  0.97951329  0.86675627  0.83810157  1
  H+  H40  1  0.56152419  0.66925719  0.06763454  1
  H+  H41  1  0.07359937  0.65352819  0.43820994  1
  H+  H42  1  0.99300893  0.39572899  0.89338624  1
  H+  H43  1  0.41599461  0.33112569  0.59706416  1
  H+  H44  1  0.37590469  0.12380351  -0.01180077  1
  H+  H45  1  0.39574400  0.03842020  0.83597086  1
  H+  H46  1  0.52540490  0.62945711  0.49645203  1
  H+  H47  1  0.90977629  0.25193021  0.83011307  1
  H+  H48  1  0.72796195  0.85368078  0.50118242  1
  H+  H49  1  0.72905955  0.11119190  0.66499998  1
  H+  H50  1  0.47968738  0.11543239  0.65764650  1
  H+  H51  1  0.11091377  0.88471512  0.49516385  1
  H+  H52  1  0.77388302  0.89412881  0.83094617  1
  H+  H53  1  0.84620538  0.39335893  0.81672788  1
  H+  H54  1  0.34823121  0.72339298  0.82777258  1
  H+  H55  1  0.45769659  0.61176516  0.99441622  1
  H+  H56  1  0.84452000  0.85009825  0.18841458  1
  H+  H57  1  0.77358423  0.63540724  0.50380371  1
  H+  H58  1  0.89622951  0.70887340  0.03146140  1
  H+  H59  1  0.35858190  0.63458772  0.49246362  1
  H+  H60  1  0.48736324  0.35194593  0.06394201  1
  H+  H61  1  0.88656381  0.77197620  0.66001324  1
  H+  H62  1  0.61608393  0.14240182  0.67583507  1
  H+  H63  1  0.49564345  0.33989595  0.82410844  1
  H+  H64  1  0.58876214  0.73103160  1.00970975  1
  H+  H65  1  0.88165839  0.27107259  0.18313299  1
  H+  H66  1  0.85473566  0.38969049  0.34508420  1
  H+  H67  1  0.58094405  0.02719494  0.54019228  1
  H+  H68  1  0.14364298  0.12172916  0.17481278  1
  H+  H69  1  0.10663202  0.38893515  0.01830809  1
  H+  H70  1  0.33578169  0.37915551  0.00231342  1
  H+  H71  1  0.46300219  0.09387489  0.17184401  1
  H+  H72  1  0.37900285  0.52535973  0.83207879  1
  H+  H73  1  0.85642015  0.22013096  0.03100074  1
  H+  H74  1  0.37605486  0.64173455  0.16123128  1
  H+  H75  1  -0.10244680  0.12782050  0.18462403  1
  H+  H76  1  0.13144816  0.60872094  0.82285513  1
  H+  H77  1  0.72112750  0.62023106  0.33451043  1
  H+  H78  1  0.14309488  0.10710561  0.65996926  1
  H+  H79  1  0.61948268  0.47849407  0.49044192  1
  H+  H80  1  -0.01852799  0.86152960  0.31609369  1
  H+  H81  1  0.74137644  0.33321325  0.98671724  1
  H+  H82  1  0.29846936  0.39869531  0.33621090  1
  H+  H83  1  0.88979491  0.78064876  0.84059779  1
  H+  H84  1  0.61425587  0.36602829  -0.00267093  1
  H+  H85  1  0.13734341  0.11425290  0.50298736  1
  H+  H86  1  0.08682442  0.17439815  0.42989191  1
  H+  H87  1  0.85517904  0.90097201  0.01161193  1
  H+  H88  1  0.85980079  0.63766251  0.34368477  1
  H+  H89  1  0.13243273  0.24013762  0.67959355  1
  H+  H90  1  0.19905500  0.37406515  0.51456647  1
  H+  H91  1  0.36482266  0.72796118  0.66580535  1
  H+  H92  1  0.35504865  0.88835034  0.82899860  1
  H+  H93  1  0.33183609  0.90941065  0.39600388  1
  H+  H94  1  0.37949367  0.10100432  0.15803731  1
  H+  H95  1  0.64841670  0.86675012  0.65225488  1
  H+  H96  1  0.86295491  0.48923224  0.66412947  1
  H+  H97  1  0.61425992  0.72422641  0.66841784  1
  H+  H98  1  0.39343392  0.86712900  0.65317623  1
  H+  H99  1  0.14268455  0.02964329  0.31934392  1
  H+  H100  1  0.86928446  0.61294108  0.17924278  1
  H+  H101  1  0.20322588  0.85997285  -0.01382864  1
  H+  H102  1  0.37688010  0.14065735  0.34566046  1
  H+  H103  1  0.60302075  0.38228787  0.96922769  1
  H+  H104  1  0.52354064  0.63653423  0.66823637  1
  H+  H105  1  0.11370943  0.88749515  0.30926807  1
  H+  H106  1  0.22979303  0.10549270  0.65458971  1
  H+  H107  1  0.10160633  0.22613200  0.49146840  1
  H+  H108  1  0.02053518  0.90037923  0.00863180  1
  H+  H109  1  0.27406201  0.13736820  0.15657877  1
  H+  H110  1  0.72129981  0.86528685  0.99536261  1
  H+  H111  1  0.62138054  0.11563312  1.00294238  1
  H+  H112  1  0.87249265  0.11097014  0.00399539  1
  H+  H113  1  0.39538882  0.02886166  0.33288766  1
  H+  H114  1  0.32621474  0.41563824  0.76148643  1
  H+  H115  1  0.89037973  0.11598863  0.84366627  1
  H+  H116  1  0.40583514  0.76851380  0.17951647  1
  H+  H117  1  0.79844598  0.94315290  0.33166647  1
  H+  H118  1  0.14216565  0.77070139  0.50464954  1
  H+  H119  1  0.97852628  0.61986130  0.50345926  1
  H+  H120  1  1.01969943  0.62829113  1.00695882  1
  H+  H121  1  0.63275022  0.62059876  0.33496271  1
  H+  H122  1  0.64405982  0.61228375  0.50700797  1
  H+  H123  1  0.13407294  0.39050841  0.81547158  1
  H+  H124  1  0.40208398  0.36118067  0.49910511  1
  H+  H125  1  0.26863502  0.38741102  0.66568843  1
  H+  H126  1  0.11689925  0.96967542  0.82300593  1
  H+  H127  1  0.64027590  0.54178066  0.85106320  1
  H+  H128  1  0.13904564  0.24933274  0.33821750  1
  H+  H129  1  0.63705971  0.85019209  0.50240231  1
  H+  H130  1  0.10709994  -0.02891246  0.49561496  1
  H+  H131  1  0.13296321  0.26939094  0.84459480  1
  H+  H132  1  0.81519475  0.19445388  0.80835696  1
  H+  H133  1  0.61000251  0.14534009  0.82773233  1
  H+  H134  1  0.14554057  0.60891967  0.18376300  1
  H+  H135  1  0.03490693  0.39386210  0.17862761  1
  H+  H136  1  0.22492874  0.62651980  0.65664174  1
  H+  H137  1  0.67611112  0.87780387  0.16565571  1
  H+  H138  1  0.87391089  0.58815472  0.98423185  1
  H+  H139  1  0.85991305  0.11880919  0.66209210  1
  H+  H140  1  0.61131756  0.38297278  0.17603788  1
  H+  H141  1  0.39076316  0.52416968  0.50176773  1
  H+  H142  1  0.34023575  0.87639121  0.12298794  1
  H+  H143  1  0.22244387  0.86947914  0.32237755  1
  H+  H144  1  0.60938471  0.38551837  0.66862075  1
  H+  H145  1  0.40221144  0.36507174  0.32670622  1
  H+  H146  1  -0.03133735  0.10826263  0.48973501  1
  H+  H147  1  0.62769522  0.86114279  0.83743118  1
  H+  H148  1  0.98200670  0.62651841  0.65574242  1
  H+  H149  1  0.61600000  0.71701986  0.49687393  1
  H+  H150  1  0.38574841  0.52328127  0.65679009  1
  H+  H151  1  0.57308123  0.40350829  0.72880640  1
  H+  H152  1  0.34857172  0.96728646  0.14205901  1
  H+  H153  1  0.28942159  0.64659185  0.16565947  1
  H+  H154  1  0.60830279  0.64417502  0.82666025  1
  H+  H155  1  0.14957315  0.32627840  0.60029557  1
  H+  H156  1  0.47398918  0.84612647  -0.01095014  1
  H+  H157  1  0.21948321  0.10529811  0.83089222  1
  H+  H158  1  0.54502330  0.22109007  0.05686106  1
  H+  H159  1  0.13495618  0.62754796  0.65543755  1
  H+  H160  1  0.86294072  0.89580138  0.83059745  1
  H+  H161  1  0.61419547  0.63465881  0.16562793  1
  H+  H162  1  0.84626933  -0.01760289  1.01901811  1
  H+  H163  1  0.88733673  0.81070535  0.99648867  1
  H+  H164  1  0.52249726  0.87662623  0.48829392  1
  H+  H165  1  0.35014761  0.62567817  0.00685062  1
  H+  H166  1  0.62890387  0.13356357  0.34549641  1
  H+  H167  1  0.11060340  0.63212944  0.00937442  1
  H+  H168  1  0.36563143  0.88190934  0.33928766  1
  H+  H169  1  0.21011902  0.36930029  0.99315495  1
  H+  H170  1  0.27024988  0.38573031  0.82326379  1
  H+  H171  1  0.86803053  0.37955829  0.01368885  1
  H+  H172  1  0.97758626  0.86118643  0.65923434  1
  H+  H173  1  0.21718036  0.60930940  0.50794171  1
  H+  H174  1  0.00814843  0.38844409  0.49073860  1
  H+  H175  1  0.27696760  0.13535409  0.49310428  1
  H+  H176  1  0.90840620  0.33322926  0.55939922  1
  H+  H177  1  0.36158655  0.22417333  0.66546118  1
  H+  H178  1  0.34697027  0.47321270  0.00419972  1
  H+  H179  1  0.76952708  0.87918292  0.65541679  1
  H+  H180  1  0.11727261  0.73850441  0.66685646  1
  H+  H181  1  0.62902943  0.72843526  0.15486600  1
  H+  H182  1  0.05165942  0.16350592  0.32691860  1
  H+  H183  1  0.60683972  0.96397041  0.01669884  1
  H+  H184  1  0.04657370  0.38760398  0.80756966  1
  H+  H185  1  0.68711439  0.47213192  0.04184275  1
  H+  H186  1  0.12898070  0.10141020  0.83896248  1
  H+  H187  1  0.21510080  0.80796484  0.86357898  1
  H+  H188  1  0.13270782  0.36942538  0.65677130  1
  H+  H189  1  0.83447257  0.67192630  0.76742969  1
  H+  H190  1  0.11419364  0.49020072  0.65932518  1
  H+  H191  1  0.81491305  0.07738443  0.32177354  1
  H+  H192  1  0.52558635  0.28133151  0.79061872  1
  H+  H193  1  0.29746173  0.37465265  0.47303049  1
  H+  H194  1  0.61260816  0.23265828  0.49676903  1
  H+  H195  1  0.62319365  0.97683134  0.34144167  1
  H+  H196  1  0.86586594  0.64206587  0.67179487  1
  H+  H197  1  0.52328888  0.38546420  0.16870961  1
  H+  H198  1  0.10748192  0.36197409  0.50863257  1
  H+  H199  1  0.38953197  0.11368137  0.65571337  1
  H+  H200  1  0.26309271  0.87392227  0.50231339  1
  H+  H201  1  0.63601952  0.25773415  0.33474011  1
  H+  H202  1  0.15938682  0.58577334  0.56798230  1
  H+  H203  1  0.48231981  0.62414077  0.32758768  1
  H+  H204  1  0.15218490  0.12275114  0.33019734  1
  H+  H205  1  0.21840421  0.61148805  1.00168313  1
  H+  H206  1  0.76102096  0.37818154  0.34357715  1
  H+  H207  1  0.62837279  0.52263788  0.19346264  1
  H+  H208  1  0.88127952  0.50461074  0.98663700  1
  H+  H209  1  0.63673578  0.52303979  0.66141570  1
  H+  H210  1  0.48664579  0.62002715  0.17057111  1
  H+  H211  1  0.48232348  0.86564764  0.64988436  1
  H+  H212  1  0.36415590  0.87854050  0.49857988  1
  H+  H213  1  1.01696663  0.13109709  0.83673717  1
  H+  H214  1  0.64547782  0.02009216  0.19230430  1
  H+  H215  1  0.87393263  0.27168512  0.49916449  1
  H+  H216  1  0.01708814  0.62509464  0.81779677  1
  H+  H217  1  0.38042704  0.10122389  0.50386356  1
  H+  H218  1  0.97530396  0.10042363  0.63631283  1
  H+  H219  1  0.38115710  0.76925986  0.50031121  1
  H+  H220  1  0.72404030  0.37024373  0.65706366  1
  H+  H221  1  0.36234515  0.97378208  0.50059169  1
  H+  H222  1  0.75653887  0.12521117  0.49342725  1
  H+  H223  1  1.00682949  0.36859206  0.34524262  1
  H+  H224  1  0.74460405  0.66505456  -0.01030580  1
  H+  H225  1  0.88233715  0.02265409  0.84691195  1
  H+  H226  1  0.86704972  0.87880858  0.65892724  1
  H+  H227  1  0.63716435  0.61216619  0.65963643  1
  H+  H228  1  0.84330857  0.12736558  0.47993853  1
  H+  H229  1  0.49953876  0.14745062  1.00806447  1
  H+  H230  1  0.51660528  0.36791742  0.33996953  1
  H+  H231  1  0.20796279  0.84604027  0.16780342  1
  H+  H232  1  0.61434030  0.23099560  0.67221610  1
  H+  H233  1  0.10706352  0.63594941  0.50006183  1
  H+  H234  1  0.33130849  0.66898993  0.72524277  1
  H+  H235  1  0.09655622  0.87866829  0.00765906  1
  H+  H236  1  0.43849936  0.35241706  0.98525539  1
  H+  H237  1  0.14229635  0.52028070  0.82023332  1
  H+  H238  1  0.62312584  0.11593196  0.50792161  1
  H+  H239  1  0.16282492  0.33655487  0.90072507  1
  H+  H240  1  0.15105408  0.37292022  0.18323226  1
  H+  H241  1  0.62025577  0.73509671  0.34787433  1
  H+  H242  1  0.20351027  0.56094883  0.34274236  1
  H+  H243  1  0.42418635  0.86496477  0.18970968  1
  H+  H244  1  0.11660626  0.88026256  0.82490522  1
  H+  H245  1  0.47135098  0.36214216  0.65772892  1
  H+  H246  1  0.23279061  0.86997529  0.65776443  1
  H+  H247  1  0.23578967  0.61926787  0.82408937  1
  H+  H248  1  0.09950252  0.47840577  0.50031266  1
  H+  H249  1  0.87010544  0.52287764  0.33032638  1
  H+  H250  1  0.39648016  0.26913382  0.50391961  1
  H+  H251  1  0.53032625  0.38709372  0.49293089  1
  H+  H252  1  0.48247751  0.12941573  0.83585312  1
  H+  H253  1  0.48562706  0.30921262  1.06398286  1
  H+  H254  1  0.40314291  0.57854188  0.93179605  1
  H+  H255  1  0.82914422  0.42253271  0.43785255  1
  H+  H256  1  0.88782407  0.37569498  0.64773399  1
  H+  H257  1  0.62245380  0.98032139  0.66543278  1
  H+  H258  1  0.88682260  0.76849576  0.33444684  1
  H+  H259  1  0.74803681  0.62466874  0.17014357  1
  H+  H260  1  0.97706399  0.35710075  1.02317887  1
  H+  H261  1  0.33344685  0.41904740  0.10070461  1
  H+  H262  1  0.38650954  0.60993750  0.32382512  1
  H+  H263  1  0.12559218  0.85318314  0.17563944  1
  H+  H264  1  0.72872057  0.36600790  0.50847339  1
  H+  H265  1  0.38760816  0.48794546  0.33360203  1
  H+  H266  1  0.33417095  0.98027094  -0.01044554  1
  H+  H267  1  0.16677808  0.38323362  0.33304852  1
  H+  H268  1  0.89768280  0.40824836  0.15940195  1
  H+  H269  1  0.88101128  0.01627092  0.48803540  1
  H+  H270  1  0.69822342  0.07540217  0.85277239  1
  H+  H271  1  0.88487459  0.61684747  0.83425931  1
  H+  H272  1  0.34920079  0.22226996  0.81928765  1
  H+  H273  1  1.00508949  0.61013397  0.34985882  1
  H+  H274  1  0.57740287  0.97116073  0.82441673  1
  H+  H275  1  0.64111290  0.25867339  0.98647551  1
  H+  H276  1  0.36828283  0.97899252  0.66663209  1
  H+  H277  1  0.72114692  0.34970231  0.18098214  1
  H+  H278  1  0.13924917  0.01692683  0.99277288  1
  H+  H279  1  0.66145022  0.58004537  1.00330651  1
  H+  H280  1  0.89604651  0.07745113  0.34773432  1
  H+  H281  1  0.87036813  0.63377884  0.50088941  1
  H+  H282  1  0.14127442  0.86779537  0.65698560  1
  H+  H283  1  0.76346320  0.13927421  1.02213538  1
  H+  H284  1  0.85924749  0.87688920  0.47968152  1
  H+  H285  1  0.85764075  0.48790072  0.82033726  1
  H+  H286  1  0.01356232  0.15111919  0.01576011  1
  H+  H287  1  1.02853129  0.63016496  0.16553946  1
  H+  H288  1  0.16276729  0.82832219  0.26407422  1
  H+  H289  1  0.18935028  0.35017164  0.27088053  1
  H+  H290  1  0.91256753  0.08091254  0.23870245  1
  H+  H291  1  0.58890874  0.90755676  0.39505437  1
  H+  H292  1  0.07954143  0.18541637  0.07162429  1
  H+  H293  1  0.19832799  0.60556175  0.24256492  1
  H+  H294  1  0.66088903  0.32048169  0.27515616  1
  H+  H295  1  0.67891269  0.33416060  0.90493121  1
  H+  H296  1  0.90522926  0.08353245  0.94400603  1
  H+  H297  1  0.30394754  0.91878621  0.04663503  1
  H+  H298  1  0.92070365  0.59433101  0.59703669  1
  H+  H299  1  0.76585336  0.13283124  0.38686994  1
  H+  H300  1  0.66222929  0.83571009  0.93439450  1
  H+  H301  1  0.39516992  0.32427892  0.89233362  1
  H+  H302  1  0.41422357  0.07577817  0.56408390  1
  H+  H303  1  0.42637484  0.58834386  0.22949410  1
  H+  H304  1  0.76317978  0.58630904  0.11243676  1
  H+  H305  1  0.66845849  0.09190824  0.60690703  1
  H+  H306  1  0.52228096  0.14190194  0.49283846  1
  H+  H307  1  0.41736614  0.32968792  0.23102518  1
  H+  H308  1  0.58363060  0.40536134  0.40315160  1
  H+  H309  1  0.33438013  0.66562833  0.06749520  1
  H+  H310  1  0.82828395  0.42809205  0.72191796  1
  H+  H311  1  0.07634296  -0.07857339  0.25739098  1
  H+  H312  1  0.91283708  0.57790098  0.89079459  1
  H+  H313  1  0.41474533  0.09972798  0.92965136  1
  H+  H314  1  0.58141892  0.66875833  0.40398386  1
  H+  H315  1  0.07975695  0.16458562  0.77788877  1
  H+  H316  1  0.61077736  0.36175572  0.34324347  1
  H+  H317  1  0.83384364  0.67082167  0.40334084  1
  H+  H318  1  0.33965754  0.16465876  0.43494476  1
  H+  H319  1  0.63482562  0.25857031  0.18243655  1
  H+  H320  1  0.12536324  0.48278728  0.17800385  1
  H+  H321  1  0.07908368  0.91651068  0.10990369  1
  H+  H322  1  0.88671865  0.52842335  0.50402340  1
  H+  H323  1  0.42397164  0.81991131  0.27710200  1
  H+  H324  1  0.28172486  0.91280534  0.81848720  1
  H+  H325  1  0.18903381  0.21642132  0.71885683  1
  H+  H326  1  0.92128979  0.31345473  0.96405079  1
  H+  H327  1  0.69074583  0.18899225  0.96476461  1
  H+  H328  1  0.36233842  0.42542876  0.42081462  1
  H+  H329  1  0.10827074  0.43732917  0.41018241  1
  H+  H330  1  0.67321506  0.83007512  0.59310230  1
  H+  H331  1  0.95649958  0.50191277  0.13279331  1
  H+  H332  1  1.02839249  0.33309940  0.90544970  1
  H+  H333  1  0.59904201  0.91696857  0.11205119  1
  H+  H334  1  0.85677528  0.17013366  0.71979673  1
  H+  H335  1  0.90580497  0.58825574  0.27354199  1
  H+  H336  1  0.81005094  0.89430497  0.42447763  1
  H+  H337  1  0.34058399  0.92051341  0.72615630  1
  H+  H338  1  0.38990987  0.36418189  0.17220739  1
  H+  H339  1  0.38427318  0.75801929  0.98980280  1
  H+  H340  1  0.89455130  0.82650544  0.27062736  1
  H+  H341  1  0.57869138  0.66812271  0.76459576  1
  H+  H342  1  0.59434933  0.16792463  0.40202549  1
  H+  H343  1  0.17941686  0.09576666  0.23313699  1
  H+  H344  1  0.66204265  0.33383575  0.59974651  1
  H+  H345  1  0.66736931  0.07768057  0.25447660  1
  H+  H346  1  0.91539490  0.82811177  0.56275370  1
  H+  H347  1  0.38614323  0.61245232  0.65568296  1
  H+  H348  1  0.41493927  0.58104319  0.56253292  1
  H+  H349  1  0.90836002  0.33399867  0.23962575  1
  H+  H350  1  0.51144251  0.94353091  0.77172869  1
  H+  H351  1  0.91773353  0.85850908  0.93256586  1
  H+  H352  1  0.88968196  0.53696034  0.18101353  1
  H+  H353  1  0.11393013  -0.02950409  0.67067762  1
  H+  H354  1  0.35533013  0.26017823  0.98683465  1
  H+  H355  1  0.58525661  0.14972957  0.11865811  1
  H+  H356  1  0.61233343  0.87919083  0.01195193  1
  H+  H357  1  0.12026062  0.76391563  0.99534745  1
  H+  H358  1  0.39849750  0.81890356  0.90242162  1
  H+  H359  1  0.64287096  0.07733871  0.90661603  1
  H+  H360  1  0.08506746  0.91026198  0.73044368  1
  H+  H361  1  0.82215495  0.16220187  0.11991036  1
  H+  H362  1  0.16639791  0.08299285  0.56197680  1
  H+  H363  1  0.05462742  0.56089773  0.36398969  1
  H+  H364  1  0.06849747  0.63093996  0.10115258  1
  H+  H365  1  0.58843092  0.91265738  0.71936259  1
  H+  H366  1  0.91355752  0.07236431  0.57765110  1
  H+  H367  1  0.63577957  0.47350389  0.09920055  1
  H+  H368  1  0.35349255  0.71568769  0.33978655  1
  H+  H369  1  0.67218041  0.58177835  0.56761355  1
  H+  H370  1  0.65946262  0.58846281  0.25034469  1
  H+  H371  1  0.77111076  0.13755396  0.18310769  1
  H+  H372  1  0.16804711  0.06977629  0.92994771  1
  H+  H373  1  0.17285625  0.83194702  0.56553048  1
  H+  H374  1  0.09193139  0.42875468  0.71648815  1
  H+  H375  1  0.14722497  0.81198149  0.90579776  1
  H+  H376  1  0.32243102  0.65914343  0.43430054  1
  H+  H377  1  0.08506227  0.67650767  0.72630221  1
  H+  H378  1  0.08587763  0.41906972  0.08301840  1
  H+  H379  1  0.79425850  0.89642499  0.10706685  1
  H+  H380  1  0.41609852  0.82977213  0.56008472  1
  H+  H381  1  0.32390319  0.16838591  0.05993431  1
  H+  H382  1  0.82746369  0.69822927  0.07891740  1
  H+  H383  1  0.67642963  0.61139170  0.90413824  1
  O2-  O384  1  0.09289565  0.17527889  0.15216369  1
  O2-  O385  1  0.07817321  0.16721021  0.47476259  1
  O2-  O386  1  0.07877016  0.16306130  0.82281758  1
  O2-  O387  1  0.09378423  0.42287821  0.16161920  1
  O2-  O388  1  0.07183299  0.41920084  0.48170938  1
  O2-  O389  1  0.10692771  0.42254978  0.79568725  1
  O2-  O390  1  0.05531149  0.60296474  0.14227297  1
  O2-  O391  1  0.07900710  0.66801059  0.48343092  1
  O2-  O392  1  0.07855909  0.65559084  0.80434908  1
  O2-  O393  1  0.08559743  0.92012920  0.15480218  1
  O2-  O394  1  0.07423615  0.90911792  0.48476298  1
  O2-  O395  1  0.08643814  0.90839299  0.80773583  1
  O2-  O396  1  0.33289196  0.16523782  0.13755115  1
  O2-  O397  1  0.33874004  0.16241443  0.48094291  1
  O2-  O398  1  0.32422028  0.16282319  0.80238801  1
  O2-  O399  1  0.34119078  0.42033879  0.14582048  1
  O2-  O400  1  0.35724639  0.41872293  0.46724804  1
  O2-  O401  1  0.32992450  0.41733110  0.80694519  1
  O2-  O402  1  0.34886054  0.67668799  0.14855222  1
  O2-  O403  1  0.32690944  0.66449400  0.47942201  1
  O2-  O404  1  0.32147534  0.66378077  0.80884803  1
  O2-  O405  1  0.30917719  0.90766372  0.12396071  1
  O2-  O406  1  0.33038816  0.90950834  0.48694955  1
  O2-  O407  1  0.34076129  0.92942704  0.80746450  1
  O2-  O408  1  0.58622467  0.15574728  0.16293580  1
  O2-  O409  1  0.58385349  0.17178969  0.48112025  1
  O2-  O410  1  0.58567057  0.18020724  0.81246751  1
  O2-  O411  1  0.58746226  0.41944800  0.16283371  1
  O2-  O412  1  0.58992478  0.41822127  0.47491227  1
  O2-  O413  1  0.54769414  0.33992500  0.80549583  1
  O2-  O414  1  0.58867287  0.66710761  0.14585805  1
  O2-  O415  1  0.58631142  0.65612039  0.48228732  1
  O2-  O416  1  0.57513982  0.67036556  0.80987779  1
  O2-  O417  1  0.60906694  0.91948902  0.15684928  1
  O2-  O418  1  0.58316189  0.90086272  0.47437381  1
  O2-  O419  1  0.54176161  0.92195871  0.79649837  1
  O2-  O420  1  0.82985182  0.17171226  0.16461038  1
  O2-  O421  1  0.80960835  0.15572868  0.46973823  1
  O2-  O422  1  0.87193358  0.20012673  0.80631540  1
  O2-  O423  1  0.89515843  0.45499558  0.13646913  1
  O2-  O424  1  0.83273961  0.42528709  0.48311861  1
  O2-  O425  1  0.81806899  0.42580334  0.80557045  1
  O2-  O426  1  0.79678466  0.63484821  0.14119004  1
  O2-  O427  1  0.83712228  0.66735473  0.48888070  1
  O2-  O428  1  0.83688122  0.67149496  0.81291083  1
  O2-  O429  1  0.79187611  0.89234082  0.15277626  1
  O2-  O430  1  0.82648853  0.90572617  0.46839223  1
  O2-  O431  1  0.83460036  0.92876453  0.81849716  1
  O2-  O432  1  0.17573265  0.09193660  0.18803928  1
  O2-  O433  1  0.16807842  0.08415944  0.51662530  1
  O2-  O434  1  0.16028010  0.06981637  0.84749634  1
  O2-  O435  1  0.18247145  0.34342395  0.19759365  1
  O2-  O436  1  0.13944190  0.33108636  0.52258267  1
  O2-  O437  1  0.16374377  0.33240321  0.85484144  1
  O2-  O438  1  0.18747837  0.59222786  0.19870655  1
  O2-  O439  1  0.15652607  0.58081196  0.52220418  1
  O2-  O440  1  0.16747951  0.58148681  0.83546871  1
  O2-  O441  1  0.15166027  0.81788862  0.18833622  1
  O2-  O442  1  0.17782819  0.83206845  0.51969166  1
  O2-  O443  1  0.16183850  0.80971982  0.86011218  1
  O2-  O444  1  0.40013063  0.06058418  0.16850222  1
  O2-  O445  1  0.41029001  0.06940861  0.51849899  1
  O2-  O446  1  0.42091438  0.09872696  0.84997700  1
  O2-  O447  1  0.41868725  0.33148721  0.18588866  1
  O2-  O448  1  0.42921014  0.33036214  0.51840032  1
  O2-  O449  1  0.40326998  0.32563188  0.84696721  1
  O2-  O450  1  0.42491995  0.58784288  0.18417176  1
  O2-  O451  1  0.41656482  0.58393093  0.51698438  1
  O2-  O452  1  0.40537572  0.58571809  0.84717172  1
  O2-  O453  1  0.44440580  0.82576796  0.20111372  1
  O2-  O454  1  0.41341829  0.83116504  0.51432988  1
  O2-  O455  1  0.38717739  0.82038104  0.85590441  1
  O2-  O456  1  0.66765244  0.07964253  0.20795561  1
  O2-  O457  1  0.63724457  0.07202000  0.52610412  1
  O2-  O458  1  0.64070082  0.06472823  0.86210385  1
  O2-  O459  1  0.66249270  0.32049776  0.19655236  1
  O2-  O460  1  0.66720720  0.33391471  0.52218156  1
  O2-  O461  1  0.68015160  0.37385903  0.87043011  1
  O2-  O462  1  0.65798382  0.58484679  0.20355386  1
  O2-  O463  1  0.67774759  0.58451735  0.52190853  1
  O2-  O464  1  0.67223012  0.60363729  0.85779517  1
  O2-  O465  1  0.70083915  0.83864879  0.16819105  1
  O2-  O466  1  0.66885464  0.82266442  0.51949225  1
  O2-  O467  1  0.65818605  0.83304474  0.85290776  1
  O2-  O468  1  0.93370704  0.10355888  0.19785013  1
  O2-  O469  1  0.90760055  0.07606302  0.50427711  1
  O2-  O470  1  0.91537521  0.08428371  0.86335424  1
  O2-  O471  1  0.91636023  0.33415450  0.19585399  1
  O2-  O472  1  0.90643301  0.33231185  0.51275995  1
  O2-  O473  1  0.97967729  0.33622534  0.88794612  1
  O2-  O474  1  0.90692572  0.59389530  0.19896372  1
  O2-  O475  1  0.91600280  0.59060787  0.51748081  1
  O2-  O476  1  0.91270628  0.58153368  0.84539493  1
  O2-  O477  1  0.87919487  0.82631592  0.20739275  1
  O2-  O478  1  0.91468808  0.82253986  0.51747005  1
  O2-  O479  1  0.92015849  0.84147565  0.85442089  1
  O2-  O480  1  0.18198465  0.09276876  0.31473917  1
  O2-  O481  1  0.16782079  0.07415759  0.64138686  1
  O2-  O482  1  0.17226507  0.07553284  0.97466527  1
  O2-  O483  1  0.19308149  0.34990537  0.31709202  1
  O2-  O484  1  0.15937346  0.33382107  0.64504240  1
  O2-  O485  1  0.15004132  0.34136594  0.97639961  1
  O2-  O486  1  0.23600431  0.61942164  0.32462193  1
  O2-  O487  1  0.16445225  0.59556515  0.64140668  1
  O2-  O488  1  0.15720216  0.58250216  0.98792998  1
  O2-  O489  1  0.16205099  0.83996872  0.30888669  1
  O2-  O490  1  0.17313831  0.83920451  0.64068551  1
  O2-  O491  1  0.14014310  0.82009654  0.97419260  1
  O2-  O492  1  0.42467350  0.09148933  0.32540627  1
  O2-  O493  1  0.41974826  0.08284428  0.64110695  1
  O2-  O494  1  0.41066215  0.09632688  0.97483646  1
  O2-  O495  1  0.42927262  0.33076648  0.31297741  1
  O2-  O496  1  0.41093560  0.33082130  0.64234898  1
  O2-  O497  1  0.38085727  0.32076860  0.96799297  1
  O2-  O498  1  0.42362420  0.58722953  0.30933906  1
  O2-  O499  1  0.41796579  0.58364115  0.64123066  1
  O2-  O500  1  0.39794961  0.57311583  0.97655531  1
  O2-  O501  1  0.41802341  0.82127017  0.32220124  1
  O2-  O502  1  0.42110139  0.83483652  0.63661566  1
  O2-  O503  1  0.41824281  0.81413777  0.96812337  1
  O2-  O504  1  0.66880293  0.07980383  0.32852725  1
  O2-  O505  1  0.66691100  0.08609117  0.65168552  1
  O2-  O506  1  0.66975439  0.12785343  0.97619313  1
  O2-  O507  1  0.66119640  0.32130757  0.32059758  1
  O2-  O508  1  0.66179990  0.33537177  0.64532050  1
  O2-  O509  1  0.69414390  0.28882551  0.96047704  1
  O2-  O510  1  0.66111377  0.58849103  0.32014028  1
  O2-  O511  1  0.66886751  0.58288535  0.64504087  1
  O2-  O512  1  0.68573970  0.62827301  0.97450600  1
  O2-  O513  1  0.68600347  0.83801263  0.32404690  1
  O2-  O514  1  0.67754576  0.83414960  0.63912790  1
  O2-  O515  1  0.66069754  0.83520721  0.97948482  1
  O2-  O516  1  0.85253538  0.05072256  0.31621931  1
  O2-  O517  1  0.91517332  0.06814577  0.62393060  1
  O2-  O518  1  0.90449569  0.08260380  0.98931763  1
  O2-  O519  1  1.04506947  0.42972253  0.33595892  1
  O2-  O520  1  0.91697108  0.34614553  0.63056061  1
  O2-  O521  1  0.91498959  0.32195383  1.00747019  1
  O2-  O522  1  0.90412077  0.58467371  0.31943293  1
  O2-  O523  1  0.92025281  0.59512345  0.64230917  1
  O2-  O524  1  0.90882711  0.56463660  0.96903977  1
  O2-  O525  1  0.91465174  0.82931947  0.31674202  1
  O2-  O526  1  0.91715539  0.83223016  0.64272050  1
  O2-  O527  1  0.91907243  0.86825557  0.97742068  1
  O2-  O528  1  0.07317316  0.19346841  0.02763040  1
  O2-  O529  1  0.10393362  0.18685222  0.35122978  1
  O2-  O530  1  0.13098804  0.19050995  0.70214224  1
  O2-  O531  1  0.07479342  0.41534841  0.03818997  1
  O2-  O532  1  0.12621524  0.44628233  0.36576154  1
  O2-  O533  1  0.08601373  0.42823922  0.67180036  1
  O2-  O534  1  0.07728335  0.66082209  0.02529171  1
  O2-  O535  1  0.05728708  0.61592759  0.36998266  1
  O2-  O536  1  0.08381715  0.67714180  0.68099721  1
  O2-  O537  1  0.07800715  0.91737857  0.02611098  1
  O2-  O538  1  0.07708633  0.91780636  0.30192779  1
  O2-  O539  1  0.08206372  0.90935441  0.68472781  1
  O2-  O540  1  0.32346533  0.16978995  0.01432066  1
  O2-  O541  1  0.34607290  0.17292624  0.35930385  1
  O2-  O542  1  0.33320657  0.16285022  0.67941033  1
  O2-  O543  1  0.31284739  0.41351314  0.02167454  1
  O2-  O544  1  0.36026093  0.42691110  0.34927545  1
  O2-  O545  1  0.32847197  0.41644749  0.68215271  1
  O2-  O546  1  0.32486179  0.66054621  0.02280109  1
  O2-  O547  1  0.32184652  0.65290926  0.35270489  1
  O2-  O548  1  0.33061487  0.66735211  0.68016483  1
  O2-  O549  1  0.29983655  0.91931616  0.00149917  1
  O2-  O550  1  0.33668095  0.91447976  0.35169004  1
  O2-  O551  1  0.33935927  0.91768556  0.68096954  1
  O2-  O552  1  0.55690576  0.18428100  0.03076018  1
  O2-  O553  1  0.59729648  0.16718617  0.35695610  1
  O2-  O554  1  0.58309480  0.17091630  0.68870599  1
  O2-  O555  1  0.67770985  0.51116624  0.06707840  1
  O2-  O556  1  0.57917301  0.39404348  0.35735185  1
  O2-  O557  1  0.57808646  0.41495981  0.68475450  1
  O2-  O558  1  0.54321146  0.67612150  0.02670689  1
  O2-  O559  1  0.58044953  0.67349265  0.35886052  1
  O2-  O560  1  0.58352983  0.66479619  0.68474003  1
  O2-  O561  1  0.58020092  0.90568290  0.03243630  1
  O2-  O562  1  0.59231898  0.91238242  0.35009801  1
  O2-  O563  1  0.59319129  0.91667274  0.67468175  1
  O2-  O564  1  0.81982817  0.15762505  0.04097466  1
  O2-  O565  1  0.76238790  0.12811668  0.34184790  1
  O2-  O566  1  0.82587137  0.14027417  0.68292047  1
  O2-  O567  1  0.83417430  0.40962384  0.02132028  1
  O2-  O568  1  0.82185573  0.41620965  0.35884978  1
  O2-  O569  1  0.82957423  0.42755431  0.67710561  1
  O2-  O570  1  0.84582431  0.71532223  0.03557805  1
  O2-  O571  1  0.83410185  0.67356385  0.35868953  1
  O2-  O572  1  0.83498044  0.67160027  0.68786952  1
  O2-  O573  1  0.81683129  0.91994935  0.03054089  1
  O2-  O574  1  0.77278538  0.88478755  0.35088958  1
  O2-  O575  1  0.83497555  0.91208499  0.66783981  1
