# generated using pymatgen
data_H2O
_symmetry_space_group_name_H-M   'P 1'
_cell_length_a   17.98484224
_cell_length_b   17.98677175
_cell_length_c   22.00238551
_cell_angle_alpha   90.01637711
_cell_angle_beta   89.98770619
_cell_angle_gamma   119.99610893
_symmetry_Int_Tables_number   1
_chemical_formula_structural   H2O
_chemical_formula_sum   'H384 O192'
_cell_volume   6164.20772274
_cell_formula_units_Z   192
loop_
 _symmetry_equiv_pos_site_id
 _symmetry_equiv_pos_as_xyz
  1  'x, y, z'
loop_
 _atom_type_symbol
 _atom_type_oxidation_number
  H+  1.0
  O2-  -2.0
loop_
 _atom_site_type_symbol
 _atom_site_label
 _atom_site_symmetry_multiplicity
 _atom_site_fract_x
 _atom_site_fract_y
 _atom_site_fract_z
 _atom_site_occupancy
  H+  H0  1  0.10903238  0.35998231  0.64604029  1
  H+  H1  1  0.74397567  0.35987719  0.50006227  1
  H+  H2  1  0.70372262  0.37485338  0.18390564  1
  H+  H3  1  0.36761923  0.97372883  0.49542555  1
  H+  H4  1  0.87578370  0.78821455  0.15698254  1
  H+  H5  1  0.44374320  0.83739526  0.41605799  1
  H+  H6  1  0.37856735  0.66481387  0.68594216  1
  H+  H7  1  0.62677858  0.16124119  0.65105616  1
  H+  H8  1  0.83305417  0.41050480  0.16950589  1
  H+  H9  1  0.85020321  0.96343520  0.34860801  1
  H+  H10  1  0.47861333  0.37114064  0.36393967  1
  H+  H11  1  0.93512942  0.33947941  0.87170300  1
  H+  H12  1  0.33502735  0.20389076  0.50558593  1
  H+  H13  1  0.51841268  0.13458003  0.34467473  1
  H+  H14  1  0.12077602  0.36273844  0.17965692  1
  H+  H15  1  0.53017840  0.37795595  0.82802673  1
  H+  H16  1  0.11866971  -0.02724737  1.00046343  1
  H+  H17  1  0.87847504  0.77303616  0.33444624  1
  H+  H18  1  0.38444845  0.52522835  0.32993626  1
  H+  H19  1  0.97304840  0.62526777  0.16831419  1
  H+  H20  1  0.97015848  0.60338105  0.98501832  1
  H+  H21  1  0.47841443  0.61051764  0.33045437  1
  H+  H22  1  0.40394858  0.03694378  0.85423823  1
  H+  H23  1  0.61143160  0.63700654  0.34343385  1
  H+  H24  1  0.38494551  0.52854867  -0.00308458  1
  H+  H25  1  0.87349821  0.64180099  0.48996924  1
  H+  H26  1  0.71703277  0.60874574  0.83931051  1
  H+  H27  1  0.16272999  0.06705659  0.57343083  1
  H+  H28  1  0.85524010  0.13100182  0.67749181  1
  H+  H29  1  0.35022082  0.38848291  0.34853991  1
  H+  H30  1  0.87949237  0.11353556  0.84503517  1
  H+  H31  1  0.38116110  0.77968981  0.70283070  1
  H+  H32  1  0.10401731  0.97888237  0.15364358  1
  H+  H33  1  0.59310189  0.11320482  1.00317553  1
  H+  H34  1  0.07831626  0.72468673  0.83930739  1
  H+  H35  1  0.71750243  0.08062902  0.17406981  1
  H+  H36  1  1.02414307  0.88210035  0.50019878  1
  H+  H37  1  0.10929360  0.89200035  0.33868100  1
  H+  H38  1  0.96610668  0.09982647  0.33218171  1
  H+  H39  1  0.11822698  0.72875084  0.49905600  1
  H+  H40  1  0.62742562  0.76241888  0.67303812  1
  H+  H41  1  0.38879440  0.77995687  0.32747695  1
  H+  H42  1  0.40457671  0.78436727  0.84122375  1
  H+  H43  1  0.39431434  1.04923895  0.17251315  1
  H+  H44  1  0.61614222  0.11302110  0.14938218  1
  H+  H45  1  0.62574393  0.10650485  0.32398339  1
  H+  H46  1  0.47234746  0.86765556  0.69677916  1
  H+  H47  1  0.14913103  0.11324750  -0.00798131  1
  H+  H48  1  0.22393192  0.60296837  0.48589963  1
  H+  H49  1  0.85071931  0.97367709  0.68181755  1
  H+  H50  1  0.61786806  0.26581812  0.32566490  1
  H+  H51  1  0.36441532  0.46265684  0.49678412  1
  H+  H52  1  0.08989219  0.36586921  0.34239618  1
  H+  H53  1  0.68888405  0.39249095  1.03883829  1
  H+  H54  1  0.88230125  0.72862361  0.66979085  1
  H+  H55  1  0.47143460  0.40209784  0.53436384  1
  H+  H56  1  0.26833759  0.13759262  0.34204978  1
  H+  H57  1  0.10578611  0.08421877  0.84054282  1
  H+  H58  1  0.12584757  0.11265537  0.17085388  1
  H+  H59  1  0.33193786  0.93415313  0.09847257  1
  H+  H60  1  0.21996858  0.60964037  -0.00039807  1
  H+  H61  1  0.38626463  0.10466418  0.50934892  1
  H+  H62  1  0.61416332  0.47164262  0.82972772  1
  H+  H63  1  0.86756530  0.65946268  0.15128996  1
  H+  H64  1  0.61733109  0.47167957  0.67421602  1
  H+  H65  1  0.61188419  0.88532374  0.67897717  1
  H+  H66  1  0.35063999  0.46540116  0.16138741  1
  H+  H67  1  0.25804338  0.13727777  0.82196391  1
  H+  H68  1  0.41934708  0.57300313  0.23422562  1
  H+  H69  1  0.61424223  0.63277124  0.16321257  1
  H+  H70  1  0.89692808  0.86121367  0.51735290  1
  H+  H71  1  0.71955553  1.11732070  0.51669725  1
  H+  H72  1  0.08223783  0.16835369  0.72033431  1
  H+  H73  1  0.61057215  0.72541389  0.34395629  1
  H+  H74  1  0.16233127  0.64755968  0.33380749  1
  H+  H75  1  0.63746734  0.86307197  0.32853046  1
  H+  H76  1  0.60920426  0.13331690  0.49727958  1
  H+  H77  1  0.96591479  0.86359096  0.33582138  1
  H+  H78  1  0.01351749  0.89246816  0.14902723  1
  H+  H79  1  0.55482714  0.37900869  1.00069107  1
  H+  H80  1  0.60563730  0.35948369  0.17762600  1
  H+  H81  1  0.21141178  0.11116680  0.15780783  1
  H+  H82  1  0.62449389  0.29342646  0.65286389  1
  H+  H83  1  0.12164999  0.73899701  0.33782535  1
  H+  H84  1  0.86918731  0.09990684  0.51231339  1
  H+  H85  1  0.37151332  0.71084805  0.16454944  1
  H+  H86  1  0.13859594  0.34734021  0.82460556  1
  H+  H87  1  0.61868767  0.97928933  0.67420536  1
  H+  H88  1  0.29732605  0.65887215  0.34501679  1
  H+  H89  1  0.10221843  0.37300084  0.50005831  1
  H+  H90  1  0.77515541  0.14713296  0.82985896  1
  H+  H91  1  0.22289791  0.09169436  0.51006051  1
  H+  H92  1  0.69220763  0.96945434  0.46356084  1
  H+  H93  1  0.88600259  0.88966369  1.00618724  1
  H+  H94  1  0.41281789  0.55757222  0.60776315  1
  H+  H95  1  0.95865643  0.61058284  0.83394810  1
  H+  H96  1  0.87259883  0.39795042  0.81067390  1
  H+  H97  1  0.82798530  0.92149816  0.77099096  1
  H+  H98  1  0.45304210  0.35517320  0.11882304  1
  H+  H99  1  0.14616020  0.53892771  0.65598981  1
  H+  H100  1  0.85892249  0.17609455  0.16297624  1
  H+  H101  1  0.36070291  0.63664288  1.00582469  1
  H+  H102  1  0.38290088  0.60886847  0.84149634  1
  H+  H103  1  0.26347399  0.25721895  0.57908447  1
  H+  H104  1  0.87771691  0.73370871  0.49402398  1
  H+  H105  1  0.61239313  0.72090250  0.50140506  1
  H+  H106  1  0.32734104  0.38165622  0.00438512  1
  H+  H107  1  0.36002583  0.13596772  0.67776341  1
  H+  H108  1  0.35698802  0.22626193  0.35636084  1
  H+  H109  1  0.40535792  0.34792654  0.41231030  1
  H+  H110  1  0.53526503  0.89641268  0.82759768  1
  H+  H111  1  0.47833141  0.59735504  0.51154762  1
  H+  H112  1  0.86802602  0.91374930  0.07169288  1
  H+  H113  1  0.63736498  0.99779583  0.50248303  1
  H+  H114  1  0.87267061  0.38620298  0.49258658  1
  H+  H115  1  0.10661237  0.13137097  0.33801357  1
  H+  H116  1  0.61602231  0.22448778  0.49092214  1
  H+  H117  1  0.85671490  0.37457277  -0.05135634  1
  H+  H118  1  0.29289037  0.66365557  0.83598065  1
  H+  H119  1  0.11114737  0.96704781  0.82206025  1
  H+  H120  1  0.10613046  0.72037145  0.00411516  1
  H+  H121  1  0.98543821  0.76880830  0.61870913  1
  H+  H122  1  0.37098522  0.46855878  0.82602636  1
  H+  H123  1  0.22036542  0.87094937  0.32292435  1
  H+  H124  1  0.53569924  0.12663481  0.15837471  1
  H+  H125  1  0.88124041  0.77605583  0.83632025  1
  H+  H126  1  0.65104244  0.50128887  0.49639369  1
  H+  H127  1  0.11678143  0.88254055  0.50159465  1
  H+  H128  1  0.96849245  0.35021387  0.51054497  1
  H+  H129  1  0.96815715  0.10922527  0.66057318  1
  H+  H130  1  0.49313275  0.12813638  0.85895215  1
  H+  H131  1  0.71038814  0.09827077  0.32614269  1
  H+  H132  1  -0.02542226  0.34921367  0.64942874  1
  H+  H133  1  0.36382604  0.35461254  0.11912924  1
  H+  H134  1  0.02028711  0.41058706  0.17374996  1
  H+  H135  1  0.12701020  0.86858480  0.16685697  1
  H+  H136  1  0.89467489  0.21578992  0.91080173  1
  H+  H137  1  0.72656985  0.85139088  0.51922430  1
  H+  H138  1  0.85499496  -0.03437467  0.50281174  1
  H+  H139  1  0.82823684  0.67447461  0.76668810  1
  H+  H140  1  0.33468104  0.36334641  0.50800997  1
  H+  H141  1  0.72660014  0.85864756  0.32865415  1
  H+  H142  1  0.97450587  0.09003345  0.17821998  1
  H+  H143  1  0.21467725  0.47227811  0.68638091  1
  H+  H144  1  0.84772195  0.49681836  0.64519014  1
  H+  H145  1  0.02490701  0.86702265  0.66534804  1
  H+  H146  1  0.13540349  0.45103093  0.78083568  1
  H+  H147  1  0.77927343  0.38952882  0.81446452  1
  H+  H148  1  0.62053109  0.85033742  0.98590952  1
  H+  H149  1  0.85091015  0.62935990  0.67523247  1
  H+  H150  1  0.64412547  0.03067803  0.83992442  1
  H+  H151  1  0.46046683  0.36088645  0.51776252  1
  H+  H152  1  0.21139300  0.34163063  0.65168985  1
  H+  H153  1  0.14313502  0.87106968  0.83141127  1
  H+  H154  1  0.11723541  0.64003037  0.48306415  1
  H+  H155  1  0.60294247  0.43102421  0.40523309  1
  H+  H156  1  0.35567053  0.22405764  0.82724335  1
  H+  H157  1  0.47774574  0.11058721  0.51093979  1
  H+  H158  1  0.17387392  0.56594317  0.34185099  1
  H+  H159  1  0.14809885  0.78272348  0.66707985  1
  H+  H160  1  0.72678449  0.61109159  0.98908851  1
  H+  H161  1  0.14564393  0.87114098  0.66641047  1
  H+  H162  1  0.88226004  0.26422279  0.66156059  1
  H+  H163  1  0.38038469  0.76933484  0.99271865  1
  H+  H164  1  0.82149026  0.12643094  0.10073679  1
  H+  H165  1  0.07734456  0.46670566  0.01973096  1
  H+  H166  1  0.18644536  0.81377427  0.81642645  1
  H+  H167  1  0.38929059  0.60027019  0.17382553  1
  H+  H168  1  0.34875716  0.66087586  0.43780474  1
  H+  H169  1  0.36606317  0.23286171  0.68614455  1
  H+  H170  1  0.10500426  0.65316880  0.83850481  1
  H+  H171  1  0.50440468  0.12590255  1.00836488  1
  H+  H172  1  0.62528615  0.75684171  0.18265340  1
  H+  H173  1  0.98308962  0.85472970  0.98679515  1
  H+  H174  1  0.87252529  0.52055939  0.82994903  1
  H+  H175  1  0.40532038  0.87469123  0.84276716  1
  H+  H176  1  0.61567883  0.63086663  0.67932595  1
  H+  H177  1  0.73537046  0.62160695  0.66614526  1
  H+  H178  1  0.61263594  0.62977582  0.00360237  1
  H+  H179  1  0.17059243  0.37356563  0.91852052  1
  H+  H180  1  0.62955777  0.47863893  0.00379187  1
  H+  H181  1  0.13609659  0.85806392  -0.00844496  1
  H+  H182  1  0.11497342  0.22755041  0.65704721  1
  H+  H183  1  0.09329449  0.39083433  0.01712160  1
  H+  H184  1  0.12372269  0.65186939  0.67741314  1
  H+  H185  1  0.51058700  0.87464784  0.00822237  1
  H+  H186  1  0.14980094  0.56566216  0.84441632  1
  H+  H187  1  0.34011502  0.22043892  0.10836961  1
  H+  H188  1  0.33761524  0.13862858  0.13753850  1
  H+  H189  1  0.21198874  0.35302206  0.50151445  1
  H+  H190  1  0.28706095  0.37996336  0.81895854  1
  H+  H191  1  0.06043802  0.15296123  0.43663730  1
  H+  H192  1  0.89863596  0.01751176  1.00198010  1
  H+  H193  1  0.38163142  0.11364649  0.33407913  1
  H+  H194  1  0.42044984  0.32208308  1.01653772  1
  H+  H195  1  0.27893428  0.90016207  0.68586198  1
  H+  H196  1  0.10093845  0.21719610  0.34005280  1
  H+  H197  1  0.37746816  0.03210628  0.67148639  1
  H+  H198  1  0.36799963  0.92913529  0.16396501  1
  H+  H199  1  0.72335478  0.61609382  0.33378503  1
  H+  H200  1  0.10916772  0.21467184  0.00471781  1
  H+  H201  1  0.73901286  0.61758692  0.16504878  1
  H+  H202  1  0.87889309  0.52294088  0.32054760  1
  H+  H203  1  0.97357903  0.86127767  0.83376174  1
  H+  H204  1  0.87891746  0.32353394  0.15591836  1
  H+  H205  1  0.12972851  0.11171072  0.65624052  1
  H+  H206  1  0.13059889  0.61046648  0.99895587  1
  H+  H207  1  0.23442221  0.62494514  0.67111832  1
  H+  H208  1  0.39217277  0.35630202  0.84147580  1
  H+  H209  1  0.78989009  0.52672965  0.61077323  1
  H+  H210  1  0.85351234  0.21879618  0.49631433  1
  H+  H211  1  0.85951729  0.89097470  0.83036474  1
  H+  H212  1  0.13571264  0.02508783  0.32614013  1
  H+  H213  1  0.66023204  0.08203068  0.57853951  1
  H+  H214  1  0.61703653  0.14308270  0.84065913  1
  H+  H215  1  0.86021108  0.63014497  0.99941949  1
  H+  H216  1  0.95916907  0.31925355  0.31485423  1
  H+  H217  1  0.86577512  0.38414028  0.66194786  1
  H+  H218  1  0.60686521  0.96728463  0.33636975  1
  H+  H219  1  0.36311735  0.52759868  0.67176367  1
  H+  H220  1  0.20763198  0.35878074  0.17515507  1
  H+  H221  1  0.21997246  0.87879323  0.16851737  1
  H+  H222  1  0.74605068  0.62883658  0.50813307  1
  H+  H223  1  0.84464556  0.63020021  0.33817368  1
  H+  H224  1  0.08387925  0.91591602  0.06081099  1
  H+  H225  1  0.88535811  0.94303607  0.17158452  1
  H+  H226  1  0.64311278  0.85991423  0.51966823  1
  H+  H227  1  0.89580809  0.28501331  0.81474016  1
  H+  H228  1  0.51167233  0.86671328  0.16450788  1
  H+  H229  1  0.73793600  0.88072292  0.84006225  1
  H+  H230  1  0.84293974  0.18768644  0.00815104  1
  H+  H231  1  0.62300911  0.59942650  0.84303147  1
  H+  H232  1  0.65170234  0.62104319  0.50829419  1
  H+  H233  1  0.35651333  0.81372725  0.17432693  1
  H+  H234  1  0.09039663  0.21534650  0.49333509  1
  H+  H235  1  0.85103896  0.63895546  0.82570460  1
  H+  H236  1  0.13231471  0.51747279  0.48430313  1
  H+  H237  1  0.87565639  0.54506042  0.16757552  1
  H+  H238  1  0.66096970  0.36891664  0.50296025  1
  H+  H239  1  0.43800805  0.15178434  0.18816573  1
  H+  H240  1  0.14290964  0.53685713  0.18316418  1
  H+  H241  1  0.48450615  0.36860549  0.67713959  1
  H+  H242  1  0.27897117  0.62927230  0.16344180  1
  H+  H243  1  0.62119427  0.23356249  0.84280629  1
  H+  H244  1  0.49866617  0.87283894  0.47418603  1
  H+  H245  1  0.03588454  0.38480674  0.80234705  1
  H+  H246  1  0.23049153  0.86418938  0.51276067  1
  H+  H247  1  0.62040873  0.35886923  0.33022059  1
  H+  H248  1  0.76376001  0.88336339  0.68566671  1
  H+  H249  1  0.37291812  0.71636296  0.49561703  1
  H+  H250  1  0.57344947  0.14455627  0.07141400  1
  H+  H251  1  0.35655838  0.87898389  0.01553283  1
  H+  H252  1  0.98296399  0.61648909  0.50538947  1
  H+  H253  1  0.12691527  -0.00826801  0.50989418  1
  H+  H254  1  0.35557032  0.97587010  0.34196512  1
  H+  H255  1  0.64350933  0.88465222  0.83532291  1
  H+  H256  1  0.22038804  0.11334677  0.66176042  1
  H+  H257  1  0.84918495  0.10425985  1.01165852  1
  H+  H258  1  0.62549143  0.76422941  0.98054890  1
  H+  H259  1  0.59215453  0.46645106  0.15095870  1
  H+  H260  1  0.11199324  0.73414611  0.15825377  1
  H+  H261  1  0.09843614  0.22379425  0.16152934  1
  H+  H262  1  0.38980138  0.59705288  0.51122221  1
  H+  H263  1  0.17330988  0.22715519  0.85484393  1
  H+  H264  1  0.87711474  0.06494132  0.17474052  1
  H+  H265  1  0.87557995  0.47789415  0.48887687  1
  H+  H266  1  0.18852449  0.46173124  0.94761835  1
  H+  H267  1  0.10466341  0.96966731  0.67397183  1
  H+  H268  1  0.37002527  0.88789940  0.47934909  1
  H+  H269  1  0.80563024  0.38499698  0.33652710  1
  H+  H270  1  0.05907952  0.43600101  0.34825274  1
  H+  H271  1  0.51212773  0.61603956  0.83359320  1
  H+  H272  1  0.52217550  0.62529466  0.16396091  1
  H+  H273  1  0.02125981  0.12617718  0.00579356  1
  H+  H274  1  0.36774991  0.90094255  0.69872916  1
  H+  H275  1  0.29914823  0.91218566  0.84182470  1
  H+  H276  1  0.47734813  0.61412690  0.99449174  1
  H+  H277  1  0.86556152  0.72211397  0.99645424  1
  H+  H278  1  0.26621602  0.87553578  1.01394206  1
  H+  H279  1  0.65177757  0.37247914  0.84396594  1
  H+  H280  1  0.84247345  0.19468748  0.33812945  1
  H+  H281  1  0.61828759  0.84664245  0.18126309  1
  H+  H282  1  0.57691707  0.65179607  0.77778359  1
  H+  H283  1  0.41790761  0.83472954  0.93551525  1
  H+  H284  1  0.25774116  0.41074768  0.99664212  1
  H+  H285  1  0.85220699  0.87524954  0.34803712  1
  H+  H286  1  0.70568744  0.09157092  0.00117545  1
  H+  H287  1  0.96739315  0.27662499  0.95498809  1
  H+  H288  1  0.16020063  0.84246506  0.26325920  1
  H+  H289  1  0.40534594  0.08751272  0.60939803  1
  H+  H290  1  0.15222977  0.32944667  0.27035592  1
  H+  H291  1  0.76586243  0.38135719  1.01576259  1
  H+  H292  1  0.61623599  0.00491527  0.99718501  1
  H+  H293  1  0.42229737  0.32083003  0.89915930  1
  H+  H294  1  0.60109559  0.92353092  0.39950846  1
  H+  H295  1  0.90211063  0.07466997  0.60549146  1
  H+  H296  1  0.31464197  0.41664320  0.40163874  1
  H+  H297  1  0.33206677  0.66223369  0.06690334  1
  H+  H298  1  0.58527786  0.66538115  0.43976259  1
  H+  H299  1  0.86260986  0.46568886  -0.04262845  1
  H+  H300  1  0.58656351  0.66400860  0.06243175  1
  H+  H301  1  0.32129187  0.91348671  0.39910944  1
  H+  H302  1  0.92172911  0.83053021  0.92798070  1
  H+  H303  1  0.70713121  0.53467756  0.20340365  1
  H+  H304  1  0.15702592  0.31730473  0.56418013  1
  H+  H305  1  0.66224125  0.83931751  0.89967716  1
  H+  H306  1  0.58402452  0.16637621  0.40036328  1
  H+  H307  1  0.35944263  0.30478031  0.60056572  1
  H+  H308  1  0.66304232  0.57665338  0.93144613  1
  H+  H309  1  0.90330996  0.31848635  0.56695248  1
  H+  H310  1  0.66596670  0.07983697  0.90339464  1
  H+  H311  1  0.07919880  0.38585161  0.70570311  1
  H+  H312  1  0.32406227  0.16713811  0.75347040  1
  H+  H313  1  0.37084031  0.85991551  0.32391058  1
  H+  H314  1  0.50162652  0.96154159  0.58944282  1
  H+  H315  1  0.76637372  0.13305182  0.67638202  1
  H+  H316  1  0.66789735  0.58825136  0.27251166  1
  H+  H317  1  0.07440344  0.66365937  0.06450758  1
  H+  H318  1  0.11580786  0.64768076  0.16285342  1
  H+  H319  1  0.30427337  0.41965708  0.09930318  1
  H+  H320  1  0.08088401  0.90877733  0.76115757  1
  H+  H321  1  0.09681343  0.68134355  0.39829165  1
  H+  H322  1  0.32150123  0.15692959  0.43986088  1
  H+  H323  1  0.05971871  0.38870124  0.44174332  1
  H+  H324  1  0.40346444  0.31496018  0.24292303  1
  H+  H325  1  0.83103308  0.67538685  0.08916760  1
  H+  H326  1  0.34898337  0.93908337  0.77890159  1
  H+  H327  1  0.58380771  0.41283093  0.09140714  1
  H+  H328  1  0.07283924  0.42349419  0.11337432  1
  H+  H329  1  0.34396955  0.67572089  0.77139630  1
  H+  H330  1  0.93781815  0.82321227  0.57118396  1
  H+  H331  1  0.35189589  0.13247007  0.03698161  1
  H+  H332  1  0.59217175  0.41279065  0.73292937  1
  H+  H333  1  0.82974293  0.16720882  0.76776651  1
  H+  H334  1  0.39963618  0.36899661  0.69999487  1
  H+  H335  1  0.87909580  0.02538449  0.84793038  1
  H+  H336  1  0.43510941  0.36213758  0.23967093  1
  H+  H337  1  0.23562091  0.10757550  0.98080068  1
  H+  H338  1  0.21136905  0.36083682  0.33027520  1
  H+  H339  1  0.08500720  0.67817541  0.73320300  1
  H+  H340  1  0.45381726  0.93348786  0.58710328  1
  H+  H341  1  0.81699565  0.15325768  0.43942161  1
  H+  H342  1  0.59334883  0.92718262  0.76577018  1
  H+  H343  1  0.16625096  0.08359766  0.26585670  1
  H+  H344  1  0.42595889  0.24960621  0.98139264  1
  H+  H345  1  0.91339738  0.07716841  0.94145706  1
  H+  H346  1  0.60255400  0.95410056  0.16498406  1
  H+  H347  1  0.89764474  0.33501428  0.22632377  1
  H+  H348  1  0.52266496  0.62123475  0.68130216  1
  H+  H349  1  0.15797258  0.07738353  0.89709488  1
  H+  H350  1  0.84277723  0.10835185  0.34470181  1
  H+  H351  1  0.41802630  0.09204710  0.93071506  1
  H+  H352  1  0.28317447  0.56100154  0.71585044  1
  H+  H353  1  0.65185153  0.28384327  0.58682700  1
  H+  H354  1  0.77824095  0.41575738  0.11212750  1
  H+  H355  1  0.40790982  0.57601770  0.90112269  1
  H+  H356  1  0.61251362  0.47987370  0.34235143  1
  H+  H357  1  0.63813216  0.33100656  0.24981628  1
  H+  H358  1  0.83681104  0.41814038  0.71910349  1
  H+  H359  1  0.07553763  0.16374522  0.10180600  1
  H+  H360  1  0.91129880  0.58276007  0.92429772  1
  H+  H361  1  0.94021450  0.24795374  0.26692803  1
  H+  H362  1  0.08594845  0.92170913  0.40062810  1
  H+  H363  1  0.17015530  0.83044418  0.93375025  1
  H+  H364  1  0.90731848  0.57749288  0.55765943  1
  H+  H365  1  0.41722190  0.08569717  0.27635258  1
  H+  H366  1  0.67859965  0.59054664  0.60556884  1
  H+  H367  1  0.82541997  0.90328739  0.44485325  1
  H+  H368  1  0.90795880  0.06110449  0.27313405  1
  H+  H369  1  0.65909882  0.82106397  0.61353150  1
  H+  H370  1  0.82700350  0.66631941  0.40090776  1
  H+  H371  1  0.95959734  0.10280442  0.50997989  1
  H+  H372  1  0.65764101  0.82329280  0.24874050  1
  H+  H373  1  0.86029094  0.42302664  0.39505122  1
  H+  H374  1  0.16963569  0.60676791  0.90980846  1
  H+  H375  1  0.89681056  0.58590620  0.26300283  1
  H+  H376  1  0.65531040  0.06546676  0.23133030  1
  H+  H377  1  0.17507115  0.83916570  0.57460477  1
  H+  H378  1  0.40343596  0.82308810  0.23936120  1
  H+  H379  1  0.71339473  0.36394834  0.89418158  1
  H+  H380  1  0.18324105  0.60421927  0.23819347  1
  H+  H381  1  0.38055725  0.64810382  0.34100724  1
  H+  H382  1  0.57230189  0.89878438  0.06675128  1
  H+  H383  1  0.56780092  0.41022610  0.50044381  1
  O2-  O384  1  0.07255655  0.16314620  0.14698639  1
  O2-  O385  1  0.05582106  0.15398938  0.48135257  1
  O2-  O386  1  0.12513549  0.23816764  0.85392495  1
  O2-  O387  1  0.07894810  0.42894096  0.15897088  1
  O2-  O388  1  0.06923625  0.40175615  0.48557420  1
  O2-  O389  1  0.09152241  0.39098635  0.78707871  1
  O2-  O390  1  0.08228605  0.67266011  0.14513788  1
  O2-  O391  1  0.08494546  0.67196117  0.47882400  1
  O2-  O392  1  0.06546035  0.67068276  0.81950675  1
  O2-  O393  1  0.07544649  0.91897688  0.13717406  1
  O2-  O394  1  0.08767813  0.91469577  0.48587413  1
  O2-  O395  1  0.08314211  0.90687219  0.80793788  1
  O2-  O396  1  0.30872367  0.15533944  0.10781671  1
  O2-  O397  1  0.31951155  0.14906256  0.48530351  1
  O2-  O398  1  0.31835078  0.16573980  0.80682594  1
  O2-  O399  1  0.31023876  0.40822877  0.14275953  1
  O2-  O400  1  0.33004765  0.40310724  0.47908403  1
  O2-  O401  1  0.34924635  0.40860959  0.81137428  1
  O2-  O402  1  0.33864321  0.65206594  0.14691842  1
  O2-  O403  1  0.34431356  0.65590319  0.48320574  1
  O2-  O404  1  0.35052804  0.68132568  0.82029614  1
  O2-  O405  1  0.33467874  0.95149247  0.14426603  1
  O2-  O406  1  0.33346274  0.91466718  0.47757689  1
  O2-  O407  1  0.35725892  0.93774807  0.82441611  1
  O2-  O408  1  0.58797067  0.14518204  0.13348730  1
  O2-  O409  1  0.58051256  0.16308606  0.47791835  1
  O2-  O410  1  0.58362032  0.17225326  0.83244480  1
  O2-  O411  1  0.56428463  0.40682344  0.13586509  1
  O2-  O412  1  0.62353763  0.43983804  0.47990807  1
  O2-  O413  1  0.59084040  0.41099456  0.81437172  1
  O2-  O414  1  0.58384561  0.66258193  0.15030991  1
  O2-  O415  1  0.58595675  0.66102901  0.48498794  1
  O2-  O416  1  0.57405331  0.64517280  0.82266072  1
  O2-  O417  1  0.57240619  0.89256796  0.15068650  1
  O2-  O418  1  0.63376033  0.94549810  0.47927468  1
  O2-  O419  1  0.59610752  0.92849727  0.81233610  1
  O2-  O420  1  0.82192136  0.11890110  0.14651113  1
  O2-  O421  1  0.81878636  0.15627255  0.48455043  1
  O2-  O422  1  0.83541448  0.17655337  0.81339495  1
  O2-  O423  1  0.79643682  0.43435657  0.15670892  1
  O2-  O424  1  0.84548798  0.41746488  0.47338638  1
  O2-  O425  1  0.83898198  0.42533714  0.79783145  1
  O2-  O426  1  0.83079188  0.68245098  0.13463559  1
  O2-  O427  1  0.84252368  0.67322337  0.47829891  1
  O2-  O428  1  0.82366962  0.67277935  0.81241528  1
  O2-  O429  1  0.85856644  0.88624746  0.15016943  1
  O2-  O430  1  0.82768361  0.90366733  0.49022324  1
  O2-  O431  1  0.82873045  0.92186749  0.81809973  1
  O2-  O432  1  0.15807679  0.08248208  0.18215760  1
  O2-  O433  1  0.16236018  0.05942783  0.52706999  1
  O2-  O434  1  0.15458320  0.07706016  0.85120827  1
  O2-  O435  1  0.14779139  0.32803957  0.19186695  1
  O2-  O436  1  0.15276455  0.32222502  0.51730732  1
  O2-  O437  1  0.17484963  0.33326246  0.85240567  1
  O2-  O438  1  0.17885010  0.59914576  0.19293360  1
  O2-  O439  1  0.16379989  0.57904333  0.47278836  1
  O2-  O440  1  0.17390014  0.62092067  0.86486311  1
  O2-  O441  1  0.16024381  0.84150572  0.18271451  1
  O2-  O442  1  0.17068379  0.83693812  0.52874874  1
  O2-  O443  1  0.17784470  0.84524013  0.84931075  1
  O2-  O444  1  0.43912018  0.09937316  0.19717750  1
  O2-  O445  1  0.41719076  0.07664229  0.52614666  1
  O2-  O446  1  0.42980641  0.09545817  0.87293653  1
  O2-  O447  1  0.39441239  0.32646203  0.10060423  1
  O2-  O448  1  0.32206943  0.28121565  0.56400292  1
  O2-  O449  1  0.41710886  0.31885866  0.85426298  1
  O2-  O450  1  0.41955986  0.56947372  0.18865350  1
  O2-  O451  1  0.41706482  0.56309935  0.52460841  1
  O2-  O452  1  0.40436970  0.57012206  0.85611765  1
  O2-  O453  1  0.40637561  0.81476638  0.19246537  1
  O2-  O454  1  0.43902395  0.84118125  0.46017568  1
  O2-  O455  1  0.43489036  0.84439323  0.85885271  1
  O2-  O456  1  0.65642897  0.05757363  0.18601280  1
  O2-  O457  1  0.65839395  0.08375343  0.53068299  1
  O2-  O458  1  0.67448976  0.08929311  0.85885483  1
  O2-  O459  1  0.64105656  0.33690069  0.19805945  1
  O2-  O460  1  0.68223809  0.32931127  0.51354059  1
  O2-  O461  1  0.68725879  0.34503328  0.85395692  1
  O2-  O462  1  0.68608445  0.57168700  0.18779826  1
  O2-  O463  1  0.68527256  0.59444146  0.52413583  1
  O2-  O464  1  0.65847946  0.57165271  0.85664133  1
  O2-  O465  1  0.65018533  0.81755498  0.19931215  1
  O2-  O466  1  0.66499026  0.82203689  0.53345727  1
  O2-  O467  1  0.67339273  0.85244735  0.85255957  1
  O2-  O468  1  0.91627386  0.04837412  0.19449133  1
  O2-  O469  1  0.89908268  0.06931957  0.52715514  1
  O2-  O470  1  0.90502023  0.08347402  0.86689389  1
  O2-  O471  1  0.90251814  0.36686046  0.18783676  1
  O2-  O472  1  0.90563718  0.32023201  0.52110418  1
  O2-  O473  1  0.93386581  0.34697840  0.82742202  1
  O2-  O474  1  0.91272877  0.60543364  0.18109206  1
  O2-  O475  1  0.91937170  0.58347350  0.51311586  1
  O2-  O476  1  0.89813627  0.57953846  0.84866843  1
  O2-  O477  1  0.90945276  0.84868403  0.17283303  1
  O2-  O478  1  0.93182983  0.83320697  0.52400066  1
  O2-  O479  1  0.91505614  0.83701695  0.85140744  1
  O2-  O480  1  0.16761089  0.08616650  0.31100494  1
  O2-  O481  1  0.16253848  0.08153253  0.64319223  1
  O2-  O482  1  0.17397870  0.08117946  0.97126829  1
  O2-  O483  1  0.15041235  0.32885735  0.31591946  1
  O2-  O484  1  0.15646922  0.30706392  0.63147397  1
  O2-  O485  1  0.17498922  0.40361274  0.95842852  1
  O2-  O486  1  0.19704186  0.61850990  0.31805160  1
  O2-  O487  1  0.17567591  0.60148283  0.65268376  1
  O2-  O488  1  0.16009984  0.57946950  0.98267030  1
  O2-  O489  1  0.15938291  0.84229931  0.30857778  1
  O2-  O490  1  0.17966084  0.84451377  0.65139223  1
  O2-  O491  1  0.16422362  0.82446935  0.97832497  1
  O2-  O492  1  0.41269866  0.08299515  0.32134287  1
  O2-  O493  1  0.39676948  0.09052286  0.65361886  1
  O2-  O494  1  0.40981896  0.09002189  0.98346545  1
  O2-  O495  1  0.41407747  0.33944653  0.36958393  1
  O2-  O496  1  0.41843365  0.33869952  0.67266477  1
  O2-  O497  1  0.44594871  0.31248478  0.97967173  1
  O2-  O498  1  0.41931245  0.58380727  0.31223046  1
  O2-  O499  1  0.42026658  0.56037569  0.65243535  1
  O2-  O500  1  0.41601773  0.58806328  0.98091193  1
  O2-  O501  1  0.40559512  0.83560467  0.30695213  1
  O2-  O502  1  0.41040681  0.84362409  0.70491845  1
  O2-  O503  1  0.41233155  0.83125284  0.98114929  1
  O2-  O504  1  0.65196056  0.07307257  0.30740088  1
  O2-  O505  1  0.66905414  0.07828331  0.64531769  1
  O2-  O506  1  0.64684740  0.06709557  0.98398425  1
  O2-  O507  1  0.64354855  0.32565674  0.30805357  1
  O2-  O508  1  0.62386854  0.25155903  0.62447544  1
  O2-  O509  1  0.73045775  0.37492914  1.05223265  1
  O2-  O510  1  0.66153041  0.58424683  0.31711482  1
  O2-  O511  1  0.67494031  0.58496761  0.65058833  1
  O2-  O512  1  0.66458043  0.57758394  0.97755117  1
  O2-  O513  1  0.66532185  0.82988765  0.31138111  1
  O2-  O514  1  0.65639393  0.82352597  0.65858877  1
  O2-  O515  1  0.64953820  0.82329031  0.96432976  1
  O2-  O516  1  0.90482473  0.06819861  0.31789867  1
  O2-  O517  1  0.90569727  0.07927764  0.65090150  1
  O2-  O518  1  0.91981183  0.07913957  0.98720111  1
  O2-  O519  1  0.91418087  0.27911484  0.28502963  1
  O2-  O520  1  0.91163119  0.32221546  0.64167804  1
  O2-  O521  1  0.91077852  0.26273622  0.93997390  1
  O2-  O522  1  0.87556516  0.57313568  0.30519910  1
  O2-  O523  1  0.84854817  0.54953657  0.62539794  1
  O2-  O524  1  0.91004352  0.57334483  0.96947874  1
  O2-  O525  1  0.90500729  0.83471057  0.32330138  1
  O2-  O526  1  0.95765804  0.80136997  0.63068443  1
  O2-  O527  1  0.92196546  0.82459441  0.97332970  1
  O2-  O528  1  0.08370517  0.15630422  0.02039761  1
  O2-  O529  1  0.07129301  0.15623282  0.35317381  1
  O2-  O530  1  0.08064132  0.16174485  0.67635327  1
  O2-  O531  1  0.05609788  0.40901476  0.03730614  1
  O2-  O532  1  0.04368467  0.37742949  0.35873087  1
  O2-  O533  1  0.08587396  0.39837673  0.66170630  1
  O2-  O534  1  0.07478046  0.65961276  0.01920496  1
  O2-  O535  1  0.10541570  0.68101729  0.35359965  1
  O2-  O536  1  0.09521934  0.68557172  0.68923521  1
  O2-  O537  1  0.08792087  0.91269928  0.01539969  1
  O2-  O538  1  0.08225281  0.92470107  0.35593498  1
  O2-  O539  1  0.08179753  0.91126499  0.69058937  1
  O2-  O540  1  0.36592359  0.14059541  -0.00701706  1
  O2-  O541  1  0.32618842  0.16291137  0.36237326  1
  O2-  O542  1  0.32956185  0.17016970  0.69676259  1
  O2-  O543  1  0.31087179  0.42227276  0.01965768  1
  O2-  O544  1  0.31704250  0.41810494  0.35639536  1
  O2-  O545  1  0.26104832  0.49660415  0.71641168  1
  O2-  O546  1  0.32702477  0.66323808  0.02179005  1
  O2-  O547  1  0.35740696  0.68245956  0.36075361  1
  O2-  O548  1  0.33120444  0.66569501  0.70694397  1
  O2-  O549  1  0.32290832  0.90291280  0.03455490  1
  O2-  O550  1  0.32110290  0.91402492  0.35359137  1
  O2-  O551  1  0.33749087  0.93579657  0.70400208  1
  O2-  O552  1  0.56655328  0.14631889  0.02253405  1
  O2-  O553  1  0.58110535  0.16714954  0.35457112  1
  O2-  O554  1  0.61373596  0.10767086  0.67333883  1
  O2-  O555  1  0.60884662  0.41992417  0.02215059  1
  O2-  O556  1  0.58536279  0.42113454  0.36117682  1
  O2-  O557  1  0.58417878  0.41096046  0.68800859  1
  O2-  O558  1  0.58168172  0.66021722  0.01771809  1
  O2-  O559  1  0.57977725  0.66547846  0.35986069  1
  O2-  O560  1  0.58289090  0.65758664  0.69606524  1
  O2-  O561  1  0.57257056  0.90427270  0.02188809  1
  O2-  O562  1  0.59011401  0.91098663  0.35576117  1
  O2-  O563  1  0.58745875  0.92088428  0.69443958  1
  O2-  O564  1  0.81389548  0.13052505  0.02732580  1
  O2-  O565  1  0.81095177  0.13815213  0.35846184  1
  O2-  O566  1  0.82727004  0.16374361  0.69291323  1
  O2-  O567  1  0.82279514  0.40305762  -0.05135803  1
  O2-  O568  1  0.86443055  0.42372115  0.34962092  1
  O2-  O569  1  0.83456346  0.41445003  0.67406417  1
  O2-  O570  1  0.83146744  0.66228608  0.01356935  1
  O2-  O571  1  0.81866192  0.66450478  0.35590104  1
  O2-  O572  1  0.83776895  0.67318637  0.69143287  1
  O2-  O573  1  0.86847091  0.92687048  0.02798061  1
  O2-  O574  1  0.81725713  0.90286662  0.36307401  1
  O2-  O575  1  0.82338046  0.91630094  0.70158048  1
