# generated using pymatgen
data_H2O
_symmetry_space_group_name_H-M   'P 1'
_cell_length_a   17.99773984
_cell_length_b   17.99177469
_cell_length_c   21.98695846
_cell_angle_alpha   89.99068907
_cell_angle_beta   90.05173113
_cell_angle_gamma   120.02029703
_symmetry_Int_Tables_number   1
_chemical_formula_structural   H2O
_chemical_formula_sum   'H384 O192'
_cell_volume   6164.51195243
_cell_formula_units_Z   192
loop_
 _symmetry_equiv_pos_site_id
 _symmetry_equiv_pos_as_xyz
  1  'x, y, z'
loop_
 _atom_type_symbol
 _atom_type_oxidation_number
  H+  1.0
  O2-  -2.0
loop_
 _atom_site_type_symbol
 _atom_site_label
 _atom_site_symmetry_multiplicity
 _atom_site_fract_x
 _atom_site_fract_y
 _atom_site_fract_z
 _atom_site_occupancy
  H+  H0  1  0.50319999  0.63363679  0.33069841  1
  H+  H1  1  0.46216940  0.35818149  0.49665326  1
  H+  H2  1  0.66227839  0.74440514  0.84198751  1
  H+  H3  1  0.98250559  0.63600159  0.16701501  1
  H+  H4  1  0.26103827  0.40849969  0.17982588  1
  H+  H5  1  0.88730504  0.77255611  0.18682834  1
  H+  H6  1  0.42897267  0.84569672  0.33716314  1
  H+  H7  1  0.36012878  0.63565703  0.49346089  1
  H+  H8  1  0.52867561  0.95881531  0.36115405  1
  H+  H9  1  0.91814733  0.56156518  0.66220945  1
  H+  H10  1  1.03176028  0.65519302  0.33839407  1
  H+  H11  1  0.63531109  0.59088951  0.65469067  1
  H+  H12  1  0.47928191  0.61720990  0.83681669  1
  H+  H13  1  0.78494570  0.40347124  0.16850358  1
  H+  H14  1  0.89170788  0.94996494  0.40328794  1
  H+  H15  1  0.13363761  0.65252141  0.83404019  1
  H+  H16  1  0.62000620  0.51547670  0.16689306  1
  H+  H17  1  0.60013116  0.03345534  0.63525963  1
  H+  H18  1  0.36659870  0.40072496  1.02128753  1
  H+  H19  1  0.11189279  0.71197859  0.68306041  1
  H+  H20  1  0.68483337  0.86948810  0.33093952  1
  H+  H21  1  0.59926032  0.21375257  0.52463113  1
  H+  H22  1  0.64570883  0.35564345  0.52534362  1
  H+  H23  1  0.14984818  0.13751163  0.31229020  1
  H+  H24  1  0.21453042  0.11662993  0.16399253  1
  H+  H25  1  0.88845304  0.87012124  0.82585651  1
  H+  H26  1  0.12840310  0.12549915  0.66883280  1
  H+  H27  1  0.57669352  0.12805582  0.55851580  1
  H+  H28  1  0.85780525  0.63883289  0.16719648  1
  H+  H29  1  0.46634853  0.59663423  0.16170087  1
  H+  H30  1  0.46421650  0.86623666  0.50647655  1
  H+  H31  1  0.36866092  0.49069649  1.01118814  1
  H+  H32  1  0.62823457  0.22258757  0.00381863  1
  H+  H33  1  0.37743947  0.26779043  0.50993953  1
  H+  H34  1  0.19533672  0.36378049  0.26330154  1
  H+  H35  1  0.40042935  0.77829502  0.01073020  1
  H+  H36  1  0.49420073  0.34120091  0.01812069  1
  H+  H37  1  0.40354486  0.79057941  0.83488854  1
  H+  H38  1  0.15712507  0.38104560  0.32549473  1
  H+  H39  1  0.58054256  0.38773124  0.43763864  1
  H+  H40  1  0.86880858  0.07988870  0.14782265  1
  H+  H41  1  0.65361381  0.36552516  0.83580062  1
  H+  H42  1  0.62466225  0.51924069  0.49219554  1
  H+  H43  1  0.93622865  0.91458696  -0.02688751  1
  H+  H44  1  0.85978975  0.12152153  0.83721208  1
  H+  H45  1  0.77898144  0.13990428  0.97479215  1
  H+  H46  1  0.51576260  0.64447186  -0.00151947  1
  H+  H47  1  0.75889988  0.82720376  0.84732779  1
  H+  H48  1  0.36603265  0.72673210  0.16505634  1
  H+  H49  1  1.01510479  0.83579028  0.96939492  1
  H+  H50  1  0.38042801  0.61435653  0.99148098  1
  H+  H51  1  0.12689243  0.39713926  -0.03124744  1
  H+  H52  1  0.87506031  0.49212351  0.16584025  1
  H+  H53  1  0.86144006  0.44237004  0.63862224  1
  H+  H54  1  0.10635702  0.00455994  0.33353241  1
  H+  H55  1  0.59504871  0.22876043  0.67763065  1
  H+  H56  1  0.63952943  0.37483325  0.16640486  1
  H+  H57  1  0.87958336  0.77407402  0.66642331  1
  H+  H58  1  0.99173053  0.35919671  0.68186172  1
  H+  H59  1  0.76654723  0.63288201  0.49348890  1
  H+  H60  1  0.14572393  0.87119878  0.19148663  1
  H+  H61  1  0.11459390  0.65055177  0.16273217  1
  H+  H62  1  0.11807571  0.48148933  0.33754439  1
  H+  H63  1  0.75831178  0.65610894  0.94994766  1
  H+  H64  1  0.92999715  0.57218784  0.89044753  1
  H+  H65  1  0.89303927  0.62747132  0.32490267  1
  H+  H66  1  1.03335641  0.14930308  0.99461712  1
  H+  H67  1  0.78305583  0.02912496  0.55163460  1
  H+  H68  1  0.62672643  0.13128242  0.00775839  1
  H+  H69  1  0.14337028  0.52175528  0.67316526  1
  H+  H70  1  0.36546696  0.98153174  0.16652437  1
  H+  H71  1  0.35482980  -0.02278845  0.48851660  1
  H+  H72  1  0.01178468  0.62922929  0.49579541  1
  H+  H73  1  0.95027953  0.81022196  0.79435845  1
  H+  H74  1  0.91223907  0.04866772  0.31764327  1
  H+  H75  1  0.35384742  0.38308945  0.49696660  1
  H+  H76  1  0.48814996  0.10744185  -0.00178980  1
  H+  H77  1  0.28574894  0.38725819  0.68209629  1
  H+  H78  1  0.53216014  0.31856191  0.80819345  1
  H+  H79  1  0.56422582  0.14386686  0.15470053  1
  H+  H80  1  0.22469444  0.62803780  0.52130197  1
  H+  H81  1  0.26794647  0.38894842  0.50126525  1
  H+  H82  1  0.91251629  0.37111499  0.67808780  1
  H+  H83  1  0.35478430  0.27127031  0.99981428  1
  H+  H84  1  0.61376556  0.13628538  0.82909205  1
  H+  H85  1  0.22639944  0.11831955  0.53856025  1
  H+  H86  1  0.12506766  0.62489497  0.68848614  1
  H+  H87  1  0.15048275  0.78565566  0.84506228  1
  H+  H88  1  0.23772725  0.11784281  0.63530613  1
  H+  H89  1  0.47961317  0.36051009  0.65869657  1
  H+  H90  1  0.77054017  0.61666983  0.82017386  1
  H+  H91  1  0.14961620  0.26161525  0.68231998  1
  H+  H92  1  0.70108378  0.34528781  0.67470279  1
  H+  H93  1  1.03995379  0.15962961  0.31218335  1
  H+  H94  1  0.90012138  0.28398640  0.32473676  1
  H+  H95  1  0.90389881  0.34850318  0.16842249  1
  H+  H96  1  0.60186543  0.87949180  0.49017357  1
  H+  H97  1  0.87132085  0.47804171  0.81044167  1
  H+  H98  1  0.45164932  0.88006583  0.65186047  1
  H+  H99  1  0.66780054  0.03058089  0.31829576  1
  H+  H100  1  0.89947132  0.12962551  0.32696999  1
  H+  H101  1  0.62154957  0.88290724  1.00491297  1
  H+  H102  1  0.60628284  0.36960787  0.67474541  1
  H+  H103  1  0.34269290  0.14533829  0.15558306  1
  H+  H104  1  0.21666134  0.61085342  0.32627860  1
  H+  H105  1  0.27445474  0.64018234  1.00782596  1
  H+  H106  1  0.34640920  0.75193635  0.33141421  1
  H+  H107  1  0.24411101  0.64373969  0.84071720  1
  H+  H108  1  0.31723925  0.15961490  0.44921037  1
  H+  H109  1  0.62631282  1.02132765  0.83216403  1
  H+  H110  1  0.37327843  1.02335215  0.66682314  1
  H+  H111  1  0.90357666  0.13465661  0.66165820  1
  H+  H112  1  0.93254636  0.09131077  0.91914550  1
  H+  H113  1  0.08763517  0.90870873  0.73950137  1
  H+  H114  1  0.97100135  0.96235429  0.36114588  1
  H+  H115  1  0.35688806  0.72303943  0.49062538  1
  H+  H116  1  0.36606972  0.47053433  0.10926231  1
  H+  H117  1  0.40306455  0.88009755  0.83721746  1
  H+  H118  1  0.65171889  0.29122030  0.16656359  1
  H+  H119  1  0.79701005  0.41476084  0.30212458  1
  H+  H120  1  0.86530569  0.85561592  0.33302363  1
  H+  H121  1  0.45847039  0.35963642  0.32741163  1
  H+  H122  1  0.85576287  0.88562574  0.49955638  1
  H+  H123  1  0.64316340  0.01273993  1.00084267  1
  H+  H124  1  0.23651012  0.13237516  0.31998261  1
  H+  H125  1  0.89327356  0.21125161  0.18989405  1
  H+  H126  1  0.13952316  0.63416064  0.52288856  1
  H+  H127  1  0.89511219  1.04395448  -0.01771684  1
  H+  H128  1  1.03605677  0.38920888  0.33652508  1
  H+  H129  1  0.13852450  0.11404009  0.99680616  1
  H+  H130  1  0.62319861  0.85931356  0.09686737  1
  H+  H131  1  0.10479639  0.76732866  0.50291769  1
  H+  H132  1  0.35894319  0.88292642  0.48655720  1
  H+  H133  1  0.60602088  0.97132562  0.48986645  1
  H+  H134  1  0.60187951  0.64227542  0.15620312  1
  H+  H135  1  0.94996018  0.07258410  0.12756285  1
  H+  H136  1  0.89078346  0.29563636  0.50105472  1
  H+  H137  1  0.11628789  0.84249595  0.66953831  1
  H+  H138  1  0.27713465  0.40114897  0.81654773  1
  H+  H139  1  0.89282894  0.29436512  0.96004735  1
  H+  H140  1  0.48354875  0.12556564  0.84163027  1
  H+  H141  1  0.58979767  0.72541574  0.14288232  1
  H+  H142  1  0.87389804  0.15111620  0.96827234  1
  H+  H143  1  0.55592933  0.21886264  0.33802398  1
  H+  H144  1  0.84287051  0.96838426  0.50020977  1
  H+  H145  1  0.07607218  0.93933994  0.38855477  1
  H+  H146  1  0.03636929  0.64366291  0.82893888  1
  H+  H147  1  0.23516901  0.87270853  0.18664110  1
  H+  H148  1  0.13313901  0.28398902  0.54271612  1
  H+  H149  1  0.87290105  0.39704523  0.54289844  1
  H+  H150  1  0.89830022  0.59850833  0.97391546  1
  H+  H151  1  0.39947133  0.52514897  0.65534888  1
  H+  H152  1  0.77788090  0.38401804  0.55297254  1
  H+  H153  1  0.53734922  0.89703238  0.40739538  1
  H+  H154  1  0.35930971  0.23454340  0.82514712  1
  H+  H155  1  0.12022001  0.73041785  1.00671480  1
  H+  H156  1  0.76704449  0.91441554  1.00704900  1
  H+  H157  1  0.34893741  0.62919966  0.33685165  1
  H+  H158  1  0.60243156  0.88890232  0.18415573  1
  H+  H159  1  0.95251819  0.92481838  1.00525880  1
  H+  H160  1  0.36290605  0.22951767  0.66569993  1
  H+  H161  1  0.59469516  0.60541138  0.31368064  1
  H+  H162  1  0.02266865  0.87685699  0.68189296  1
  H+  H163  1  0.11899239  0.97291472  0.01232676  1
  H+  H164  1  0.52393009  0.61643882  0.66094584  1
  H+  H165  1  0.34966978  0.12641871  0.50385297  1
  H+  H166  1  0.12363601  0.48812073  0.15567236  1
  H+  H167  1  0.36651226  0.89204635  0.16807957  1
  H+  H168  1  0.37311787  0.65334724  0.82757009  1
  H+  H169  1  0.09744710  0.66702634  0.75470248  1
  H+  H170  1  0.39835307  0.56891186  0.26173415  1
  H+  H171  1  0.33338942  0.17539737  0.76474261  1
  H+  H172  1  0.28144242  0.39626283  0.33992345  1
  H+  H173  1  0.45193412  0.14060402  0.19194976  1
  H+  H174  1  0.63033635  0.50153169  0.83724395  1
  H+  H175  1  0.14334407  0.53229359  0.97273938  1
  H+  H176  1  0.35756444  0.63272957  0.16121590  1
  H+  H177  1  0.65262694  0.46845834  -0.05432538  1
  H+  H178  1  0.83640292  0.72017400  0.34017535  1
  H+  H179  1  0.56593772  0.22933338  0.37136996  1
  H+  H180  1  0.62943208  0.60853997  0.49939789  1
  H+  H181  1  0.16681567  0.39466958  0.17306102  1
  H+  H182  1  0.52097258  0.38890625  0.16497346  1
  H+  H183  1  0.72404074  0.95863073  0.87738747  1
  H+  H184  1  0.63161138  0.10601463  0.48851121  1
  H+  H185  1  0.37376798  0.09494620  0.33680656  1
  H+  H186  1  0.22446182  0.62368593  0.17316095  1
  H+  H187  1  0.89610020  0.60627029  0.83484282  1
  H+  H188  1  0.46265968  0.36614286  0.84616721  1
  H+  H189  1  0.88791873  0.63838001  0.66218635  1
  H+  H190  1  0.58656097  0.08217788  0.34383995  1
  H+  H191  1  0.71817306  0.10310200  0.84540391  1
  H+  H192  1  0.60937530  0.72206099  0.48140696  1
  H+  H193  1  0.77484103  0.15236637  0.48351892  1
  H+  H194  1  0.35926018  0.13818215  0.66737001  1
  H+  H195  1  0.38770073  0.53358906  0.83644414  1
  H+  H196  1  0.59214526  0.72339061  0.33565186  1
  H+  H197  1  0.98075448  0.38337625  0.49942891  1
  H+  H198  1  0.07058748  0.15041210  0.09192383  1
  H+  H199  1  0.96632532  0.86953190  0.51572499  1
  H+  H200  1  0.23969497  0.86556976  0.99853604  1
  H+  H201  1  0.93235243  0.06362652  0.65833722  1
  H+  H202  1  0.13008896  0.89814951  0.83549443  1
  H+  H203  1  0.08485007  0.10934500  0.15157086  1
  H+  H204  1  0.34618065  -0.00300193  0.32573986  1
  H+  H205  1  0.11962586  0.74135216  0.16770111  1
  H+  H206  1  0.61140116  0.46365687  0.67324844  1
  H+  H207  1  0.88479541  0.27882052  0.82219379  1
  H+  H208  1  0.88055632  0.77531819  0.51254610  1
  H+  H209  1  0.85706074  0.47846976  1.01126817  1
  H+  H210  1  0.37546758  0.39033475  0.67215683  1
  H+  H211  1  0.17393446  0.32734343  0.73559879  1
  H+  H212  1  -0.01633569  0.37811750  -0.04469127  1
  H+  H213  1  0.87590179  0.22982647  0.68914200  1
  H+  H214  1  0.37246259  0.97683178  0.01082566  1
  H+  H215  1  0.87716899  0.52148019  0.53641200  1
  H+  H216  1  0.88245851  0.13379723  0.23315108  1
  H+  H217  1  0.11169801  0.39459075  0.49672808  1
  H+  H218  1  0.61375033  -0.01944435  0.19591205  1
  H+  H219  1  0.88265491  0.85570476  0.17538172  1
  H+  H220  1  0.82992907  0.42425405  0.07232454  1
  H+  H221  1  0.13061084  0.24680374  0.31896607  1
  H+  H222  1  0.65507712  0.33505311  0.32478795  1
  H+  H223  1  0.81907545  0.93308907  0.68045843  1
  H+  H224  1  0.60992869  0.12415247  0.64790935  1
  H+  H225  1  0.23433129  0.12076125  0.84222176  1
  H+  H226  1  0.03193014  0.16561374  0.58554931  1
  H+  H227  1  0.59164151  0.85722448  0.33619492  1
  H+  H228  1  0.39425305  0.12578915  0.84114446  1
  H+  H229  1  0.47317145  0.61061116  0.49846293  1
  H+  H230  1  0.12443210  0.23434301  1.00550545  1
  H+  H231  1  0.72152436  0.36393816  0.99861143  1
  H+  H232  1  0.85486470  0.14407224  0.49604319  1
  H+  H233  1  0.83489713  0.16966774  0.88500996  1
  H+  H234  1  1.02860309  0.88464413  0.16965438  1
  H+  H235  1  0.98791321  0.60429058  0.98688013  1
  H+  H236  1  0.72300128  0.85861941  0.49565799  1
  H+  H237  1  0.54286611  0.75918507  0.63474999  1
  H+  H238  1  0.62219691  0.69700275  0.65953082  1
  H+  H239  1  0.28597825  0.89997930  0.83843690  1
  H+  H240  1  0.98089032  0.10229409  0.82941808  1
  H+  H241  1  0.83998104  0.94383645  0.14143805  1
  H+  H242  1  0.67540352  0.13446013  0.17117018  1
  H+  H243  1  0.87464600  0.60791981  0.51144711  1
  H+  H244  1  0.09703339  0.98214828  0.51971723  1
  H+  H245  1  0.14689400  1.03100620  0.84447891  1
  H+  H246  1  0.12997083  0.61450961  0.32708392  1
  H+  H247  1  0.51612949  0.89386576  0.81205237  1
  H+  H248  1  0.35978208  0.87135717  0.65847270  1
  H+  H249  1  0.25616518  0.90032255  0.70361731  1
  H+  H250  1  0.37690161  0.52262915  0.32715173  1
  H+  H251  1  0.90501324  0.37476962  0.30911325  1
  H+  H252  1  0.12498341  0.38622289  0.69037651  1
  H+  H253  1  0.60646235  0.45640313  0.94930789  1
  H+  H254  1  0.10742409  0.41969477  -0.09542958  1
  H+  H255  1  0.90407145  0.54580969  0.30743465  1
  H+  H256  1  0.70855369  0.60518733  0.18107782  1
  H+  H257  1  0.62996859  0.81661041  0.66883781  1
  H+  H258  1  0.46435228  0.11017155  0.66148611  1
  H+  H259  1  0.87870967  0.07440055  0.57742911  1
  H+  H260  1  0.72873553  0.95384710  0.84394655  1
  H+  H261  1  0.40127719  0.38546228  0.17829828  1
  H+  H262  1  0.53701590  0.88363097  0.02660058  1
  H+  H263  1  0.60404505  0.61275472  0.81533603  1
  H+  H264  1  0.09069750  0.89238461  0.50460460  1
  H+  H265  1  0.89722383  1.00815595  0.83765918  1
  H+  H266  1  0.90210145  0.71379568  -0.03058657  1
  H+  H267  1  0.12676171  0.73489355  0.34988412  1
  H+  H268  1  0.24192237  0.37812860  1.00580237  1
  H+  H269  1  0.11017078  0.21937923  0.81952067  1
  H+  H270  1  0.34435364  0.68695506  0.76887019  1
  H+  H271  1  0.88933582  0.90456727  0.67638599  1
  H+  H272  1  0.86088646  0.43427199  0.24789219  1
  H+  H273  1  0.10489541  0.15365879  0.55596913  1
  H+  H274  1  0.63582508  0.77325273  0.99435291  1
  H+  H275  1  0.74339104  0.36941486  0.82792755  1
  H+  H276  1  0.19289129  0.83574822  0.63236745  1
  H+  H277  1  0.38300172  0.52241866  0.50380480  1
  H+  H278  1  0.76843708  0.62809920  0.67126175  1
  H+  H279  1  0.40309809  0.86779781  1.01384755  1
  H+  H280  1  0.57956093  0.89940786  0.65141840  1
  H+  H281  1  0.69731154  0.85481166  0.13485517  1
  H+  H282  1  0.37666087  0.36978528  0.84201898  1
  H+  H283  1  0.71514641  0.70507668  0.91637519  1
  H+  H284  1  0.31707509  0.85319060  0.33576061  1
  H+  H285  1  0.86069569  0.70923597  0.82471315  1
  H+  H286  1  0.47332715  0.86589336  0.19640685  1
  H+  H287  1  0.78883447  0.15240827  0.34076876  1
  H+  H288  1  0.52475109  0.42306498  0.40900633  1
  H+  H289  1  0.82591452  0.65757817  0.73417934  1
  H+  H290  1  0.39791019  0.33496605  0.94323982  1
  H+  H291  1  0.86208483  0.44835099  0.71539965  1
  H+  H292  1  0.48800137  0.05818585  0.34434635  1
  H+  H293  1  0.07396918  0.66044920  0.43714370  1
  H+  H294  1  0.91690143  0.34896320  0.87387274  1
  H+  H295  1  0.19877106  0.21165947  0.45060257  1
  H+  H296  1  0.56944170  0.66481015  0.05895423  1
  H+  H297  1  0.76753002  0.62018709  0.34652942  1
  H+  H298  1  0.96542733  0.80341829  0.90378128  1
  H+  H299  1  0.33110354  0.66306080  0.06861270  1
  H+  H300  1  0.35453681  0.74281204  0.67555873  1
  H+  H301  1  0.17949102  0.84100347  0.90674252  1
  H+  H302  1  0.57111960  0.16293479  0.73473795  1
  H+  H303  1  0.81671225  0.67726463  0.12057260  1
  H+  H304  1  0.65430876  0.32054910  0.59297129  1
  H+  H305  1  0.65469065  0.82346117  0.55105335  1
  H+  H306  1  0.11565626  0.97391018  0.16429363  1
  H+  H307  1  0.84613294  0.16114256  0.74191880  1
  H+  H308  1  0.61599693  0.17923124  0.09353107  1
  H+  H309  1  0.17441980  0.08568743  0.94049458  1
  H+  H310  1  0.58077936  0.65228525  0.75969409  1
  H+  H311  1  0.83137046  0.98654284  0.05697178  1
  H+  H312  1  0.16194611  0.59143710  0.23098233  1
  H+  H313  1  0.84163138  0.65718937  0.02599434  1
  H+  H314  1  0.08688654  0.67525046  0.06738554  1
  H+  H315  1  0.62535578  0.23058242  0.82700286  1
  H+  H316  1  0.31076009  0.90734793  0.42661004  1
  H+  H317  1  0.27833321  0.64750141  0.68220904  1
  H+  H318  1  0.16418756  0.08633016  0.22622327  1
  H+  H319  1  0.57407771  0.65841835  0.42446332  1
  H+  H320  1  0.94092581  0.33335306  0.22881193  1
  H+  H321  1  0.84793974  0.18490264  0.40059678  1
  H+  H322  1  0.85828761  0.91375375  0.77403398  1
  H+  H323  1  0.66271754  0.08665991  0.54747170  1
  H+  H324  1  0.67667962  0.32908017  0.93360214  1
  H+  H325  1  0.81775179  0.87437816  0.09309256  1
  H+  H326  1  0.16833485  0.19197623  0.42431063  1
  H+  H327  1  0.33161338  0.42595918  0.40515712  1
  H+  H328  1  0.68486465  0.09631407  0.26587691  1
  H+  H329  1  0.86556073  0.38701496  0.80233761  1
  H+  H330  1  0.71559599  0.77181719  0.25132003  1
  H+  H331  1  0.62207972  0.56390823  0.24932379  1
  H+  H332  1  0.09623627  0.14784682  0.73130847  1
  H+  H333  1  0.81687273  0.42516506  0.44027170  1
  H+  H334  1  0.68160095  0.77212217  0.23172944  1
  H+  H335  1  0.55554837  0.49935357  0.30872762  1
  H+  H336  1  0.04817246  0.39221064  0.15260606  1
  H+  H337  1  0.10107933  0.41701863  0.74941500  1
  H+  H338  1  0.08879072  0.42147685  0.43403369  1
  H+  H339  1  0.19997335  0.85254943  0.28531100  1
  H+  H340  1  0.38930680  0.07784803  0.24087737  1
  H+  H341  1  0.33299420  0.92890269  0.74965544  1
  H+  H342  1  0.56619599  0.93355546  0.71554771  1
  H+  H343  1  0.18437927  0.61375833  0.90056871  1
  H+  H344  1  0.46005504  0.09953309  0.51434980  1
  H+  H345  1  0.32116520  0.65483162  0.40049771  1
  H+  H346  1  0.67479235  0.59022942  0.87814533  1
  H+  H347  1  0.75415268  0.11757249  0.18932170  1
  H+  H348  1  0.87618052  0.81658979  0.27174482  1
  H+  H349  1  0.42279682  0.42125969  0.34635850  1
  H+  H350  1  0.91199296  0.83233694  0.60640195  1
  H+  H351  1  0.41047804  0.58566158  0.93041084  1
  H+  H352  1  0.39169899  0.82210035  0.23893633  1
  H+  H353  1  0.08818423  0.90935144  0.06965518  1
  H+  H354  1  0.13901329  0.61646409  -0.00412364  1
  H+  H355  1  0.10908163  0.80772775  0.56630221  1
  H+  H356  1  0.20291197  0.33986317  0.94132412  1
  H+  H357  1  0.92751161  0.61045951  0.22803863  1
  H+  H358  1  0.12105288  0.13654078  0.83117565  1
  H+  H359  1  0.80582851  0.39609947  0.41317831  1
  H+  H360  1  0.56955181  0.39411164  0.75982939  1
  H+  H361  1  0.41952592  0.33538624  0.59827438  1
  H+  H362  1  1.03868492  0.89265327  0.83282556  1
  H+  H363  1  0.16878818  0.59064252  0.61550718  1
  H+  H364  1  0.15058125  0.86614851  0.99877177  1
  H+  H365  1  0.58203109  0.33770014  0.01437906  1
  H+  H366  1  0.92345313  0.61280433  0.59717441  1
  H+  H367  1  0.60929650  0.89983102  0.79868529  1
  H+  H368  1  0.42625354  0.08430979  0.94133999  1
  H+  H369  1  0.39526219  0.84068913  0.56126065  1
  H+  H370  1  0.18118519  0.37182051  0.57894886  1
  H+  H371  1  0.34788422  0.42961603  0.76443048  1
  H+  H372  1  0.33692041  0.92015032  0.07160961  1
  H+  H373  1  0.39268545  0.06181046  0.56730194  1
  H+  H374  1  0.83099229  0.66612664  0.43752771  1
  H+  H375  1  0.31225576  0.17629054  0.09629290  1
  H+  H376  1  0.37376046  0.99227911  0.83560435  1
  H+  H377  1  0.67950181  0.36756450  0.25726385  1
  H+  H378  1  0.68260646  0.82277777  0.93437577  1
  H+  H379  1  0.65405263  0.06191995  0.93670787  1
  H+  H380  1  0.57047359  0.39967268  0.10275354  1
  H+  H381  1  0.42765583  0.58212280  0.59408764  1
  H+  H382  1  0.38346029  0.28975573  0.17132722  1
  H+  H383  1  0.66609334  0.56585701  0.59415902  1
  O2-  O384  1  0.04838139  0.13080619  0.13371202  1
  O2-  O385  1  0.07237522  0.18391725  0.55107007  1
  O2-  O386  1  0.08558264  0.15776925  0.80977932  1
  O2-  O387  1  0.10817683  0.43057092  0.13989147  1
  O2-  O388  1  0.08306221  0.42388715  0.47877227  1
  O2-  O389  1  0.11967544  0.38046718  0.82633006  1
  O2-  O390  1  0.08653345  0.68378519  0.14812479  1
  O2-  O391  1  0.07245942  0.66286844  0.48240788  1
  O2-  O392  1  0.09781015  0.67967041  0.81525212  1
  O2-  O393  1  0.08830874  0.91079597  0.15407771  1
  O2-  O394  1  0.06498627  0.92952459  0.49523907  1
  O2-  O395  1  0.09980932  0.92772443  0.81855523  1
  O2-  O396  1  0.31887860  0.18145817  0.14225967  1
  O2-  O397  1  0.31976717  0.15924446  0.49429941  1
  O2-  O398  1  0.33679655  0.17471612  0.80985069  1
  O2-  O399  1  0.37509370  0.47300692  0.15539207  1
  O2-  O400  1  0.32691368  0.41697753  0.48287188  1
  O2-  O401  1  0.34026466  0.42929737  0.80987527  1
  O2-  O402  1  0.33132250  0.66701800  0.14850985  1
  O2-  O403  1  0.32773467  0.66282850  0.47656195  1
  O2-  O404  1  0.34634893  0.68792938  0.81492811  1
  O2-  O405  1  0.33481286  0.92104211  0.15280192  1
  O2-  O406  1  0.32707299  0.91505753  0.47127466  1
  O2-  O407  1  0.34507911  0.93131944  0.82022252  1
  O2-  O408  1  0.62154295  0.18509564  0.14041368  1
  O2-  O409  1  0.56532740  0.14951963  0.51993512  1
  O2-  O410  1  0.58684026  0.16996512  0.81372832  1
  O2-  O411  1  0.58105925  0.41983852  0.14696362  1
  O2-  O412  1  0.55231589  0.42018839  0.44826544  1
  O2-  O413  1  0.56389334  0.38114820  0.80595942  1
  O2-  O414  1  0.56229691  0.66113574  0.14086988  1
  O2-  O415  1  0.57826368  0.65993805  0.46975536  1
  O2-  O416  1  0.58056367  0.65133387  0.80481217  1
  O2-  O417  1  0.57832145  0.91953552  0.20720134  1
  O2-  O418  1  0.56755076  0.90827527  0.48260825  1
  O2-  O419  1  0.57736494  0.92878529  0.78865387  1
  O2-  O420  1  0.85881852  0.14798371  0.19685429  1
  O2-  O421  1  0.83769377  0.18242041  0.47555021  1
  O2-  O422  1  0.82874286  0.15445825  0.84020530  1
  O2-  O423  1  0.84865712  0.42836591  0.16593418  1
  O2-  O424  1  0.83933999  0.42354976  0.56296147  1
  O2-  O425  1  0.83672215  0.42162515  0.78934874  1
  O2-  O426  1  0.81693805  0.66268673  0.16315634  1
  O2-  O427  1  0.82883732  0.66428352  0.48298297  1
  O2-  O428  1  0.83231100  0.64859643  0.80756538  1
  O2-  O429  1  0.81043683  0.87834658  0.13714073  1
  O2-  O430  1  0.82667591  0.91363015  0.47839382  1
  O2-  O431  1  0.85539322  0.90332049  0.81840214  1
  O2-  O432  1  0.15628082  0.07700443  0.18123200  1
  O2-  O433  1  0.16811566  0.09484361  0.55767685  1
  O2-  O434  1  0.17536977  0.09155448  0.85990609  1
  O2-  O435  1  0.20149217  0.37153208  0.19312011  1
  O2-  O436  1  0.17200852  0.34900433  0.53775561  1
  O2-  O437  1  0.16336228  0.33940606  0.81819860  1
  O2-  O438  1  0.16301553  0.59608501  0.18552478  1
  O2-  O439  1  0.18091613  0.62709224  0.54859734  1
  O2-  O440  1  0.18325009  0.61594957  0.85518635  1
  O2-  O441  1  0.17836187  0.84367586  0.20807908  1
  O2-  O442  1  0.12320095  0.82349528  0.52339545  1
  O2-  O443  1  0.18172416  0.84563110  0.86079245  1
  O2-  O444  1  0.39610091  0.08899200  0.19566848  1
  O2-  O445  1  0.39576889  0.06424820  0.52146279  1
  O2-  O446  1  0.42327668  0.09513957  0.85722900  1
  O2-  O447  1  0.42294458  0.34688511  0.18964308  1
  O2-  O448  1  0.40821345  0.33027832  0.52059222  1
  O2-  O449  1  0.40221158  0.33567946  0.85937617  1
  O2-  O450  1  0.40381472  0.56106591  0.17611543  1
  O2-  O451  1  0.41483036  0.58417982  0.51698259  1
  O2-  O452  1  0.41950753  0.59357035  0.85230954  1
  O2-  O453  1  0.40838355  0.83042365  0.19527743  1
  O2-  O454  1  0.40131768  0.83906289  0.51569731  1
  O2-  O455  1  0.43936797  0.85360022  0.84413972  1
  O2-  O456  1  0.69118184  0.09631270  0.19357608  1
  O2-  O457  1  0.66666760  0.08060047  0.50240776  1
  O2-  O458  1  0.65572855  0.07609370  0.85578014  1
  O2-  O459  1  0.67604095  0.35086167  0.18202887  1
  O2-  O460  1  0.66421894  0.31881540  0.54433886  1
  O2-  O461  1  0.68626668  0.33796702  0.84952091  1
  O2-  O462  1  0.64500178  0.57514502  0.18694642  1
  O2-  O463  1  0.65719513  0.57508883  0.51332388  1
  O2-  O464  1  0.66178722  0.56410462  0.83449683  1
  O2-  O465  1  0.63475972  0.83419288  0.13399155  1
  O2-  O466  1  0.65950027  0.82719436  0.50649275  1
  O2-  O467  1  0.70730392  0.78439510  0.87062705  1
  O2-  O468  1  0.88395141  0.04153263  0.12507666  1
  O2-  O469  1  0.84212898  0.05232026  0.53811238  1
  O2-  O470  1  0.92075759  0.07111706  0.84540355  1
  O2-  O471  1  0.93754345  0.32309157  0.18362526  1
  O2-  O472  1  0.91791884  0.35777092  0.50864589  1
  O2-  O473  1  0.91266633  0.34117563  0.82804886  1
  O2-  O474  1  0.92149566  0.60419378  0.18254831  1
  O2-  O475  1  0.91006158  0.58643079  0.53203855  1
  O2-  O476  1  0.93140239  0.57929635  0.84492825  1
  O2-  O477  1  0.91773759  0.83456688  0.19655058  1
  O2-  O478  1  0.90453713  0.83357210  0.53046448  1
  O2-  O479  1  0.93005795  0.81496761  0.83448045  1
  O2-  O480  1  0.17864250  0.10214156  0.30225147  1
  O2-  O481  1  0.17666478  0.07679605  0.62182305  1
  O2-  O482  1  0.16295465  0.07667963  0.98500113  1
  O2-  O483  1  0.19199684  0.35586534  0.30968999  1
  O2-  O484  1  0.17733699  0.32583267  0.69053814  1
  O2-  O485  1  0.18630649  0.34375049  0.98292033  1
  O2-  O486  1  0.15742613  0.58326027  0.30875009  1
  O2-  O487  1  0.16902572  0.58342316  0.66144916  1
  O2-  O488  1  0.17599881  0.59614767  0.97674675  1
  O2-  O489  1  0.19927684  0.84632175  0.33134129  1
  O2-  O490  1  0.13663203  0.80225698  0.65068670  1
  O2-  O491  1  0.17920119  0.83496233  0.98190128  1
  O2-  O492  1  0.38983516  0.05699541  0.31482193  1
  O2-  O493  1  0.40422751  0.07860500  0.64416921  1
  O2-  O494  1  0.42731309  0.07530736  0.98553082  1
  O2-  O495  1  0.41352521  0.24410065  0.34710243  1
  O2-  O496  1  0.41844362  0.33314145  0.64371381  1
  O2-  O497  1  0.39658706  0.33335494  0.98831196  1
  O2-  O498  1  0.40323828  0.58051103  0.30602468  1
  O2-  O499  1  0.43722035  0.58420558  0.63901280  1
  O2-  O500  1  0.40993656  0.58318585  0.97585285  1
  O2-  O501  1  0.36956535  0.81371928  0.31860435  1
  O2-  O502  1  0.39065892  0.84586288  0.63745955  1
  O2-  O503  1  0.43882310  0.84098139  1.00611366  1
  O2-  O504  1  0.68422771  0.09060919  0.31200640  1
  O2-  O505  1  0.62471969  0.09171871  0.61735343  1
  O2-  O506  1  0.66717303  0.07066143  0.98104910  1
  O2-  O507  1  0.69269937  0.38596330  0.30097399  1
  O2-  O508  1  0.64455765  0.32055893  0.65617900  1
  O2-  O509  1  0.66652774  0.32133206  0.97798101  1
  O2-  O510  1  0.60691047  0.55788194  0.29709214  1
  O2-  O511  1  0.67022294  0.56521072  0.63934153  1
  O2-  O512  1  0.70464909  0.64881782  0.93186561  1
  O2-  O513  1  0.62464128  0.82685150  0.33068543  1
  O2-  O514  1  0.60078357  0.80853084  0.62987549  1
  O2-  O515  1  0.67155406  0.83354561  0.97695496  1
  O2-  O516  1  0.92347621  0.10357024  0.29878692  1
  O2-  O517  1  0.93217935  0.10994318  0.63464767  1
  O2-  O518  1  0.93274444  0.10228998  0.96406549  1
  O2-  O519  1  0.93527376  0.34136937  0.30462472  1
  O2-  O520  1  0.93115663  0.33012489  0.66797404  1
  O2-  O521  1  0.92172215  0.35558355  0.94818227  1
  O2-  O522  1  0.93178641  0.61003704  0.30488831  1
  O2-  O523  1  0.93084768  0.62140519  0.64435926  1
  O2-  O524  1  0.93083577  0.56763445  0.96716019  1
  O2-  O525  1  0.84344576  0.80013196  0.31057431  1
  O2-  O526  1  0.91547089  0.83434772  0.65218903  1
  O2-  O527  1  0.98036749  0.78554126  0.94297164  1
  O2-  O528  1  0.09082501  0.17200148  0.01441692  1
  O2-  O529  1  0.09914885  0.18407170  0.32779868  1
  O2-  O530  1  0.10372349  0.15862565  0.68683001  1
  O2-  O531  1  0.09950416  0.42665404  -0.05165222  1
  O2-  O532  1  0.09582862  0.42169470  0.35276551  1
  O2-  O533  1  0.09882848  0.42057685  0.70451576  1
  O2-  O534  1  0.08746553  0.66986198  0.02230225  1
  O2-  O535  1  0.08804866  0.67306271  0.35864031  1
  O2-  O536  1  0.09310970  0.65621791  0.70536229  1
  O2-  O537  1  0.09353519  0.91153106  0.02459880  1
  O2-  O538  1  0.05704397  0.95034419  0.34973289  1
  O2-  O539  1  0.08238332  0.89618328  0.69503776  1
  O2-  O540  1  0.29325082  0.17133253  0.02176683  1
  O2-  O541  1  0.34433651  0.17465935  0.36531045  1
  O2-  O542  1  0.32736708  0.16827999  0.67956004  1
  O2-  O543  1  0.34212778  0.43671238  0.03677118  1
  O2-  O544  1  0.34095797  0.43093013  0.36009100  1
  O2-  O545  1  0.34919117  0.42433806  0.68814751  1
  O2-  O546  1  0.33464108  0.66537182  0.02344980  1
  O2-  O547  1  0.31694813  0.65583372  0.35485651  1
  O2-  O548  1  0.33831079  0.68734349  0.69516384  1
  O2-  O549  1  0.33877140  0.91584248  0.02663844  1
  O2-  O550  1  0.29013680  0.89051701  0.35110651  1
  O2-  O551  1  0.31833092  0.92460334  0.70406911  1
  O2-  O552  1  0.60052875  0.16485448  0.02451753  1
  O2-  O553  1  0.53158410  0.05008634  0.36599637  1
  O2-  O554  1  0.56332806  0.16446562  0.68992923  1
  O2-  O555  1  0.54261115  0.34453981  0.04191839  1
  O2-  O556  1  0.47802865  0.41898834  0.34121064  1
  O2-  O557  1  0.57593329  0.40445730  0.68961599  1
  O2-  O558  1  0.57522917  0.67634527  0.01494861  1
  O2-  O559  1  0.56498407  0.65996078  0.34426360  1
  O2-  O560  1  0.58648285  0.64215282  0.67957091  1
  O2-  O561  1  0.60125994  0.91124233  0.03455295  1
  O2-  O562  1  0.52709222  0.90155079  0.36324927  1
  O2-  O563  1  0.55624244  0.93310201  0.66999573  1
  O2-  O564  1  0.83862681  0.17930663  -0.03948782  1
  O2-  O565  1  0.84962928  0.18450069  0.35478890  1
  O2-  O566  1  0.84795138  0.16632271  0.69775533  1
  O2-  O567  1  0.80709387  0.43813947  0.03641464  1
  O2-  O568  1  0.85982398  0.43852113  0.29305141  1
  O2-  O569  1  0.89434660  0.47267739  0.67630022  1
  O2-  O570  1  0.84739854  0.65639852  -0.01780970  1
  O2-  O571  1  0.82628640  0.66214972  0.35791259  1
  O2-  O572  1  0.82777777  0.66517702  0.68821762  1
  O2-  O573  1  0.82766460  0.95378159  0.01973712  1
  O2-  O574  1  0.91320766  0.95903975  0.36109747  1
  O2-  O575  1  0.87599295  0.94805489  0.69489120  1
