# generated using pymatgen
data_H2O
_symmetry_space_group_name_H-M   'P 1'
_cell_length_a   17.98839476
_cell_length_b   17.99422635
_cell_length_c   22.00821398
_cell_angle_alpha   90.00191932
_cell_angle_beta   90.03022721
_cell_angle_gamma   120.01744685
_symmetry_Int_Tables_number   1
_chemical_formula_structural   H2O
_chemical_formula_sum   'H384 O192'
_cell_volume   6168.28676572
_cell_formula_units_Z   192
loop_
 _symmetry_equiv_pos_site_id
 _symmetry_equiv_pos_as_xyz
  1  'x, y, z'
loop_
 _atom_type_symbol
 _atom_type_oxidation_number
  H+  1.0
  O2-  -2.0
loop_
 _atom_site_type_symbol
 _atom_site_label
 _atom_site_symmetry_multiplicity
 _atom_site_fract_x
 _atom_site_fract_y
 _atom_site_fract_z
 _atom_site_occupancy
  H+  H0  1  0.90236791  1.02288112  0.15411386  1
  H+  H1  1  0.63569916  0.27057907  0.17876282  1
  H+  H2  1  0.21751294  0.85640155  0.50583303  1
  H+  H3  1  0.86232934  0.88534308  0.99179700  1
  H+  H4  1  0.76596822  0.06667179  0.82004953  1
  H+  H5  1  0.14532346  0.62213240  0.33200556  1
  H+  H6  1  0.52842738  0.89464393  0.67543248  1
  H+  H7  1  0.87990849  0.35460147  0.16651174  1
  H+  H8  1  0.20168790  0.60541524  0.84688166  1
  H+  H9  1  0.10487838  0.39764648  0.67575459  1
  H+  H10  1  0.11650643  0.85123291  0.84631956  1
  H+  H11  1  0.58131168  0.41349369  0.22535102  1
  H+  H12  1  0.11443213  0.22708216  0.49579819  1
  H+  H13  1  -0.01934509  0.11564672  0.51875593  1
  H+  H14  1  0.86557685  0.90217030  0.35647556  1
  H+  H15  1  0.12988804  0.38118838  0.84082705  1
  H+  H16  1  0.35778882  0.46576351  0.34594636  1
  H+  H17  1  0.53978182  0.14094611  0.80653054  1
  H+  H18  1  0.10773311  0.72142762  0.50291105  1
  H+  H19  1  0.86453836  0.14115975  0.34666827  1
  H+  H20  1  0.78627590  0.90402954  0.16062897  1
  H+  H21  1  0.16458539  0.82676998  0.92801331  1
  H+  H22  1  0.14336955  0.87414021  0.66450832  1
  H+  H23  1  0.88805901  0.26970332  0.17082122  1
  H+  H24  1  0.65813916  0.29929068  0.98154517  1
  H+  H25  1  0.12804814  0.52645839  0.17458538  1
  H+  H26  1  0.87033541  0.88602838  0.83073543  1
  H+  H27  1  0.64408463  0.78636076  0.33824519  1
  H+  H28  1  0.36476544  0.63734210  0.49381837  1
  H+  H29  1  0.77121704  0.37176076  0.15669177  1
  H+  H30  1  0.37950893  0.77620462  0.13884020  1
  H+  H31  1  0.35279455  0.22376913  0.14627520  1
  H+  H32  1  0.03434643  0.15360080  0.68098496  1
  H+  H33  1  0.38196380  0.86816581  0.84178321  1
  H+  H34  1  0.22429361  0.11185868  0.51912865  1
  H+  H35  1  0.34849941  0.87777744  0.48583085  1
  H+  H36  1  0.52809574  0.62967315  0.66956664  1
  H+  H37  1  0.08687569  0.92033781  0.10946628  1
  H+  H38  1  0.49374445  0.65001574  0.79805981  1
  H+  H39  1  0.12822662  0.76970947  0.83772573  1
  H+  H40  1  0.11689980  0.64366333  0.15734023  1
  H+  H41  1  0.34954303  0.96662635  0.48875747  1
  H+  H42  1  1.02763499  0.88082734  0.67759400  1
  H+  H43  1  0.13261615  0.98329235  0.00516348  1
  H+  H44  1  0.26064082  0.37006094  0.34417252  1
  H+  H45  1  0.85014620  0.62595135  -0.00062854  1
  H+  H46  1  0.38886745  0.37404336  0.15264320  1
  H+  H47  1  0.59810010  0.51374186  -0.02877056  1
  H+  H48  1  0.61820450  0.73324662  0.18119739  1
  H+  H49  1  0.40615483  0.83530175  0.56124515  1
  H+  H50  1  0.61640309  0.15377884  1.00928469  1
  H+  H51  1  0.63000991  0.85711538  0.51055677  1
  H+  H52  1  0.12614490  0.72708225  0.35837388  1
  H+  H53  1  0.63913657  0.28153744  0.82347414  1
  H+  H54  1  0.37255010  0.63996380  0.65879021  1
  H+  H55  1  0.86276099  0.16558335  0.67356193  1
  H+  H56  1  0.38444675  0.77713420  0.99952898  1
  H+  H57  1  0.64826955  0.58055375  0.87409134  1
  H+  H58  1  0.37814477  0.09960576  0.51023183  1
  H+  H59  1  0.71476757  0.86951888  0.18547160  1
  H+  H60  1  0.09736320  0.89679135  0.27692097  1
  H+  H61  1  0.35656420  0.13071774  0.00159363  1
  H+  H62  1  0.98543435  0.86092388  0.18233041  1
  H+  H63  1  0.87482932  1.02663504  -0.01916921  1
  H+  H64  1  0.63324377  0.85295966  0.66382287  1
  H+  H65  1  0.50688463  0.55723708  0.97531405  1
  H+  H66  1  0.05983572  0.15640308  0.13419688  1
  H+  H67  1  0.02642277  0.63982723  0.14953787  1
  H+  H68  1  0.59638971  0.14085985  0.15618530  1
  H+  H69  1  0.13641130  0.77316125  0.17501114  1
  H+  H70  1  0.79337227  0.10648690  0.14329810  1
  H+  H71  1  0.59798888  0.72587857  0.82214140  1
  H+  H72  1  0.37445286  0.48676593  0.15305315  1
  H+  H73  1  0.56110759  0.41413685  0.36180862  1
  H+  H74  1  0.36044989  0.98863775  0.67932809  1
  H+  H75  1  0.39902109  0.01562833  0.83769539  1
  H+  H76  1  0.97875042  0.36740858  0.50487557  1
  H+  H77  1  0.35234610  0.13857861  0.69680069  1
  H+  H78  1  0.11820531  0.65194610  0.67876227  1
  H+  H79  1  0.09827304  0.47768968  0.83121793  1
  H+  H80  1  0.53716226  0.64872489  0.34096242  1
  H+  H81  1  0.73035791  0.87084709  -0.01170749  1
  H+  H82  1  0.63523100  0.61395080  -0.01826484  1
  H+  H83  1  1.01941600  0.38684332  0.15982474  1
  H+  H84  1  0.63836294  0.52558377  0.81636105  1
  H+  H85  1  0.46521856  0.09732052  0.51340803  1
  H+  H86  1  0.62641618  0.64872138  0.34299234  1
  H+  H87  1  0.88416386  0.60518985  0.14681714  1
  H+  H88  1  0.87371078  0.38245482  0.32796642  1
  H+  H89  1  0.12622011  0.51923449  1.00665811  1
  H+  H90  1  0.46675819  0.12626211  0.16935810  1
  H+  H91  1  0.62912074  0.02055536  1.00040142  1
  H+  H92  1  0.19743881  0.08205683  0.81572603  1
  H+  H93  1  0.86158048  0.14627207  -0.00396879  1
  H+  H94  1  0.40423197  0.31422517  0.88129891  1
  H+  H95  1  0.13883693  0.52719657  0.51166946  1
  H+  H96  1  0.53495741  0.38796774  0.63610379  1
  H+  H97  1  0.52509063  0.90839871  0.16568119  1
  H+  H98  1  0.61488104  0.42797136  0.42166571  1
  H+  H99  1  0.39822320  0.54175770  0.32714480  1
  H+  H100  1  0.46814178  0.12846313  0.65687195  1
  H+  H101  1  0.60105186  0.37973901  0.80372888  1
  H+  H102  1  0.98240762  0.84957268  0.33398145  1
  H+  H103  1  0.36992167  0.62979100  0.81480324  1
  H+  H104  1  0.32188470  0.65560822  0.89767785  1
  H+  H105  1  0.88365273  0.51621995  0.83313854  1
  H+  H106  1  0.54947033  0.39244243  0.52235056  1
  H+  H107  1  0.34347332  0.20853709  0.79534382  1
  H+  H108  1  0.99336906  0.62005641  0.35033473  1
  H+  H109  1  0.28220283  0.40007862  0.15255931  1
  H+  H110  1  0.47056469  0.97740067  0.22268356  1
  H+  H111  1  0.66413734  0.53636733  0.33962356  1
  H+  H112  1  0.77861349  0.63563503  0.34035243  1
  H+  H113  1  0.73401158  0.61792170  0.51352782  1
  H+  H114  1  0.63425703  0.85212518  0.83967574  1
  H+  H115  1  0.12396602  0.61709856  1.00344999  1
  H+  H116  1  0.76928881  0.38513263  0.81723305  1
  H+  H117  1  0.39982949  0.08255214  0.22458837  1
  H+  H118  1  0.22721377  0.37314691  0.98768108  1
  H+  H119  1  0.33391258  0.19101906  0.35046102  1
  H+  H120  1  0.42169120  0.08291098  0.93440829  1
  H+  H121  1  0.11271473  0.98003436  0.16825578  1
  H+  H122  1  0.90107682  0.12118267  0.14812772  1
  H+  H123  1  0.87612445  0.76506231  0.98688842  1
  H+  H124  1  0.64722000  0.53571860  0.18658713  1
  H+  H125  1  0.22717342  0.11263152  0.17536959  1
  H+  H126  1  0.47545372  0.94601414  0.61611558  1
  H+  H127  1  0.01355823  0.39320649  0.33645804  1
  H+  H128  1  0.50809563  0.37213228  0.80458923  1
  H+  H129  1  0.65074768  0.62696800  0.18725557  1
  H+  H130  1  0.87654881  0.63720903  0.34819498  1
  H+  H131  1  0.11525866  0.39148834  0.49022147  1
  H+  H132  1  0.09287362  0.20388014  0.35010833  1
  H+  H133  1  0.60912398  0.21433977  0.50736770  1
  H+  H134  1  0.41639669  0.84691184  0.90396066  1
  H+  H135  1  0.22313634  0.37846329  0.83868653  1
  H+  H136  1  0.39680155  0.89761658  0.65896094  1
  H+  H137  1  0.27976432  0.64105781  0.33822150  1
  H+  H138  1  0.87174977  0.72067393  0.15934351  1
  H+  H139  1  0.63742239  0.77152573  0.50989088  1
  H+  H140  1  1.01938225  0.40228651  0.67643840  1
  H+  H141  1  0.22060981  0.11636427  0.67821256  1
  H+  H142  1  -0.02759635  0.60592107  0.51144778  1
  H+  H143  1  0.26627913  0.88914474  0.82568719  1
  H+  H144  1  0.89781332  0.20101450  0.82402170  1
  H+  H145  1  0.96510987  0.10897656  0.98211451  1
  H+  H146  1  0.61864111  0.48149861  0.66249416  1
  H+  H147  1  0.11312518  0.63428344  0.50386881  1
  H+  H148  1  0.14294715  0.85864537  -0.00958137  1
  H+  H149  1  0.65625089  0.36921208  0.33685031  1
  H+  H150  1  0.89173590  0.84980604  0.18660570  1
  H+  H151  1  0.61620416  0.71995177  0.67064854  1
  H+  H152  1  0.87709431  0.47976807  0.34151547  1
  H+  H153  1  0.63177918  0.15399253  0.79379639  1
  H+  H154  1  0.85903519  0.39175409  0.66845207  1
  H+  H155  1  0.85443502  0.45101775  0.12803981  1
  H+  H156  1  0.37027906  0.38391841  0.52210880  1
  H+  H157  1  0.36197180  0.88547954  0.00892209  1
  H+  H158  1  0.99692120  0.12088095  0.35344417  1
  H+  H159  1  0.71993364  0.84392127  0.84134828  1
  H+  H160  1  0.73112706  0.12137459  0.33781043  1
  H+  H161  1  0.73914564  0.36521650  0.51243479  1
  H+  H162  1  0.64400992  0.36695716  0.51757705  1
  H+  H163  1  0.63590806  0.13062580  0.34905612  1
  H+  H164  1  0.77329751  0.89003524  0.50829706  1
  H+  H165  1  0.11851754  0.26943955  0.65675350  1
  H+  H166  1  0.48882776  0.61995122  0.17372944  1
  H+  H167  1  0.12086529  0.74115669  0.68076868  1
  H+  H168  1  0.34880096  0.37732830  0.66673037  1
  H+  H169  1  0.60849770  0.12604553  0.50564001  1
  H+  H170  1  0.13611663  0.11418517  0.51809046  1
  H+  H171  1  0.37057206  0.76000701  0.17095511  1
  H+  H172  1  0.52746793  0.39432033  0.16700964  1
  H+  H173  1  0.11513537  0.60687463  0.83663091  1
  H+  H174  1  0.38803377  0.77833824  0.32660754  1
  H+  H175  1  0.83509619  0.65760713  0.73711029  1
  H+  H176  1  0.36344938  0.21722740  0.50181567  1
  H+  H177  1  0.87184490  0.59989028  0.66225587  1
  H+  H178  1  0.10515918  0.72029560  0.99967796  1
  H+  H179  1  0.13017021  0.85818551  0.51180791  1
  H+  H180  1  0.11163455  0.39283899  0.15694646  1
  H+  H181  1  0.09188642  0.10097461  0.99173078  1
  H+  H182  1  0.14141791  0.15309076  0.15549313  1
  H+  H183  1  0.02459086  0.40010708  0.00668544  1
  H+  H184  1  0.86308080  0.71172200  0.67467237  1
  H+  H185  1  0.88424755  0.27482441  0.32372020  1
  H+  H186  1  0.39621584  0.63031539  0.32793747  1
  H+  H187  1  0.44224787  0.58921420  0.96130756  1
  H+  H188  1  0.63247219  1.03170937  0.16241996  1
  H+  H189  1  0.85510206  0.11140129  0.49821429  1
  H+  H190  1  0.34868249  0.60395695  0.14966117  1
  H+  H191  1  0.53032394  0.15622224  0.00411259  1
  H+  H192  1  0.48536224  0.61887722  0.50621576  1
  H+  H193  1  0.73078541  0.60486386  0.66799703  1
  H+  H194  1  0.36109983  0.08554114  0.32365224  1
  H+  H195  1  0.13893546  0.86364391  0.17838229  1
  H+  H196  1  0.61098950  0.89549819  0.34669885  1
  H+  H197  1  0.72861258  0.11307082  0.66560160  1
  H+  H198  1  0.60321514  0.88990951  0.16931527  1
  H+  H199  1  0.15321982  0.28414459  0.15795919  1
  H+  H200  1  0.42471055  0.59116472  0.22963073  1
  H+  H201  1  0.86245835  -0.00819387  0.35960118  1
  H+  H202  1  0.64231301  1.00833559  0.66827093  1
  H+  H203  1  0.20541677  0.83312267  0.28649819  1
  H+  H204  1  0.37384751  0.28521193  0.58795002  1
  H+  H205  1  0.12177910  0.14947631  0.67959451  1
  H+  H206  1  0.35364523  -0.00340803  0.31367690  1
  H+  H207  1  0.86851949  0.73246298  0.50274034  1
  H+  H208  1  0.85631738  0.93523240  0.67463015  1
  H+  H209  1  0.85175139  0.47239427  0.50064737  1
  H+  H210  1  0.61990520  0.63619259  0.49908796  1
  H+  H211  1  0.78117209  0.64291055  0.82308853  1
  H+  H212  1  0.77905322  0.63788820  0.16113655  1
  H+  H213  1  0.62101253  0.96626787  0.82580799  1
  H+  H214  1  0.76027935  0.85891308  0.67605227  1
  H+  H215  1  0.13951040  0.35427202  0.33367769  1
  H+  H216  1  0.16544679  0.08713111  0.23557606  1
  H+  H217  1  0.91816507  0.82265680  0.27916034  1
  H+  H218  1  0.13744250  0.53533299  0.66498163  1
  H+  H219  1  0.37249361  0.72601452  0.67524782  1
  H+  H220  1  0.38355687  0.62566467  0.74577672  1
  H+  H221  1  0.11314903  0.09677666  0.33415263  1
  H+  H222  1  0.37750657  0.76749383  0.50522791  1
  H+  H223  1  0.66033331  0.82748510  0.93568642  1
  H+  H224  1  0.13924096  0.53233174  0.32640124  1
  H+  H225  1  0.35527284  0.13581943  0.15505822  1
  H+  H226  1  1.00504483  0.12174614  0.82538171  1
  H+  H227  1  0.22129416  0.10703555  0.97592840  1
  H+  H228  1  0.80056951  0.43828096  -0.01547547  1
  H+  H229  1  0.60759746  0.23511385  0.63150594  1
  H+  H230  1  0.25749583  0.60216624  0.15246424  1
  H+  H231  1  0.86488517  1.01768422  0.83451849  1
  H+  H232  1  0.60713825  0.68525671  0.11762549  1
  H+  H233  1  0.89487185  0.07094919  0.67708053  1
  H+  H234  1  0.77945153  0.38713322  0.33533373  1
  H+  H235  1  0.12187362  0.01224388  0.32343619  1
  H+  H236  1  0.86080407  0.49212176  0.66514746  1
  H+  H237  1  0.97586149  0.86696518  0.51382783  1
  H+  H238  1  0.77355500  0.14749389  0.00325788  1
  H+  H239  1  0.16825566  0.35594013  -0.09135138  1
  H+  H240  1  0.51156473  0.87787353  0.49702270  1
  H+  H241  1  0.63208379  0.74685165  0.02191341  1
  H+  H242  1  0.10278037  0.39394881  0.34551354  1
  H+  H243  1  0.35340656  0.73506441  0.85372929  1
  H+  H244  1  0.51095256  0.37382033  -0.01237228  1
  H+  H245  1  0.16044017  0.33488895  0.55804972  1
  H+  H246  1  0.37221215  0.46237014  0.00324793  1
  H+  H247  1  0.70357965  0.13223300  0.16026222  1
  H+  H248  1  0.85548781  0.38553239  0.49810132  1
  H+  H249  1  0.71625755  0.08938415  0.51359194  1
  H+  H250  1  0.24424870  0.10775714  0.35136707  1
  H+  H251  1  0.66188239  0.82599177  0.60196848  1
  H+  H252  1  0.35843216  0.37131429  0.35335775  1
  H+  H253  1  0.36455531  0.90756271  0.16462155  1
  H+  H254  1  0.61419807  0.88916467  0.00717616  1
  H+  H255  1  0.35241902  0.47810623  0.80824766  1
  H+  H256  1  0.96184280  0.85042676  0.96767825  1
  H+  H257  1  0.37838973  0.25871986  0.98283963  1
  H+  H258  1  0.37476697  0.35114396  0.82721118  1
  H+  H259  1  0.88933950  0.27938730  0.50794841  1
  H+  H260  1  0.73073775  0.87768575  0.34167923  1
  H+  H261  1  0.39755447  0.52868978  0.51169288  1
  H+  H262  1  0.11422761  0.98284142  0.50797344  1
  H+  H263  1  0.95746700  0.58532416  0.99399103  1
  H+  H264  1  0.67212367  0.58355006  0.57142488  1
  H+  H265  1  0.15940372  0.06530357  0.91718393  1
  H+  H266  1  0.39026702  0.02714852  0.99475286  1
  H+  H267  1  0.42952490  0.31288275  0.39057089  1
  H+  H268  1  0.62952634  0.23147780  0.35325570  1
  H+  H269  1  0.39073033  0.52471041  0.65330476  1
  H+  H270  1  0.27365502  0.63451626  0.49507190  1
  H+  H271  1  0.82935110  0.66323567  0.05728156  1
  H+  H272  1  0.22973469  0.61960211  0.66223629  1
  H+  H273  1  0.64131394  0.60668651  0.66640188  1
  H+  H274  1  0.52156369  0.89627438  0.34536340  1
  H+  H275  1  0.63683039  1.02978838  0.34143966  1
  H+  H276  1  0.08349237  0.42557997  0.06785661  1
  H+  H277  1  0.37767018  0.34663839  0.98197839  1
  H+  H278  1  0.23306924  0.36721716  0.50741360  1
  H+  H279  1  0.89244364  0.02422357  0.52435692  1
  H+  H280  1  0.34868306  0.63881213  0.00168720  1
  H+  H281  1  0.88063601  0.83470306  0.66789520  1
  H+  H282  1  0.87082208  0.89518351  0.15265347  1
  H+  H283  1  0.25598408  0.87488841  0.15980398  1
  H+  H284  1  0.88526941  0.86470446  0.51613473  1
  H+  H285  1  0.85273205  0.37340442  0.81569829  1
  H+  H286  1  0.87871769  0.73511704  0.34301402  1
  H+  H287  1  0.47609615  0.86448817  -0.00097242  1
  H+  H288  1  0.33713527  0.66920348  0.39890776  1
  H+  H289  1  0.31399335  0.40632231  0.75942978  1
  H+  H290  1  0.66584309  0.84649979  0.25135556  1
  H+  H291  1  0.58156212  0.91512775  0.06788327  1
  H+  H292  1  0.91277188  0.33142361  0.26045841  1
  H+  H293  1  0.43686670  0.31764471  0.31908549  1
  H+  H294  1  0.89208405  0.29834509  -0.00557851  1
  H+  H295  1  0.31945509  0.15781639  0.05847731  1
  H+  H296  1  0.42732214  0.88214752  0.24543162  1
  H+  H297  1  0.52279771  0.88582750  0.83185733  1
  H+  H298  1  0.92195954  0.10579630  0.60908033  1
  H+  H299  1  0.57994731  0.18565038  0.09881786  1
  H+  H300  1  0.27481804  0.89531704  0.67332080  1
  H+  H301  1  0.92188479  0.78753339  0.82173405  1
  H+  H302  1  0.48318247  0.04112555  0.87275644  1
  H+  H303  1  0.08037467  0.67036318  0.06345864  1
  H+  H304  1  0.88061606  0.28907020  0.65699972  1
  H+  H305  1  0.83855998  0.67280041  0.44369376  1
  H+  H306  1  0.89148866  0.08284270  0.88985051  1
  H+  H307  1  0.11442227  0.08957099  0.83087611  1
  H+  H308  1  0.31789027  0.64643808  0.06741231  1
  H+  H309  1  0.83879525  0.92105912  0.05041151  1
  H+  H310  1  0.17305741  0.33783287  0.21918748  1
  H+  H311  1  0.59299432  0.66881821  0.43911128  1
  H+  H312  1  0.82946622  0.41861947  0.73099973  1
  H+  H313  1  0.13457460  0.88355789  0.33607581  1
  H+  H314  1  0.29185507  0.89260017  0.39555912  1
  H+  H315  1  0.32151368  0.15223241  0.44407633  1
  H+  H316  1  0.86630001  0.63606730  0.82746931  1
  H+  H317  1  0.89372170  0.07403273  0.29534077  1
  H+  H318  1  0.32741639  0.91747765  0.76662093  1
  H+  H319  1  0.95553145  0.09711845  0.20523301  1
  H+  H320  1  0.07701053  0.41909635  0.77126591  1
  H+  H321  1  0.09231325  0.16362443  0.04121696  1
  H+  H322  1  0.59439831  0.16930943  0.41380483  1
  H+  H323  1  0.16748198  0.08920083  0.61498660  1
  H+  H324  1  0.88634505  0.61209501  0.51031893  1
  H+  H325  1  0.58213435  0.90824913  0.73762569  1
  H+  H326  1  0.79028352  0.06463733  0.44611341  1
  H+  H327  1  0.63814782  0.47947191  0.50557872  1
  H+  H328  1  0.32913661  0.40435259  0.05917059  1
  H+  H329  1  0.07417556  0.15588500  0.44327396  1
  H+  H330  1  0.57763790  0.66742270  0.75587770  1
  H+  H331  1  0.66739354  0.34315243  0.88266212  1
  H+  H332  1  0.57654924  0.41532061  0.04295324  1
  H+  H333  1  0.14156896  0.38231869  -0.00956051  1
  H+  H334  1  0.36922522  0.52433267  0.89393247  1
  H+  H335  1  0.90256511  0.39182318  0.98975527  1
  H+  H336  1  0.08645655  0.92935890  0.44661088  1
  H+  H337  1  0.83471340  0.92356776  0.45041964  1
  H+  H338  1  0.08936920  0.66441379  0.41652639  1
  H+  H339  1  0.96646636  0.35138291  0.83058824  1
  H+  H340  1  0.66673943  0.06678678  0.60095900  1
  H+  H341  1  0.07780322  0.16594237  0.77593606  1
  H+  H342  1  0.84562167  0.16305154  0.08489187  1
  H+  H343  1  0.39336088  0.08263678  0.60986586  1
  H+  H344  1  0.10969267  0.97461632  0.68023284  1
  H+  H345  1  0.67460507  0.33222816  0.27388338  1
  H+  H346  1  0.42760907  0.58755989  0.59551764  1
  H+  H347  1  0.37194096  0.85630115  0.33398438  1
  H+  H348  1  0.90009450  0.56865035  0.59981685  1
  H+  H349  1  0.64654501  0.36333991  0.18300002  1
  H+  H350  1  0.17088472  0.83972896  0.60534179  1
  H+  H351  1  0.83416708  0.18178975  0.39886537  1
  H+  H352  1  0.06592687  0.94414746  0.84102552  1
  H+  H353  1  0.91594301  0.81926329  0.60570007  1
  H+  H354  1  0.68723196  0.59163006  0.27531060  1
  H+  H355  1  0.16615929  0.59049216  0.23167800  1
  H+  H356  1  0.17120946  0.58842922  0.57086713  1
  H+  H357  1  0.72873182  0.09963355  0.86782518  1
  H+  H358  1  0.89950759  0.54864554  0.19377169  1
  H+  H359  1  0.58989121  0.19431667  0.69845893  1
  H+  H360  1  0.19072178  0.96804173  0.04936482  1
  H+  H361  1  0.26999629  0.88007701  0.00300513  1
  H+  H362  1  0.64656751  0.37964533  0.97462372  1
  H+  H363  1  0.83353044  0.20105622  0.72939132  1
  H+  H364  1  0.94249101  0.59789711  0.28890254  1
  H+  H365  1  0.32076453  0.90593368  0.09274814  1
  H+  H366  1  0.82430600  0.89595464  0.77409970  1
  H+  H367  1  0.26579680  0.38350742  0.65972063  1
  H+  H368  1  0.90694636  0.56659907  0.89567428  1
  H+  H369  1  0.39102024  0.57261816  0.89288025  1
  H+  H370  1  0.01732627  0.63914575  0.82569044  1
  H+  H371  1  0.06066267  0.29247318  0.61741525  1
  H+  H372  1  0.63909574  0.07551883  0.94224496  1
  H+  H373  1  0.57600330  0.91428131  0.44044478  1
  H+  H374  1  0.62345268  1.00543009  0.51618390  1
  H+  H375  1  0.16845552  0.31608946  0.27792070  1
  H+  H376  1  0.07899598  0.42540187  0.43668725  1
  H+  H377  1  0.40299363  0.32956015  0.20903824  1
  H+  H378  1  0.56542462  0.40233927  0.71485352  1
  H+  H379  1  0.55115618  0.65402520  0.03171470  1
  H+  H380  1  0.22008718  0.61816642  0.00555727  1
  H+  H381  1  0.35705732  0.41332322  0.45771881  1
  H+  H382  1  0.91813677  0.34906014  0.59870920  1
  H+  H383  1  0.08132871  0.67398797  0.76734555  1
  O2-  O384  1  0.12251636  0.19047744  0.13425794  1
  O2-  O385  1  0.08109821  0.16389389  0.48846044  1
  O2-  O386  1  0.06703460  0.14658818  0.81864196  1
  O2-  O387  1  0.07968637  0.42228175  0.14485098  1
  O2-  O388  1  0.08140064  0.42062720  0.48147302  1
  O2-  O389  1  0.07378383  0.41490983  0.81659509  1
  O2-  O390  1  0.08922643  0.67647853  0.14132965  1
  O2-  O391  1  0.07915928  0.66051353  0.48748848  1
  O2-  O392  1  0.07907052  0.67135053  0.81393935  1
  O2-  O393  1  0.08186492  0.91792201  0.15480335  1
  O2-  O394  1  0.08266214  0.92248606  0.49060609  1
  O2-  O395  1  0.03146667  0.88230666  0.85346445  1
  O2-  O396  1  0.31937352  0.16152497  0.13799479  1
  O2-  O397  1  0.32737936  0.15662017  0.48935289  1
  O2-  O398  1  0.31153232  0.14929894  0.77833819  1
  O2-  O399  1  0.34208366  0.42631682  0.13700668  1
  O2-  O400  1  0.34604261  0.41663869  0.50069468  1
  O2-  O401  1  0.31951422  0.41514966  0.80411318  1
  O2-  O402  1  0.30009791  0.59918809  0.12528513  1
  O2-  O403  1  0.33333264  0.66577825  0.47771173  1
  O2-  O404  1  0.32065858  0.67026046  0.85522984  1
  O2-  O405  1  0.31639804  0.90681070  0.13975419  1
  O2-  O406  1  0.31692047  0.90693831  0.47151874  1
  O2-  O407  1  0.32745045  0.91608991  0.81240867  1
  O2-  O408  1  0.57495799  0.18041198  0.14414374  1
  O2-  O409  1  0.58027725  0.15665004  0.48830923  1
  O2-  O410  1  0.59638545  0.18049741  0.78788886  1
  O2-  O411  1  0.58869199  0.42290459  0.18150925  1
  O2-  O412  1  0.60624908  0.41767868  0.49245584  1
  O2-  O413  1  0.56622240  0.40336221  0.78532902  1
  O2-  O414  1  0.59820022  0.67568041  0.16314541  1
  O2-  O415  1  0.58990814  0.66728454  0.48429696  1
  O2-  O416  1  0.55865620  0.66863774  0.80029094  1
  O2-  O417  1  0.58066616  0.92227865  0.14657534  1
  O2-  O418  1  0.57425728  0.90911411  0.48576730  1
  O2-  O419  1  0.58106506  0.90529642  0.81431378  1
  O2-  O420  1  0.85124903  0.15164743  0.13169588  1
  O2-  O421  1  0.80921462  0.11396225  0.47324442  1
  O2-  O422  1  0.88801581  0.23868641  0.79671706  1
  O2-  O423  1  0.82589550  0.38870523  0.13502203  1
  O2-  O424  1  0.81961213  0.41104666  0.48655716  1
  O2-  O425  1  0.83074122  0.41217078  0.80345833  1
  O2-  O426  1  0.83637283  0.66331671  0.14108617  1
  O2-  O427  1  0.83826431  0.67083868  0.48826277  1
  O2-  O428  1  0.84306923  0.67200097  0.81069546  1
  O2-  O429  1  0.84397826  0.92996128  0.13994485  1
  O2-  O430  1  0.83516713  0.92218927  0.49605327  1
  O2-  O431  1  0.82709882  0.90246662  0.81908067  1
  O2-  O432  1  0.16563328  0.08415713  0.19031750  1
  O2-  O433  1  0.16398637  0.08235151  0.53463605  1
  O2-  O434  1  0.14456603  0.05623631  0.84047022  1
  O2-  O435  1  0.17473664  0.34476374  0.17490112  1
  O2-  O436  1  0.16968050  0.33809622  0.51316163  1
  O2-  O437  1  0.16529208  0.35481596  0.85860713  1
  O2-  O438  1  0.16267325  0.58821863  0.18640841  1
  O2-  O439  1  0.17155875  0.58817618  0.52490711  1
  O2-  O440  1  0.13922684  0.57078042  0.85245836  1
  O2-  O441  1  0.16975295  0.83341774  0.19196865  1
  O2-  O442  1  0.15874450  0.82564020  0.52433458  1
  O2-  O443  1  0.15801763  0.83114842  0.85371905  1
  O2-  O444  1  0.40489195  0.09262050  0.17979354  1
  O2-  O445  1  0.40368077  0.06488996  0.52495840  1
  O2-  O446  1  0.44992358  0.06641990  0.85736256  1
  O2-  O447  1  0.41759155  0.33993300  0.16604513  1
  O2-  O448  1  0.40188798  0.31551885  0.55028176  1
  O2-  O449  1  0.40326396  0.31756039  0.83618176  1
  O2-  O450  1  0.42651955  0.58606796  0.18493652  1
  O2-  O451  1  0.42453381  0.59081509  0.52147661  1
  O2-  O452  1  0.39793201  0.60892993  0.78504704  1
  O2-  O453  1  0.44279330  0.91843282  0.20755710  1
  O2-  O454  1  0.40606126  0.83003986  0.51643563  1
  O2-  O455  1  0.41600188  0.84227987  0.85870046  1
  O2-  O456  1  0.65010650  0.08998282  0.17905612  1
  O2-  O457  1  0.65867158  0.06578049  0.53336290  1
  O2-  O458  1  0.71363482  0.06948251  0.82900453  1
  O2-  O459  1  0.67268848  0.32962202  0.19766617  1
  O2-  O460  1  0.67174016  0.32850161  0.52791828  1
  O2-  O461  1  0.66508777  0.34223468  0.83718255  1
  O2-  O462  1  0.68179911  0.59601336  0.20122930  1
  O2-  O463  1  0.67234087  0.58452500  0.52597005  1
  O2-  O464  1  0.66996703  0.58445230  0.83240121  1
  O2-  O465  1  0.65749950  0.84170620  0.20500643  1
  O2-  O466  1  0.66424410  0.83148106  0.52646117  1
  O2-  O467  1  0.65777576  0.81506108  0.85375924  1
  O2-  O468  1  0.93992792  0.08868083  0.16196644  1
  O2-  O469  1  0.92075088  0.08665035  0.53606220  1
  O2-  O470  1  0.88173152  0.07795530  0.84478229  1
  O2-  O471  1  0.91395274  0.32861762  0.18639013  1
  O2-  O472  1  0.91779030  0.33952417  0.52020082  1
  O2-  O473  1  0.90246167  0.31133941  0.83544758  1
  O2-  O474  1  0.91563792  0.57236607  0.15301339  1
  O2-  O475  1  0.91054333  0.57553333  0.52374270  1
  O2-  O476  1  0.91107645  0.57501510  0.85103334  1
  O2-  O477  1  0.92607715  0.82460863  0.20142501  1
  O2-  O478  1  0.91504197  0.83227904  0.52762226  1
  O2-  O479  1  0.95192509  0.85145704  0.81733570  1
  O2-  O480  1  0.14985004  0.07485079  0.31586367  1
  O2-  O481  1  0.16164132  0.08978654  0.65992650  1
  O2-  O482  1  0.16069225  0.06881502  0.96283856  1
  O2-  O483  1  0.17164458  0.32267912  0.32303288  1
  O2-  O484  1  0.12012844  0.31832268  0.63148780  1
  O2-  O485  1  0.16863171  0.35216294  0.97025455  1
  O2-  O486  1  0.17343884  0.59259620  0.31224248  1
  O2-  O487  1  0.17026860  0.59365367  0.64650719  1
  O2-  O488  1  0.15750723  0.58510969  0.99316073  1
  O2-  O489  1  0.20024292  0.83647800  0.33136255  1
  O2-  O490  1  0.17718490  0.84565111  0.65018031  1
  O2-  O491  1  0.16781611  0.82437823  0.97413596  1
  O2-  O492  1  0.38638789  0.05679834  0.30040161  1
  O2-  O493  1  0.40288576  0.09179253  0.65421745  1
  O2-  O494  1  0.41925253  0.08698734  0.97935368  1
  O2-  O495  1  0.40008617  0.31380856  0.35318917  1
  O2-  O496  1  0.49242765  0.37042074  0.57120275  1
  O2-  O497  1  0.40935995  0.31853976  0.96566606  1
  O2-  O498  1  0.43008773  0.60183798  0.31234548  1
  O2-  O499  1  0.42637253  0.58574070  0.64151331  1
  O2-  O500  1  0.46001827  0.56523086  0.99437992  1
  O2-  O501  1  0.41372998  0.84084787  0.31731483  1
  O2-  O502  1  0.44258830  0.89016835  0.63591767  1
  O2-  O503  1  0.41537594  0.83722185  0.98391777  1
  O2-  O504  1  0.66740036  0.09229019  0.32879659  1
  O2-  O505  1  0.66978770  0.06819869  0.64856147  1
  O2-  O506  1  0.65700508  0.08160491  0.98465819  1
  O2-  O507  1  0.68286689  0.33673044  0.31970037  1
  O2-  O508  1  0.67586621  0.32440704  0.59487809  1
  O2-  O509  1  0.68375929  0.35622057  0.96159654  1
  O2-  O510  1  0.69326496  0.59548376  0.32152652  1
  O2-  O511  1  0.67019436  0.57573066  0.65027207  1
  O2-  O512  1  0.59986962  0.56606284  0.95408020  1
  O2-  O513  1  0.67090899  0.84733806  0.32434609  1
  O2-  O514  1  0.66211606  0.82200245  0.64779096  1
  O2-  O515  1  0.66659574  0.83897197  0.98015382  1
  O2-  O516  1  0.90170033  0.08427662  0.33889305  1
  O2-  O517  1  0.92599578  0.12353208  0.65343260  1
  O2-  O518  1  0.90427464  0.08838902  0.96854939  1
  O2-  O519  1  0.91410761  0.33561738  0.30660964  1
  O2-  O520  1  0.91744718  0.34988355  0.64401589  1
  O2-  O521  1  0.93131326  0.35814027  0.98230346  1
  O2-  O522  1  0.93158120  0.58889485  0.33254989  1
  O2-  O523  1  0.89671554  0.56458373  0.64529189  1
  O2-  O524  1  0.89815871  0.55610279  0.97671574  1
  O2-  O525  1  0.91961322  0.82066116  0.32474193  1
  O2-  O526  1  0.91658882  0.81249081  0.65069783  1
  O2-  O527  1  0.90039311  0.82619897  0.97327923  1
  O2-  O528  1  0.05388486  0.11717375  0.01415716  1
  O2-  O529  1  0.06131617  0.14483431  0.36534647  1
  O2-  O530  1  0.09547563  0.18550256  0.69303932  1
  O2-  O531  1  0.08692882  0.43080949  0.02239032  1
  O2-  O532  1  0.07280165  0.42621601  0.35523991  1
  O2-  O533  1  0.07920373  0.43033193  0.69315024  1
  O2-  O534  1  0.07486711  0.66136595  0.01830850  1
  O2-  O535  1  0.08982342  0.66593384  0.36979025  1
  O2-  O536  1  0.08954088  0.68137639  0.69653458  1
  O2-  O537  1  0.13136904  0.93941911  0.03508010  1
  O2-  O538  1  0.09356907  0.90171354  0.32094154  1
  O2-  O539  1  0.08836689  0.91381326  0.69049510  1
  O2-  O540  1  0.32226730  0.15831313  0.01302397  1
  O2-  O541  1  0.30454682  0.13283230  0.36719909  1
  O2-  O542  1  0.31988662  0.16696061  0.71209416  1
  O2-  O543  1  0.32853870  0.40219123  0.01392643  1
  O2-  O544  1  0.32525162  0.40416610  0.36147420  1
  O2-  O545  1  0.32268085  0.41155297  0.67844941  1
  O2-  O546  1  0.32273760  0.66822654  0.02230998  1
  O2-  O547  1  0.34053615  0.67116373  0.35328761  1
  O2-  O548  1  0.34262981  0.66438670  0.68304762  1
  O2-  O549  1  0.32797512  0.91280924  0.02330672  1
  O2-  O550  1  0.29195025  0.88733573  0.34941486  1
  O2-  O551  1  0.33592704  0.92635513  0.69024139  1
  O2-  O552  1  0.59027910  0.18922052  0.01968530  1
  O2-  O553  1  0.60087346  0.17118311  0.36799909  1
  O2-  O554  1  0.57157876  0.18087273  0.65593385  1
  O2-  O555  1  0.57361333  0.41350651  -0.00126931  1
  O2-  O556  1  0.62020520  0.43562411  0.37482275  1
  O2-  O557  1  0.58151784  0.41546193  0.66935545  1
  O2-  O558  1  0.61184744  0.69125287  0.04391199  1
  O2-  O559  1  0.59620615  0.67799601  0.35850371  1
  O2-  O560  1  0.58731749  0.66003061  0.68787895  1
  O2-  O561  1  0.58208173  0.91792477  0.02249102  1
  O2-  O562  1  0.58160565  0.92684764  0.36147111  1
  O2-  O563  1  0.58711538  0.91290866  0.69194619  1
  O2-  O564  1  0.83385296  0.17558918  0.01820586  1
  O2-  O565  1  0.83524196  0.17922561  0.35413710  1
  O2-  O566  1  0.82141557  0.18498459  0.68546627  1
  O2-  O567  1  0.86019152  0.46793394  0.00155412  1
  O2-  O568  1  0.84390089  0.41550104  0.34683694  1
  O2-  O569  1  0.82747337  0.42036199  0.68490738  1
  O2-  O570  1  0.82724549  0.66293727  0.01251875  1
  O2-  O571  1  0.84393525  0.66849793  0.35797633  1
  O2-  O572  1  0.82865834  0.65160752  0.69117321  1
  O2-  O573  1  0.83438678  0.91986738  0.00603817  1
  O2-  O574  1  0.83214539  0.92707519  0.37281969  1
  O2-  O575  1  0.81895334  0.88081552  0.69467224  1
