# generated using pymatgen
data_H2O
_symmetry_space_group_name_H-M   'P 1'
_cell_length_a   18.00850268
_cell_length_b   17.99772743
_cell_length_c   22.01120111
_cell_angle_alpha   90.01048894
_cell_angle_beta   89.98284826
_cell_angle_gamma   119.98657042
_symmetry_Int_Tables_number   1
_chemical_formula_structural   H2O
_chemical_formula_sum   'H384 O192'
_cell_volume   6179.14496376
_cell_formula_units_Z   192
loop_
 _symmetry_equiv_pos_site_id
 _symmetry_equiv_pos_as_xyz
  1  'x, y, z'
loop_
 _atom_type_symbol
 _atom_type_oxidation_number
  H+  1.0
  O2-  -2.0
loop_
 _atom_site_type_symbol
 _atom_site_label
 _atom_site_symmetry_multiplicity
 _atom_site_fract_x
 _atom_site_fract_y
 _atom_site_fract_z
 _atom_site_occupancy
  H+  H0  1  0.72363616  0.58713240  0.66934753  1
  H+  H1  1  0.33504315  0.81571530  0.20107499  1
  H+  H2  1  0.72237488  0.36705231  0.65473003  1
  H+  H3  1  0.88460608  0.51767871  0.18788995  1
  H+  H4  1  0.09976904  0.84088180  0.19886964  1
  H+  H5  1  0.88964589  0.11872798  0.65875836  1
  H+  H6  1  0.17551197  0.35558557  0.27695536  1
  H+  H7  1  0.38516606  0.35583350  0.31906798  1
  H+  H8  1  1.03694835  0.15538014  0.17000459  1
  H+  H9  1  0.24756734  0.09594395  0.68949126  1
  H+  H10  1  0.81525455  0.67709619  0.33361478  1
  H+  H11  1  0.40011665  0.11953286  0.97359255  1
  H+  H12  1  0.30325331  0.88493472  -0.04536144  1
  H+  H13  1  0.30507704  0.39146689  0.49325147  1
  H+  H14  1  0.63334815  0.12844113  0.97952974  1
  H+  H15  1  0.15617353  0.79474805  0.55906088  1
  H+  H16  1  0.61505767  0.47355988  0.66730152  1
  H+  H17  1  1.02641772  0.40301134  0.66490768  1
  H+  H18  1  0.36101991  0.97927220  -0.01936010  1
  H+  H19  1  0.87272723  0.44027296  0.33301447  1
  H+  H20  1  0.89315830  0.12613962  0.81658649  1
  H+  H21  1  0.88405867  -0.00776929  0.81502646  1
  H+  H22  1  0.51114218  0.90423417  0.65746783  1
  H+  H23  1  0.37805244  0.73322061  0.33580915  1
  H+  H24  1  0.36889223  0.26995384  0.65990673  1
  H+  H25  1  0.77437895  0.63340321  0.17064540  1
  H+  H26  1  0.52988692  0.89073468  0.49446325  1
  H+  H27  1  0.27548198  0.89672504  0.19070153  1
  H+  H28  1  0.11317157  0.99254102  0.35145357  1
  H+  H29  1  0.20999867  0.86310668  0.35109465  1
  H+  H30  1  0.10271078  0.87388358  0.66737196  1
  H+  H31  1  0.85917101  0.63978059  0.48720218  1
  H+  H32  1  0.15296579  1.04147633  0.18450475  1
  H+  H33  1  0.37869950  0.47801768  0.33918758  1
  H+  H34  1  0.43427909  0.82284323  0.97286157  1
  H+  H35  1  0.02274518  0.88101379  0.82189781  1
  H+  H36  1  0.53152087  0.13005528  0.81218160  1
  H+  H37  1  0.37081639  0.89047195  0.50098140  1
  H+  H38  1  0.28839156  0.64592287  0.33797988  1
  H+  H39  1  0.88646721  0.27918374  0.64958982  1
  H+  H40  1  0.40454208  0.65839944  0.66630137  1
  H+  H41  1  0.94622191  0.37980132  0.49836487  1
  H+  H42  1  0.40856369  0.32839224  0.60129486  1
  H+  H43  1  0.56754882  0.89016671  0.80358509  1
  H+  H44  1  0.88534789  0.35765329  0.18398312  1
  H+  H45  1  0.58556267  0.16579855  0.71530076  1
  H+  H46  1  0.12143545  0.24697925  0.33925586  1
  H+  H47  1  0.92477972  0.10121836  0.59883344  1
  H+  H48  1  0.09702992  0.71110624  0.17052889  1
  H+  H49  1  0.14942931  0.66993508  0.52512894  1
  H+  H50  1  0.12665563  0.51056476  0.16798881  1
  H+  H51  1  0.51053727  0.12554284  0.35266324  1
  H+  H52  1  0.86104495  0.63055197  0.17120831  1
  H+  H53  1  0.18760973  0.59629003  0.99277315  1
  H+  H54  1  0.00070798  0.90371619  0.06831236  1
  H+  H55  1  0.86140699  0.22066078  0.15964542  1
  H+  H56  1  0.94971957  0.11276560  0.98106905  1
  H+  H57  1  0.98429608  0.17773960  0.50398762  1
  H+  H58  1  0.06931106  0.39713914  0.50742216  1
  H+  H59  1  0.86174645  0.71943622  0.83084784  1
  H+  H60  1  0.40038390  0.52438238  0.13559465  1
  H+  H61  1  0.11838465  0.26541901  -0.00454767  1
  H+  H62  1  0.25431390  0.36390360  -0.00305887  1
  H+  H63  1  0.26456793  -0.08665778  0.77577402  1
  H+  H64  1  0.27915244  0.12561926  0.50488481  1
  H+  H65  1  0.38492498  0.10621832  0.65967156  1
  H+  H66  1  0.24909739  0.85031245  0.18117513  1
  H+  H67  1  0.88860714  0.51755319  0.64044545  1
  H+  H68  1  0.52686446  0.14323458  -0.00390142  1
  H+  H69  1  0.61767718  0.22514824  0.80538449  1
  H+  H70  1  0.74754672  0.36843233  0.80351179  1
  H+  H71  1  0.71718105  0.70680538  0.37153761  1
  H+  H72  1  0.72038855  0.11268412  0.16880633  1
  H+  H73  1  0.63958541  0.60554861  0.83815227  1
  H+  H74  1  0.64335858  0.36894605  0.17328795  1
  H+  H75  1  0.85498589  0.92862503  0.72408431  1
  H+  H76  1  0.14064259  0.54563493  0.51244269  1
  H+  H77  1  0.62006540  0.10303862  0.32295574  1
  H+  H78  1  0.71888753  1.12413233  0.49040857  1
  H+  H79  1  0.03376193  0.75756887  0.23294719  1
  H+  H80  1  0.77121554  0.63041802  0.83497023  1
  H+  H81  1  0.00996957  0.37269597  0.01218178  1
  H+  H82  1  0.02754804  0.15408663  0.81399055  1
  H+  H83  1  0.61270350  0.46887130  0.82332089  1
  H+  H84  1  0.84484966  0.83838235  -0.00186694  1
  H+  H85  1  0.87581023  0.92252213  0.33865557  1
  H+  H86  1  0.35940944  0.56355189  0.88584231  1
  H+  H87  1  0.77620384  0.14107060  0.66145950  1
  H+  H88  1  0.35695578  0.36467173  0.99048568  1
  H+  H89  1  0.52424338  0.13791665  0.65762755  1
  H+  H90  1  0.89289183  0.87764995  0.65469828  1
  H+  H91  1  0.90366106  0.33866915  0.59083098  1
  H+  H92  1  0.85624687  0.51843677  0.48271020  1
  H+  H93  1  0.60667460  0.47979611  0.17430828  1
  H+  H94  1  0.19577086  0.85859718  1.01348110  1
  H+  H95  1  0.09987904  0.92140787  0.12400785  1
  H+  H96  1  0.14280816  0.29160410  0.18493767  1
  H+  H97  1  -0.00213102  0.10586741  0.06752013  1
  H+  H98  1  0.26589562  0.88884060  0.67487733  1
  H+  H99  1  0.30120567  0.83368483  0.37316659  1
  H+  H100  1  0.14404677  0.76528458  0.64792715  1
  H+  H101  1  0.54267646  0.63792859  0.67219301  1
  H+  H102  1  0.42481902  0.90261869  0.98446660  1
  H+  H103  1  0.09495067  0.19149539  0.75714312  1
  H+  H104  1  0.09535443  0.47121964  0.82669093  1
  H+  H105  1  0.37812777  0.58117997  0.98860572  1
  H+  H106  1  0.14914696  0.87411838  0.82687741  1
  H+  H107  1  0.93209509  0.10050162  0.22591454  1
  H+  H108  1  0.41124556  0.88393202  0.32680606  1
  H+  H109  1  0.88183632  0.50897502  0.83900449  1
  H+  H110  1  0.73946920  0.86373565  0.65440842  1
  H+  H111  1  0.50977134  0.61636004  0.18584816  1
  H+  H112  1  0.95452020  0.83400455  0.98976353  1
  H+  H113  1  0.61766713  0.82744409  0.19098756  1
  H+  H114  1  0.61164631  0.73493175  0.21244936  1
  H+  H115  1  0.15639204  0.13210031  0.18187508  1
  H+  H116  1  1.03008399  0.15020724  0.66846158  1
  H+  H117  1  0.98305546  0.89112977  0.32873279  1
  H+  H118  1  0.22550079  0.12265940  0.34064132  1
  H+  H119  1  0.66404603  0.77584331  0.83294120  1
  H+  H120  1  0.59280883  0.70773439  0.00508731  1
  H+  H121  1  0.50401389  0.13248657  0.15213409  1
  H+  H122  1  0.38397766  0.86492732  0.66361487  1
  H+  H123  1  0.24500734  0.67112801  0.75554368  1
  H+  H124  1  0.40177741  0.53170032  0.65604981  1
  H+  H125  1  0.86253748  0.23216917  0.81968263  1
  H+  H126  1  0.75969692  0.14249646  1.00088140  1
  H+  H127  1  0.38595435  0.02280012  0.80687100  1
  H+  H128  1  0.55503551  0.90547295  0.01305842  1
  H+  H129  1  0.31333561  0.74018051  0.80241850  1
  H+  H130  1  0.39278158  0.28117931  -0.01461896  1
  H+  H131  1  0.64344111  0.11932240  0.82157876  1
  H+  H132  1  0.77919049  0.88491741  0.49604271  1
  H+  H133  1  0.86210706  0.47450686  0.01747700  1
  H+  H134  1  0.10386757  0.94936027  0.50463275  1
  H+  H135  1  0.35099205  0.71826346  0.16026060  1
  H+  H136  1  0.77704145  0.14014187  0.81508397  1
  H+  H137  1  0.36267438  0.38374000  0.15886798  1
  H+  H138  1  0.33222008  0.47065018  0.81497123  1
  H+  H139  1  0.66982232  0.86725185  0.83651962  1
  H+  H140  1  0.12333225  0.49183624  0.35478935  1
  H+  H141  1  0.14134653  0.07742736  0.51031497  1
  H+  H142  1  0.63359807  0.02223365  0.32243655  1
  H+  H143  1  0.10911182  0.60748311  0.84888377  1
  H+  H144  1  0.75573486  0.84846931  0.16993748  1
  H+  H145  1  0.37411588  0.16754586  0.83314727  1
  H+  H146  1  0.62893091  0.63172093  0.67280927  1
  H+  H147  1  0.38769075  0.02112414  0.65665511  1
  H+  H148  1  0.48410955  0.12096484  0.50412704  1
  H+  H149  1  0.12925549  0.61101525  0.17007339  1
  H+  H150  1  0.17342153  0.09693450  0.27853223  1
  H+  H151  1  0.14151370  0.56430056  0.67832770  1
  H+  H152  1  0.32573655  0.59344714  0.82930071  1
  H+  H153  1  0.07692392  0.42280264  0.72731290  1
  H+  H154  1  0.63093822  0.27573902  0.65330051  1
  H+  H155  1  0.85168483  0.61766734  0.00991385  1
  H+  H156  1  0.89882898  0.86905517  0.83338450  1
  H+  H157  1  0.63321107  0.60687045  -0.00321524  1
  H+  H158  1  0.47620697  0.36960003  0.83521790  1
  H+  H159  1  0.37640522  0.26213303  0.32223344  1
  H+  H160  1  1.00396133  0.63192775  0.85017574  1
  H+  H161  1  0.23746776  0.37647726  0.33406189  1
  H+  H162  1  0.77511631  0.38728636  0.02637539  1
  H+  H163  1  0.59168613  0.21781384  0.34336853  1
  H+  H164  1  0.10763523  0.89910015  0.35264259  1
  H+  H165  1  0.86573131  0.33497690  0.33345945  1
  H+  H166  1  0.91550001  0.82678338  0.89263375  1
  H+  H167  1  0.10477503  0.84979248  1.01770895  1
  H+  H168  1  0.40473453  0.78579562  0.65992865  1
  H+  H169  1  0.23662703  0.10364229  0.86014141  1
  H+  H170  1  0.51611736  0.85614568  0.17218452  1
  H+  H171  1  0.42719863  -0.00202986  0.12449450  1
  H+  H172  1  0.61884182  0.03516048  0.97249112  1
  H+  H173  1  0.88166514  0.36565200  0.83566112  1
  H+  H174  1  0.53771776  0.88573518  0.34315579  1
  H+  H175  1  0.61177849  0.23620559  1.00287085  1
  H+  H176  1  0.34905287  0.45648624  -0.00701650  1
  H+  H177  1  0.10708461  0.72727825  0.36575422  1
  H+  H178  1  0.86969237  0.74131015  0.98937006  1
  H+  H179  1  0.90319148  0.12362905  0.16468167  1
  H+  H180  1  0.61330964  1.00297171  0.65233332  1
  H+  H181  1  0.64530074  0.28118585  0.17078940  1
  H+  H182  1  0.90256317  0.57458872  0.54144070  1
  H+  H183  1  0.64063524  0.60895812  0.51871813  1
  H+  H184  1  0.37951216  0.14426922  0.14848297  1
  H+  H185  1  0.08826155  0.62628775  1.01014044  1
  H+  H186  1  0.53858239  0.28511384  0.29170530  1
  H+  H187  1  0.59348191  0.41231624  0.32986278  1
  H+  H188  1  0.87673382  0.27471746  -0.00557837  1
  H+  H189  1  0.35283530  0.38182847  0.66730911  1
  H+  H190  1  0.48839962  0.34145669  0.51459461  1
  H+  H191  1  0.16815408  0.09157661  1.01517845  1
  H+  H192  1  0.11751056  0.36339502  0.83786450  1
  H+  H193  1  0.41503487  0.32498700  0.23830905  1
  H+  H194  1  0.19619843  0.41108359  0.49920207  1
  H+  H195  1  0.65431744  0.77329991  0.65604776  1
  H+  H196  1  0.23816815  0.61980753  0.51033948  1
  H+  H197  1  0.85524917  0.60482575  0.68262412  1
  H+  H198  1  0.55319960  0.65902599  0.81557019  1
  H+  H199  1  0.88225723  0.85408890  0.17363116  1
  H+  H200  1  0.37190370  -0.01850452  0.49811547  1
  H+  H201  1  0.60424957  0.24106032  0.49212568  1
  H+  H202  1  0.89420205  0.77261889  0.17900587  1
  H+  H203  1  0.51833382  0.39667929  0.01450791  1
  H+  H204  1  1.00895535  0.38068700  0.82476596  1
  H+  H205  1  0.86186686  0.77722935  0.34434091  1
  H+  H206  1  0.85485126  0.38357973  0.66152382  1
  H+  H207  1  0.97978103  0.86245596  0.65538496  1
  H+  H208  1  0.06921134  0.96144543  0.01849293  1
  H+  H209  1  0.49202323  0.61924755  0.50492976  1
  H+  H210  1  0.62692421  0.14706895  0.15505273  1
  H+  H211  1  0.85002345  0.92781280  0.01933875  1
  H+  H212  1  0.37715146  0.63948903  0.49189969  1
  H+  H213  1  0.87881557  0.98717169  0.66356821  1
  H+  H214  1  0.64105359  0.12416870  0.64424054  1
  H+  H215  1  0.17461636  0.80592691  0.84673804  1
  H+  H216  1  0.33071483  0.67452170  -0.00592807  1
  H+  H217  1  0.77919589  0.38783845  0.17304919  1
  H+  H218  1  0.44760405  0.88325323  0.81636691  1
  H+  H219  1  0.23030872  0.37934904  0.17895716  1
  H+  H220  1  0.85611867  0.16655404  0.47295140  1
  H+  H221  1  0.13189373  0.10877582  0.66059159  1
  H+  H222  1  0.82597850  0.38336430  0.48014646  1
  H+  H223  1  0.67127439  0.09257440  0.58500505  1
  H+  H224  1  1.02711007  0.89651361  0.17384485  1
  H+  H225  1  0.49512994  0.37437288  0.17431044  1
  H+  H226  1  0.40070908  0.61180787  0.14238620  1
  H+  H227  1  0.63442053  0.62840454  0.35051303  1
  H+  H228  1  0.64568825  0.86874451  0.50739817  1
  H+  H229  1  0.88817568  0.56577735  0.34898906  1
  H+  H230  1  0.79978901  0.89965691  0.82009150  1
  H+  H231  1  0.88292180  0.86420322  0.50336136  1
  H+  H232  1  0.38107545  0.28853142  0.83672860  1
  H+  H233  1  0.96066815  0.60356045  0.99740184  1
  H+  H234  1  0.63068882  0.12250856  0.50205263  1
  H+  H235  1  0.05880305  0.10541814  1.01507038  1
  H+  H236  1  0.85805860  0.04030896  0.95775208  1
  H+  H237  1  0.65844597  0.57015377  0.90000818  1
  H+  H238  1  0.40879700  0.62363618  0.32597126  1
  H+  H239  1  -0.00543419  0.86910119  0.49852342  1
  H+  H240  1  0.03262058  0.62996900  0.36663481  1
  H+  H241  1  0.81460398  0.38109942  0.38801347  1
  H+  H242  1  0.39494099  0.77526039  0.50458286  1
  H+  H243  1  0.15429203  0.30910084  0.49682680  1
  H+  H244  1  0.73395918  0.84471764  0.99117226  1
  H+  H245  1  0.26879198  0.39583931  0.67021334  1
  H+  H246  1  0.86181335  0.28706741  0.49179813  1
  H+  H247  1  0.63838053  0.86075870  0.33842387  1
  H+  H248  1  0.87496985  0.59649495  0.84843681  1
  H+  H249  1  0.48246951  0.61580369  0.35683681  1
  H+  H250  1  0.82400286  0.62564770  0.74589558  1
  H+  H251  1  0.36826793  1.00105408  0.35812330  1
  H+  H252  1  0.98085867  0.59871832  0.63145753  1
  H+  H253  1  0.11944960  0.23914616  0.66547539  1
  H+  H254  1  0.63161670  0.32503018  0.26584037  1
  H+  H255  1  0.84885097  0.14581384  -0.00446984  1
  H+  H256  1  0.09866553  0.17237133  0.48966884  1
  H+  H257  1  0.11138827  -0.03038967  0.82085916  1
  H+  H258  1  0.63071115  0.37380428  1.01512649  1
  H+  H259  1  0.09503382  0.46184920  1.00879559  1
  H+  H260  1  0.51700901  0.62214743  0.25802302  1
  H+  H261  1  0.22269360  0.60872740  0.17097561  1
  H+  H262  1  0.11866778  0.01220983  0.66281386  1
  H+  H263  1  0.64593734  0.86037859  -0.00906185  1
  H+  H264  1  0.97310549  0.60418087  0.18513120  1
  H+  H265  1  0.30235106  0.14889453  -0.00026205  1
  H+  H266  1  0.65772106  0.77762837  0.34070442  1
  H+  H267  1  0.37139311  0.13508536  0.49719308  1
  H+  H268  1  0.41567207  0.70389038  0.02897869  1
  H+  H269  1  0.46171726  0.57790773  0.97604321  1
  H+  H270  1  0.14915960  0.62995457  0.34412161  1
  H+  H271  1  0.40739434  0.52701617  0.50306793  1
  H+  H272  1  0.88615243  0.36688220  -0.00109258  1
  H+  H273  1  0.39911899  0.27458639  0.16907847  1
  H+  H274  1  0.40432775  0.87281658  0.15326618  1
  H+  H275  1  0.90782405  0.45119834  0.77526601  1
  H+  H276  1  0.64897872  0.96678665  0.04280628  1
  H+  H277  1  0.73545945  0.37943102  0.46801541  1
  H+  H278  1  0.98186067  0.13949277  0.32334389  1
  H+  H279  1  0.62487701  0.73354135  0.50133720  1
  H+  H280  1  0.62240368  0.37535551  0.66482565  1
  H+  H281  1  0.12442943  0.35642185  0.99872789  1
  H+  H282  1  0.11723493  0.25879833  0.82601373  1
  H+  H283  1  0.13818573  0.37990891  0.65766220  1
  H+  H284  1  0.10760860  0.19462191  0.11672847  1
  H+  H285  1  -0.02626716  0.35790452  0.18261082  1
  H+  H286  1  0.61211161  0.38058043  0.81459180  1
  H+  H287  1  0.35105903  0.12903198  0.35611174  1
  H+  H288  1  0.33295103  0.42006649  0.74252888  1
  H+  H289  1  0.88289315  0.76978801  0.50703956  1
  H+  H290  1  0.84148049  0.41833018  0.11523114  1
  H+  H291  1  0.06714463  0.91259071  0.43587341  1
  H+  H292  1  0.57866459  0.16946294  0.43874560  1
  H+  H293  1  0.60924540  0.48300042  0.01554274  1
  H+  H294  1  0.31658092  0.15782269  0.77726454  1
  H+  H295  1  0.35363930  0.41814724  0.39753584  1
  H+  H296  1  0.82922015  0.16553464  0.09867309  1
  H+  H297  1  0.60228383  0.18217380  0.09378376  1
  H+  H298  1  0.07451890  0.65901462  0.10552948  1
  H+  H299  1  0.66122106  0.81977541  0.26328525  1
  H+  H300  1  0.42037049  0.08552959  0.56207316  1
  H+  H301  1  0.43195787  0.85186950  0.26579118  1
  H+  H302  1  0.90060981  0.56499346  0.93725757  1
  H+  H303  1  0.62408388  0.59699584  0.20851186  1
  H+  H304  1  0.36977404  0.40149155  0.81624939  1
  H+  H305  1  0.29091348  0.14666661  0.15592446  1
  H+  H306  1  0.09160946  0.71788839  0.01633522  1
  H+  H307  1  0.14445801  0.06373237  0.94609846  1
  H+  H308  1  0.34809257  0.66995106  0.43286819  1
  H+  H309  1  0.14436171  0.32637392  0.89715758  1
  H+  H310  1  0.82897879  0.68747980  0.43791326  1
  H+  H311  1  0.57697253  0.87578419  0.11512112  1
  H+  H312  1  0.43464192  0.07932825  0.20248300  1
  H+  H313  1  0.41613501  0.34445845  0.92523289  1
  H+  H314  1  0.82814768  0.65417480  0.07017718  1
  H+  H315  1  0.19713375  0.60992638  0.84133063  1
  H+  H316  1  0.91713154  0.83661629  0.59199581  1
  H+  H317  1  0.37793194  0.92678589  0.07496162  1
  H+  H318  1  0.42469600  -0.01772589  0.84714931  1
  H+  H319  1  0.32156930  0.65585282  0.10312563  1
  H+  H320  1  0.69779693  0.33293945  0.86296121  1
  H+  H321  1  0.13326995  0.56720443  0.93226854  1
  H+  H322  1  0.89136970  1.05436098  0.32553538  1
  H+  H323  1  0.62177967  0.42604710  0.48129318  1
  H+  H324  1  0.65223071  0.08169440  0.22269185  1
  H+  H325  1  0.78537401  0.91525582  0.34421930  1
  H+  H326  1  0.39238155  0.26608132  0.51312011  1
  H+  H327  1  0.72188793  0.60462973  0.99819280  1
  H+  H328  1  0.58001816  0.41017381  0.72658065  1
  H+  H329  1  0.07008714  0.43126666  0.43963847  1
  H+  H330  1  0.06743225  0.69417037  0.80055990  1
  H+  H331  1  0.16456468  0.05876627  0.57544274  1
  H+  H332  1  0.16510682  0.59517063  0.28110057  1
  H+  H333  1  0.33032481  0.17131057  0.41122506  1
  H+  H334  1  0.57503919  0.94525709  0.71760631  1
  H+  H335  1  0.90683362  0.33216010  0.89744260  1
  H+  H336  1  0.67247063  0.57454896  0.60440914  1
  H+  H337  1  0.32229398  0.39498514  0.09784243  1
  H+  H338  1  0.92406353  0.10323669  0.87700145  1
  H+  H339  1  0.66605714  0.55626512  0.24901359  1
  H+  H340  1  0.38214937  0.04854377  0.29732243  1
  H+  H341  1  0.42495839  0.07812603  0.91638127  1
  H+  H342  1  0.21139782  0.01485384  0.88979657  1
  H+  H343  1  0.14403136  0.82586088  0.29387748  1
  H+  H344  1  0.11569985  0.15410019  0.34328688  1
  H+  H345  1  0.82719894  0.41910939  0.71905111  1
  H+  H346  1  0.17563359  0.35505346  0.59937596  1
  H+  H347  1  0.61233728  0.67412175  0.44442493  1
  H+  H348  1  0.90270964  0.29896101  0.26994449  1
  H+  H349  1  0.61072545  0.67578541  0.75645961  1
  H+  H350  1  0.35958291  0.67959264  0.72164703  1
  H+  H351  1  0.32140983  0.90408253  0.42762969  1
  H+  H352  1  0.70041937  0.53348036  0.34995355  1
  H+  H353  1  0.07991854  0.41769541  0.10437237  1
  H+  H354  1  0.92540058  0.85700258  0.26708975  1
  H+  H355  1  0.67523049  0.36694867  0.95654760  1
  H+  H356  1  0.59380382  0.91508499  0.40495524  1
  H+  H357  1  0.11847144  0.39764996  0.16587373  1
  H+  H358  1  0.83421411  0.17348157  0.72192834  1
  H+  H359  1  0.60123562  0.99097749  0.81287442  1
  H+  H360  1  0.57515939  0.42564610  0.10960260  1
  H+  H361  1  0.39206996  0.38840767  0.49261948  1
  H+  H362  1  0.43684931  0.58829762  0.59590990  1
  H+  H363  1  0.67383338  0.82746509  0.92531525  1
  H+  H364  1  0.66721595  0.09002569  0.88370643  1
  H+  H365  1  0.08254327  0.19925247  0.42417194  1
  H+  H366  1  0.40815751  0.85198338  0.88021914  1
  H+  H367  1  0.42079493  0.83535977  0.56364433  1
  H+  H368  1  0.61577185  0.98285494  0.49139238  1
  H+  H369  1  0.67609614  0.83771109  0.56669519  1
  H+  H370  1  0.28826409  0.04718353  0.72556989  1
  H+  H371  1  0.84363974  0.92537599  0.43937491  1
  H+  H372  1  0.11204279  0.70481743  0.47529946  1
  H+  H373  1  0.82563814  0.19039358  0.41079188  1
  H+  H374  1  0.92213805  0.56600719  0.28228609  1
  H+  H375  1  0.79742320  0.85968924  0.10507488  1
  H+  H376  1  0.54344934  0.64163750  0.05899330  1
  H+  H377  1  0.87805559  0.17505486  0.31986183  1
  H+  H378  1  0.07442653  0.63782733  0.71328386  1
  H+  H379  1  0.94412987  0.21486206  0.54932757  1
  H+  H380  1  0.72933987  0.61266123  0.51405478  1
  H+  H381  1  0.07304294  0.90396863  0.72696936  1
  H+  H382  1  0.35611528  0.17956722  0.06043714  1
  H+  H383  1  0.12223434  0.40326663  0.35555514  1
  O2-  O384  1  0.10292396  0.18873448  0.16090539  1
  O2-  O385  1  0.08198621  0.21041553  0.47024506  1
  O2-  O386  1  0.09068307  0.19105496  0.80323926  1
  O2-  O387  1  0.08607250  0.42653903  0.14985969  1
  O2-  O388  1  0.05517723  0.43444907  0.48426798  1
  O2-  O389  1  0.07024319  0.41189396  0.81006166  1
  O2-  O390  1  0.08007414  0.65461777  0.15110837  1
  O2-  O391  1  0.12553748  0.70935554  0.51862675  1
  O2-  O392  1  0.06755672  0.67182329  0.84081248  1
  O2-  O393  1  0.09122825  0.92510955  0.16763721  1
  O2-  O394  1  0.06180471  0.89680661  0.48106970  1
  O2-  O395  1  0.08147889  0.91178624  0.80278617  1
  O2-  O396  1  0.34964539  0.17700986  0.13710342  1
  O2-  O397  1  0.33607527  0.16354815  0.48684202  1
  O2-  O398  1  0.32856889  0.17908854  0.82107668  1
  O2-  O399  1  0.33284987  0.41225281  0.14087536  1
  O2-  O400  1  0.36351308  0.41977296  0.47577525  1
  O2-  O401  1  0.33212794  0.41961720  0.79506901  1
  O2-  O402  1  0.32142892  0.65632223  0.14804724  1
  O2-  O403  1  0.34801480  0.67129590  0.47783738  1
  O2-  O404  1  0.28405809  0.67920045  0.79006276  1
  O2-  O405  1  0.42335545  0.94581911  0.10556309  1
  O2-  O406  1  0.33819647  0.91899285  0.48732672  1
  O2-  O407  1  0.30603515  0.96223683  0.74860711  1
  O2-  O408  1  0.60003184  0.18335415  0.13876452  1
  O2-  O409  1  0.57947362  0.17422056  0.48389522  1
  O2-  O410  1  0.58930983  0.16329525  0.79358521  1
  O2-  O411  1  0.57411403  0.41970732  0.15525117  1
  O2-  O412  1  0.58743939  0.36396950  0.47429228  1
  O2-  O413  1  0.57811806  0.40912835  0.80673546  1
  O2-  O414  1  0.55262915  0.63690509  0.22022497  1
  O2-  O415  1  0.59633017  0.67182461  0.48771075  1
  O2-  O416  1  0.61294524  0.68075267  0.80406288  1
  O2-  O417  1  0.57316928  0.86854818  0.15953215  1
  O2-  O418  1  0.59051280  0.92132250  0.47926342  1
  O2-  O419  1  0.55711092  0.93613919  0.79117849  1
  O2-  O420  1  0.83389370  0.16127254  0.14331164  1
  O2-  O421  1  0.81876076  0.18711379  0.45590409  1
  O2-  O422  1  0.83735459  0.17352565  0.80039704  1
  O2-  O423  1  0.84114018  0.41739804  0.16082202  1
  O2-  O424  1  0.79780711  0.40617325  0.45278715  1
  O2-  O425  1  0.85590071  0.42778911  0.79996243  1
  O2-  O426  1  0.83333100  0.66201038  0.15374924  1
  O2-  O427  1  0.83337774  0.67949216  0.48198481  1
  O2-  O428  1  0.83253381  0.65689096  0.82273240  1
  O2-  O429  1  0.81064078  0.87631296  0.14781583  1
  O2-  O430  1  0.84060101  0.91005243  0.48296666  1
  O2-  O431  1  0.85823772  0.93031378  0.80286353  1
  O2-  O432  1  0.18906569  0.10324761  0.19458662  1
  O2-  O433  1  0.16802133  0.04851155  0.53048727  1
  O2-  O434  1  0.18863778  0.05317192  0.88149384  1
  O2-  O435  1  0.17127920  0.35435246  0.19550913  1
  O2-  O436  1  0.19658149  0.36267625  0.51888090  1
  O2-  O437  1  0.14642095  0.33003286  0.85221558  1
  O2-  O438  1  0.15984897  0.57761738  0.18461527  1
  O2-  O439  1  0.18331489  0.59933984  0.53208715  1
  O2-  O440  1  0.13919747  0.57453564  0.85935367  1
  O2-  O441  1  0.09325280  0.78796926  0.21904908  1
  O2-  O442  1  0.17245869  0.85059492  0.58180481  1
  O2-  O443  1  0.19901454  0.86698504  0.83762094  1
  O2-  O444  1  0.43856989  0.09375668  0.15947231  1
  O2-  O445  1  0.42079206  0.08594465  0.51687577  1
  O2-  O446  1  0.42733928  0.03809669  0.84104978  1
  O2-  O447  1  0.42497264  0.33364314  0.18826344  1
  O2-  O448  1  0.42945504  0.32696780  0.52684289  1
  O2-  O449  1  0.41660166  0.34914403  0.85134916  1
  O2-  O450  1  0.43740264  0.58778159  0.13060826  1
  O2-  O451  1  0.43052071  0.58651585  0.51877548  1
  O2-  O452  1  0.32134234  0.54332169  0.85028564  1
  O2-  O453  1  0.38955914  0.82471585  0.18462793  1
  O2-  O454  1  0.42445803  0.83652350  0.51866037  1
  O2-  O455  1  0.39333320  0.86194721  0.83943079  1
  O2-  O456  1  0.65871786  0.08962773  0.17749290  1
  O2-  O457  1  0.66296823  0.09129627  0.51208798  1
  O2-  O458  1  0.66842929  0.08446927  0.83864596  1
  O2-  O459  1  0.67176653  0.33918111  0.19102226  1
  O2-  O460  1  0.64324360  0.33418784  0.50059611  1
  O2-  O461  1  0.68688858  0.33525237  0.81982649  1
  O2-  O462  1  0.66125980  0.57062238  0.20575071  1
  O2-  O463  1  0.67061510  0.57760817  0.53092416  1
  O2-  O464  1  0.66338709  0.57052533  0.85495613  1
  O2-  O465  1  0.65035165  0.80100076  0.21249438  1
  O2-  O466  1  0.67585614  0.83778750  0.52053814  1
  O2-  O467  1  0.69289590  0.83380064  0.85524659  1
  O2-  O468  1  0.94160991  0.10321297  0.18115586  1
  O2-  O469  1  0.93116918  0.16233599  0.52772617  1
  O2-  O470  1  0.92716763  0.09892214  0.83210041  1
  O2-  O471  1  0.91374853  0.32405774  0.19665905  1
  O2-  O472  1  0.88643595  0.34296134  0.51392973  1
  O2-  O473  1  0.90707686  0.32954963  0.85231410  1
  O2-  O474  1  0.91523320  0.57864528  0.20364861  1
  O2-  O475  1  0.89360687  0.57795275  0.49728571  1
  O2-  O476  1  0.90491155  0.56595256  0.86366852  1
  O2-  O477  1  0.92276564  0.83484331  0.18963786  1
  O2-  O478  1  0.91614882  0.83360542  0.52092042  1
  O2-  O479  1  0.92238353  0.83231558  0.84791155  1
  O2-  O480  1  0.16573345  0.09469061  0.32335387  1
  O2-  O481  1  0.15724424  0.07257587  0.64893739  1
  O2-  O482  1  0.11937477  0.06118714  0.98782719  1
  O2-  O483  1  0.17584317  0.35001528  0.32190366  1
  O2-  O484  1  0.16991033  0.34963623  0.64431587  1
  O2-  O485  1  0.15319850  0.32477641  0.98109636  1
  O2-  O486  1  0.17922197  0.60133265  0.32440909  1
  O2-  O487  1  0.17100866  0.62644333  0.68878529  1
  O2-  O488  1  0.12865900  0.56348644  0.97858778  1
  O2-  O489  1  0.14827149  0.83613950  0.33828891  1
  O2-  O490  1  0.16605353  0.82843816  0.64653940  1
  O2-  O491  1  0.13626793  0.82360332  1.00000216  1
  O2-  O492  1  0.39439579  0.05966087  0.34050688  1
  O2-  O493  1  0.41748456  0.08126469  0.64114785  1
  O2-  O494  1  0.42436526  0.08298454  0.96151115  1
  O2-  O495  1  0.40417002  0.31778618  0.29956474  1
  O2-  O496  1  0.39062108  0.32787569  0.64463301  1
  O2-  O497  1  0.41157568  0.34162697  0.97176575  1
  O2-  O498  1  0.44644848  0.59761166  0.32055104  1
  O2-  O499  1  0.43981150  0.59090824  0.64162905  1
  O2-  O500  1  0.39925762  0.54707687  0.96664976  1
  O2-  O501  1  0.43492898  0.84925292  0.31054301  1
  O2-  O502  1  0.42191427  0.84678973  0.64455119  1
  O2-  O503  1  0.46743690  0.88541056  0.97163742  1
  O2-  O504  1  0.64155868  0.07168718  0.29849747  1
  O2-  O505  1  0.67010861  0.09112775  0.63138678  1
  O2-  O506  1  0.66000686  0.09452378  0.96240447  1
  O2-  O507  1  0.59850251  0.31560490  0.30438756  1
  O2-  O508  1  0.65929686  0.33884741  0.64491279  1
  O2-  O509  1  0.66402516  0.34709963  0.99853173  1
  O2-  O510  1  0.65752168  0.53852052  0.32554970  1
  O2-  O511  1  0.66601231  0.57044885  0.65043607  1
  O2-  O512  1  0.66146760  0.57511052  0.98201791  1
  O2-  O513  1  0.67266018  0.83302852  0.32015277  1
  O2-  O514  1  0.67950289  0.83270284  0.64038661  1
  O2-  O515  1  0.66969166  0.82409198  0.97237131  1
  O2-  O516  1  0.92266499  0.11245191  0.30642489  1
  O2-  O517  1  0.92358941  0.09178619  0.64328054  1
  O2-  O518  1  0.90040800  0.10102234  0.95364970  1
  O2-  O519  1  0.90126921  0.29459466  0.31634842  1
  O2-  O520  1  0.91382225  0.33996477  0.63571819  1
  O2-  O521  1  0.91351853  0.33547963  0.98061518  1
  O2-  O522  1  0.92635296  0.55236399  0.32596760  1
  O2-  O523  1  0.91982302  0.57747862  0.62450895  1
  O2-  O524  1  0.89992967  0.56899419  0.98338987  1
  O2-  O525  1  0.92346870  0.86567399  0.31181240  1
  O2-  O526  1  0.91850760  0.83999266  0.63870442  1
  O2-  O527  1  0.89605341  0.80186692  0.97195973  1
  O2-  O528  1  0.02997103  0.13642897  0.03104255  1
  O2-  O529  1  0.08584004  0.18627662  0.35483723  1
  O2-  O530  1  0.09117301  0.17979317  0.68271757  1
  O2-  O531  1  0.07164448  0.40357684  0.02716709  1
  O2-  O532  1  0.09150696  0.43244774  0.37049099  1
  O2-  O533  1  0.08505178  0.43197672  0.68265376  1
  O2-  O534  1  0.06149166  0.65658345  0.03054806  1
  O2-  O535  1  0.09254896  0.66883901  0.37911252  1
  O2-  O536  1  0.10541657  0.65120324  0.67456683  1
  O2-  O537  1  0.04072791  0.90341541  0.03833530  1
  O2-  O538  1  0.07762645  0.93126857  0.36537003  1
  O2-  O539  1  0.07131406  0.90366748  0.68120858  1
  O2-  O540  1  0.36109555  0.18337266  0.01436618  1
  O2-  O541  1  0.32764428  0.16727484  0.36542149  1
  O2-  O542  1  0.29884368  0.10506534  0.71342811  1
  O2-  O543  1  0.31795538  0.39368631  0.00894254  1
  O2-  O544  1  0.34566446  0.41737934  0.35231858  1
  O2-  O545  1  0.33011792  0.42006273  0.68494197  1
  O2-  O546  1  0.35693479  0.65597718  0.02505707  1
  O2-  O547  1  0.35061862  0.67251870  0.34847233  1
  O2-  O548  1  0.38503807  0.69820111  0.68132998  1
  O2-  O549  1  0.33409166  0.91653753  -0.00893077  1
  O2-  O550  1  0.30993455  0.89146496  0.37779595  1
  O2-  O551  1  0.32428548  0.92180930  0.69537768  1
  O2-  O552  1  0.58646843  0.17389983  0.01230167  1
  O2-  O553  1  0.57286546  0.16017737  0.36043183  1
  O2-  O554  1  0.58607583  0.16999222  0.67008042  1
  O2-  O555  1  0.57502478  0.42358934  0.03437754  1
  O2-  O556  1  0.57783847  0.45703660  0.33949488  1
  O2-  O557  1  0.58457442  0.41048754  0.68144059  1
  O2-  O558  1  0.56160697  0.64648509  0.01627211  1
  O2-  O559  1  0.65436969  0.68582409  0.36831972  1
  O2-  O560  1  0.60274880  0.66680051  0.68826590  1
  O2-  O561  1  0.60708295  0.90744467  0.03197070  1
  O2-  O562  1  0.59688808  0.91029882  0.35914223  1
  O2-  O563  1  0.57593609  0.94149557  0.67190202  1
  O2-  O564  1  0.81868861  0.17073159  0.01794762  1
  O2-  O565  1  0.84287782  0.20360011  0.33035392  1
  O2-  O566  1  0.83651923  0.17109797  0.67655390  1
  O2-  O567  1  0.83673866  0.41590508  0.03675084  1
  O2-  O568  1  0.83407112  0.37870348  0.34416705  1
  O2-  O569  1  0.82423685  0.41518439  0.67379601  1
  O2-  O570  1  0.82343073  0.65110422  0.02498795  1
  O2-  O571  1  0.81860598  0.71952050  0.36270223  1
  O2-  O572  1  0.80513254  0.59603345  0.70620749  1
  O2-  O573  1  0.81044556  0.86601320  0.01687181  1
  O2-  O574  1  0.84538567  0.95007783  0.35781390  1
  O2-  O575  1  0.85404894  0.92653641  0.67864639  1
