# generated using pymatgen
data_H2O
_symmetry_space_group_name_H-M   'P 1'
_cell_length_a   17.99541383
_cell_length_b   17.99246190
_cell_length_c   22.00003753
_cell_angle_alpha   89.99254092
_cell_angle_beta   90.02463703
_cell_angle_gamma   119.98853382
_symmetry_Int_Tables_number   1
_chemical_formula_structural   H2O
_chemical_formula_sum   'H384 O192'
_cell_volume   6169.59432389
_cell_formula_units_Z   192
loop_
 _symmetry_equiv_pos_site_id
 _symmetry_equiv_pos_as_xyz
  1  'x, y, z'
loop_
 _atom_type_symbol
 _atom_type_oxidation_number
  H+  1.0
  O2-  -2.0
loop_
 _atom_site_type_symbol
 _atom_site_label
 _atom_site_symmetry_multiplicity
 _atom_site_fract_x
 _atom_site_fract_y
 _atom_site_fract_z
 _atom_site_occupancy
  H+  H0  1  0.85338663  0.39284898  0.47707974  1
  H+  H1  1  0.38325312  0.61716322  0.83353137  1
  H+  H2  1  0.15765868  0.32737593  0.57519152  1
  H+  H3  1  0.08755918  0.39737204  0.15825088  1
  H+  H4  1  0.73534457  0.10997448  0.84638026  1
  H+  H5  1  0.61303752  0.74336806  0.50257369  1
  H+  H6  1  0.13685977  0.51717251  0.84994120  1
  H+  H7  1  0.48496135  0.61578807  0.33228200  1
  H+  H8  1  0.38974566  0.11310401  0.32752375  1
  H+  H9  1  0.86949741  0.28674973  1.02448330  1
  H+  H10  1  0.64223629  0.75334599  0.32835003  1
  H+  H11  1  0.87527175  0.13697381  0.68088364  1
  H+  H12  1  0.09693327  0.45360453  0.33729116  1
  H+  H13  1  0.08940401  0.93676692  0.74229844  1
  H+  H14  1  0.85951865  0.97670181  0.34532911  1
  H+  H15  1  0.91255545  0.58759031  0.61031272  1
  H+  H16  1  0.86098425  0.72725347  0.34344814  1
  H+  H17  1  0.20136435  0.10234916  0.17933558  1
  H+  H18  1  0.11133135  0.48131369  0.00707226  1
  H+  H19  1  0.23456659  0.37100346  0.85958287  1
  H+  H20  1  0.09537645  0.19311507  0.15485927  1
  H+  H21  1  0.14404104  0.58595968  0.33542844  1
  H+  H22  1  0.40391518  0.87728935  0.99350209  1
  H+  H23  1  0.63070193  0.85419431  0.98709333  1
  H+  H24  1  -0.02678595  0.86737588  0.33272261  1
  H+  H25  1  0.61055415  0.88878164  0.34486340  1
  H+  H26  1  0.54518474  0.40630343  0.16116183  1
  H+  H27  1  0.38387825  0.34668550  0.66068515  1
  H+  H28  1  0.95066413  0.91412788  0.18951750  1
  H+  H29  1  0.64715348  1.02375106  0.85657782  1
  H+  H30  1  0.64794224  0.62188699  0.16455536  1
  H+  H31  1  0.60228472  0.71552706  0.15828434  1
  H+  H32  1  0.36565721  0.98058226  0.33745995  1
  H+  H33  1  0.36619331  0.68030843  0.68081587  1
  H+  H34  1  0.64441828  0.55730286  0.48908143  1
  H+  H35  1  0.10202061  0.21061272  0.78965352  1
  H+  H36  1  0.18568522  0.99192889  0.72622240  1
  H+  H37  1  0.88920263  0.03232368  0.95171772  1
  H+  H38  1  0.14212816  0.24128890  0.49675168  1
  H+  H39  1  -0.02631154  0.62194802  0.66866358  1
  H+  H40  1  0.14482751  0.36778924  0.86206818  1
  H+  H41  1  0.70529723  0.85149764  0.16932637  1
  H+  H42  1  0.88058471  0.51671326  -0.01022282  1
  H+  H43  1  0.18527313  0.35228049  0.31409657  1
  H+  H44  1  0.89126281  0.53798588  0.84145550  1
  H+  H45  1  0.39328684  0.52067349  0.50149180  1
  H+  H46  1  0.36524442  0.76662566  0.67084033  1
  H+  H47  1  0.77959117  0.12615086  0.67429419  1
  H+  H48  1  0.84113048  0.13633004  0.49804605  1
  H+  H49  1  0.85735033  0.63559285  0.68164987  1
  H+  H50  1  0.86978625  0.60922836  0.32931146  1
  H+  H51  1  0.64218958  0.63985680  0.50707107  1
  H+  H52  1  0.60797380  0.20814520  0.82939978  1
  H+  H53  1  0.77584132  0.88266224  0.34702066  1
  H+  H54  1  0.17943474  0.12205505  0.50054343  1
  H+  H55  1  0.39589662  0.30933467  0.50636279  1
  H+  H56  1  0.20893734  0.62041450  0.17427279  1
  H+  H57  1  0.36113153  0.90899096  0.49366704  1
  H+  H58  1  0.38610193  0.10612019  0.84022268  1
  H+  H59  1  0.08211821  0.88431015  0.83010925  1
  H+  H60  1  0.15114572  0.54001506  0.50955906  1
  H+  H61  1  0.02795408  0.87137027  0.15940707  1
  H+  H62  1  0.11876039  -0.00216443  0.34374016  1
  H+  H63  1  0.86465221  1.00972546  0.17865874  1
  H+  H64  1  0.85496324  0.26763894  0.46546185  1
  H+  H65  1  0.83359472  0.86840039  0.15529450  1
  H+  H66  1  0.57647319  0.66057758  0.06252164  1
  H+  H67  1  0.25421079  0.34582602  0.67044748  1
  H+  H68  1  0.80953756  0.14849402  0.43257079  1
  H+  H69  1  0.28713380  0.65025578  0.49047723  1
  H+  H70  1  0.37790816  0.75552154  0.12946886  1
  H+  H71  1  0.77872273  0.38909490  0.68345181  1
  H+  H72  1  0.10792167  0.38236612  0.49693974  1
  H+  H73  1  0.46840955  0.27982400  0.19502262  1
  H+  H74  1  -0.01689604  0.60822343  -0.00523337  1
  H+  H75  1  0.47981264  0.11568533  0.31929056  1
  H+  H76  1  0.23719791  0.65621134  0.65735005  1
  H+  H77  1  0.51817975  0.63506716  0.82383306  1
  H+  H78  1  0.60603632  0.63139861  0.82676686  1
  H+  H79  1  0.52757785  0.13720541  0.67324915  1
  H+  H80  1  0.85576806  0.87095102  0.68657673  1
  H+  H81  1  0.85631445  0.38015499  0.32444468  1
  H+  H82  1  0.09621335  0.72396766  0.16484805  1
  H+  H83  1  0.65870334  1.02541998  0.16926857  1
  H+  H84  1  0.86613048  0.48033501  0.68125286  1
  H+  H85  1  0.87321194  0.51240469  0.17338830  1
  H+  H86  1  0.85772724  0.48118049  0.50614359  1
  H+  H87  1  0.84918606  0.73087224  0.83211845  1
  H+  H88  1  0.53388885  0.89458545  0.99444858  1
  H+  H89  1  0.13576750  0.87898739  -0.01512005  1
  H+  H90  1  0.37641472  0.90982499  0.18135237  1
  H+  H91  1  0.02610116  0.37918000  0.84113794  1
  H+  H92  1  0.61780633  0.12546059  0.83485220  1
  H+  H93  1  0.95542968  0.35294457  0.31808754  1
  H+  H94  1  0.34147480  0.98848283  0.48524615  1
  H+  H95  1  0.41885729  0.10748921  0.59538246  1
  H+  H96  1  0.38807215  0.77569758  0.33215024  1
  H+  H97  1  0.49818577  0.82866730  0.12908728  1
  H+  H98  1  0.36065860  0.73250653  0.15937893  1
  H+  H99  1  0.86185167  0.98654401  0.50370465  1
  H+  H100  1  0.70411071  0.11633565  0.50719401  1
  H+  H101  1  0.13292186  0.11419978  0.33300306  1
  H+  H102  1  0.64288795  0.33446510  0.51875579  1
  H+  H103  1  0.71950831  0.61208507  0.34345099  1
  H+  H104  1  0.96860289  0.61859026  0.51468648  1
  H+  H105  1  0.11195351  0.76039448  0.83032636  1
  H+  H106  1  0.39279071  0.78418777  -0.01527205  1
  H+  H107  1  0.63496397  0.52081863  0.34769635  1
  H+  H108  1  0.39083055  0.27676678  0.84562633  1
  H+  H109  1  0.13097912  0.27929854  1.00567359  1
  H+  H110  1  0.85467073  0.09461763  0.96441462  1
  H+  H111  1  0.61284519  0.50002374  1.00147334  1
  H+  H112  1  0.60867459  0.63031980  0.35553189  1
  H+  H113  1  0.88096448  0.77225414  0.66576510  1
  H+  H114  1  0.96642017  0.61324453  0.17604702  1
  H+  H115  1  0.36093711  0.73452948  0.83230592  1
  H+  H116  1  0.08382241  0.10165042  0.15583804  1
  H+  H117  1  0.77256809  0.14871034  0.03818867  1
  H+  H118  1  0.47523871  0.87918502  0.50437735  1
  H+  H119  1  0.63040479  0.76304166  0.66388949  1
  H+  H120  1  0.63242230  1.02277782  0.32274997  1
  H+  H121  1  0.22368632  0.40068943  0.52712724  1
  H+  H122  1  0.72251926  0.61634163  0.84362738  1
  H+  H123  1  0.32924991  0.12928064  0.16590782  1
  H+  H124  1  0.63808806  0.35858935  0.66769819  1
  H+  H125  1  0.78691144  0.14481784  0.14357281  1
  H+  H126  1  0.90142842  0.57834499  0.23758298  1
  H+  H127  1  0.88235258  0.62221751  0.51426212  1
  H+  H128  1  0.24088664  0.12565210  0.65318154  1
  H+  H129  1  0.14313361  0.88451733  0.66634048  1
  H+  H130  1  0.86094512  0.39355392  0.00923950  1
  H+  H131  1  0.24076978  0.51699648  0.12274371  1
  H+  H132  1  0.12491402  1.00543632  0.18008352  1
  H+  H133  1  0.21984588  0.87194316  0.98215408  1
  H+  H134  1  0.35031771  0.97331768  0.82360835  1
  H+  H135  1  0.37232232  0.56742134  0.65683540  1
  H+  H136  1  0.97715253  0.87598789  0.50902359  1
  H+  H137  1  1.01418445  0.65685044  0.83015503  1
  H+  H138  1  0.34621835  0.67322978  0.43194130  1
  H+  H139  1  0.64093522  0.36063983  0.33249715  1
  H+  H140  1  0.38932347  0.03490792  0.64864344  1
  H+  H141  1  0.65224239  0.14773418  0.15644533  1
  H+  H142  1  0.64493954  0.11151864  0.66615127  1
  H+  H143  1  0.58930175  0.85952505  0.15727552  1
  H+  H144  1  0.58680827  0.13616579  0.48782009  1
  H+  H145  1  0.71888701  0.84977181  0.67352450  1
  H+  H146  1  0.52173263  0.88767024  0.34775199  1
  H+  H147  1  0.11947045  0.32679357  0.66100711  1
  H+  H148  1  0.31336820  0.39364343  0.34334393  1
  H+  H149  1  0.63719021  0.76389081  0.83943179  1
  H+  H150  1  0.85060431  0.95328530  0.70628750  1
  H+  H151  1  0.89401777  0.36374708  0.69329401  1
  H+  H152  1  0.84993250  0.21611481  0.33612513  1
  H+  H153  1  0.16293898  0.33101243  0.15114251  1
  H+  H154  1  0.11023736  0.62958481  0.48189511  1
  H+  H155  1  0.89515414  0.36003202  0.84192918  1
  H+  H156  1  0.61957649  0.88858739  0.83978640  1
  H+  H157  1  0.63807667  0.26881933  0.32577708  1
  H+  H158  1  0.76973882  0.65462553  1.00598284  1
  H+  H159  1  0.51411296  0.39931701  1.00677521  1
  H+  H160  1  0.46775982  0.09393118  0.83874334  1
  H+  H161  1  0.09163291  0.23491604  0.63031640  1
  H+  H162  1  0.13394924  0.12111452  0.98877912  1
  H+  H163  1  0.76825367  0.63443147  0.67750001  1
  H+  H164  1  0.12012333  0.13520294  0.78899255  1
  H+  H165  1  0.52592987  0.64901382  0.50081135  1
  H+  H166  1  0.33967500  0.14011191  0.40913891  1
  H+  H167  1  0.36737800  0.93124933  0.08704413  1
  H+  H168  1  0.10590703  0.74831275  0.67696252  1
  H+  H169  1  0.38051030  0.86732722  0.83253197  1
  H+  H170  1  0.88704003  0.27015941  0.69102535  1
  H+  H171  1  0.83171874  0.69299528  0.08058646  1
  H+  H172  1  0.01407679  0.14257074  -0.00566003  1
  H+  H173  1  -0.03767355  0.37229318  0.16195618  1
  H+  H174  1  0.27713097  0.13949662  0.83027274  1
  H+  H175  1  0.14801125  0.04597811  0.65350695  1
  H+  H176  1  0.85462086  0.12922833  0.33727066  1
  H+  H177  1  0.63513358  0.52483228  0.84253775  1
  H+  H178  1  0.27698212  0.13224035  0.35383632  1
  H+  H179  1  0.22104840  0.60975004  0.84869714  1
  H+  H180  1  0.38256740  0.36577631  0.17471000  1
  H+  H181  1  0.28290163  0.62930028  0.33660270  1
  H+  H182  1  0.75235055  0.37261950  0.51782448  1
  H+  H183  1  0.85861457  0.74839862  1.00215885  1
  H+  H184  1  0.22084673  0.61594586  0.99333463  1
  H+  H185  1  0.51845818  0.61852179  0.67208164  1
  H+  H186  1  0.88531497  0.86863862  0.33564682  1
  H+  H187  1  0.62862932  0.61524677  0.99212546  1
  H+  H188  1  0.13315216  0.78245833  0.50708135  1
  H+  H189  1  0.66109942  0.54056359  0.16404030  1
  H+  H190  1  0.18916304  0.08476560  0.56484145  1
  H+  H191  1  0.57654894  0.65496954  0.73227699  1
  H+  H192  1  0.22643214  0.85234856  0.17720224  1
  H+  H193  1  0.12594112  0.98937115  0.49140479  1
  H+  H194  1  0.88752904  0.87391864  0.51180589  1
  H+  H195  1  0.27086598  0.38174829  0.02454218  1
  H+  H196  1  0.89422932  0.27105622  0.83868076  1
  H+  H197  1  0.36704743  0.65092092  -0.00706116  1
  H+  H198  1  -0.03999575  0.61420761  0.32523217  1
  H+  H199  1  0.95228023  0.12546279  0.49041651  1
  H+  H200  1  0.33385743  0.39953905  0.08131125  1
  H+  H201  1  0.72595973  0.35312601  0.98776315  1
  H+  H202  1  0.78811335  0.40136832  0.83390881  1
  H+  H203  1  0.29141350  0.09049896  0.49990096  1
  H+  H204  1  0.78062979  0.65484117  0.49615315  1
  H+  H205  1  0.46964454  0.62164308  -0.01206636  1
  H+  H206  1  0.61117782  0.89364105  0.50393177  1
  H+  H207  1  0.67336823  0.32378500  0.78205916  1
  H+  H208  1  0.45948795  0.97704836  0.05830845  1
  H+  H209  1  0.87172112  0.74085685  0.49707778  1
  H+  H210  1  0.36932464  0.22549816  0.68033524  1
  H+  H211  1  0.12664308  0.02479062  0.83800655  1
  H+  H212  1  0.13559963  0.80298038  0.33152627  1
  H+  H213  1  0.38755061  0.79147373  0.50087625  1
  H+  H214  1  0.38325356  0.52705528  0.83408292  1
  H+  H215  1  0.09283937  0.33542513  0.31554608  1
  H+  H216  1  0.48035382  0.87739560  0.65353606  1
  H+  H217  1  0.29919028  0.36623116  0.48992379  1
  H+  H218  1  0.43601232  0.11104462  0.16733753  1
  H+  H219  1  0.11452131  0.66514694  0.67698959  1
  H+  H220  1  0.52546375  0.34713643  0.50531705  1
  H+  H221  1  0.34071110  0.43648616  0.66603378  1
  H+  H222  1  0.56512792  0.13464211  0.17502626  1
  H+  H223  1  0.96636215  0.10441118  0.33048881  1
  H+  H224  1  0.38515223  0.37009921  0.00347344  1
  H+  H225  1  0.50943264  0.15611243  0.48268199  1
  H+  H226  1  0.68898708  1.01882350  -0.00625709  1
  H+  H227  1  0.38404933  0.86340238  0.33974998  1
  H+  H228  1  0.37424570  0.63691115  0.33823984  1
  H+  H229  1  0.33612830  0.21968112  0.16869465  1
  H+  H230  1  0.95626591  0.09312206  0.17446230  1
  H+  H231  1  0.11911385  0.87773826  0.15878983  1
  H+  H232  1  0.50069979  0.14041382  1.01526423  1
  H+  H233  1  0.75458858  0.88845343  0.00443559  1
  H+  H234  1  0.38685551  0.60817073  0.50382927  1
  H+  H235  1  0.62714940  0.39719916  0.15419199  1
  H+  H236  1  0.52140377  0.62077238  0.15977171  1
  H+  H237  1  0.63432095  0.36421607  0.82528742  1
  H+  H238  1  0.01941973  0.36180168  0.69820024  1
  H+  H239  1  0.40962725  0.35878932  0.33489241  1
  H+  H240  1  0.37953279  0.57345617  0.17089672  1
  H+  H241  1  0.49910038  0.91448997  0.19256691  1
  H+  H242  1  -0.09307892  0.84226711  -0.07551358  1
  H+  H243  1  0.39496264  0.48655088  0.34186092  1
  H+  H244  1  0.27088504  0.14491925  1.00477727  1
  H+  H245  1  0.10141393  0.62319764  0.00732061  1
  H+  H246  1  0.60943119  0.72309170  1.00391247  1
  H+  H247  1  0.13753098  1.03455072  -0.00902640  1
  H+  H248  1  0.28884070  0.35523849  0.17790153  1
  H+  H249  1  0.85849479  0.39415520  0.15763697  1
  H+  H250  1  0.09834604  0.21467362  0.34130726  1
  H+  H251  1  0.85414400  0.47437988  0.33021436  1
  H+  H252  1  0.63309107  0.60637910  0.66066884  1
  H+  H253  1  0.61499426  0.43236085  0.51554867  1
  H+  H254  1  0.10549247  0.67910979  0.31998019  1
  H+  H255  1  0.03623267  0.40086878  0.51774433  1
  H+  H256  1  0.61420932  0.22718303  0.00603319  1
  H+  H257  1  0.11694720  0.43814274  0.69139798  1
  H+  H258  1  0.96400978  0.36412014  1.00776139  1
  H+  H259  1  0.94627010  0.34745092  0.45634150  1
  H+  H260  1  0.38652189  0.12672570  0.01080148  1
  H+  H261  1  0.77004210  0.39639029  0.16220096  1
  H+  H262  1  0.61590172  0.47284527  0.67150224  1
  H+  H263  1  0.61916420  0.02724252  0.51205973  1
  H+  H264  1  0.34122150  0.97191905  0.16823929  1
  H+  H265  1  0.12384970  0.90634333  0.34322101  1
  H+  H266  1  0.77155456  0.65288759  0.15233705  1
  H+  H267  1  0.61077574  0.13670442  0.33307358  1
  H+  H268  1  0.52696229  0.38326490  0.67455918  1
  H+  H269  1  0.39924268  1.04159122  0.01606991  1
  H+  H270  1  0.75832169  0.37713268  0.32924649  1
  H+  H271  1  0.88153486  0.62365762  0.84385102  1
  H+  H272  1  0.52451516  0.38940021  0.82963018  1
  H+  H273  1  0.53349010  0.89335922  0.83443129  1
  H+  H274  1  0.07570775  0.14858556  0.51641932  1
  H+  H275  1  0.14820860  0.56903354  0.65533554  1
  H+  H276  1  0.64874208  0.27893318  0.17286978  1
  H+  H277  1  0.09222339  0.63415450  0.16605007  1
  H+  H278  1  0.61104559  0.97167882  0.66667226  1
  H+  H279  1  0.23164793  0.88549137  0.33042120  1
  H+  H280  1  0.12243451  0.52979071  0.17006091  1
  H+  H281  1  0.39187088  0.28442774  1.00030618  1
  H+  H282  1  0.89067271  0.88059935  -0.01364925  1
  H+  H283  1  0.63840232  0.26793748  0.67064032  1
  H+  H284  1  0.72622613  0.87311459  0.51619378  1
  H+  H285  1  0.86431436  0.74755650  0.15199868  1
  H+  H286  1  0.60226468  0.87881966  0.66757346  1
  H+  H287  1  0.22193550  0.87112042  0.50426346  1
  H+  H288  1  0.84593640  0.87448589  0.79157309  1
  H+  H289  1  0.07585808  0.42943556  0.09036087  1
  H+  H290  1  0.94585779  0.31250158  0.57401056  1
  H+  H291  1  0.41108965  0.55945242  0.59455797  1
  H+  H292  1  0.39994122  0.08456961  0.23566362  1
  H+  H293  1  0.08167507  0.91889137  0.06106733  1
  H+  H294  1  0.67214545  0.30716590  0.92871131  1
  H+  H295  1  0.44045694  0.31811708  0.24987358  1
  H+  H296  1  0.17444423  0.34540271  0.95120505  1
  H+  H297  1  0.27325350  0.89978928  0.66542982  1
  H+  H298  1  0.02255471  0.89658354  0.00141942  1
  H+  H299  1  0.32139563  0.91873102  0.76171157  1
  H+  H300  1  0.15699135  0.84726906  0.60271408  1
  H+  H301  1  0.16109905  0.56787398  0.26782672  1
  H+  H302  1  0.11287231  0.89369247  0.48846229  1
  H+  H303  1  0.36783533  0.39025381  0.82984974  1
  H+  H304  1  0.05919794  0.14987104  0.05863731  1
  H+  H305  1  0.82471684  0.66839924  0.77350952  1
  H+  H306  1  0.02232787  0.57393424  0.44997222  1
  H+  H307  1  0.31822459  0.17123023  0.06898219  1
  H+  H308  1  0.32909677  0.92548147  0.39906857  1
  H+  H309  1  0.80614779  0.98404279  0.02792285  1
  H+  H310  1  0.41589761  0.84586004  0.89270864  1
  H+  H311  1  0.65105121  0.81769039  0.23056960  1
  H+  H312  1  0.44556642  0.88818837  0.25424448  1
  H+  H313  1  0.06028757  0.39558885  0.39654277  1
  H+  H314  1  0.58045443  0.15403553  0.73602768  1
  H+  H315  1  0.07544969  0.68846142  0.76773185  1
  H+  H316  1  0.90996219  0.83537527  0.60884268  1
  H+  H317  1  0.87748770  0.28042444  0.15547434  1
  H+  H318  1  0.68118897  0.08011940  0.23063349  1
  H+  H319  1  0.31470470  0.54526244  0.07659074  1
  H+  H320  1  0.33998881  0.17117565  0.77382901  1
  H+  H321  1  0.09074520  0.93260152  0.41172898  1
  H+  H322  1  0.08612425  0.16569382  0.40475327  1
  H+  H323  1  0.58216752  0.42092158  0.76855403  1
  H+  H324  1  0.90710794  0.07258064  0.26950433  1
  H+  H325  1  0.83836181  0.67283713  0.40498932  1
  H+  H326  1  0.07746442  0.67747799  0.38919104  1
  H+  H327  1  0.66703338  0.58481085  0.60008632  1
  H+  H328  1  0.58664746  0.43275008  0.06438360  1
  H+  H329  1  0.41469620  0.85011012  0.59549960  1
  H+  H330  1  0.57475403  0.16495087  0.39196720  1
  H+  H331  1  0.66689726  0.08602088  0.60303377  1
  H+  H332  1  0.90898642  0.32111566  0.57296471  1
  H+  H333  1  0.21701429  0.86931668  0.83018748  1
  H+  H334  1  0.41953601  0.23016642  0.52339346  1
  H+  H335  1  0.66168005  0.58412564  0.93311593  1
  H+  H336  1  0.15712355  0.07761077  0.27297973  1
  H+  H337  1  0.68287853  0.32780910  0.58464468  1
  H+  H338  1  0.41202684  0.59424517  0.92802368  1
  H+  H339  1  0.90007678  0.32738523  0.25593737  1
  H+  H340  1  0.16087670  0.84480170  0.89360339  1
  H+  H341  1  0.16400420  0.09158891  0.89199121  1
  H+  H342  1  0.36735474  0.13703062  0.67750969  1
  H+  H343  1  0.91797303  0.58677409  0.93023459  1
  H+  H344  1  0.36448864  0.90336099  0.66598775  1
  H+  H345  1  0.15946862  0.57896607  0.93499915  1
  H+  H346  1  0.99344795  0.88712166  0.82870306  1
  H+  H347  1  0.80869072  0.90806114  0.09805106  1
  H+  H348  1  0.32467376  0.40356196  0.77101287  1
  H+  H349  1  0.83606831  0.15424780  0.76829649  1
  H+  H350  1  0.36381360  0.41262753  0.43630664  1
  H+  H351  1  0.32335132  0.68014681  0.77328500  1
  H+  H352  1  0.66493268  0.82103809  0.93069624  1
  H+  H353  1  0.58144320  0.67544658  0.40844403  1
  H+  H354  1  0.08995590  0.39907255  0.78581845  1
  H+  H355  1  0.66672025  0.83809450  0.57573979  1
  H+  H356  1  0.84690703  0.43103722  0.77618438  1
  H+  H357  1  0.66707677  0.33598155  0.23278339  1
  H+  H358  1  0.33812670  0.68060608  0.05286818  1
  H+  H359  1  0.89709865  0.11189105  0.86688515  1
  H+  H360  1  0.11198897  0.39071406  0.01375310  1
  H+  H361  1  0.39729353  0.26360657  0.34197245  1
  H+  H362  1  0.73323314  0.84026720  0.84987842  1
  H+  H363  1  0.42092571  0.34007657  0.90329172  1
  H+  H364  1  0.58626224  0.92226401  0.44160329  1
  H+  H365  1  0.91646782  0.84355304  0.24071206  1
  H+  H366  1  0.17828796  0.61208430  0.56112180  1
  H+  H367  1  0.58832893  0.17156703  0.07099363  1
  H+  H368  1  0.53539770  0.37612689  0.35282949  1
  H+  H369  1  0.16728009  0.83714153  0.23542491  1
  H+  H370  1  0.06502613  0.65292010  0.06457148  1
  H+  H371  1  0.82421653  0.42991470  0.06097779  1
  H+  H372  1  0.72192334  0.10970513  0.32344023  1
  H+  H373  1  0.39785987  0.49960587  0.18586729  1
  H+  H374  1  0.72147546  0.08584849  0.94110073  1
  H+  H375  1  0.15098477  0.30744704  0.22212711  1
  H+  H376  1  0.72005114  0.77945261  0.28532794  1
  H+  H377  1  0.59492074  0.40008284  0.41180161  1
  H+  H378  1  0.42548520  0.57834057  0.27150568  1
  H+  H379  1  0.83329860  0.92582577  0.44480017  1
  H+  H380  1  1.01232607  0.12844737  0.70256581  1
  H+  H381  1  0.94733802  0.11626523  0.56364392  1
  H+  H382  1  0.42366769  0.31677364  0.60569795  1
  H+  H383  1  0.58375066  0.91040723  0.05726826  1
  O2-  O384  1  0.05788005  0.13478569  0.13858053  1
  O2-  O385  1  0.11630748  0.18032969  0.48373264  1
  O2-  O386  1  0.10127938  0.16715606  0.76271294  1
  O2-  O387  1  0.07059009  0.43522072  0.13888658  1
  O2-  O388  1  0.07612409  0.41289536  0.48385882  1
  O2-  O389  1  0.08931020  0.41034864  0.82977495  1
  O2-  O390  1  0.06036863  0.66270635  0.15124174  1
  O2-  O391  1  0.06272477  0.63381239  0.46040092  1
  O2-  O392  1  0.07513590  0.69168641  0.81377642  1
  O2-  O393  1  0.08703548  0.90694511  0.14436125  1
  O2-  O394  1  0.08791898  0.92920105  0.47274694  1
  O2-  O395  1  0.05592326  0.91756251  0.81486887  1
  O2-  O396  1  0.30187419  0.16239137  0.15042657  1
  O2-  O397  1  0.34254676  0.09326445  0.47915582  1
  O2-  O398  1  0.33935577  0.17202318  0.81928583  1
  O2-  O399  1  0.34882250  0.39338912  0.16436608  1
  O2-  O400  1  0.35890127  0.40896137  0.48153727  1
  O2-  O401  1  0.33561405  0.41839708  0.81462958  1
  O2-  O402  1  0.29832428  0.56386367  0.11368173  1
  O2-  O403  1  0.34769578  0.67548773  0.47734219  1
  O2-  O404  1  0.32976161  0.67340872  0.81706158  1
  O2-  O405  1  0.33008786  0.91370103  0.15690932  1
  O2-  O406  1  0.32093665  0.92700395  0.47650180  1
  O2-  O407  1  0.31538913  0.91209753  0.80669897  1
  O2-  O408  1  0.61336372  0.17204904  0.14890241  1
  O2-  O409  1  0.56329740  0.16567040  0.46304138  1
  O2-  O410  1  0.58240481  0.14815747  0.81570500  1
  O2-  O411  1  0.60038288  0.43113626  0.13936729  1
  O2-  O412  1  0.58863074  0.38069747  0.49055240  1
  O2-  O413  1  0.58514494  0.42065252  0.81400901  1
  O2-  O414  1  0.57970089  0.65637499  0.14172624  1
  O2-  O415  1  0.58597611  0.68304139  0.48552195  1
  O2-  O416  1  0.57887310  0.66286387  0.80836781  1
  O2-  O417  1  0.55304762  0.88099659  0.13674620  1
  O2-  O418  1  0.57999049  0.92182910  0.48645697  1
  O2-  O419  1  0.59664419  0.92733191  0.83259418  1
  O2-  O420  1  0.83500549  0.18606546  0.11713711  1
  O2-  O421  1  0.80764472  0.15903800  0.47688247  1
  O2-  O422  1  0.84098304  0.15641552  0.81455391  1
  O2-  O423  1  0.83108421  0.43004231  0.14724434  1
  O2-  O424  1  0.82078188  0.42320595  0.48825422  1
  O2-  O425  1  0.84907750  0.43455614  0.82184088  1
  O2-  O426  1  0.83485846  0.69039430  0.13314757  1
  O2-  O427  1  0.84132322  0.67933992  0.48252730  1
  O2-  O428  1  0.82443173  0.66840247  0.81916406  1
  O2-  O429  1  0.80414380  0.89983638  0.14358902  1
  O2-  O430  1  0.83283166  0.92528968  0.49006743  1
  O2-  O431  1  0.84458860  0.87410727  0.83682311  1
  O2-  O432  1  0.14313272  0.06383258  0.19693501  1
  O2-  O433  1  0.19198537  0.07871646  0.51751350  1
  O2-  O434  1  0.16633538  0.08652555  0.84715651  1
  O2-  O435  1  0.17346701  0.29926964  0.18268124  1
  O2-  O436  1  0.16998802  0.34587276  0.52701667  1
  O2-  O437  1  0.17802047  0.34191200  0.87990878  1
  O2-  O438  1  0.15185902  0.58681164  0.19247235  1
  O2-  O439  1  0.17657005  0.60237067  0.51594637  1
  O2-  O440  1  0.16209602  0.57728404  0.86521812  1
  O2-  O441  1  0.16497655  0.82559851  0.19103752  1
  O2-  O442  1  0.16038218  0.84266273  0.51902575  1
  O2-  O443  1  0.15588385  0.84035269  0.84717998  1
  O2-  O444  1  0.38298821  0.08015564  0.19057669  1
  O2-  O445  1  0.41594866  0.15024454  0.51963719  1
  O2-  O446  1  0.40684119  0.06604281  0.85113605  1
  O2-  O447  1  0.44369605  0.31627926  0.20357862  1
  O2-  O448  1  0.43379317  0.29610011  0.53014838  1
  O2-  O449  1  0.42254995  0.33881278  0.85820844  1
  O2-  O450  1  0.42002178  0.56190341  0.19392322  1
  O2-  O451  1  0.41741219  0.57860661  0.52005430  1
  O2-  O452  1  0.41512380  0.58815061  0.84796069  1
  O2-  O453  1  0.46014207  0.92546521  0.21763337  1
  O2-  O454  1  0.41272587  0.85134666  0.51556290  1
  O2-  O455  1  0.41309698  0.83964972  0.84769427  1
  O2-  O456  1  0.68991619  0.08397740  0.18491005  1
  O2-  O457  1  0.64564834  0.08815360  0.52552298  1
  O2-  O458  1  0.68065685  0.08661881  0.86923684  1
  O2-  O459  1  0.66956285  0.33871569  0.18726149  1
  O2-  O460  1  0.68750409  0.32411906  0.53847008  1
  O2-  O461  1  0.66681246  0.33157608  0.82529932  1
  O2-  O462  1  0.68866999  0.60161892  0.17637157  1
  O2-  O463  1  0.67242791  0.60616881  0.51656436  1
  O2-  O464  1  0.66159360  0.58443802  0.85927676  1
  O2-  O465  1  0.64482415  0.81949841  0.18570928  1
  O2-  O466  1  0.66513355  0.84208355  0.53007939  1
  O2-  O467  1  0.67221373  0.82147739  0.85901912  1
  O2-  O468  1  0.90083499  0.06694605  0.19674180  1
  O2-  O469  1  0.91082041  0.09625654  0.52269686  1
  O2-  O470  1  0.88937976  0.11058924  0.82214684  1
  O2-  O471  1  0.90279098  0.33717441  0.17774420  1
  O2-  O472  1  0.88567875  0.32851981  0.45073018  1
  O2-  O473  1  0.92501667  0.32970075  0.85530509  1
  O2-  O474  1  0.90416398  0.57691465  0.19139849  1
  O2-  O475  1  0.90965978  0.58901573  0.53059172  1
  O2-  O476  1  0.91829045  0.59866392  0.85752373  1
  O2-  O477  1  0.92126818  0.85182748  0.19498757  1
  O2-  O478  1  0.91754062  0.84166492  0.52357618  1
  O2-  O479  1  0.89422882  0.83154903  0.85542656  1
  O2-  O480  1  0.16274698  0.08238979  0.31872181  1
  O2-  O481  1  0.18490680  0.09931566  0.63094817  1
  O2-  O482  1  0.16904227  0.09499479  0.97596311  1
  O2-  O483  1  0.12837150  0.31103492  0.29886370  1
  O2-  O484  1  0.14324585  0.29772023  0.63492463  1
  O2-  O485  1  0.16631564  0.34204722  0.99763926  1
  O2-  O486  1  0.16709509  0.55620930  0.31181143  1
  O2-  O487  1  0.17748682  0.62670931  0.63817855  1
  O2-  O488  1  0.15929915  0.58049279  0.98218986  1
  O2-  O489  1  0.17023382  0.86232929  0.31541095  1
  O2-  O490  1  0.16180211  0.84550342  0.64746650  1
  O2-  O491  1  0.16465660  0.84839977  0.96536097  1
  O2-  O492  1  0.41754545  0.08419685  0.30615895  1
  O2-  O493  1  0.42438970  0.09761616  0.63933653  1
  O2-  O494  1  0.42414865  0.10141848  1.00061920  1
  O2-  O495  1  0.43346193  0.32131285  0.32280560  1
  O2-  O496  1  0.42419039  0.32539407  0.65061364  1
  O2-  O497  1  0.42134824  0.34540805  0.98654548  1
  O2-  O498  1  0.42392856  0.58006591  0.31700971  1
  O2-  O499  1  0.40894826  0.54734490  0.63957403  1
  O2-  O500  1  0.41052850  0.60091271  0.97294076  1
  O2-  O501  1  0.41981984  0.83889801  0.32513429  1
  O2-  O502  1  0.41651925  0.85239726  0.64084612  1
  O2-  O503  1  0.42780132  0.84594672  0.97158096  1
  O2-  O504  1  0.66299946  0.08134579  0.30456962  1
  O2-  O505  1  0.67455140  0.08275806  0.64789092  1
  O2-  O506  1  0.74039310  0.07317851  0.98104572  1
  O2-  O507  1  0.67012137  0.33139815  0.31177061  1
  O2-  O508  1  0.67167162  0.32962209  0.65639217  1
  O2-  O509  1  0.66687060  0.31285779  0.97238343  1
  O2-  O510  1  0.65683560  0.58137211  0.33605218  1
  O2-  O511  1  0.66479631  0.57757966  0.64472947  1
  O2-  O512  1  0.66080247  0.58447323  0.97951799  1
  O2-  O513  1  0.68670344  0.80356062  0.30275641  1
  O2-  O514  1  0.66268413  0.82458204  0.65172196  1
  O2-  O515  1  0.66249733  0.82331324  0.97705209  1
  O2-  O516  1  0.90623849  0.07524195  0.31587062  1
  O2-  O517  1  0.96454366  0.10990494  0.67264665  1
  O2-  O518  1  0.90659267  0.09320387  0.95096825  1
  O2-  O519  1  0.89611582  0.32673242  0.30151291  1
  O2-  O520  1  0.92661737  0.33306910  0.68951461  1
  O2-  O521  1  0.90208694  0.33992961  1.00030818  1
  O2-  O522  1  0.89955528  0.57822131  0.31170091  1
  O2-  O523  1  0.91278446  0.58521914  0.65553530  1
  O2-  O524  1  0.91829067  0.57993998  0.97622908  1
  O2-  O525  1  0.91394890  0.83767869  0.31699147  1
  O2-  O526  1  0.90842991  0.83354663  0.65364910  1
  O2-  O527  1  0.91526320  0.84600519  0.97203818  1
  O2-  O528  1  0.07030531  0.16532698  0.01476637  1
  O2-  O529  1  0.07641314  0.15724345  0.36005565  1
  O2-  O530  1  0.01064485  0.14978866  0.61515795  1
  O2-  O531  1  0.08050943  0.42207644  0.02626339  1
  O2-  O532  1  0.05713437  0.39379702  0.35163779  1
  O2-  O533  1  0.08336409  0.37892922  0.70466428  1
  O2-  O534  1  0.06374842  0.64732802  0.01998385  1
  O2-  O535  1  0.07078322  0.69323585  0.34646280  1
  O2-  O536  1  0.07875998  0.68799813  0.69375942  1
  O2-  O537  1  0.08307815  0.92621595  0.01637996  1
  O2-  O538  1  0.08962560  0.93356188  0.36102748  1
  O2-  O539  1  0.13008556  0.95670225  0.70667676  1
  O2-  O540  1  0.32937393  0.17383277  0.02460927  1
  O2-  O541  1  0.33777268  0.15802104  0.36614720  1
  O2-  O542  1  0.33547843  0.16459742  0.69473707  1
  O2-  O543  1  0.33224896  0.40854495  0.03727636  1
  O2-  O544  1  0.37226524  0.42529258  0.35790251  1
  O2-  O545  1  0.31395499  0.37942661  0.68576607  1
  O2-  O546  1  0.33515795  0.68190916  0.00857069  1
  O2-  O547  1  0.34177914  0.66580124  0.35199083  1
  O2-  O548  1  0.32990452  0.70496054  0.68913548  1
  O2-  O549  1  0.39919891  0.95215128  0.04691670  1
  O2-  O550  1  0.32975913  0.92089245  0.35360965  1
  O2-  O551  1  0.33331107  0.93316323  0.68055710  1
  O2-  O552  1  0.57452074  0.16895075  0.02697562  1
  O2-  O553  1  0.58119990  0.16876211  0.34546109  1
  O2-  O554  1  0.58645989  0.16445249  0.69113091  1
  O2-  O555  1  0.57874640  0.43506345  0.01909200  1
  O2-  O556  1  0.59634047  0.40830423  0.36688406  1
  O2-  O557  1  0.58795557  0.41381961  0.68942647  1
  O2-  O558  1  0.57709792  0.66124174  0.01713344  1
  O2-  O559  1  0.58046913  0.66680978  0.36329913  1
  O2-  O560  1  0.57824920  0.65379244  0.68643021  1
  O2-  O561  1  0.59258210  0.91823406  0.01277904  1
  O2-  O562  1  0.58419053  0.92124581  0.35983183  1
  O2-  O563  1  0.57083911  0.91001272  0.67530491  1
  O2-  O564  1  0.78773642  0.19825965  0.06665719  1
  O2-  O565  1  0.82132228  0.15679919  0.35214158  1
  O2-  O566  1  0.83665728  0.15802946  0.69495583  1
  O2-  O567  1  0.82724996  0.42612515  0.01633095  1
  O2-  O568  1  0.82497297  0.41127179  0.34091402  1
  O2-  O569  1  0.83807882  0.42189962  0.70000010  1
  O2-  O570  1  0.82837355  0.69047744  0.02303993  1
  O2-  O571  1  0.83367641  0.66760903  0.35940311  1
  O2-  O572  1  0.82672732  0.66579860  0.69576599  1
  O2-  O573  1  0.81086055  0.93240619  0.02454152  1
  O2-  O574  1  0.83468692  0.91756149  0.36382368  1
  O2-  O575  1  0.82078720  0.89101278  0.71126741  1
