# generated using pymatgen
data_H2O
_symmetry_space_group_name_H-M   'P 1'
_cell_length_a   17.98095131
_cell_length_b   17.96541094
_cell_length_c   21.97777446
_cell_angle_alpha   90.00953509
_cell_angle_beta   90.01457916
_cell_angle_gamma   119.98019700
_symmetry_Int_Tables_number   1
_chemical_formula_structural   H2O
_chemical_formula_sum   'H384 O192'
_cell_volume   6149.65502270
_cell_formula_units_Z   192
loop_
 _symmetry_equiv_pos_site_id
 _symmetry_equiv_pos_as_xyz
  1  'x, y, z'
loop_
 _atom_type_symbol
 _atom_type_oxidation_number
  H+  1.0
  O2-  -2.0
loop_
 _atom_site_type_symbol
 _atom_site_label
 _atom_site_symmetry_multiplicity
 _atom_site_fract_x
 _atom_site_fract_y
 _atom_site_fract_z
 _atom_site_occupancy
  H+  H0  1  0.10417475  0.23592346  0.84782249  1
  H+  H1  1  0.37331203  0.38776019  0.34709741  1
  H+  H2  1  0.11719080  0.91574326  0.67187103  1
  H+  H3  1  0.36000641  0.41113189  0.57479154  1
  H+  H4  1  0.85823189  0.35899763  0.07358041  1
  H+  H5  1  0.64082724  0.52220361  0.33690550  1
  H+  H6  1  0.84747076  0.73573282  0.82703241  1
  H+  H7  1  0.11510573  0.22146588  0.35365711  1
  H+  H8  1  0.47691224  0.86975801  0.98799321  1
  H+  H9  1  0.64204744  0.28242022  0.67156199  1
  H+  H10  1  0.15013553  0.37888342  0.83084061  1
  H+  H11  1  0.23871575  0.68127828  0.52363496  1
  H+  H12  1  0.49308226  0.61849457  0.34390524  1
  H+  H13  1  0.87068925  0.24801579  0.34149205  1
  H+  H14  1  0.81909383  0.67883419  0.76462121  1
  H+  H15  1  0.39611490  0.26741371  0.85411747  1
  H+  H16  1  0.47734523  0.87843236  0.37698433  1
  H+  H17  1  0.23957609  0.87042074  0.99225350  1
  H+  H18  1  0.61877905  0.34238572  0.81564040  1
  H+  H19  1  0.86618892  0.72503830  0.49126809  1
  H+  H20  1  0.23945396  0.78526383  0.30387783  1
  H+  H21  1  0.27586178  0.89458785  0.16567575  1
  H+  H22  1  0.39762880  0.39063310  0.18263211  1
  H+  H23  1  0.73089548  0.36605893  0.51699711  1
  H+  H24  1  -0.00330419  0.11203564  0.54649431  1
  H+  H25  1  0.07427803  0.91250535  0.39344830  1
  H+  H26  1  0.14083088  0.39867871  0.66813185  1
  H+  H27  1  0.87195052  0.90178330  0.82627126  1
  H+  H28  1  0.86643360  0.61253323  0.33116135  1
  H+  H29  1  0.14100793  0.36979039  0.01523763  1
  H+  H30  1  0.88495991  0.36867681  0.80511960  1
  H+  H31  1  0.61714556  0.94646903  0.44528606  1
  H+  H32  1  0.48861410  0.61724769  0.84034990  1
  H+  H33  1  0.65183257  1.01279299  0.50532111  1
  H+  H34  1  0.86134103  0.15974061  0.72370746  1
  H+  H35  1  0.36879587  0.47398738  0.01977723  1
  H+  H36  1  0.27258376  0.37896493  0.49482663  1
  H+  H37  1  -0.03829843  0.11700977  0.85842765  1
  H+  H38  1  0.16505785  0.27493649  0.65611243  1
  H+  H39  1  0.08756777  0.47915280  0.33314618  1
  H+  H40  1  0.52978828  0.65055363  0.48880049  1
  H+  H41  1  0.86710279  0.47491206  0.50518024  1
  H+  H42  1  0.11923931  0.21596445  0.50178077  1
  H+  H43  1  0.62248806  0.02163541  0.97971217  1
  H+  H44  1  0.03948114  0.96181913  0.14669721  1
  H+  H45  1  0.38613343  0.14392674  0.85193607  1
  H+  H46  1  0.90481942  0.42192114  0.67982330  1
  H+  H47  1  -0.00841976  0.64654889  0.65549459  1
  H+  H48  1  0.85402339  0.50205270  1.00153026  1
  H+  H49  1  0.30454920  0.97194790  0.37382858  1
  H+  H50  1  0.12391964  1.02472281  0.32183424  1
  H+  H51  1  0.22958277  0.37068256  0.18727140  1
  H+  H52  1  0.02345073  0.13623129  0.34926647  1
  H+  H53  1  0.02939830  0.63962416  0.16618673  1
  H+  H54  1  0.79432817  0.55900702  0.03674454  1
  H+  H55  1  0.89189299  0.87262231  0.65599420  1
  H+  H56  1  0.95057217  0.59076683  0.33192149  1
  H+  H57  1  0.88095071  0.34726353  0.17824769  1
  H+  H58  1  0.45875807  0.10362725  0.90908704  1
  H+  H59  1  0.40098103  0.53247349  0.63227756  1
  H+  H60  1  0.13879691  0.77710156  0.17447809  1
  H+  H61  1  0.28934425  0.64880407  0.66847892  1
  H+  H62  1  0.39567083  0.13296108  0.17010856  1
  H+  H63  1  0.37996762  0.65619223  0.17675561  1
  H+  H64  1  0.48573753  0.62415458  0.64259058  1
  H+  H65  1  0.71905786  0.10494914  0.17584338  1
  H+  H66  1  0.75906121  0.12349066  0.34971574  1
  H+  H67  1  0.03639080  0.64053955  0.00178558  1
  H+  H68  1  0.86995945  0.98717358  0.01583184  1
  H+  H69  1  0.88696202  0.61240371  0.50807370  1
  H+  H70  1  0.39416665  0.77753103  -0.00719046  1
  H+  H71  1  0.16224098  0.63862361  0.81576311  1
  H+  H72  1  0.40073729  0.78669349  0.65667481  1
  H+  H73  1  0.41578790  0.59173907  0.54690447  1
  H+  H74  1  0.60518292  0.46706359  0.82307689  1
  H+  H75  1  0.89921346  0.58031327  0.26581184  1
  H+  H76  1  0.65500454  0.88646918  0.51018451  1
  H+  H77  1  0.25406404  0.90490311  0.65422701  1
  H+  H78  1  0.61785994  0.13794301  0.68167832  1
  H+  H79  1  0.63222132  0.10794339  0.16896202  1
  H+  H80  1  0.85977482  0.13258397  0.16317567  1
  H+  H81  1  0.91384983  0.55292896  0.66579132  1
  H+  H82  1  0.27554564  0.14831772  0.69981755  1
  H+  H83  1  0.63833595  0.11908529  0.32624628  1
  H+  H84  1  0.48740806  0.37548825  0.33319079  1
  H+  H85  1  0.52185644  0.13303335  0.16069678  1
  H+  H86  1  0.13685232  0.36248892  0.19022021  1
  H+  H87  1  0.19509104  0.33918346  0.79328943  1
  H+  H88  1  0.23956110  0.62232195  0.16068915  1
  H+  H89  1  0.95762554  0.86003124  0.18189398  1
  H+  H90  1  0.16039406  0.79914985  0.83061430  1
  H+  H91  1  0.64980913  0.87768897  0.66094463  1
  H+  H92  1  0.57265271  0.44708471  0.00223790  1
  H+  H93  1  0.40140604  0.62127032  1.00225126  1
  H+  H94  1  0.29802924  0.14600374  0.86053228  1
  H+  H95  1  0.88425882  0.61242400  0.17346730  1
  H+  H96  1  0.60329222  0.88005977  0.15153535  1
  H+  H97  1  0.61591418  0.89317380  0.99796947  1
  H+  H98  1  0.87241346  0.89896579  0.01564777  1
  H+  H99  1  0.39364349  0.91418082  0.50911497  1
  H+  H100  1  0.15429388  0.81110016  0.35768551  1
  H+  H101  1  0.73819052  0.87642902  0.99304598  1
  H+  H102  1  0.74409147  0.36945777  0.33506178  1
  H+  H103  1  0.53878948  0.15668071  0.34176536  1
  H+  H104  1  0.09424595  0.14305932  0.85195417  1
  H+  H105  1  0.40185940  0.61925291  0.83707922  1
  H+  H106  1  0.15314878  0.53625579  0.65904555  1
  H+  H107  1  0.86287784  0.88001134  0.49333802  1
  H+  H108  1  0.16528813  0.57081292  0.31682667  1
  H+  H109  1  0.37679663  0.64643886  0.66151588  1
  H+  H110  1  0.14622876  0.28522193  1.00810649  1
  H+  H111  1  0.29504546  0.74580133  0.32741632  1
  H+  H112  1  0.88692964  0.52474395  0.17492979  1
  H+  H113  1  0.17506462  0.11994294  0.80345235  1
  H+  H114  1  0.90290296  0.63385816  0.98974193  1
  H+  H115  1  0.60376763  0.38420838  0.15962279  1
  H+  H116  1  0.06381133  0.12970754  0.65371469  1
  H+  H117  1  0.63140847  0.24090525  0.34410811  1
  H+  H118  1  0.64373401  0.74911952  0.81876436  1
  H+  H119  1  0.29375344  0.64346578  0.81457785  1
  H+  H120  1  -0.02388471  0.86146058  0.50093717  1
  H+  H121  1  0.85032797  0.86954219  0.34702381  1
  H+  H122  1  0.29273837  0.64788701  0.02531770  1
  H+  H123  1  0.61036620  0.35095627  -0.03105574  1
  H+  H124  1  0.64186488  0.61783941  0.65127354  1
  H+  H125  1  0.16772711  0.91976642  0.14850029  1
  H+  H126  1  0.10520289  0.71910670  0.48749677  1
  H+  H127  1  0.62905184  0.39472036  0.34205881  1
  H+  H128  1  0.36258545  0.73699479  0.44743377  1
  H+  H129  1  0.10644343  0.47135233  0.17446604  1
  H+  H130  1  0.33632910  0.43527035  0.11725891  1
  H+  H131  1  1.01567437  0.63039886  0.49813208  1
  H+  H132  1  0.64895243  0.62665434  0.50197083  1
  H+  H133  1  0.30629957  0.62216299  0.30787794  1
  H+  H134  1  0.64949445  0.56708674  0.93625284  1
  H+  H135  1  0.12001872  0.64299756  0.15639168  1
  H+  H136  1  0.12060746  0.48930042  0.81960994  1
  H+  H137  1  0.13026499  0.02426476  0.82916197  1
  H+  H138  1  0.48547795  0.36384620  0.83750956  1
  H+  H139  1  0.37991184  0.99051852  0.67992824  1
  H+  H140  1  0.00065160  0.88577336  -0.00396443  1
  H+  H141  1  0.65173043  0.78611083  0.98966605  1
  H+  H142  1  0.37968778  0.47590425  0.86483437  1
  H+  H143  1  0.63223244  0.76844543  0.17034569  1
  H+  H144  1  0.63253857  0.90036009  0.35007614  1
  H+  H145  1  0.40125550  0.30297147  0.17921407  1
  H+  H146  1  0.37061691  0.74079099  0.17388965  1
  H+  H147  1  0.39681343  0.77811899  0.83468508  1
  H+  H148  1  0.41493845  0.04716028  0.32780060  1
  H+  H149  1  0.77590887  0.64430911  0.66968007  1
  H+  H150  1  0.97606780  0.56015270  0.84483866  1
  H+  H151  1  0.94930832  0.33026189  0.52031545  1
  H+  H152  1  0.14138875  0.61526836  1.01421670  1
  H+  H153  1  0.11910645  0.89853586  0.82236068  1
  H+  H154  1  0.11779017  0.23375872  0.16667489  1
  H+  H155  1  0.10844835  0.47403450  0.03489332  1
  H+  H156  1  0.39351881  0.12377184  0.68178956  1
  H+  H157  1  0.88731984  -0.00855352  0.66464976  1
  H+  H158  1  0.38718184  1.02700170  0.52887063  1
  H+  H159  1  0.43132556  0.31573868  0.02315743  1
  H+  H160  1  0.63634188  0.11038439  0.81376455  1
  H+  H161  1  0.23846065  0.57989892  0.47013434  1
  H+  H162  1  0.53256791  0.39200457  0.67591234  1
  H+  H163  1  0.20936887  0.08628159  0.51711785  1
  H+  H164  1  0.70874107  0.60766328  0.84021149  1
  H+  H165  1  0.37477659  0.89846363  0.67319318  1
  H+  H166  1  -0.02247634  0.11516000  0.00111987  1
  H+  H167  1  0.11012419  0.87934246  0.48145659  1
  H+  H168  1  0.38105998  0.38804104  0.63977839  1
  H+  H169  1  0.70920489  0.38586354  -0.02997968  1
  H+  H170  1  0.64199570  0.15034468  0.49763093  1
  H+  H171  1  0.92240192  0.34234846  0.74993096  1
  H+  H172  1  0.39481643  0.36559609  0.86618468  1
  H+  H173  1  0.90564062  0.36987288  0.97322331  1
  H+  H174  1  0.88948750  0.78204698  0.65849405  1
  H+  H175  1  0.62194615  0.63799294  0.34557408  1
  H+  H176  1  0.48519058  0.12664096  0.67638735  1
  H+  H177  1  0.37066477  0.83005460  0.24798419  1
  H+  H178  1  0.41213302  0.36195364  0.72685874  1
  H+  H179  1  0.29565415  0.17425755  0.16160350  1
  H+  H180  1  0.62837615  0.60564586  -0.00557732  1
  H+  H181  1  0.08356200  0.44044455  0.49831192  1
  H+  H182  1  0.61843272  0.74198728  0.49514965  1
  H+  H183  1  0.75027948  0.60908194  0.01351273  1
  H+  H184  1  0.76325136  0.87555098  0.34589860  1
  H+  H185  1  0.81781482  0.59671431  0.84568491  1
  H+  H186  1  0.81350649  0.20174140  0.52051049  1
  H+  H187  1  0.96217897  0.85556857  0.32827058  1
  H+  H188  1  0.24972093  0.08820980  0.35514364  1
  H+  H189  1  0.53567981  0.89852537  0.67333597  1
  H+  H190  1  0.85892731  0.38140318  0.51097093  1
  H+  H191  1  0.60963964  0.25707167  0.17379731  1
  H+  H192  1  0.35745010  0.22259627  0.10445131  1
  H+  H193  1  0.52910675  0.88827177  0.82725909  1
  H+  H194  1  0.12328846  0.14876684  0.16357689  1
  H+  H195  1  0.38791799  0.27494994  0.69467862  1
  H+  H196  1  0.23084766  0.35964833  0.34010262  1
  H+  H197  1  0.13369017  0.65684622  0.66225544  1
  H+  H198  1  0.63675944  0.77201201  0.32675956  1
  H+  H199  1  0.39239372  0.52012819  0.49649237  1
  H+  H200  1  0.03094831  0.39997667  0.80914776  1
  H+  H201  1  0.87179139  0.11018638  0.84785332  1
  H+  H202  1  0.64314154  0.52889053  0.65554709  1
  H+  H203  1  0.17609594  0.57931391  0.10765839  1
  H+  H204  1  0.90835218  0.14661105  0.66533626  1
  H+  H205  1  0.52710981  0.40362900  0.16116291  1
  H+  H206  1  0.37513132  0.89633589  0.82855443  1
  H+  H207  1  0.97663368  0.86492752  0.84069416  1
  H+  H208  1  0.97922479  0.11715026  0.17449489  1
  H+  H209  1  0.10276190  0.36259901  0.35178692  1
  H+  H210  1  0.18001403  1.05789081  0.17174062  1
  H+  H211  1  0.43015245  0.85074781  0.37065267  1
  H+  H212  1  0.09580133  0.72015279  0.32911916  1
  H+  H213  1  0.88833237  0.11541094  0.33754333  1
  H+  H214  1  0.66441373  0.83148316  0.26711386  1
  H+  H215  1  0.85867261  0.72118504  0.16292593  1
  H+  H216  1  0.92309948  0.09893903  0.27512868  1
  H+  H217  1  0.91429368  0.27161756  0.67020503  1
  H+  H218  1  0.62280487  0.39136069  0.67252200  1
  H+  H219  1  0.24712804  0.36469874  0.63750878  1
  H+  H220  1  0.52408129  0.90939828  0.51197443  1
  H+  H221  1  0.75170561  0.36870893  0.81003217  1
  H+  H222  1  0.40057869  0.73214083  0.43836062  1
  H+  H223  1  0.84864499  0.88291120  0.16709100  1
  H+  H224  1  0.61296393  0.61582436  0.16550870  1
  H+  H225  1  0.82609452  0.46200511  0.82761748  1
  H+  H226  1  0.82824253  0.23186140  1.02212185  1
  H+  H227  1  0.64055907  0.03642282  0.66409527  1
  H+  H228  1  0.77445065  0.63718098  0.49204200  1
  H+  H229  1  0.28867513  0.38912037  0.86486534  1
  H+  H230  1  0.62008178  0.89015700  0.82705848  1
  H+  H231  1  0.60161333  0.34416839  0.49371899  1
  H+  H232  1  0.14138669  0.62910296  0.50535461  1
  H+  H233  1  0.13750188  1.00668231  -0.00787872  1
  H+  H234  1  0.60170962  0.96691827  0.15367702  1
  H+  H235  1  0.85967634  0.36769865  0.35376140  1
  H+  H236  1  0.58601368  0.40410330  0.40195200  1
  H+  H237  1  0.32677839  0.89764408  0.35421740  1
  H+  H238  1  0.74053331  0.87856601  0.83563296  1
  H+  H239  1  0.73783650  0.14619393  0.01459766  1
  H+  H240  1  0.53136880  0.57935330  0.12382312  1
  H+  H241  1  0.06391551  0.58349019  0.34038342  1
  H+  H242  1  0.23420522  0.85951584  0.50271275  1
  H+  H243  1  0.91617169  0.79583367  1.00526825  1
  H+  H244  1  0.09409016  0.88397022  0.32890152  1
  H+  H245  1  0.17045808  0.10574798  0.92059538  1
  H+  H246  1  0.60331169  0.21350276  0.78471064  1
  H+  H247  1  0.40789761  0.61850500  0.36106505  1
  H+  H248  1  0.34602656  0.10598341  0.35260280  1
  H+  H249  1  0.62022794  0.60052824  0.84156546  1
  H+  H250  1  0.48479656  0.62209623  0.19543438  1
  H+  H251  1  1.01934878  0.96915388  0.11898361  1
  H+  H252  1  0.71913501  0.85888766  0.17134724  1
  H+  H253  1  0.15731728  0.89862133  -0.02054151  1
  H+  H254  1  0.12348721  0.09009558  0.51294230  1
  H+  H255  1  0.35033147  0.93285101  0.77049576  1
  H+  H256  1  0.86738715  0.98906374  0.82997775  1
  H+  H257  1  0.88099636  0.25975069  0.18183013  1
  H+  H258  1  0.77234964  0.13888338  0.81522499  1
  H+  H259  1  0.36797383  0.11280487  0.52287813  1
  H+  H260  1  0.62320048  0.73940085  0.65944366  1
  H+  H261  1  0.05873147  0.66205590  0.80828435  1
  H+  H262  1  0.83267969  0.66005864  0.40519954  1
  H+  H263  1  0.13526677  0.11696331  0.33225421  1
  H+  H264  1  0.01706056  0.37993244  0.18159786  1
  H+  H265  1  0.40622429  0.03781220  0.85463189  1
  H+  H266  1  0.24820620  0.88906858  0.83381176  1
  H+  H267  1  0.76784148  0.62998782  0.34567515  1
  H+  H268  1  0.72953885  0.60910569  0.18030515  1
  H+  H269  1  0.67779903  0.10414198  0.60907364  1
  H+  H270  1  0.53476750  0.64830518  0.00708130  1
  H+  H271  1  0.85115108  0.93757329  0.72720614  1
  H+  H272  1  0.07845483  0.92273204  0.76532868  1
  H+  H273  1  0.30317811  0.19527026  -0.01141164  1
  H+  H274  1  -0.04099557  0.58846251  0.83339634  1
  H+  H275  1  0.36878129  0.47470172  0.35243836  1
  H+  H276  1  0.32505443  0.57767740  0.46380397  1
  H+  H277  1  0.36587096  0.90175404  0.16448041  1
  H+  H278  1  0.64946256  0.27070196  0.51567169  1
  H+  H279  1  0.88952734  1.02822704  0.17760472  1
  H+  H280  1  0.63802372  1.02464833  0.82730608  1
  H+  H281  1  0.36427826  0.49508083  0.17816792  1
  H+  H282  1  0.87660675  0.76199220  0.33163210  1
  H+  H283  1  0.12965200  0.05496332  0.67251305  1
  H+  H284  1  0.77007323  0.31533460  0.10712028  1
  H+  H285  1  0.64133576  0.51844540  0.17733189  1
  H+  H286  1  0.63016739  0.98802826  0.34783291  1
  H+  H287  1  0.77202181  0.88493727  0.49663469  1
  H+  H288  1  0.92093460  0.59309097  0.57043966  1
  H+  H289  1  0.46036898  0.87088016  0.20994569  1
  H+  H290  1  0.56250177  0.15445276  0.09634542  1
  H+  H291  1  0.18779853  0.86239486  0.91870119  1
  H+  H292  1  0.60630799  0.17735823  0.43988822  1
  H+  H293  1  0.97466431  0.37250267  1.02100202  1
  H+  H294  1  0.60018292  0.67819266  0.06281800  1
  H+  H295  1  0.86156699  0.44537454  0.73401873  1
  H+  H296  1  0.36277424  0.68675980  0.07669655  1
  H+  H297  1  0.24284435  0.99488540  0.11304589  1
  H+  H298  1  0.34946811  0.20713743  0.50014259  1
  H+  H299  1  0.64695098  0.31140912  0.87255335  1
  H+  H300  1  0.18070850  0.56713829  0.97293529  1
  H+  H301  1  0.27209706  0.33027607  0.73958271  1
  H+  H302  1  0.10712354  0.96741155  0.48832008  1
  H+  H303  1  0.83253508  0.40386348  0.41096212  1
  H+  H304  1  0.02194739  0.90085177  0.67005093  1
  H+  H305  1  0.82351909  0.65300560  0.10564221  1
  H+  H306  1  0.99979982  0.36702320  0.66556484  1
  H+  H307  1  0.67516594  0.58983660  0.55831960  1
  H+  H308  1  0.76698731  0.52013287  0.89237066  1
  H+  H309  1  0.14114412  0.74942472  0.65597081  1
  H+  H310  1  0.90273372  0.30785581  0.28083515  1
  H+  H311  1  0.37816803  0.33875497  0.50179850  1
  H+  H312  1  0.27784006  0.61176167  0.37818275  1
  H+  H313  1  0.66234091  0.08284392  0.26622444  1
  H+  H314  1  0.43899552  0.85559860  0.60176589  1
  H+  H315  1  0.67881369  0.84750521  0.56784893  1
  H+  H316  1  0.42705491  0.59996372  0.25562534  1
  H+  H317  1  0.59403258  0.92455546  0.73275542  1
  H+  H318  1  0.90606356  0.32172766  0.58458857  1
  H+  H319  1  0.86822683  0.65096935  0.67544217  1
  H+  H320  1  0.17092261  0.32899331  0.28083504  1
  H+  H321  1  0.53112038  0.28201293  0.44816161  1
  H+  H322  1  0.35669289  0.94301591  0.45305766  1
  H+  H323  1  0.05813421  0.38139733  0.43951910  1
  H+  H324  1  0.59730702  0.67708273  0.40395642  1
  H+  H325  1  0.80660530  0.43458719  0.05552220  1
  H+  H326  1  0.80265476  0.14585008  0.41566799  1
  H+  H327  1  0.41368930  0.09389553  0.59019356  1
  H+  H328  1  0.11640683  0.69957204  0.74936237  1
  H+  H329  1  0.56082875  0.28072212  0.22153866  1
  H+  H330  1  0.66940185  0.33490585  0.60944668  1
  H+  H331  1  0.35790531  0.67524538  0.75856990  1
  H+  H332  1  0.04781014  0.62858098  0.40123767  1
  H+  H333  1  0.35308404  0.32912004  0.03626135  1
  H+  H334  1  0.86238319  0.22643614  0.80850544  1
  H+  H335  1  0.16774228  0.32636597  0.56400721  1
  H+  H336  1  0.57409583  0.11250696  -0.02413649  1
  H+  H337  1  0.59180718  0.67828406  0.71651743  1
  H+  H338  1  0.18425842  0.10374217  0.23555095  1
  H+  H339  1  0.42976925  0.35457207  0.27425110  1
  H+  H340  1  0.82391988  0.90118490  0.42434277  1
  H+  H341  1  0.27263400  0.39361427  0.02585020  1
  H+  H342  1  0.91971501  0.83635914  0.56244110  1
  H+  H343  1  0.13075094  0.95497660  0.05274441  1
  H+  H344  1  0.41872481  0.83383242  0.89643400  1
  H+  H345  1  0.17206815  0.83930803  0.55711428  1
  H+  H346  1  0.42855782  0.59133254  0.94189627  1
  H+  H347  1  0.68075002  0.34054101  0.27456392  1
  H+  H348  1  0.90824904  0.59519266  0.92760765  1
  H+  H349  1  0.38487188  0.03790856  0.17177356  1
  H+  H350  1  0.43510574  0.82164893  0.50348041  1
  H+  H351  1  0.33789365  0.40820837  0.43842472  1
  H+  H352  1  0.68725139  0.70291404  0.78711772  1
  H+  H353  1  0.82870121  0.91935966  0.10640401  1
  H+  H354  1  0.29672907  0.37882043  0.73854627  1
  H+  H355  1  0.18655141  0.61442054  0.87769464  1
  H+  H356  1  0.12606632  0.15548516  0.00917856  1
  H+  H357  1  0.42771640  0.10140519  0.26714225  1
  H+  H358  1  0.16049197  0.83028243  0.23563763  1
  H+  H359  1  0.58000506  0.91750095  0.05699220  1
  H+  H360  1  0.31628449  0.89697489  0.06660769  1
  H+  H361  1  0.07348013  0.40712108  0.08982901  1
  H+  H362  1  0.00554921  0.34920130  0.35043995  1
  H+  H363  1  0.22146247  0.95288873  0.61182388  1
  H+  H364  1  0.68107481  0.84355267  0.89580771  1
  H+  H365  1  0.09137350  0.17483339  0.07114947  1
  H+  H366  1  0.07873638  0.15161933  0.44640520  1
  H+  H367  1  0.45975019  0.32518651  0.50176016  1
  H+  H368  1  0.08301005  0.66703029  0.06688705  1
  H+  H369  1  0.31436724  0.12648188  0.44917548  1
  H+  H370  1  0.74008559  0.87911414  0.65907447  1
  H+  H371  1  0.89854468  0.82112339  0.24033333  1
  H+  H372  1  0.92204795  0.84031019  0.90178557  1
  H+  H373  1  0.66889468  0.57906779  0.27538250  1
  H+  H374  1  0.12861394  0.34600898  0.50518248  1
  H+  H375  1  0.65517221  0.08328486  0.92054969  1
  H+  H376  1  0.34781733  0.86493999  1.00652058  1
  H+  H377  1  0.58045325  0.41672168  0.75859412  1
  H+  H378  1  0.11155425  0.43085769  0.72698918  1
  H+  H379  1  0.18006400  0.59813664  0.60055940  1
  H+  H380  1  0.90848337  0.08270760  0.94733153  1
  H+  H381  1  0.33590749  0.16572253  0.75908198  1
  H+  H382  1  0.56296969  0.39698889  0.06212129  1
  H+  H383  1  0.81542155  0.16348403  0.11046056  1
  O2-  O384  1  0.08874084  0.17452275  0.14879053  1
  O2-  O385  1  0.08429626  0.15362465  0.49173864  1
  O2-  O386  1  0.06311506  0.17370127  0.84374626  1
  O2-  O387  1  0.07768024  0.40904647  0.16583893  1
  O2-  O388  1  0.05683435  0.38046210  0.48601896  1
  O2-  O389  1  0.09521778  0.42887347  0.80596334  1
  O2-  O390  1  0.08791779  0.67453425  0.14920566  1
  O2-  O391  1  0.07421576  0.65671929  0.47740722  1
  O2-  O392  1  0.11882059  0.69722754  0.79533927  1
  O2-  O393  1  0.18239919  0.97168491  0.12346432  1
  O2-  O394  1  0.07816575  0.90758439  0.46729258  1
  O2-  O395  1  0.08132438  0.92234973  0.81106873  1
  O2-  O396  1  0.35652312  0.20309588  0.14704040  1
  O2-  O397  1  0.32058544  0.14141145  0.49370681  1
  O2-  O398  1  0.35214985  0.17430524  0.83746919  1
  O2-  O399  1  0.33630148  0.43489142  0.16324754  1
  O2-  O400  1  0.33546669  0.40758964  0.48473243  1
  O2-  O401  1  0.35055660  0.41373058  0.87469140  1
  O2-  O402  1  0.34969039  0.68278779  0.15564572  1
  O2-  O403  1  0.27220655  0.56630665  0.44135934  1
  O2-  O404  1  0.35584969  0.67273991  0.80429136  1
  O2-  O405  1  0.33349942  0.92802656  0.14622756  1
  O2-  O406  1  0.35261162  0.93516303  0.49833317  1
  O2-  O407  1  0.34856138  0.93148671  0.81585449  1
  O2-  O408  1  0.57945466  0.16219835  0.14066356  1
  O2-  O409  1  0.60742065  0.17783657  0.48489954  1
  O2-  O410  1  0.58206301  0.15493759  0.76654977  1
  O2-  O411  1  0.58586150  0.42442233  0.14275300  1
  O2-  O412  1  0.55285023  0.33867836  0.46647597  1
  O2-  O413  1  0.57293693  0.40857807  0.80470213  1
  O2-  O414  1  0.57199665  0.63206413  0.14500252  1
  O2-  O415  1  0.59192388  0.68228378  0.47826055  1
  O2-  O416  1  0.62999293  0.69318746  0.79742420  1
  O2-  O417  1  0.57051419  0.90751354  0.13690644  1
  O2-  O418  1  0.61575437  0.94802509  0.49139366  1
  O2-  O419  1  0.58888248  0.91882462  0.81067798  1
  O2-  O420  1  0.82623675  0.16241638  0.15519424  1
  O2-  O421  1  0.78251302  0.14423219  0.50077882  1
  O2-  O422  1  0.83426092  0.16313564  0.80460164  1
  O2-  O423  1  0.82503351  0.36910735  0.10612060  1
  O2-  O424  1  0.83388874  0.41413040  0.49130383  1
  O2-  O425  1  0.81490036  0.40998692  0.80497786  1
  O2-  O426  1  0.83177203  0.65922887  0.15114309  1
  O2-  O427  1  0.83671564  0.66427948  0.47660023  1
  O2-  O428  1  0.80627325  0.67794110  0.80947517  1
  O2-  O429  1  0.82257122  0.91678177  0.15212980  1
  O2-  O430  1  0.83065159  0.90812270  0.47603322  1
  O2-  O431  1  0.84219896  0.93097314  0.80903373  1
  O2-  O432  1  0.19296330  0.11316280  0.19041023  1
  O2-  O433  1  0.14686398  0.05146146  0.52402944  1
  O2-  O434  1  0.16161754  0.08726995  0.84126046  1
  O2-  O435  1  0.16955973  0.33336900  0.20211986  1
  O2-  O436  1  0.16848359  0.32553406  0.51846329  1
  O2-  O437  1  0.18222983  0.34690306  0.83523633  1
  O2-  O438  1  0.17643416  0.58851941  0.15162120  1
  O2-  O439  1  0.19025964  0.62260238  0.52274581  1
  O2-  O440  1  0.18533123  0.60280705  0.83433593  1
  O2-  O441  1  0.16990167  0.83715785  0.19146561  1
  O2-  O442  1  0.17207424  0.82751614  0.51303690  1
  O2-  O443  1  0.18555514  0.85854242  0.84707003  1
  O2-  O444  1  0.41829082  0.09734611  0.18840989  1
  O2-  O445  1  0.40665485  0.08796805  0.54381131  1
  O2-  O446  1  0.43180752  0.09785823  0.86884324  1
  O2-  O447  1  0.43284491  0.36370385  0.19439165  1
  O2-  O448  1  0.40082891  0.30263723  0.51852229  1
  O2-  O449  1  0.43061368  0.33323406  0.86370274  1
  O2-  O450  1  0.42572086  0.60196585  0.21019420  1
  O2-  O451  1  0.41508899  0.58318342  0.50193157  1
  O2-  O452  1  0.43125954  0.59116486  0.85809704  1
  O2-  O453  1  0.39759776  0.83943189  0.20680397  1
  O2-  O454  1  0.45933085  0.87621669  0.52538339  1
  O2-  O455  1  0.42276967  0.83782038  0.85089565  1
  O2-  O456  1  0.65679126  0.07410433  0.18720131  1
  O2-  O457  1  0.69500066  0.10363034  0.52693986  1
  O2-  O458  1  0.66593078  0.08706491  0.83858894  1
  O2-  O459  1  0.61530417  0.30629425  0.19957756  1
  O2-  O460  1  0.67014687  0.33137973  0.53159767  1
  O2-  O461  1  0.64581215  0.30770372  0.82700458  1
  O2-  O462  1  0.66910032  0.57807433  0.19579764  1
  O2-  O463  1  0.67860223  0.59472820  0.51323289  1
  O2-  O464  1  0.64918550  0.56913695  0.85583628  1
  O2-  O465  1  0.65777044  0.82686298  0.18629220  1
  O2-  O466  1  0.67768579  0.84680567  0.52210001  1
  O2-  O467  1  0.67926970  0.84289054  0.85015525  1
  O2-  O468  1  0.91919974  0.08954331  0.19012129  1
  O2-  O469  1  0.94123547  0.08192379  0.56903840  1
  O2-  O470  1  0.89877575  0.07913455  0.86751871  1
  O2-  O471  1  0.91065034  0.32073230  0.19867779  1
  O2-  O472  1  0.89360684  0.31366835  0.54017665  1
  O2-  O473  1  0.92223638  0.34369144  0.79509805  1
  O2-  O474  1  0.91494157  0.58287696  0.19176342  1
  O2-  O475  1  0.91963050  0.58535423  0.52500083  1
  O2-  O476  1  0.82120504  0.55167780  0.87037841  1
  O2-  O477  1  0.89798790  0.82204549  0.19404887  1
  O2-  O478  1  0.91594907  0.83262059  0.51685131  1
  O2-  O479  1  0.91667654  0.83686730  0.85681581  1
  O2-  O480  1  0.16423522  0.08629703  0.31337298  1
  O2-  O481  1  0.16980761  0.11695195  0.66347472  1
  O2-  O482  1  0.18374734  0.10976704  0.96498405  1
  O2-  O483  1  0.16969351  0.32775497  0.32636687  1
  O2-  O484  1  0.18317019  0.33368682  0.64089136  1
  O2-  O485  1  0.17845960  0.34832080  0.99998644  1
  O2-  O486  1  0.10228444  0.53457035  0.31239052  1
  O2-  O487  1  0.17988940  0.59805500  0.64592062  1
  O2-  O488  1  0.17793068  0.58428500  1.01455747  1
  O2-  O489  1  0.13431501  0.78337095  0.31816407  1
  O2-  O490  1  0.20159953  0.89684665  0.63080728  1
  O2-  O491  1  0.18383499  0.86330041  0.96509957  1
  O2-  O492  1  0.43455170  0.10579136  0.31237748  1
  O2-  O493  1  0.42365323  0.09668805  0.66131313  1
  O2-  O494  1  0.49773038  0.12412471  1.03285768  1
  O2-  O495  1  0.42690687  0.34877064  0.31927912  1
  O2-  O496  1  0.41851985  0.33907118  0.68821430  1
  O2-  O497  1  0.36890168  0.28340790  1.03341005  1
  O2-  O498  1  0.42895292  0.59022743  0.33382924  1
  O2-  O499  1  0.42517279  0.59550326  0.62724498  1
  O2-  O500  1  0.43098472  0.59034266  0.98696001  1
  O2-  O501  1  0.29935420  0.79979893  0.31142740  1
  O2-  O502  1  0.42923375  0.84923308  0.64674948  1
  O2-  O503  1  0.41526839  0.83555020  0.97452030  1
  O2-  O504  1  0.66577505  0.08573965  0.31161146  1
  O2-  O505  1  0.66041363  0.09705007  0.65263959  1
  O2-  O506  1  0.64537192  0.08200507  0.96527863  1
  O2-  O507  1  0.68216379  0.34459322  0.31924747  1
  O2-  O508  1  0.66816083  0.34094194  0.65462780  1
  O2-  O509  1  0.65759942  0.35283618  0.94482487  1
  O2-  O510  1  0.67061747  0.58325865  0.32075368  1
  O2-  O511  1  0.67485403  0.58909114  0.63951391  1
  O2-  O512  1  0.64919159  0.56585052  0.98150198  1
  O2-  O513  1  0.66800934  0.83282245  0.31236277  1
  O2-  O514  1  0.67914684  0.84660123  0.64470664  1
  O2-  O515  1  0.67962816  0.84606300  0.97398003  1
  O2-  O516  1  0.92853734  0.09899146  0.31984592  1
  O2-  O517  1  0.96338723  0.09090035  0.63401942  1
  O2-  O518  1  0.91531462  0.08074337  0.99219571  1
  O2-  O519  1  0.90637487  0.30862305  0.32590517  1
  O2-  O520  1  0.93603780  0.33672505  0.66453347  1
  O2-  O521  1  0.91126185  0.34809992  1.01242505  1
  O2-  O522  1  0.89267884  0.57624044  0.31162978  1
  O2-  O523  1  0.92984989  0.61046115  0.64615495  1
  O2-  O524  1  0.93487084  0.60992175  0.96864891  1
  O2-  O525  1  0.90102252  0.82116470  0.31414255  1
  O2-  O526  1  0.92192232  0.84141333  0.64117692  1
  O2-  O527  1  0.93844035  0.85122612  0.98494325  1
  O2-  O528  1  0.09010887  0.17780217  0.02556370  1
  O2-  O529  1  0.08363822  0.15997572  0.36639293  1
  O2-  O530  1  0.12059846  0.16046007  0.67836633  1
  O2-  O531  1  0.07335737  0.41185850  0.04410578  1
  O2-  O532  1  0.06538816  0.38523509  0.36745162  1
  O2-  O533  1  0.11325550  0.43224459  0.68153864  1
  O2-  O534  1  0.09181496  0.66060075  0.02302392  1
  O2-  O535  1  0.04001771  0.62263550  0.35602501  1
  O2-  O536  1  0.10810612  0.69330445  0.67531929  1
  O2-  O537  1  0.11137018  0.94711597  0.00941998  1
  O2-  O538  1  0.06675739  0.91365225  0.34749633  1
  O2-  O539  1  0.08058174  0.93698677  0.68897331  1
  O2-  O540  1  0.27696292  0.14258135  -0.03823876  1
  O2-  O541  1  0.29356509  0.08079888  0.37829126  1
  O2-  O542  1  0.33560965  0.17013421  0.71360720  1
  O2-  O543  1  0.33410654  0.41979861  0.04234765  1
  O2-  O544  1  0.33821767  0.41357025  0.36479458  1
  O2-  O545  1  0.35576773  0.41947109  0.61852186  1
  O2-  O546  1  0.35580082  0.67984767  0.03151104  1
  O2-  O547  1  0.27690345  0.63893477  0.33738653  1
  O2-  O548  1  0.35091727  0.67870514  0.68104590  1
  O2-  O549  1  0.29982490  0.86991669  0.02573650  1
  O2-  O550  1  0.34687581  0.95246339  0.37674425  1
  O2-  O551  1  0.34383993  0.92784903  0.68962219  1
  O2-  O552  1  0.53200388  0.13508052  -0.02415908  1
  O2-  O553  1  0.59820275  0.17934051  0.35742515  1
  O2-  O554  1  0.58609671  0.17015902  0.70021331  1
  O2-  O555  1  0.54561372  0.38790972  0.01857644  1
  O2-  O556  1  0.59650477  0.42246311  0.35846094  1
  O2-  O557  1  0.59422722  0.42614901  0.68657513  1
  O2-  O558  1  0.59779647  0.67864879  0.01800361  1
  O2-  O559  1  0.59213423  0.67009319  0.35824082  1
  O2-  O560  1  0.58942000  0.67700470  0.67154279  1
  O2-  O561  1  0.58136751  0.91966517  0.01134368  1
  O2-  O562  1  0.61171486  0.93460229  0.37172476  1
  O2-  O563  1  0.59663401  0.92763186  0.68724232  1
  O2-  O564  1  0.78264813  0.18301268  0.04434645  1
  O2-  O565  1  0.81561092  0.15027123  0.37158191  1
  O2-  O566  1  0.87718823  0.17553532  0.68063360  1
  O2-  O567  1  0.79775888  0.46587822  0.02147472  1
  O2-  O568  1  0.83311245  0.40253046  0.36574375  1
  O2-  O569  1  0.90141800  0.46965967  0.69887390  1
  O2-  O570  1  0.80477293  0.61913033  0.03358248  1
  O2-  O571  1  0.83068668  0.65927754  0.35836680  1
  O2-  O572  1  0.83401106  0.67800748  0.68927006  1
  O2-  O573  1  0.83748043  0.92383852  0.03002658  1
  O2-  O574  1  0.82092981  0.89839185  0.36602514  1
  O2-  O575  1  0.84849552  0.93222667  0.68200667  1
