# generated using pymatgen
data_H2O
_symmetry_space_group_name_H-M   'P 1'
_cell_length_a   17.98867004
_cell_length_b   18.00049605
_cell_length_c   22.01558714
_cell_angle_alpha   89.99815261
_cell_angle_beta   90.00262108
_cell_angle_gamma   119.99134658
_symmetry_Int_Tables_number   1
_chemical_formula_structural   H2O
_chemical_formula_sum   'H384 O192'
_cell_volume   6174.22277407
_cell_formula_units_Z   192
loop_
 _symmetry_equiv_pos_site_id
 _symmetry_equiv_pos_as_xyz
  1  'x, y, z'
loop_
 _atom_type_symbol
 _atom_type_oxidation_number
  H+  1.0
  O2-  -2.0
loop_
 _atom_site_type_symbol
 _atom_site_label
 _atom_site_symmetry_multiplicity
 _atom_site_fract_x
 _atom_site_fract_y
 _atom_site_fract_z
 _atom_site_occupancy
  H+  H0  1  0.35553337  0.22556526  0.47449836  1
  H+  H1  1  0.77317536  0.87530607  0.65620691  1
  H+  H2  1  0.38452247  0.85644729  0.98363209  1
  H+  H3  1  0.59931652  0.86390396  0.35075068  1
  H+  H4  1  0.63020476  0.28387621  0.32869926  1
  H+  H5  1  0.11262954  0.23769289  1.01675825  1
  H+  H6  1  0.83721052  0.01962431  0.33912737  1
  H+  H7  1  1.02210022  0.39374285  0.66813036  1
  H+  H8  1  0.22597482  0.35184890  0.67943329  1
  H+  H9  1  0.69752434  0.15831721  0.84118459  1
  H+  H10  1  0.52199369  0.14368859  0.17346749  1
  H+  H11  1  0.56887608  0.09427296  0.81875729  1
  H+  H12  1  0.47248905  0.85640905  0.33688012  1
  H+  H13  1  0.38014623  0.11835406  0.64750163  1
  H+  H14  1  0.35915674  0.64189692  0.81983256  1
  H+  H15  1  0.05781489  0.63433698  0.02813350  1
  H+  H16  1  0.33677715  0.94783019  0.00042774  1
  H+  H17  1  0.88935752  0.27652280  0.65525762  1
  H+  H18  1  0.72478629  0.85981711  0.83081187  1
  H+  H19  1  0.89115585  0.58258046  0.99889578  1
  H+  H20  1  0.51813420  0.64629988  -0.00339067  1
  H+  H21  1  0.88566789  0.28468627  0.33868382  1
  H+  H22  1  0.09568727  0.46471300  0.17344917  1
  H+  H23  1  -0.01037161  0.62256549  0.17551744  1
  H+  H24  1  0.41867783  0.55448980  0.65642456  1
  H+  H25  1  0.39727149  0.86983332  0.66349268  1
  H+  H26  1  0.02573786  0.62914374  0.34492371  1
  H+  H27  1  0.61321455  0.65144846  0.83050912  1
  H+  H28  1  0.27590013  0.63705307  0.52114777  1
  H+  H29  1  0.88952158  0.26136225  1.00573910  1
  H+  H30  1  0.20695017  0.11069550  0.16928194  1
  H+  H31  1  0.52058016  0.36706380  0.17117764  1
  H+  H32  1  0.35701345  0.97640393  0.34144545  1
  H+  H33  1  0.11340872  0.35364035  0.65866641  1
  H+  H34  1  0.78910930  0.64186794  0.65181507  1
  H+  H35  1  0.73843116  0.30090617  0.84019762  1
  H+  H36  1  0.86990878  0.65390959  0.98461865  1
  H+  H37  1  0.65230469  0.87270526  0.65147180  1
  H+  H38  1  0.78790966  0.81855313  0.30651243  1
  H+  H39  1  0.87354275  0.48385831  0.16841786  1
  H+  H40  1  0.86476366  0.47585874  0.34498915  1
  H+  H41  1  0.02625936  0.63564005  0.48753068  1
  H+  H42  1  0.11584436  0.38074704  0.34932920  1
  H+  H43  1  0.88431772  0.05521031  0.27340662  1
  H+  H44  1  0.36422556  -0.02720389  0.68371610  1
  H+  H45  1  0.31790592  0.68906429  0.13387384  1
  H+  H46  1  0.92285689  0.04372969  0.85514365  1
  H+  H47  1  0.70985886  0.13526946  0.36672648  1
  H+  H48  1  0.53637357  0.89174189  0.66800295  1
  H+  H49  1  0.15899692  0.62816977  0.98272207  1
  H+  H50  1  0.65005367  0.53367386  0.65465588  1
  H+  H51  1  0.98602261  0.36965156  0.83566006  1
  H+  H52  1  0.84085825  0.44010334  0.01266821  1
  H+  H53  1  0.17557580  0.32829384  0.17580710  1
  H+  H54  1  1.11207517  0.65147179  0.77038059  1
  H+  H55  1  0.36365094  -0.01954546  0.49118819  1
  H+  H56  1  0.26143091  0.38784359  0.83968871  1
  H+  H57  1  0.87741347  0.76483104  0.83976134  1
  H+  H58  1  0.86198920  0.13212977  0.00522774  1
  H+  H59  1  0.53561208  0.42968265  0.81938788  1
  H+  H60  1  0.54839230  0.65610945  0.66774523  1
  H+  H61  1  0.98796984  0.85803362  0.16869948  1
  H+  H62  1  0.14658873  0.07641398  0.26419660  1
  H+  H63  1  0.93896709  0.84974818  0.31933617  1
  H+  H64  1  0.21074863  0.87340553  0.32821751  1
  H+  H65  1  0.12052082  0.39164994  0.50077556  1
  H+  H66  1  0.38839099  0.86872385  0.50643044  1
  H+  H67  1  0.89674818  0.13644776  0.51295979  1
  H+  H68  1  0.06565308  0.20177871  0.17484781  1
  H+  H69  1  0.64381101  0.87558224  0.83271703  1
  H+  H70  1  0.60743444  0.64982253  -0.00120562  1
  H+  H71  1  0.10182471  0.12744752  0.50472326  1
  H+  H72  1  0.09027675  0.42984357  0.76260469  1
  H+  H73  1  0.35704491  0.08987246  0.85213532  1
  H+  H74  1  1.02465097  0.37349833  0.34280581  1
  H+  H75  1  0.09891400  -0.05537897  0.84276121  1
  H+  H76  1  0.96414381  0.82540500  0.01080240  1
  H+  H77  1  0.35639773  0.22304806  1.00785346  1
  H+  H78  1  0.85952037  0.86250836  0.81565614  1
  H+  H79  1  0.90882033  0.40959493  0.80853212  1
  H+  H80  1  0.35924261  0.72966590  0.50712385  1
  H+  H81  1  0.35212920  0.22746709  0.16468930  1
  H+  H82  1  0.90268084  0.13622286  0.66091048  1
  H+  H83  1  0.86985783  0.24004580  0.50271534  1
  H+  H84  1  0.35984355  0.47134194  0.35153195  1
  H+  H85  1  0.57222570  0.17100966  -0.05112844  1
  H+  H86  1  -0.00489693  0.12978707  0.50710322  1
  H+  H87  1  0.13582027  0.85833607  0.66226082  1
  H+  H88  1  0.15187943  0.87406677  0.15890801  1
  H+  H89  1  0.35315878  0.88575195  0.34489009  1
  H+  H90  1  0.61239844  0.45094061  0.01505986  1
  H+  H91  1  0.22702419  0.85809611  0.50908109  1
  H+  H92  1  0.51485471  0.37056081  0.01257435  1
  H+  H93  1  0.63848347  0.54728961  0.49950692  1
  H+  H94  1  0.64174733  0.27708597  0.18143000  1
  H+  H95  1  0.39327951  0.77127428  0.98359899  1
  H+  H96  1  0.07106228  -0.03702378  0.33373834  1
  H+  H97  1  0.38702996  0.61367303  0.98062097  1
  H+  H98  1  0.63209898  -0.01666307  0.14507878  1
  H+  H99  1  0.87303066  0.26458939  0.17036863  1
  H+  H100  1  0.77945196  0.14146220  0.66740155  1
  H+  H101  1  0.30476953  0.43065936  0.15154388  1
  H+  H102  1  0.63558237  0.10675294  0.98692062  1
  H+  H103  1  0.61420392  0.88724373  -0.00764202  1
  H+  H104  1  0.64673107  0.34535885  0.52242553  1
  H+  H105  1  0.03166009  0.16077386  0.81839026  1
  H+  H106  1  0.20821217  0.10472357  0.32209064  1
  H+  H107  1  0.72591789  0.10677504  -0.00538344  1
  H+  H108  1  0.42153414  0.31419855  0.83046692  1
  H+  H109  1  0.22385019  0.85691902  0.66508495  1
  H+  H110  1  0.87086708  0.63292569  0.48350755  1
  H+  H111  1  0.78961698  0.13650694  0.82163071  1
  H+  H112  1  0.61478226  0.34073803  0.80857786  1
  H+  H113  1  0.13403617  0.12868424  0.01900648  1
  H+  H114  1  0.36534670  0.48047617  -0.00884930  1
  H+  H115  1  0.45094907  0.09372553  0.99970421  1
  H+  H116  1  0.73003801  0.11346054  0.50444303  1
  H+  H117  1  0.37088931  0.73604637  0.81900159  1
  H+  H118  1  0.07700726  0.87963865  0.32868960  1
  H+  H119  1  0.65674035  0.14702849  0.20504424  1
  H+  H120  1  0.60653449  0.41998764  0.47014325  1
  H+  H121  1  0.25740766  0.85607273  0.98751087  1
  H+  H122  1  0.74907425  0.55721472  0.98270320  1
  H+  H123  1  0.48552591  0.12082975  0.49217773  1
  H+  H124  1  0.11778518  0.72912030  0.48984456  1
  H+  H125  1  0.63272263  0.37440283  0.32341895  1
  H+  H126  1  0.11910258  0.47442203  0.66435045  1
  H+  H127  1  0.11698601  0.49767074  0.81662764  1
  H+  H128  1  0.29074474  0.34010408  0.13514199  1
  H+  H129  1  0.62788947  0.26402519  0.66898916  1
  H+  H130  1  0.55474946  0.68378120  0.15129973  1
  H+  H131  1  0.87532270  0.90072916  -0.00728599  1
  H+  H132  1  0.87298293  0.13385009  0.15586625  1
  H+  H133  1  0.64554042  0.66684188  0.49372679  1
  H+  H134  1  0.59566840  0.92730146  0.75941326  1
  H+  H135  1  0.10375644  0.85733648  0.99830984  1
  H+  H136  1  0.27819332  0.63966969  -0.02202848  1
  H+  H137  1  0.60369899  0.52484140  0.81619314  1
  H+  H138  1  0.65534185  0.62591177  0.65834791  1
  H+  H139  1  0.78333909  0.38025291  0.49633177  1
  H+  H140  1  0.65793544  0.98387725  0.31060860  1
  H+  H141  1  0.99881503  0.36302393  1.01829023  1
  H+  H142  1  0.78535778  0.63982005  0.48743978  1
  H+  H143  1  0.60895414  0.36812346  0.83184083  1
  H+  H144  1  0.36581811  0.88447978  0.83018956  1
  H+  H145  1  0.63998062  0.78688701  -0.01451574  1
  H+  H146  1  0.67252206  0.84643848  0.92615940  1
  H+  H147  1  0.54871705  0.65778188  0.34676934  1
  H+  H148  1  0.32285606  0.65293848  0.04227370  1
  H+  H149  1  0.85476297  0.94826795  0.79737427  1
  H+  H150  1  0.85587450  0.62601774  0.82982942  1
  H+  H151  1  0.40285468  0.78883271  0.15361729  1
  H+  H152  1  0.61800886  0.13001652  0.48785987  1
  H+  H153  1  0.64058020  1.02299255  0.50128549  1
  H+  H154  1  0.48725742  0.87224363  0.83237047  1
  H+  H155  1  0.34052066  0.61698094  0.13803024  1
  H+  H156  1  0.21956902  0.11488373  0.51225215  1
  H+  H157  1  0.12012163  0.89359979  0.50222976  1
  H+  H158  1  0.26943359  0.38219134  0.34375773  1
  H+  H159  1  0.92882922  0.57699133  0.55296789  1
  H+  H160  1  0.01865318  0.13713748  0.34815198  1
  H+  H161  1  0.36708443  0.00272904  0.16342294  1
  H+  H162  1  0.74888169  0.86929320  0.34071711  1
  H+  H163  1  0.84414619  0.12891783  0.41247115  1
  H+  H164  1  0.65929438  0.64092608  0.15955581  1
  H+  H165  1  0.42379510  0.84454495  0.56588170  1
  H+  H166  1  0.88873448  0.35051170  1.01234583  1
  H+  H167  1  0.51471570  0.41030191  0.47504905  1
  H+  H168  1  0.89674342  0.03210122  0.99084240  1
  H+  H169  1  0.69123166  0.94331622  0.15980066  1
  H+  H170  1  0.31152219  0.19507354  0.84361246  1
  H+  H171  1  0.34866047  0.21676044  0.33387084  1
  H+  H172  1  0.90559922  0.86906524  0.16182723  1
  H+  H173  1  0.08903412  0.05638951  0.88048590  1
  H+  H174  1  0.78308181  0.89433016  -0.00394570  1
  H+  H175  1  0.38424662  0.92628977  0.14921636  1
  H+  H176  1  0.78349718  0.64321260  0.15307779  1
  H+  H177  1  0.51501129  0.88286712  -0.00759737  1
  H+  H178  1  0.48953553  0.89534864  0.17051519  1
  H+  H179  1  0.23086519  0.11210008  0.66629025  1
  H+  H180  1  0.15060096  0.33559299  0.93750619  1
  H+  H181  1  0.34869930  0.12821925  1.01054380  1
  H+  H182  1  0.61032016  0.48450780  0.31861956  1
  H+  H183  1  0.90419210  0.53679561  0.82863304  1
  H+  H184  1  0.44432161  0.66464107  0.20956014  1
  H+  H185  1  0.67627870  0.80903892  0.17177471  1
  H+  H186  1  0.64970648  0.73439632  0.33594834  1
  H+  H187  1  0.37711014  0.36942858  0.49436167  1
  H+  H188  1  0.64641354  0.61625752  0.31723354  1
  H+  H189  1  0.89204558  0.51459465  0.64419159  1
  H+  H190  1  0.20738619  0.58716246  0.17775647  1
  H+  H191  1  0.96782852  0.85078010  0.83526533  1
  H+  H192  1  0.72687594  0.62382683  0.85518609  1
  H+  H193  1  0.13455468  0.26826347  0.33775377  1
  H+  H194  1  0.18644178  0.07905306  0.87458678  1
  H+  H195  1  0.65088447  0.23236888  0.81018960  1
  H+  H196  1  0.73009658  0.60753146  0.31482530  1
  H+  H197  1  0.85786425  0.70465710  0.07377551  1
  H+  H198  1  0.12895566  0.29374486  0.83662169  1
  H+  H199  1  0.85313707  0.71544867  0.32836490  1
  H+  H200  1  0.10594214  0.86281780  0.82787216  1
  H+  H201  1  0.10333267  0.13038309  0.34003626  1
  H+  H202  1  0.15138799  0.76209936  0.84156806  1
  H+  H203  1  0.71023214  0.32902198  1.04352016  1
  H+  H204  1  0.32482881  0.16863993  0.10497691  1
  H+  H205  1  0.11681675  -0.02471740  0.67647633  1
  H+  H206  1  0.60851657  0.73609874  0.82330930  1
  H+  H207  1  0.10683151  0.37957740  0.01733669  1
  H+  H208  1  0.46665581  0.11617959  0.32963436  1
  H+  H209  1  0.98644457  0.87357436  0.65345220  1
  H+  H210  1  0.77123700  0.38134284  0.67285873  1
  H+  H211  1  0.09758596  0.34120172  0.18766178  1
  H+  H212  1  0.88159016  0.14497129  0.82159084  1
  H+  H213  1  0.48908148  0.10924027  0.82470973  1
  H+  H214  1  0.89924647  0.61933343  0.17154888  1
  H+  H215  1  0.90209459  0.78202471  0.63879459  1
  H+  H216  1  0.62586708  0.98007893  0.66620044  1
  H+  H217  1  0.00474816  0.37606930  0.16820934  1
  H+  H218  1  0.11328172  0.62284026  0.34773630  1
  H+  H219  1  0.38377837  0.36133716  -0.00882875  1
  H+  H220  1  0.67648467  0.59662499  0.21578574  1
  H+  H221  1  0.77980257  0.39762313  0.17062691  1
  H+  H222  1  0.11631598  0.96912761  0.15311314  1
  H+  H223  1  0.15387414  0.32241582  0.27710435  1
  H+  H224  1  0.13768788  0.38548072  0.84304311  1
  H+  H225  1  0.09352616  0.25700797  0.64591458  1
  H+  H226  1  0.62259877  0.33146225  1.04048589  1
  H+  H227  1  0.53092981  0.40204654  0.66882145  1
  H+  H228  1  0.80891980  0.90889738  0.15686667  1
  H+  H229  1  0.82158840  0.74211123  0.02266211  1
  H+  H230  1  0.40042379  0.78340251  0.65736144  1
  H+  H231  1  0.41460868  0.37896673  0.18434266  1
  H+  H232  1  0.77235323  0.39265718  0.34428320  1
  H+  H233  1  0.35663313  0.71661749  0.36120488  1
  H+  H234  1  0.88451988  0.36357031  0.65209430  1
  H+  H235  1  0.64014016  0.11045461  0.65472973  1
  H+  H236  1  0.60247878  0.21028461  1.01442787  1
  H+  H237  1  0.11807397  0.17665200  0.78723463  1
  H+  H238  1  0.41209626  0.09297712  0.23772871  1
  H+  H239  1  0.42162680  0.58549100  0.92350904  1
  H+  H240  1  0.63347875  0.35708865  0.66741444  1
  H+  H241  1  0.12634160  0.64670273  0.17610373  1
  H+  H242  1  0.37443293  0.24926812  0.66416213  1
  H+  H243  1  0.38184592  0.61092033  0.50550645  1
  H+  H244  1  0.22132025  0.36794588  -0.01113489  1
  H+  H245  1  0.90017355  0.60658495  0.63652449  1
  H+  H246  1  0.58647819  0.44400120  0.72615653  1
  H+  H247  1  0.22536938  0.60165619  0.34027142  1
  H+  H248  1  0.61950307  0.36953251  0.16885678  1
  H+  H249  1  0.87544414  0.35483519  0.17868027  1
  H+  H250  1  0.22604097  0.38502337  0.51091380  1
  H+  H251  1  0.52111645  0.89002411  0.49048682  1
  H+  H252  1  0.01784590  0.38363358  0.49585438  1
  H+  H253  1  0.98339901  0.12350886  0.99978159  1
  H+  H254  1  0.51739825  0.12312285  0.65933032  1
  H+  H255  1  0.36410983  0.37006333  0.67466711  1
  H+  H256  1  0.66747243  0.34061527  0.23998932  1
  H+  H257  1  0.87242620  0.87248920  0.65615785  1
  H+  H258  1  0.29480760  0.44655833  0.69045232  1
  H+  H259  1  0.41182376  0.63894433  0.65632309  1
  H+  H260  1  0.22829706  0.12312093  0.01517589  1
  H+  H261  1  0.61265370  0.98025993  -0.00531863  1
  H+  H262  1  0.73291735  0.89081972  0.48171605  1
  H+  H263  1  0.37357950  0.10900668  0.32662850  1
  H+  H264  1  0.16055606  0.78364503  0.16869006  1
  H+  H265  1  0.37916575  0.35860843  0.32972562  1
  H+  H266  1  0.88830143  0.36166529  0.50393273  1
  H+  H267  1  0.39174530  0.61558754  0.35891968  1
  H+  H268  1  0.67168325  0.09375169  0.37674704  1
  H+  H269  1  0.29466469  0.64202781  0.66249416  1
  H+  H270  1  0.38365977  0.12594761  0.17804362  1
  H+  H271  1  1.03103155  0.62685710  0.67716057  1
  H+  H272  1  0.27145788  0.87611513  0.83233976  1
  H+  H273  1  0.43104270  0.57535248  0.19041845  1
  H+  H274  1  0.89662851  0.28378703  0.82829636  1
  H+  H275  1  0.07195569  0.75789506  0.95248476  1
  H+  H276  1  0.89920973  0.77986071  0.49045155  1
  H+  H277  1  0.60665850  0.15165028  0.33698255  1
  H+  H278  1  0.65083334  0.78258488  0.65043051  1
  H+  H279  1  0.37905217  0.78627403  0.18300781  1
  H+  H280  1  0.11256035  0.71925325  0.68190041  1
  H+  H281  1  0.87535214  0.73002087  0.15911898  1
  H+  H282  1  1.03460731  0.89714194  0.49021867  1
  H+  H283  1  0.36077952  0.48145740  0.49643660  1
  H+  H284  1  0.70260766  0.58891827  1.02652559  1
  H+  H285  1  0.74953193  0.15816323  0.19802738  1
  H+  H286  1  0.11102015  0.09610253  0.16949089  1
  H+  H287  1  0.62540430  -0.01048489  0.81762929  1
  H+  H288  1  0.71932414  0.85314932  0.23512480  1
  H+  H289  1  0.32244602  0.41777979  0.04819340  1
  H+  H290  1  0.67318021  0.08404704  0.59565146  1
  H+  H291  1  0.42868997  0.59008803  0.55683248  1
  H+  H292  1  0.60546226  0.70460686  0.09042825  1
  H+  H293  1  0.40319437  0.81454081  0.28455432  1
  H+  H294  1  0.32813425  0.91653611  0.43546953  1
  H+  H295  1  0.09015656  0.90695813  0.09349564  1
  H+  H296  1  0.69387191  0.06900504  0.25982226  1
  H+  H297  1  0.38486785  0.52466417  0.83375596  1
  H+  H298  1  0.61790240  0.69359452  0.42868728  1
  H+  H299  1  0.82799881  0.15390349  0.06609509  1
  H+  H300  1  0.33901599  0.02963309  0.61383336  1
  H+  H301  1  0.77202528  0.08073067  0.14198205  1
  H+  H302  1  0.76523003  0.03914053  0.28811876  1
  H+  H303  1  0.13582347  0.02310931  0.51709274  1
  H+  H304  1  0.91848071  0.33467487  0.56676372  1
  H+  H305  1  0.60258184  0.68198141  0.72901420  1
  H+  H306  1  0.35064092  0.34150067  0.84222879  1
  H+  H307  1  0.41460106  0.32330307  0.53816959  1
  H+  H308  1  0.33299129  0.91065092  0.74087872  1
  H+  H309  1  0.37851160  0.19967369  0.72122152  1
  H+  H310  1  0.07799304  0.41185737  0.43344183  1
  H+  H311  1  0.01973454  0.15132236  0.70954079  1
  H+  H312  1  0.80083327  0.64441759  0.77959022  1
  H+  H313  1  0.36250648  0.14078088  0.48077484  1
  H+  H314  1  0.92873034  0.10449013  0.57311549  1
  H+  H315  1  0.82620711  0.88516024  0.72144081  1
  H+  H316  1  0.85686945  0.92918895  0.09238072  1
  H+  H317  1  0.22721700  0.64259109  0.81721089  1
  H+  H318  1  0.92723300  0.58403857  0.27112843  1
  H+  H319  1  0.51726353  0.97687796  0.20924749  1
  H+  H320  1  0.85257973  0.42568094  0.71969401  1
  H+  H321  1  0.89457247  0.81502000  0.25640729  1
  H+  H322  1  0.83210063  0.65947749  0.38977260  1
  H+  H323  1  0.12634379  0.73209256  0.01245559  1
  H+  H324  1  0.16874275  0.08183201  0.60950280  1
  H+  H325  1  0.32302734  0.65829278  0.42084758  1
  H+  H326  1  0.41688749  0.58707119  0.29916283  1
  H+  H327  1  0.89705999  0.51905956  0.49363746  1
  H+  H328  1  0.96748807  0.49328414  0.77006637  1
  H+  H329  1  0.91698407  0.31093997  0.27087229  1
  H+  H330  1  0.16310074  0.57175596  0.24442692  1
  H+  H331  1  0.67673178  0.31954572  0.58061195  1
  H+  H332  1  0.57414134  0.39432128  0.10512004  1
  H+  H333  1  0.59048056  0.16934287  0.12015905  1
  H+  H334  1  0.92743575  1.03995223  0.15724720  1
  H+  H335  1  0.16336892  0.81965017  0.90025799  1
  H+  H336  1  0.67747223  0.59865834  0.56236581  1
  H+  H337  1  0.26531353  0.11989198  0.79489568  1
  H+  H338  1  0.34577663  0.67649611  0.72550816  1
  H+  H339  1  0.55827102  0.13996999  0.72496541  1
  H+  H340  1  0.57811055  0.43751548  0.38203187  1
  H+  H341  1  0.07868412  0.90887046  0.73255493  1
  H+  H342  1  0.62469481  0.22068184  0.49600866  1
  H+  H343  1  0.31541588  0.15490513  0.39141063  1
  H+  H344  1  0.17312524  0.60712524  0.91467100  1
  H+  H345  1  0.06941776  0.17437392  0.07627976  1
  H+  H346  1  0.68657942  0.85259315  0.55207701  1
  H+  H347  1  0.47372615  0.61527542  0.82943164  1
  H+  H348  1  0.84012444  0.17286556  0.72711974  1
  H+  H349  1  0.83470313  0.40866483  0.43175695  1
  H+  H350  1  0.41621073  0.32925183  0.24368356  1
  H+  H351  1  0.16611782  0.82213587  0.56762599  1
  H+  H352  1  0.07553941  0.15715683  0.44225845  1
  H+  H353  1  0.47134261  0.36394062  0.32513344  1
  H+  H354  1  0.83638293  0.40941194  0.08175486  1
  H+  H355  1  0.69056451  0.37806378  0.93074588  1
  H+  H356  1  0.86975679  0.67657870  0.69699381  1
  H+  H357  1  0.42574240  0.09927348  0.55006752  1
  H+  H358  1  0.17062890  0.85785021  0.26353282  1
  H+  H359  1  0.92204049  0.84349910  0.54552070  1
  H+  H360  1  0.36768878  0.00646132  0.84808195  1
  H+  H361  1  0.07341874  0.40396731  0.08138612  1
  H+  H362  1  0.11236134  0.68013154  0.11179336  1
  H+  H363  1  0.67943469  0.33259941  0.92432216  1
  H+  H364  1  0.30749566  0.39832526  0.77690756  1
  H+  H365  1  0.61112812  0.89016135  0.48831907  1
  H+  H366  1  0.13646337  0.51232787  0.33649432  1
  H+  H367  1  0.90102925  0.57975751  0.89210832  1
  H+  H368  1  0.89257993  0.61257789  0.32743140  1
  H+  H369  1  0.08743350  0.66427432  0.41972573  1
  H+  H370  1  0.32231975  0.41521655  0.43930657  1
  H+  H371  1  0.41435560  0.38603713  0.61475912  1
  H+  H372  1  0.58468093  0.91794688  0.40021713  1
  H+  H373  1  0.15780824  0.34763256  0.56767554  1
  H+  H374  1  0.93978686  0.10766649  0.90782867  1
  H+  H375  1  0.64689596  0.76757634  0.48993834  1
  H+  H376  1  0.66314346  0.58419262  0.91138628  1
  H+  H377  1  0.25684728  0.88720906  0.16191728  1
  H+  H378  1  0.40740385  0.32099528  0.93599462  1
  H+  H379  1  0.67982777  0.09147278  0.89621646  1
  H+  H380  1  0.14472694  0.06524004  0.96736541  1
  H+  H381  1  0.39072864  0.06652034  0.94268504  1
  H+  H382  1  0.42870765  0.83705768  0.89253240  1
  H+  H383  1  0.58211942  0.17426365  0.39988909  1
  O2-  O384  1  0.04191087  0.14542426  0.15216033  1
  O2-  O385  1  0.07075001  0.15623548  0.48727182  1
  O2-  O386  1  0.07911071  0.19941468  0.79035698  1
  O2-  O387  1  0.06704829  0.40526065  0.15585898  1
  O2-  O388  1  0.07876061  0.41635185  0.47977298  1
  O2-  O389  1  0.09316786  0.43562980  0.80792530  1
  O2-  O390  1  0.10662455  0.68449111  0.15712042  1
  O2-  O391  1  0.08780053  0.66873136  0.47218426  1
  O2-  O392  1  0.12472424  0.65887045  0.81580084  1
  O2-  O393  1  0.09569030  0.90873471  0.13974946  1
  O2-  O394  1  0.09878517  0.93223744  0.48996870  1
  O2-  O395  1  0.07529503  0.89421615  0.81578928  1
  O2-  O396  1  0.32046290  0.16727338  0.15020595  1
  O2-  O397  1  0.32425608  0.16301032  0.46717676  1
  O2-  O398  1  0.28115684  0.13089686  0.83774284  1
  O2-  O399  1  0.27183782  0.38098221  0.12533022  1
  O2-  O400  1  0.32672829  0.41746809  0.48461839  1
  O2-  O401  1  0.31981828  0.40651014  0.82129804  1
  O2-  O402  1  0.29547311  0.62861008  0.12308619  1
  O2-  O403  1  0.32775531  0.66780549  0.49496803  1
  O2-  O404  1  0.33489881  0.67646226  0.80266374  1
  O2-  O405  1  0.34070773  0.94344426  0.14479060  1
  O2-  O406  1  0.33298975  0.91839933  0.48102549  1
  O2-  O407  1  0.33237286  0.91269657  0.81723503  1
  O2-  O408  1  0.58532617  0.17062501  0.16427412  1
  O2-  O409  1  0.59114867  0.16499952  0.47434709  1
  O2-  O410  1  0.54405423  0.12769296  0.80215845  1
  O2-  O411  1  0.57935213  0.39468861  0.15152026  1
  O2-  O412  1  0.57538766  0.44988353  0.46072964  1
  O2-  O413  1  0.55981923  0.47715900  0.79069905  1
  O2-  O414  1  0.61349091  0.70948773  0.13520272  1
  O2-  O415  1  0.61870377  0.69962413  0.47474488  1
  O2-  O416  1  0.58273291  0.67592915  0.80783007  1
  O2-  O417  1  0.68774135  0.98816198  0.13569287  1
  O2-  O418  1  0.58095264  0.92056268  0.47304204  1
  O2-  O419  1  0.59409665  0.92853143  0.80513537  1
  O2-  O420  1  0.82403243  0.14162215  0.14376934  1
  O2-  O421  1  0.83846358  0.17511236  0.48965234  1
  O2-  O422  1  0.84800708  0.16949809  0.80393523  1
  O2-  O423  1  0.83939864  0.42209410  0.15489877  1
  O2-  O424  1  0.84131400  0.41043382  0.47808991  1
  O2-  O425  1  0.90864983  0.45917473  0.78492699  1
  O2-  O426  1  0.84623515  0.67091689  0.14027632  1
  O2-  O427  1  0.84240681  0.66455646  0.46787028  1
  O2-  O428  1  0.82022345  0.65648688  0.82152789  1
  O2-  O429  1  0.86709041  0.93479174  0.13683025  1
  O2-  O430  1  0.80132565  0.94377680  0.44348151  1
  O2-  O431  1  0.82201072  0.88602979  0.79389584  1
  O2-  O432  1  0.14661453  0.07088751  0.18172243  1
  O2-  O433  1  0.16257044  0.08576416  0.53190890  1
  O2-  O434  1  0.13048443  0.04093013  0.89568454  1
  O2-  O435  1  0.12290458  0.30459687  0.20039745  1
  O2-  O436  1  0.16458588  0.36027399  0.52316743  1
  O2-  O437  1  0.15962429  0.34800071  0.86031307  1
  O2-  O438  1  0.15250843  0.56872775  0.19921142  1
  O2-  O439  1  0.18960696  0.56781809  0.57081233  1
  O2-  O440  1  0.16581758  0.60879308  0.83172336  1
  O2-  O441  1  0.18971489  0.84908191  0.17566096  1
  O2-  O442  1  0.16600093  0.82320652  0.52227559  1
  O2-  O443  1  0.17063540  0.82212007  0.85437667  1
  O2-  O444  1  0.41745061  0.09870282  0.19196288  1
  O2-  O445  1  0.42406338  0.09557507  0.50534424  1
  O2-  O446  1  0.39481298  0.06735959  0.86452165  1
  O2-  O447  1  0.42321795  0.33177017  0.19669167  1
  O2-  O448  1  0.41405809  0.33999815  0.49613206  1
  O2-  O449  1  0.37211744  0.30083652  0.85615650  1
  O2-  O450  1  0.43800547  0.62898733  0.17422596  1
  O2-  O451  1  0.41248583  0.57868822  0.51366743  1
  O2-  O452  1  0.41412167  0.58576542  0.84644399  1
  O2-  O453  1  0.51335058  0.95742010  0.16734338  1
  O2-  O454  1  0.42039589  0.83952605  0.52051557  1
  O2-  O455  1  0.42682064  0.83876826  0.84721287  1
  O2-  O456  1  0.70425410  0.14686031  0.22799915  1
  O2-  O457  1  0.66885333  0.08270370  0.51814336  1
  O2-  O458  1  0.68211762  0.09743388  0.85110348  1
  O2-  O459  1  0.66943232  0.33932170  0.19329429  1
  O2-  O460  1  0.67977357  0.31858215  0.53475754  1
  O2-  O461  1  0.71251072  0.25125812  0.81337075  1
  O2-  O462  1  0.68284020  0.60364808  0.17092794  1
  O2-  O463  1  0.67840134  0.60463906  0.51704471  1
  O2-  O464  1  0.66624827  0.60272297  0.86894146  1
  O2-  O465  1  0.71357795  0.86549788  0.19154692  1
  O2-  O466  1  0.67535890  0.84790733  0.50759910  1
  O2-  O467  1  0.66802565  0.84059614  0.85038731  1
  O2-  O468  1  0.95137106  0.10032821  0.17350376  1
  O2-  O469  1  0.92758937  0.10537328  0.52709172  1
  O2-  O470  1  0.94280181  0.10427910  0.86178222  1
  O2-  O471  1  0.90337944  0.32078510  0.19053643  1
  O2-  O472  1  0.91907839  0.33156443  0.52060595  1
  O2-  O473  1  0.92362126  0.34313476  0.84397574  1
  O2-  O474  1  0.92851882  0.58875940  0.18805858  1
  O2-  O475  1  0.92656012  0.58031218  0.50740416  1
  O2-  O476  1  0.91105299  0.58985725  0.84830861  1
  O2-  O477  1  0.92610187  0.83121003  0.17933593  1
  O2-  O478  1  0.92616020  0.84121532  0.50123843  1
  O2-  O479  1  0.90633785  0.82776872  0.84669097  1
  O2-  O480  1  0.14724629  0.08028156  0.30919706  1
  O2-  O481  1  0.17062310  0.07650346  0.65479678  1
  O2-  O482  1  0.16163682  0.09175219  1.00960712  1
  O2-  O483  1  0.16571801  0.32848187  0.32161403  1
  O2-  O484  1  0.13884160  0.31858190  0.64214898  1
  O2-  O485  1  0.15769025  0.33546224  0.98285314  1
  O2-  O486  1  0.16739127  0.57308293  0.32104078  1
  O2-  O487  1  0.19790092  0.56840365  0.62999122  1
  O2-  O488  1  0.18362507  0.60001908  0.95779489  1
  O2-  O489  1  0.15582510  0.85221172  0.30659211  1
  O2-  O490  1  0.16501664  0.82673983  0.64795822  1
  O2-  O491  1  0.12647549  0.79884607  0.97141832  1
  O2-  O492  1  0.40786910  0.08175311  0.31238726  1
  O2-  O493  1  0.39316238  0.07415977  0.63125867  1
  O2-  O494  1  0.38976883  0.06789610  0.98825765  1
  O2-  O495  1  0.40917888  0.32854301  0.31288485  1
  O2-  O496  1  0.40744593  0.35859407  0.65417199  1
  O2-  O497  1  0.41161074  0.32642951  0.98089714  1
  O2-  O498  1  0.42627307  0.58920048  0.34280725  1
  O2-  O499  1  0.44708933  0.61280879  0.64071422  1
  O2-  O500  1  0.42131286  0.58490366  0.96925102  1
  O2-  O501  1  0.40928843  0.82430157  0.32834173  1
  O2-  O502  1  0.43056855  0.84512327  0.64467258  1
  O2-  O503  1  0.42444182  0.83381365  0.97163806  1
  O2-  O504  1  0.69966162  0.01809801  0.27705431  1
  O2-  O505  1  0.67497812  0.08469271  0.64128176  1
  O2-  O506  1  0.66686972  0.07560985  0.97584842  1
  O2-  O507  1  0.66321716  0.34279894  0.31117520  1
  O2-  O508  1  0.66255664  0.32477644  0.65488542  1
  O2-  O509  1  0.64774140  0.29544861  1.05238986  1
  O2-  O510  1  0.67050133  0.58344660  0.29702141  1
  O2-  O511  1  0.68311771  0.59443262  0.64023665  1
  O2-  O512  1  0.69203541  0.55232080  0.99104223  1
  O2-  O513  1  0.73471900  0.82361803  0.30860665  1
  O2-  O514  1  0.68194056  0.84264241  0.63382106  1
  O2-  O515  1  0.67244314  0.84814657  0.97212622  1
  O2-  O516  1  0.85151636  0.06370966  0.30531351  1
  O2-  O517  1  0.93067750  0.10202311  0.64677250  1
  O2-  O518  1  0.92578633  0.09438627  0.97956093  1
  O2-  O519  1  0.93451064  0.30225323  0.31167559  1
  O2-  O520  1  0.91955547  0.33679469  0.63914784  1
  O2-  O521  1  0.92398035  0.32521438  0.99795506  1
  O2-  O522  1  0.92552686  0.58294856  0.31619021  1
  O2-  O523  1  0.93023304  0.57419018  0.62866709  1
  O2-  O524  1  0.85904097  0.59642595  0.96978134  1
  O2-  O525  1  0.88003568  0.81093009  0.30026312  1
  O2-  O526  1  0.92742235  0.84521122  0.63375736  1
  O2-  O527  1  1.00408507  0.88352315  0.99497237  1
  O2-  O528  1  0.08329026  0.17665094  0.03202944  1
  O2-  O529  1  0.07854064  0.16387807  0.36090665  1
  O2-  O530  1  0.02153207  0.15223490  0.66472704  1
  O2-  O531  1  0.07022850  0.40202580  0.03539918  1
  O2-  O532  1  0.08331498  0.41012767  0.36179420  1
  O2-  O533  1  0.08163822  0.41808646  0.68484028  1
  O2-  O534  1  0.11743724  0.67707197  0.03633384  1
  O2-  O535  1  0.08532784  0.65560699  0.36246714  1
  O2-  O536  1  0.08370882  0.66172232  0.70102506  1
  O2-  O537  1  0.08770000  0.90156072  0.02036462  1
  O2-  O538  1  0.03720200  0.90062994  0.33983660  1
  O2-  O539  1  0.08089141  0.91235670  0.68752239  1
  O2-  O540  1  0.32269647  0.16368332  0.02541264  1
  O2-  O541  1  0.31651282  0.15524953  0.34565247  1
  O2-  O542  1  0.35644968  0.19068597  0.67982507  1
  O2-  O543  1  0.33174851  0.41832586  0.00404913  1
  O2-  O544  1  0.32939540  0.40904772  0.36066338  1
  O2-  O545  1  0.28515623  0.38912640  0.69899002  1
  O2-  O546  1  0.33748909  0.66537022  -0.00124272  1
  O2-  O547  1  0.32878098  0.65620751  0.37520409  1
  O2-  O548  1  0.35335462  0.67846746  0.68024761  1
  O2-  O549  1  0.31658722  0.88580212  0.00260340  1
  O2-  O550  1  0.32451482  0.91733394  0.35877168  1
  O2-  O551  1  0.33513647  0.91194379  0.69510062  1
  O2-  O552  1  0.57225909  0.15351057  -0.00911865  1
  O2-  O553  1  0.57520835  0.17770181  0.35453527  1
  O2-  O554  1  0.57244246  0.15286194  0.68085627  1
  O2-  O555  1  0.57177942  0.39400729  0.03332974  1
  O2-  O556  1  0.57662130  0.42532371  0.33787715  1
  O2-  O557  1  0.59056750  0.42754831  0.68316003  1
  O2-  O558  1  0.57972576  0.68184137  0.01189161  1
  O2-  O559  1  0.60951353  0.67822281  0.35686111  1
  O2-  O560  1  0.60862033  0.68311893  0.68373070  1
  O2-  O561  1  0.57985057  0.91589977  0.00628582  1
  O2-  O562  1  0.58264882  0.90776518  0.35425326  1
  O2-  O563  1  0.59765163  0.91976146  0.68207939  1
  O2-  O564  1  0.82813264  0.15870135  0.02069481  1
  O2-  O565  1  0.85170006  0.18524306  0.42292517  1
  O2-  O566  1  0.84047355  0.17495646  0.68164003  1
  O2-  O567  1  0.82456868  0.38959460  0.03771409  1
  O2-  O568  1  0.83108833  0.41596949  0.36043015  1
  O2-  O569  1  0.83499709  0.41447124  0.67582898  1
  O2-  O570  1  0.86635247  0.72766918  0.02977399  1
  O2-  O571  1  0.82926713  0.65497636  0.34435532  1
  O2-  O572  1  0.85396832  0.67294208  0.65434309  1
  O2-  O573  1  0.84366782  0.92615265  0.01104894  1
  O2-  O574  1  0.77171011  0.94876732  0.38775908  1
  O2-  O575  1  0.83275940  0.89559565  0.67577710  1
