# generated using pymatgen
data_H2O
_symmetry_space_group_name_H-M   'P 1'
_cell_length_a   17.99061908
_cell_length_b   17.98143055
_cell_length_c   21.99766876
_cell_angle_alpha   89.99693049
_cell_angle_beta   89.98225170
_cell_angle_gamma   120.03284436
_symmetry_Int_Tables_number   1
_chemical_formula_structural   H2O
_chemical_formula_sum   'H384 O192'
_cell_volume   6160.75268193
_cell_formula_units_Z   192
loop_
 _symmetry_equiv_pos_site_id
 _symmetry_equiv_pos_as_xyz
  1  'x, y, z'
loop_
 _atom_type_symbol
 _atom_type_oxidation_number
  H+  1.0
  O2-  -2.0
loop_
 _atom_site_type_symbol
 _atom_site_label
 _atom_site_symmetry_multiplicity
 _atom_site_fract_x
 _atom_site_fract_y
 _atom_site_fract_z
 _atom_site_occupancy
  H+  H0  1  0.53859527  0.38748628  0.68122675  1
  H+  H1  1  0.05940672  0.12389235  0.67087218  1
  H+  H2  1  0.11972438  0.03109836  0.16668208  1
  H+  H3  1  0.88279521  0.75598306  -0.02087922  1
  H+  H4  1  0.13363934  0.60852547  0.65328626  1
  H+  H5  1  0.76504246  0.12493225  0.16703857  1
  H+  H6  1  0.19886597  0.33286983  0.64736342  1
  H+  H7  1  0.79160336  0.14862827  0.50363596  1
  H+  H8  1  0.11626352  0.53304451  0.20318621  1
  H+  H9  1  0.72172954  0.61587179  0.32457377  1
  H+  H10  1  0.90141933  0.08987921  0.60713344  1
  H+  H11  1  0.53303112  0.13679235  0.02206763  1
  H+  H12  1  0.24414634  0.65048091  0.33866273  1
  H+  H13  1  0.05626284  0.71072926  0.51021797  1
  H+  H14  1  0.70770765  0.37085308  0.19576910  1
  H+  H15  1  0.12846337  0.86667607  0.32554393  1
  H+  H16  1  0.17455213  0.83981672  0.89450309  1
  H+  H17  1  0.89473181  0.01622709  0.98748230  1
  H+  H18  1  0.91698529  0.26468882  0.53310246  1
  H+  H19  1  0.22011483  0.85483912  0.18051040  1
  H+  H20  1  0.87687877  0.52302192  0.31715667  1
  H+  H21  1  0.10359917  0.24582337  0.65733257  1
  H+  H22  1  0.63176730  0.52716255  0.32366186  1
  H+  H23  1  0.66490183  0.38666630  0.83988925  1
  H+  H24  1  0.13109442  0.51478177  0.83392501  1
  H+  H25  1  -0.02398218  0.10462800  0.51026817  1
  H+  H26  1  0.09886638  0.96601552  0.82315279  1
  H+  H27  1  0.21680578  0.86208086  0.31798351  1
  H+  H28  1  0.20171393  0.32961840  0.83402945  1
  H+  H29  1  0.10253916  0.37373001  0.82669387  1
  H+  H30  1  -0.04111641  0.12950543  0.66761626  1
  H+  H31  1  0.51730167  0.62799923  0.15616067  1
  H+  H32  1  0.35060849  0.50725407  0.87847823  1
  H+  H33  1  0.87619691  0.48665001  0.68166575  1
  H+  H34  1  0.64402020  0.77751038  0.49770104  1
  H+  H35  1  0.85974667  0.63201721  0.14669909  1
  H+  H36  1  0.51532016  0.14182460  0.53300497  1
  H+  H37  1  0.85841294  0.96582096  0.81385948  1
  H+  H38  1  0.49865425  0.09321532  0.66284311  1
  H+  H39  1  0.36485968  0.48076729  0.00631722  1
  H+  H40  1  0.86214362  0.48918660  -0.02879482  1
  H+  H41  1  0.01154845  0.87264268  0.81943076  1
  H+  H42  1  0.64045753  0.61806223  0.51015282  1
  H+  H43  1  0.26870576  0.88142502  0.82391843  1
  H+  H44  1  0.64037367  0.86711175  0.98815315  1
  H+  H45  1  0.38929863  0.86663968  0.84340009  1
  H+  H46  1  0.40535989  0.65388036  1.02863136  1
  H+  H47  1  0.49395013  0.27055860  0.61885235  1
  H+  H48  1  0.97102174  0.61192121  0.16344504  1
  H+  H49  1  0.27803577  0.38992525  -0.00004261  1
  H+  H50  1  0.62037373  -0.02047324  0.83200932  1
  H+  H51  1  0.85355243  0.13765343  0.67341732  1
  H+  H52  1  0.53882938  -0.10849323  0.50100590  1
  H+  H53  1  0.11779903  0.86784115  0.67663936  1
  H+  H54  1  0.40854608  0.40255435  0.17628960  1
  H+  H55  1  0.86583955  0.25605730  0.67670829  1
  H+  H56  1  0.12483202  0.48371849  -0.00366499  1
  H+  H57  1  0.83488368  0.66850689  0.73793511  1
  H+  H58  1  0.85987510  0.62338444  -0.01437549  1
  H+  H59  1  0.35568767  0.59444481  0.49573507  1
  H+  H60  1  0.58202235  0.66446289  0.09958479  1
  H+  H61  1  0.30867193  0.06296950  0.86758642  1
  H+  H62  1  0.26987865  0.13449262  0.50370090  1
  H+  H63  1  0.60646980  0.63835604  0.32772916  1
  H+  H64  1  0.08470473  0.12170888  0.81801894  1
  H+  H65  1  0.90554597  0.84446224  0.56986478  1
  H+  H66  1  0.14470317  0.26759760  0.33116463  1
  H+  H67  1  0.49288813  0.61159150  0.47971914  1
  H+  H68  1  0.86348570  0.91983797  0.07704723  1
  H+  H69  1  0.33472633  0.89480685  0.24177155  1
  H+  H70  1  0.21911322  0.60705159  0.83655152  1
  H+  H71  1  0.41513945  0.11185615  1.04999977  1
  H+  H72  1  0.10371127  0.22758687  0.00276491  1
  H+  H73  1  0.32179071  0.33946410  0.64351463  1
  H+  H74  1  0.84987110  0.73283039  0.68200633  1
  H+  H75  1  0.63568796  0.27857328  -0.00581979  1
  H+  H76  1  0.11242708  0.37614419  0.66458526  1
  H+  H77  1  0.62467484  0.89522938  0.34000901  1
  H+  H78  1  0.51485513  0.86765787  0.14979684  1
  H+  H79  1  0.76303116  0.60957407  0.82111309  1
  H+  H80  1  0.62760495  0.89697585  0.49337288  1
  H+  H81  1  0.79735811  0.44260927  0.48829198  1
  H+  H82  1  0.35789523  0.72948230  0.83123843  1
  H+  H83  1  0.62700076  0.23063385  0.67437655  1
  H+  H84  1  0.53211740  0.68639171  0.66497162  1
  H+  H85  1  0.65106267  0.02085701  0.33056196  1
  H+  H86  1  0.10547357  0.88104259  0.49193670  1
  H+  H87  1  0.36288717  0.22848353  0.30109624  1
  H+  H88  1  0.26846973  0.62205487  0.67392430  1
  H+  H89  1  0.72903850  0.85985612  0.82661090  1
  H+  H90  1  0.14626213  0.62668149  0.34051143  1
  H+  H91  1  0.34364510  0.36029732  0.81935601  1
  H+  H92  1  0.77676781  0.88561643  0.33469198  1
  H+  H93  1  0.65284696  0.32656330  0.43694026  1
  H+  H94  1  0.63128191  0.85704190  0.16725238  1
  H+  H95  1  0.97622148  0.86249139  0.32318245  1
  H+  H96  1  0.36536532  0.14043457  0.29625767  1
  H+  H97  1  0.90894219  0.66358338  0.50970763  1
  H+  H98  1  -0.04577957  0.36146053  0.18410760  1
  H+  H99  1  0.37303943  0.09913948  0.52764410  1
  H+  H100  1  0.36735787  0.13686784  0.12540021  1
  H+  H101  1  0.78944277  0.38358364  0.35502197  1
  H+  H102  1  1.10190960  0.72662555  0.15468455  1
  H+  H103  1  0.11188860  0.38318019  0.48651699  1
  H+  H104  1  0.61990248  0.88832633  0.82500793  1
  H+  H105  1  0.26937933  0.38082906  0.34213018  1
  H+  H106  1  0.47430858  0.09737913  0.16208350  1
  H+  H107  1  0.95623939  0.09949736  0.83133238  1
  H+  H108  1  0.31880680  0.08900545  0.96271723  1
  H+  H109  1  0.21297594  0.35048594  0.50036170  1
  H+  H110  1  0.02893990  0.13095828  0.33756849  1
  H+  H111  1  0.86460313  0.88212879  0.33506405  1
  H+  H112  1  0.34125572  0.16339899  0.45278151  1
  H+  H113  1  0.62496160  0.52159248  0.98534611  1
  H+  H114  1  0.13048616  0.85319709  0.83597217  1
  H+  H115  1  0.35550423  0.71200133  0.12365606  1
  H+  H116  1  0.61975672  0.63632056  0.00759692  1
  H+  H117  1  0.38360099  0.27740792  0.51226439  1
  H+  H118  1  0.36194089  0.95007989  0.67406567  1
  H+  H119  1  0.09947294  0.71163537  0.83651346  1
  H+  H120  1  0.64025457  0.24140607  0.15743148  1
  H+  H121  1  0.88444488  0.44579981  0.49605920  1
  H+  H122  1  0.41011231  0.78236519  1.00444782  1
  H+  H123  1  0.14537830  0.08891502  0.66013824  1
  H+  H124  1  -0.02308924  0.60316602  0.86502333  1
  H+  H125  1  0.14255498  0.36295988  0.98385861  1
  H+  H126  1  0.72843436  0.11304743  0.84368353  1
  H+  H127  1  0.70369003  0.83390924  0.59290798  1
  H+  H128  1  0.88437702  0.49893130  0.86104650  1
  H+  H129  1  0.46990401  0.37054129  0.50860101  1
  H+  H130  1  0.97207797  0.35749363  0.83794238  1
  H+  H131  1  0.41315831  0.65209686  0.85609858  1
  H+  H132  1  0.11138484  0.12834310  0.49478358  1
  H+  H133  1  0.90521582  0.35510812  0.45474216  1
  H+  H134  1  0.91928132  0.08280243  0.23205043  1
  H+  H135  1  0.71743936  0.60545088  0.98408234  1
  H+  H136  1  0.87351986  0.90308423  0.71895546  1
  H+  H137  1  0.86090062  0.32534780  0.46660911  1
  H+  H138  1  0.92474723  0.58622561  0.50562476  1
  H+  H139  1  0.62137640  0.23470763  0.82516876  1
  H+  H140  1  0.89417165  1.01975408  0.32383826  1
  H+  H141  1  0.51661072  0.88937740  0.68695919  1
  H+  H142  1  0.47635946  0.37028720  0.84930552  1
  H+  H143  1  0.61940553  0.00244149  0.16381619  1
  H+  H144  1  0.50832429  0.39188266  0.33711633  1
  H+  H145  1  1.01717379  0.62292952  0.99459284  1
  H+  H146  1  0.10172791  0.63905069  0.16402947  1
  H+  H147  1  0.87566973  0.48284780  0.13319526  1
  H+  H148  1  0.02181095  0.89040661  0.49647418  1
  H+  H149  1  0.45897976  0.51847587  0.64678759  1
  H+  H150  1  0.12662911  0.47824193  0.48861895  1
  H+  H151  1  0.62080614  0.98145890  0.00626946  1
  H+  H152  1  0.12451374  0.47217021  0.66734818  1
  H+  H153  1  0.43696971  0.30945681  0.59733671  1
  H+  H154  1  0.86633426  0.89163550  0.49044745  1
  H+  H155  1  0.63195274  0.76875407  0.17080613  1
  H+  H156  1  0.27663632  0.24134955  0.78566652  1
  H+  H157  1  0.35413971  0.47516227  0.34598874  1
  H+  H158  1  0.64631404  0.36810434  0.68050440  1
  H+  H159  1  0.50910463  0.37876320  0.99668727  1
  H+  H160  1  0.88494855  0.36152998  0.67300293  1
  H+  H161  1  0.10461518  0.14591860  0.15806852  1
  H+  H162  1  0.09674656  0.13656571  1.00153069  1
  H+  H163  1  0.88697296  0.78639220  0.51000520  1
  H+  H164  1  0.40579083  0.01836803  1.03691766  1
  H+  H165  1  0.34604903  0.17704426  0.06542801  1
  H+  H166  1  0.37053776  0.95434127  0.18316139  1
  H+  H167  1  0.63741042  0.77709284  0.32162999  1
  H+  H168  1  0.87557662  0.85356242  0.17379402  1
  H+  H169  1  0.36373339  0.87039069  0.02097494  1
  H+  H170  1  0.62845914  0.14412473  0.16177679  1
  H+  H171  1  0.57408107  0.41697592  0.05332608  1
  H+  H172  1  0.63786090  0.11160364  0.66293729  1
  H+  H173  1  0.86009360  0.87724843  0.81635660  1
  H+  H174  1  0.75351627  0.38051773  0.13354701  1
  H+  H175  1  0.11710370  0.90185668  0.99378363  1
  H+  H176  1  0.57925235  0.68184828  0.72657728  1
  H+  H177  1  0.62254714  0.39907417  0.13958011  1
  H+  H178  1  0.32659557  0.46001800  0.87118161  1
  H+  H179  1  0.88437471  1.01909478  0.50763738  1
  H+  H180  1  0.85847365  0.62428292  0.83528878  1
  H+  H181  1  0.01619481  0.88686274  0.16553953  1
  H+  H182  1  0.85495719  0.12840270  0.82845674  1
  H+  H183  1  0.96041989  0.61376337  0.30569271  1
  H+  H184  1  0.89139284  0.84862738  0.98794765  1
  H+  H185  1  0.87812611  0.76559943  0.16659619  1
  H+  H186  1  0.60059237  0.39532771  0.48477740  1
  H+  H187  1  0.97301543  0.11697781  0.17012303  1
  H+  H188  1  0.37786247  0.84579671  0.67498375  1
  H+  H189  1  0.64364124  0.26565630  0.32965045  1
  H+  H190  1  0.62280399  0.48280434  0.67216727  1
  H+  H191  1  0.91358627  0.82661959  0.26441819  1
  H+  H192  1  0.16220249  0.32037886  0.92763587  1
  H+  H193  1  0.57202089  0.66242638  0.38664556  1
  H+  H194  1  0.33804540  0.11098801  0.86615325  1
  H+  H195  1  0.62521139  0.36390558  -0.01095423  1
  H+  H196  1  0.46533427  0.61866459  0.32445039  1
  H+  H197  1  0.86990638  0.38934480  0.13354195  1
  H+  H198  1  0.89802549  0.10995438  0.33101416  1
  H+  H199  1  0.63574755  0.61425934  0.16808737  1
  H+  H200  1  0.36657426  0.19446639  0.66592038  1
  H+  H201  1  0.62151860  0.46088392  0.76886450  1
  H+  H202  1  0.87891268  0.75949562  0.83105057  1
  H+  H203  1  0.39298540  0.79020406  0.52483779  1
  H+  H204  1  0.42394792  0.51178998  0.66858956  1
  H+  H205  1  0.22611811  0.10988821  0.30404935  1
  H+  H206  1  0.12887605  0.60128905  0.99001245  1
  H+  H207  1  0.13821561  0.01733113  0.50205573  1
  H+  H208  1  0.86007963  0.22163621  0.83136461  1
  H+  H209  1  0.34325300  0.90730523  0.44270800  1
  H+  H210  1  0.58525689  0.92734792  0.74668424  1
  H+  H211  1  0.13355971  0.28275486  0.17120446  1
  H+  H212  1  0.78734295  0.39338371  0.84192675  1
  H+  H213  1  0.85948366  0.72728756  0.33655152  1
  H+  H214  1  0.33446739  0.66534978  0.77442131  1
  H+  H215  1  0.73521871  0.86443572  0.49565447  1
  H+  H216  1  0.86860533  0.27340220  0.17042136  1
  H+  H217  1  0.59068472  0.38333330  0.35425588  1
  H+  H218  1  0.13976015  0.11092635  0.32487578  1
  H+  H219  1  0.88812338  0.62496045  0.66465865  1
  H+  H220  1  0.10026826  0.62273448  0.83378920  1
  H+  H221  1  0.27237553  0.87951967  0.49373931  1
  H+  H222  1  0.36061795  0.27309317  0.99361565  1
  H+  H223  1  0.24592796  0.87903594  0.99349440  1
  H+  H224  1  0.76990306  0.88635694  0.15921700  1
  H+  H225  1  0.62238898  0.28218975  0.50138672  1
  H+  H226  1  0.60391291  0.17051425  0.73195173  1
  H+  H227  1  0.72838329  0.60949736  0.66388072  1
  H+  H228  1  0.60872927  0.15418898  0.52764059  1
  H+  H229  1  0.10741667  0.25146677  0.83675949  1
  H+  H230  1  0.67162683  0.78668350  0.65728636  1
  H+  H231  1  0.01647515  0.63443767  0.67626138  1
  H+  H232  1  0.98850915  0.36297609  0.98695627  1
  H+  H233  1  0.47830513  0.86664223  0.84501195  1
  H+  H234  1  0.73340752  0.36549789  0.68156688  1
  H+  H235  1  0.09718473  0.72708441  0.31086254  1
  H+  H236  1  0.36333916  0.50934844  0.50011425  1
  H+  H237  1  0.21990674  0.37536905  0.17683298  1
  H+  H238  1  0.26535600  0.22184076  0.05143312  1
  H+  H239  1  0.85244236  0.63508433  0.33550401  1
  H+  H240  1  0.79321501  0.13848615  0.35746654  1
  H+  H241  1  0.47791879  0.10454206  0.30709536  1
  H+  H242  1  0.21528203  0.44320986  0.71616302  1
  H+  H243  1  0.79878464  0.83111243  0.64090179  1
  H+  H244  1  0.45230828  0.71955951  0.58670341  1
  H+  H245  1  0.20955097  0.13278232  0.98888551  1
  H+  H246  1  0.28884579  0.05795701  -0.01400682  1
  H+  H247  1  0.83737855  0.91796738  0.42787288  1
  H+  H248  1  0.63979250  0.11676723  0.99794766  1
  H+  H249  1  0.12804211  0.75969431  0.66453158  1
  H+  H250  1  0.10762968  0.89523454  0.16152478  1
  H+  H251  1  0.37721899  0.01194460  0.51911819  1
  H+  H252  1  0.72255852  0.10445551  0.66730658  1
  H+  H253  1  0.36805081  0.66931605  0.35196303  1
  H+  H254  1  0.12117528  -0.03625765  0.67358955  1
  H+  H255  1  0.63181181  0.14022464  0.30235729  1
  H+  H256  1  0.77838937  0.65115644  0.49203801  1
  H+  H257  1  0.48753420  0.61429686  0.00556415  1
  H+  H258  1  0.64718376  0.03698996  0.50667140  1
  H+  H259  1  0.87386188  0.13534994  0.50513905  1
  H+  H260  1  0.64028184  0.11404425  0.84274011  1
  H+  H261  1  0.02174052  0.88220574  -0.01541989  1
  H+  H262  1  0.41998703  0.07506742  0.73179670  1
  H+  H263  1  0.10638903  0.21527732  0.49033849  1
  H+  H264  1  0.61404677  0.61966685  0.81454931  1
  H+  H265  1  0.23551395  0.09255744  0.65965952  1
  H+  H266  1  0.19847001  0.11015922  0.83188223  1
  H+  H267  1  0.72816302  0.86710660  0.98652666  1
  H+  H268  1  0.38491482  0.36926064  0.32437675  1
  H+  H269  1  0.10306247  0.39220345  0.18272530  1
  H+  H270  1  0.34680904  0.34503988  0.67216874  1
  H+  H271  1  0.04976169  0.41719372  0.40292464  1
  H+  H272  1  0.07471216  0.17716960  0.09873983  1
  H+  H273  1  0.53296783  0.56166534  0.45032970  1
  H+  H274  1  0.38023154  0.83467494  0.18222486  1
  H+  H275  1  0.68163164  0.36280436  0.31239861  1
  H+  H276  1  0.85843852  0.13397544  0.16801427  1
  H+  H277  1  0.08327890  0.90502812  0.73980943  1
  H+  H278  1  0.77401863  0.15155817  0.01427145  1
  H+  H279  1  0.35673613  0.96996272  0.80553984  1
  H+  H280  1  0.61965655  0.72675393  1.00768877  1
  H+  H281  1  0.59909666  0.17713088  0.24936179  1
  H+  H282  1  0.89290351  0.28319073  0.99404338  1
  H+  H283  1  0.35206369  0.38198284  0.49692594  1
  H+  H284  1  0.21966851  0.84760381  0.66103299  1
  H+  H285  1  0.49808463  0.64492438  0.85376947  1
  H+  H286  1  0.38896820  0.11007550  0.78578266  1
  H+  H287  1  0.62037667  0.48616579  0.14845045  1
  H+  H288  1  0.77247804  0.63479564  0.14638438  1
  H+  H289  1  0.30914692  0.51906282  0.72147428  1
  H+  H290  1  0.12636213  0.03282097  0.98311448  1
  H+  H291  1  0.15060529  0.83053783  0.23033336  1
  H+  H292  1  0.34342998  0.23343666  0.82218536  1
  H+  H293  1  0.61224777  -0.00968815  0.67867783  1
  H+  H294  1  0.82984801  0.18241537  0.07477081  1
  H+  H295  1  0.42549056  0.35615925  0.26178132  1
  H+  H296  1  0.08155129  0.40830896  0.76615292  1
  H+  H297  1  0.15804604  0.57392468  0.92941971  1
  H+  H298  1  0.38527915  0.37170235  0.98977541  1
  H+  H299  1  0.75795359  0.41160485  0.57478339  1
  H+  H300  1  1.00171470  0.36029309  0.53393484  1
  H+  H301  1  0.67400055  0.08568289  0.56912503  1
  H+  H302  1  0.33591738  0.06667451  0.40108054  1
  H+  H303  1  0.66863549  0.58536626  0.22570667  1
  H+  H304  1  0.75967675  0.39444966  0.98860685  1
  H+  H305  1  0.14519652  0.07838736  0.89416855  1
  H+  H306  1  0.08062921  0.92127827  0.39539949  1
  H+  H307  1  0.07348411  0.65580277  0.73636650  1
  H+  H308  1  0.41564451  0.07327672  0.22002646  1
  H+  H309  1  0.15106153  0.08964684  0.22452578  1
  H+  H310  1  1.08344150  0.64824302  0.27046245  1
  H+  H311  1  0.41772852  0.83275843  0.94075959  1
  H+  H312  1  0.16679201  0.06880419  0.56466149  1
  H+  H313  1  0.31466229  0.87145681  0.08117509  1
  H+  H314  1  0.87757285  0.38793511  0.84408241  1
  H+  H315  1  0.72435660  0.08396729  0.28214812  1
  H+  H316  1  0.64043506  0.53119052  0.50560852  1
  H+  H317  1  0.85961219  0.44860446  0.39979404  1
  H+  H318  1  0.66883193  0.83693748  0.26310815  1
  H+  H319  1  0.86068565  0.97588606  0.16417950  1
  H+  H320  1  0.08299978  0.15594645  0.39945442  1
  H+  H321  1  0.92095097  0.33068984  0.90302159  1
  H+  H322  1  0.67258027  0.83290147  0.88787508  1
  H+  H323  1  0.16729264  0.60484519  0.25233141  1
  H+  H324  1  0.53133226  0.89211047  0.00316056  1
  H+  H325  1  0.11249672  -0.02018775  0.33431050  1
  H+  H326  1  0.43439280  0.82463264  0.58911384  1
  H+  H327  1  0.58046654  0.90808628  0.09292681  1
  H+  H328  1  0.43412953  0.61070951  0.94790893  1
  H+  H329  1  0.36601789  0.64457371  0.66076168  1
  H+  H330  1  0.11661208  0.42219435  0.05291250  1
  H+  H331  1  0.90139041  0.57264072  0.21802776  1
  H+  H332  1  0.63298551  0.05304536  0.22561925  1
  H+  H333  1  0.53396199  0.14695670  0.80830492  1
  H+  H334  1  0.96697179  0.11193314  0.98334273  1
  H+  H335  1  0.82198023  0.16342640  0.73803029  1
  H+  H336  1  0.48591604  0.38479900  0.16888589  1
  H+  H337  1  0.44187719  0.03138714  0.90858093  1
  H+  H338  1  0.07081715  0.43590652  0.13511426  1
  H+  H339  1  0.76671288  0.37504766  0.57196945  1
  H+  H340  1  0.83494032  0.65294351  0.04868116  1
  H+  H341  1  0.32417932  0.40832180  0.43354491  1
  H+  H342  1  0.57861259  0.11738102  0.41535374  1
  H+  H343  1  0.31889150  0.89162033  0.73263821  1
  H+  H344  1  0.85731678  0.43564021  0.74471249  1
  H+  H345  1  0.54876738  0.31197600  0.24232817  1
  H+  H346  1  0.91774723  0.38278545  0.34564180  1
  H+  H347  1  0.24308146  0.94971377  0.95556295  1
  H+  H348  1  0.32765266  0.68505622  0.41071693  1
  H+  H349  1  0.83582155  0.68171046  0.43142250  1
  H+  H350  1  0.66842350  0.08515717  0.93869237  1
  H+  H351  1  0.95329308  0.95577964  0.04591854  1
  H+  H352  1  0.15624186  0.82150570  0.56743679  1
  H+  H353  1  0.38440198  0.01583829  0.30899668  1
  H+  H354  1  0.31387287  0.16640223  0.72811722  1
  H+  H355  1  0.29768553  0.39062577  0.76809554  1
  H+  H356  1  0.90015749  0.06521442  0.89231359  1
  H+  H357  1  0.67185913  0.34051023  0.89958329  1
  H+  H358  1  0.38962086  0.76317906  0.68170463  1
  H+  H359  1  0.39171114  0.58058586  0.27554230  1
  H+  H360  1  0.84057090  0.42879817  0.03928334  1
  H+  H361  1  0.56590009  0.43093739  0.43365310  1
  H+  H362  1  0.47441651  0.07835243  0.90612474  1
  H+  H363  1  0.35175202  0.82857016  0.35293600  1
  H+  H364  1  0.59637748  0.92723444  0.39923084  1
  H+  H365  1  0.58875207  0.30875760  0.24387949  1
  H+  H366  1  0.85806919  0.16832899  0.41208577  1
  H+  H367  1  0.40938257  0.77397278  0.21367142  1
  H+  H368  1  0.42459211  0.62321329  0.57705428  1
  H+  H369  1  0.16984523  0.33101925  0.27464842  1
  H+  H370  1  0.53048163  0.09369592  0.41743236  1
  H+  H371  1  0.62512348  0.71386068  0.82024378  1
  H+  H372  1  0.92519261  0.60798788  0.60385259  1
  H+  H373  1  0.14654811  0.31505616  0.55658935  1
  H+  H374  1  0.41144843  0.33340788  0.90694516  1
  H+  H375  1  0.60721678  0.18404576  0.06967028  1
  H+  H376  1  0.17438296  0.59029887  0.59403463  1
  H+  H377  1  0.92807701  0.32328259  0.61648610  1
  H+  H378  1  0.06863904  0.65213259  0.05743688  1
  H+  H379  1  0.67473012  0.58200620  0.60220235  1
  H+  H380  1  0.05768618  0.16018295  0.75885008  1
  H+  H381  1  0.29107746  0.05841589  0.39564200  1
  H+  H382  1  0.41928550  0.06284144  0.61695377  1
  H+  H383  1  0.91030140  0.82179403  0.88812710  1
  O2-  O384  1  0.07619598  0.18047879  0.14418948  1
  O2-  O385  1  0.07673059  0.15289061  0.47845566  1
  O2-  O386  1  0.05648383  0.15482810  0.80593236  1
  O2-  O387  1  0.06827137  0.42164799  0.17795527  1
  O2-  O388  1  0.08330276  0.41811649  0.47929661  1
  O2-  O389  1  0.07545804  0.40739018  0.81131540  1
  O2-  O390  1  0.07162355  0.66517507  0.14147530  1
  O2-  O391  1  0.11908719  0.73805596  0.50059827  1
  O2-  O392  1  0.06383542  0.64991575  0.82491457  1
  O2-  O393  1  0.07559999  0.92481063  0.15127276  1
  O2-  O394  1  0.08029736  0.91638062  0.47790081  1
  O2-  O395  1  0.07423094  0.90593167  0.80625603  1
  O2-  O396  1  0.39216503  0.17020895  0.08848963  1
  O2-  O397  1  0.33424478  0.16861289  0.49626853  1
  O2-  O398  1  0.29335879  0.19738390  0.79532022  1
  O2-  O399  1  0.35339702  0.47145458  0.17207568  1
  O2-  O400  1  0.31968200  0.40863176  0.47954504  1
  O2-  O401  1  0.29009432  0.34386391  0.79627666  1
  O2-  O402  1  0.33181866  0.66812418  0.09053231  1
  O2-  O403  1  0.28564358  0.64047172  0.49182007  1
  O2-  O404  1  0.32899154  0.66784642  0.81902968  1
  O2-  O405  1  0.33734454  0.89195345  0.19585822  1
  O2-  O406  1  0.33463030  0.91400795  0.48638311  1
  O2-  O407  1  0.32833520  0.90620119  0.80718649  1
  O2-  O408  1  0.59889482  0.17834414  0.16072861  1
  O2-  O409  1  0.57734712  0.18520556  0.53551253  1
  O2-  O410  1  0.59736418  0.17513833  0.80940055  1
  O2-  O411  1  0.58770730  0.42642052  0.13146240  1
  O2-  O412  1  0.57120093  0.43036617  0.47917059  1
  O2-  O413  1  0.63032027  0.46512931  0.81425784  1
  O2-  O414  1  0.57852453  0.66238399  0.14571255  1
  O2-  O415  1  0.54892884  0.61993594  0.46277444  1
  O2-  O416  1  0.58628604  0.65453600  0.80593629  1
  O2-  O417  1  0.57653543  0.90507167  0.13876975  1
  O2-  O418  1  0.59543503  0.92644403  0.48119669  1
  O2-  O419  1  0.58846265  0.92003551  0.81385213  1
  O2-  O420  1  0.82582658  0.16354792  0.15624081  1
  O2-  O421  1  0.85332895  0.17594216  0.49227347  1
  O2-  O422  1  0.82642000  0.16198863  0.81485135  1
  O2-  O423  1  0.84933183  0.42623236  0.11126006  1
  O2-  O424  1  0.85823189  0.47574576  0.47631715  1
  O2-  O425  1  0.85135440  0.42730839  0.83310909  1
  O2-  O426  1  0.83209102  0.66404004  0.12971962  1
  O2-  O427  1  0.83846702  0.68732558  0.47689840  1
  O2-  O428  1  0.82911006  0.65082143  0.81472586  1
  O2-  O429  1  0.83212066  0.91540819  0.14817557  1
  O2-  O430  1  0.83338321  0.91826208  0.47346554  1
  O2-  O431  1  0.83212083  0.90653129  0.79599848  1
  O2-  O432  1  0.14643535  0.09246999  0.17981284  1
  O2-  O433  1  0.16881525  0.07714056  0.51985921  1
  O2-  O434  1  0.14087036  0.06876714  0.84819377  1
  O2-  O435  1  0.16040997  0.34133320  0.19087597  1
  O2-  O436  1  0.15054569  0.31874833  0.51089780  1
  O2-  O437  1  0.14409019  0.31246853  0.85169803  1
  O2-  O438  1  0.14204799  0.59542301  0.20998245  1
  O2-  O439  1  0.20589960  0.59699441  0.51023459  1
  O2-  O440  1  0.15718229  0.57557417  0.84833939  1
  O2-  O441  1  0.15746435  0.83036193  0.18504026  1
  O2-  O442  1  0.15602469  0.82699507  0.52207890  1
  O2-  O443  1  0.16325022  0.82535698  0.85016991  1
  O2-  O444  1  0.41486800  0.06001725  0.17563784  1
  O2-  O445  1  0.40225408  0.06812898  0.54178295  1
  O2-  O446  1  0.41966251  0.07933410  0.77724176  1
  O2-  O447  1  0.43061085  0.36539886  0.19016584  1
  O2-  O448  1  0.41193456  0.33742684  0.52824970  1
  O2-  O449  1  0.41562694  0.33453584  0.85958280  1
  O2-  O450  1  0.39264643  0.54954060  0.19049956  1
  O2-  O451  1  0.39524166  0.57349283  0.50753909  1
  O2-  O452  1  0.46032851  0.65529162  0.88092233  1
  O2-  O453  1  0.40901568  0.79899767  0.17445823  1
  O2-  O454  1  0.44649696  0.81113652  0.54755419  1
  O2-  O455  1  0.41836629  0.83650584  0.86050943  1
  O2-  O456  1  0.64870088  0.06212687  0.18249635  1
  O2-  O457  1  0.67722563  0.09581216  0.52463026  1
  O2-  O458  1  0.66702355  0.08109498  0.85862682  1
  O2-  O459  1  0.69402449  0.35219856  0.15369611  1
  O2-  O460  1  0.65184871  0.33984083  0.48006640  1
  O2-  O461  1  0.68282214  0.34574168  0.85442671  1
  O2-  O462  1  0.66956898  0.58621962  0.18039266  1
  O2-  O463  1  0.67538766  0.59182307  0.52078261  1
  O2-  O464  1  0.66658797  0.55561890  0.82796352  1
  O2-  O465  1  0.66398460  0.83015296  0.18415835  1
  O2-  O466  1  0.67525433  0.83559990  0.51407015  1
  O2-  O467  1  0.66883550  0.83211473  0.84286604  1
  O2-  O468  1  0.91298309  0.08139409  0.18665730  1
  O2-  O469  1  0.91596129  0.07735337  0.52640170  1
  O2-  O470  1  0.89524164  0.06595521  0.84633276  1
  O2-  O471  1  0.89146346  0.33561238  0.17819510  1
  O2-  O472  1  0.95560947  0.31509584  0.55953865  1
  O2-  O473  1  0.91283196  0.32996492  0.85581107  1
  O2-  O474  1  0.90746733  0.57543174  0.17279651  1
  O2-  O475  1  0.94696659  0.64220954  0.52627615  1
  O2-  O476  1  0.91369533  0.56860428  0.87976659  1
  O2-  O477  1  0.90462004  0.82192815  0.18822191  1
  O2-  O478  1  0.91872059  0.84681570  0.52565092  1
  O2-  O479  1  0.91135761  0.82180091  0.84234291  1
  O2-  O480  1  0.16135379  0.07529529  0.30510621  1
  O2-  O481  1  0.17208093  0.05740830  0.64384278  1
  O2-  O482  1  0.15017674  0.09261684  0.96727906  1
  O2-  O483  1  0.17643775  0.32926876  0.31909255  1
  O2-  O484  1  0.13984442  0.30673339  0.63275205  1
  O2-  O485  1  0.16885952  0.32721949  0.97282604  1
  O2-  O486  1  0.18559215  0.60892123  0.32388130  1
  O2-  O487  1  0.16658981  0.58144359  0.63854549  1
  O2-  O488  1  0.16016438  0.57213203  0.97440434  1
  O2-  O489  1  0.15387621  0.83308919  0.30740702  1
  O2-  O490  1  0.15770872  0.82061411  0.64827708  1
  O2-  O491  1  0.20882006  0.88809169  0.96383148  1
  O2-  O492  1  0.41702060  0.07882607  0.29610538  1
  O2-  O493  1  0.43544091  0.05336660  0.65862559  1
  O2-  O494  1  0.43666544  0.07878471  1.02428705  1
  O2-  O495  1  0.42055908  0.34554283  0.30758937  1
  O2-  O496  1  0.45288219  0.28664904  0.63379677  1
  O2-  O497  1  0.40789092  0.33285961  0.97533940  1
  O2-  O498  1  0.40182149  0.59036697  0.31964724  1
  O2-  O499  1  0.44242608  0.66779982  0.60941728  1
  O2-  O500  1  0.42683065  0.59240702  0.99205406  1
  O2-  O501  1  0.36731083  0.88777470  0.36365247  1
  O2-  O502  1  0.41901729  0.82376844  0.66739107  1
  O2-  O503  1  0.42489485  0.83921899  0.98573025  1
  O2-  O504  1  0.68437098  0.08332334  0.31233540  1
  O2-  O505  1  0.66151841  0.07237944  0.65128181  1
  O2-  O506  1  0.66717560  0.08301023  0.98397190  1
  O2-  O507  1  0.66980202  0.32571254  0.34768371  1
  O2-  O508  1  0.67275337  0.33267746  0.66925341  1
  O2-  O509  1  0.66180597  0.33782127  0.97608534  1
  O2-  O510  1  0.66235548  0.58645831  0.30675282  1
  O2-  O511  1  0.66971523  0.57477134  0.64679663  1
  O2-  O512  1  0.65594357  0.58409803  0.97627666  1
  O2-  O513  1  0.67192361  0.83838116  0.30855485  1
  O2-  O514  1  0.72262599  0.83459253  0.63523100  1
  O2-  O515  1  0.66908167  0.83514272  0.97212000  1
  O2-  O516  1  0.92585463  0.08058473  0.30949761  1
  O2-  O517  1  0.89729286  0.09761664  0.65130966  1
  O2-  O518  1  0.90970232  0.06997024  0.96613547  1
  O2-  O519  1  0.95524332  0.35683088  0.34679148  1
  O2-  O520  1  0.90659797  0.32117240  0.66266605  1
  O2-  O521  1  0.92958963  0.33768159  0.97070232  1
  O2-  O522  1  0.89618220  0.58026752  0.29850519  1
  O2-  O523  1  0.91773084  0.59433496  0.64818477  1
  O2-  O524  1  0.91341180  0.57052367  0.94748419  1
  O2-  O525  1  0.91456658  0.82904879  0.31009259  1
  O2-  O526  1  0.85872029  0.83080786  0.64702344  1
  O2-  O527  1  0.91240862  0.81654459  0.96342054  1
  O2-  O528  1  0.06822040  0.16776117  0.01912344  1
  O2-  O529  1  0.08878153  0.16062192  0.35431686  1
  O2-  O530  1  0.05477416  0.17003212  0.68990401  1
  O2-  O531  1  0.09870552  0.41956533  0.01098152  1
  O2-  O532  1  0.03750964  0.43183805  0.36168677  1
  O2-  O533  1  0.11263666  0.42113407  0.69173790  1
  O2-  O534  1  0.07483228  0.65054955  0.01278484  1
  O2-  O535  1  0.06468082  0.66251705  0.30845342  1
  O2-  O536  1  0.07745896  0.66039975  0.69145945  1
  O2-  O537  1  0.07890275  0.92550266  0.00024700  1
  O2-  O538  1  0.07917784  0.91857745  0.35036240  1
  O2-  O539  1  0.09021731  0.90359988  0.69213402  1
  O2-  O540  1  0.28820062  0.19641019  0.02329200  1
  O2-  O541  1  0.32899870  0.16679219  0.29103786  1
  O2-  O542  1  0.32200958  0.14366644  0.68861114  1
  O2-  O543  1  0.33707505  0.41893580  0.01677743  1
  O2-  O544  1  0.33123566  0.41479696  0.35903352  1
  O2-  O545  1  0.27558456  0.45630347  0.72212426  1
  O2-  O546  1  0.40615394  0.70562786  0.04954061  1
  O2-  O547  1  0.34513502  0.70500589  0.36866194  1
  O2-  O548  1  0.32599210  0.64395561  0.69314918  1
  O2-  O549  1  0.32818346  0.89345527  0.03981174  1
  O2-  O550  1  0.32455826  0.91247746  0.31619720  1
  O2-  O551  1  0.32000090  0.88970992  0.68682567  1
  O2-  O552  1  0.59874070  0.17855331  0.02542445  1
  O2-  O553  1  0.60104036  0.17262480  0.29415550  1
  O2-  O554  1  0.60012040  0.16767517  0.68660351  1
  O2-  O555  1  0.57222596  0.41089497  0.00816664  1
  O2-  O556  1  0.56846640  0.42297951  0.35766668  1
  O2-  O557  1  0.59741679  0.42587456  0.69575380  1
  O2-  O558  1  0.59220251  0.66902616  0.02651228  1
  O2-  O559  1  0.57643927  0.66954964  0.34184041  1
  O2-  O560  1  0.58635267  0.71258895  0.68773121  1
  O2-  O561  1  0.59203531  0.91874228  0.01808971  1
  O2-  O562  1  0.60064446  0.93152512  0.35415553  1
  O2-  O563  1  0.57909616  0.92776609  0.69934592  1
  O2-  O564  1  0.83067641  0.19394875  0.03082997  1
  O2-  O565  1  0.85341196  0.15847306  0.36739077  1
  O2-  O566  1  0.81942962  0.16736594  0.69254037  1
  O2-  O567  1  0.82527098  0.42689405  -0.00558761  1
  O2-  O568  1  0.85065688  0.42820270  0.35695081  1
  O2-  O569  1  0.85293500  0.42854912  0.70005927  1
  O2-  O570  1  0.83122631  0.65326376  0.00339880  1
  O2-  O571  1  0.82557973  0.66732950  0.35349599  1
  O2-  O572  1  0.83521703  0.67335105  0.69256584  1
  O2-  O573  1  0.89216538  0.92776470  0.03616367  1
  O2-  O574  1  0.83673515  0.91465436  0.35101753  1
  O2-  O575  1  0.91145931  0.90863297  0.68392170  1
