# generated using pymatgen
data_H2O
_symmetry_space_group_name_H-M   'P 1'
_cell_length_a   17.99007020
_cell_length_b   17.98884555
_cell_length_c   22.00091375
_cell_angle_alpha   89.98520437
_cell_angle_beta   90.03359257
_cell_angle_gamma   119.98729856
_symmetry_Int_Tables_number   1
_chemical_formula_structural   H2O
_chemical_formula_sum   'H384 O192'
_cell_volume   6166.84448146
_cell_formula_units_Z   192
loop_
 _symmetry_equiv_pos_site_id
 _symmetry_equiv_pos_as_xyz
  1  'x, y, z'
loop_
 _atom_type_symbol
 _atom_type_oxidation_number
  H+  1.0
  O2-  -2.0
loop_
 _atom_site_type_symbol
 _atom_site_label
 _atom_site_symmetry_multiplicity
 _atom_site_fract_x
 _atom_site_fract_y
 _atom_site_fract_z
 _atom_site_occupancy
  H+  H0  1  0.60586451  0.98439575  0.81895337  1
  H+  H1  1  0.01817912  0.38493684  0.67128965  1
  H+  H2  1  0.43250168  1.03909412  0.50105907  1
  H+  H3  1  0.14124774  0.87214920  -0.00885676  1
  H+  H4  1  0.82964772  0.70439603  -0.00129625  1
  H+  H5  1  0.62529771  0.00628335  0.66484396  1
  H+  H6  1  0.47298933  0.85578686  0.50130280  1
  H+  H7  1  0.61833170  0.89296401  0.33850321  1
  H+  H8  1  0.64466145  0.63575269  0.83932010  1
  H+  H9  1  0.52039034  0.63618249  0.82529424  1
  H+  H10  1  0.02223030  0.38381790  0.49566754  1
  H+  H11  1  0.96159892  0.85030443  0.33569058  1
  H+  H12  1  0.64681228  1.00877141  0.17039636  1
  H+  H13  1  0.83299166  0.70458721  0.33614024  1
  H+  H14  1  0.52788583  0.63973669  0.49795501  1
  H+  H15  1  0.82693852  0.67170892  0.43455966  1
  H+  H16  1  0.74874369  0.61270987  1.00689047  1
  H+  H17  1  0.93802105  0.08951731  0.23450463  1
  H+  H18  1  0.55184605  0.16283583  0.57817545  1
  H+  H19  1  0.26285646  0.40152543  0.15159379  1
  H+  H20  1  0.27988769  0.62065503  0.15709793  1
  H+  H21  1  0.22931704  0.87659831  0.82698207  1
  H+  H22  1  0.13452418  0.77526066  0.65483093  1
  H+  H23  1  0.51891715  0.38541104  0.66959649  1
  H+  H24  1  0.88754848  0.27070320  0.85029428  1
  H+  H25  1  0.88293654  0.35508594  0.50634101  1
  H+  H26  1  0.81324626  0.95418891  -0.00956403  1
  H+  H27  1  0.89283869  0.87178511  0.66128163  1
  H+  H28  1  0.12925667  0.14763433  0.81259582  1
  H+  H29  1  0.38116614  0.04089970  0.22664038  1
  H+  H30  1  0.46474159  0.86494482  0.83333460  1
  H+  H31  1  0.40128612  0.27381198  0.50590200  1
  H+  H32  1  0.52457541  0.14022068  0.85589107  1
  H+  H33  1  0.61068418  0.24123868  0.62146239  1
  H+  H34  1  0.47199183  0.36295384  0.83433166  1
  H+  H35  1  0.39534405  0.14729651  0.49538294  1
  H+  H36  1  0.12891273  0.87443522  0.34511376  1
  H+  H37  1  1.02703624  0.64313587  0.34055930  1
  H+  H38  1  0.32624595  0.82781834  0.21116023  1
  H+  H39  1  0.27937500  0.38034887  0.49967183  1
  H+  H40  1  0.47842220  0.11591509  0.99320167  1
  H+  H41  1  0.41341257  0.58006119  0.60300148  1
  H+  H42  1  0.84006071  0.09520131  0.98801997  1
  H+  H43  1  0.38595175  0.61821353  -0.00977835  1
  H+  H44  1  0.48957881  0.88754542  0.65022595  1
  H+  H45  1  0.84697981  0.62428275  0.33834834  1
  H+  H46  1  0.36123269  0.38917952  0.82087149  1
  H+  H47  1  0.65676621  0.85228821  0.16613545  1
  H+  H48  1  1.01799171  0.63809127  0.66590418  1
  H+  H49  1  0.56802943  0.14650015  0.06283450  1
  H+  H50  1  0.37240574  0.38125888  0.49887794  1
  H+  H51  1  0.61420637  0.88160836  0.49326267  1
  H+  H52  1  0.23102073  0.37128828  0.98828657  1
  H+  H53  1  0.36357802  0.23014063  0.81294525  1
  H+  H54  1  0.14402125  0.52806761  1.01840532  1
  H+  H55  1  0.53350512  0.62471980  0.15965517  1
  H+  H56  1  0.37850638  0.89946875  -0.01451862  1
  H+  H57  1  0.37048703  0.23167238  0.34505720  1
  H+  H58  1  0.38222489  0.01424791  0.97784910  1
  H+  H59  1  0.73746215  0.84380951  0.17602907  1
  H+  H60  1  0.54205887  0.63834697  0.34807229  1
  H+  H61  1  0.58199994  0.44475459  0.16400948  1
  H+  H62  1  0.53180759  0.23455133  0.21991385  1
  H+  H63  1  0.84388938  0.98153570  0.66947992  1
  H+  H64  1  0.04824072  0.12398481  0.50501577  1
  H+  H65  1  0.62118230  0.75171508  0.65769865  1
  H+  H66  1  0.97181412  0.87227990  0.81511353  1
  H+  H67  1  0.62603475  0.90730918  -0.01112970  1
  H+  H68  1  0.33296002  0.16101234  0.06894999  1
  H+  H69  1  0.07071287  0.91063292  0.41077662  1
  H+  H70  1  0.90340671  0.51830308  0.50481631  1
  H+  H71  1  0.15421336  0.78384538  0.50153308  1
  H+  H72  1  0.63520959  0.28147295  0.33658351  1
  H+  H73  1  0.42018149  0.33719527  0.60002364  1
  H+  H74  1  0.36782701  0.35611497  0.17073929  1
  H+  H75  1  0.56705585  0.88554160  0.13831912  1
  H+  H76  1  0.92048779  0.59612873  0.15094247  1
  H+  H77  1  0.63674885  0.41103700  0.33709580  1
  H+  H78  1  1.01633638  0.88564057  0.49599368  1
  H+  H79  1  0.34082017  0.74941035  0.19477316  1
  H+  H80  1  0.90739997  0.86865202  0.17714727  1
  H+  H81  1  0.47035506  0.60880784  -0.00792449  1
  H+  H82  1  0.86094975  0.50127680  0.17349420  1
  H+  H83  1  0.91494686  0.33294406  0.60150424  1
  H+  H84  1  0.04528995  0.62980672  0.18616933  1
  H+  H85  1  0.27104246  0.63632927  0.82426172  1
  H+  H86  1  1.01061902  0.09818556  0.98317482  1
  H+  H87  1  0.72963768  0.13215502  0.64712542  1
  H+  H88  1  0.73343827  0.86211219  0.00173694  1
  H+  H89  1  0.61856983  0.59130465  0.99263965  1
  H+  H90  1  0.36249144  0.64035350  0.82561846  1
  H+  H91  1  0.76916159  0.39681178  0.48807382  1
  H+  H92  1  0.48971295  0.86558991  0.19942065  1
  H+  H93  1  0.36103427  0.39034338  0.00306863  1
  H+  H94  1  0.40053567  0.49726343  0.18255917  1
  H+  H95  1  0.38913218  0.52558723  0.50792051  1
  H+  H96  1  0.93761592  0.61100464  0.95648031  1
  H+  H97  1  0.02304768  0.13403069  -0.03932310  1
  H+  H98  1  0.89023725  0.78510308  0.50543970  1
  H+  H99  1  0.12803817  0.52093224  0.65933874  1
  H+  H100  1  0.36738764  0.47047380  0.35295909  1
  H+  H101  1  0.89778981  0.36558532  0.98820807  1
  H+  H102  1  0.81212143  0.12810025  0.88661633  1
  H+  H103  1  0.84660966  0.06749719  0.60872901  1
  H+  H104  1  0.14956526  1.03714552  0.16412112  1
  H+  H105  1  0.27598144  0.14492393  0.65303518  1
  H+  H106  1  0.83211737  0.92490792  0.39459014  1
  H+  H107  1  0.11136743  0.73434177  0.34283079  1
  H+  H108  1  0.14849856  0.59893186  0.17351610  1
  H+  H109  1  0.37611740  0.64123621  0.16107434  1
  H+  H110  1  0.72320233  0.37292742  0.64198151  1
  H+  H111  1  0.59856773  0.45884221  0.00275839  1
  H+  H112  1  0.63260169  0.11541265  -0.01477777  1
  H+  H113  1  0.26889060  0.62353865  0.67268687  1
  H+  H114  1  0.09407598  0.67224082  0.43171408  1
  H+  H115  1  0.57508170  0.41052262  0.76019401  1
  H+  H116  1  0.09461540  0.39888596  0.09884818  1
  H+  H117  1  0.33373692  0.93749534  0.15732453  1
  H+  H118  1  0.11896859  0.38098069  1.00896662  1
  H+  H119  1  0.98521309  0.11113022  0.33163222  1
  H+  H120  1  0.23896891  0.87723182  0.50797153  1
  H+  H121  1  0.12318726  0.89933575  0.66164285  1
  H+  H122  1  0.37661578  0.02257717  0.65708637  1
  H+  H123  1  0.72182265  0.87055511  0.83075134  1
  H+  H124  1  0.72200642  0.34771705  0.81067247  1
  H+  H125  1  0.09297138  0.71414495  0.02097359  1
  H+  H126  1  0.48835516  0.88381393  0.00763182  1
  H+  H127  1  0.14197523  0.27586167  0.83309234  1
  H+  H128  1  0.16529386  0.02437825  0.97982172  1
  H+  H129  1  0.79011126  0.65558890  0.70043061  1
  H+  H130  1  0.72995223  0.35811198  1.00501229  1
  H+  H131  1  0.88206137  0.27403467  0.66106012  1
  H+  H132  1  0.38497047  0.11874215  0.82578127  1
  H+  H133  1  0.60132095  0.21777149  1.01158569  1
  H+  H134  1  0.35844536  0.88666976  0.82087064  1
  H+  H135  1  0.13272030  0.49560264  0.32190986  1
  H+  H136  1  0.75842726  0.13533976  0.83352743  1
  H+  H137  1  -0.07911574  0.32806989  0.27119499  1
  H+  H138  1  0.24075801  0.70392033  0.38085661  1
  H+  H139  1  0.12602395  0.64264861  0.49114678  1
  H+  H140  1  0.87648953  0.13611149  0.16707640  1
  H+  H141  1  0.62596750  0.12372497  0.83996829  1
  H+  H142  1  0.78009690  0.64836698  0.49780579  1
  H+  H143  1  0.13746733  0.52644984  0.83185180  1
  H+  H144  1  0.17891666  0.77852954  0.95564063  1
  H+  H145  1  0.60350066  0.37334969  0.01383817  1
  H+  H146  1  0.88670534  0.52306127  0.32889421  1
  H+  H147  1  0.11238649  0.38485017  0.82402338  1
  H+  H148  1  0.57881183  0.31795272  0.17916288  1
  H+  H149  1  0.86632476  0.37690496  0.16616836  1
  H+  H150  1  0.97832063  0.35863727  0.83993304  1
  H+  H151  1  0.13081417  0.21599568  0.49948539  1
  H+  H152  1  0.98670948  0.35551532  0.17742603  1
  H+  H153  1  -0.01695116  0.87711886  0.65751837  1
  H+  H154  1  0.61693854  0.52928187  0.25104870  1
  H+  H155  1  0.64271303  0.03141020  0.33921333  1
  H+  H156  1  0.85473823  0.38745340  0.66594348  1
  H+  H157  1  0.46580972  0.35511871  0.98918708  1
  H+  H158  1  0.30405955  0.13708873  0.51121295  1
  H+  H159  1  0.46259188  0.11201687  0.64493521  1
  H+  H160  1  0.86383262  0.38346251  0.82183121  1
  H+  H161  1  0.79232036  0.96354011  0.13134092  1
  H+  H162  1  0.83468397  0.83813819  0.96954449  1
  H+  H163  1  0.99664130  0.14512018  0.66464071  1
  H+  H164  1  0.51397270  0.62382915  0.67085513  1
  H+  H165  1  0.10000011  0.96917612  0.34846703  1
  H+  H166  1  0.39894509  0.79339170  1.00827065  1
  H+  H167  1  0.27686788  0.88934152  0.36488929  1
  H+  H168  1  0.12800839  0.74214074  0.81046875  1
  H+  H169  1  0.87821534  0.77009864  0.17698419  1
  H+  H170  1  0.62067775  0.71507113  0.15850193  1
  H+  H171  1  0.49115842  0.36791967  0.32628760  1
  H+  H172  1  0.65354288  0.36894362  0.54728742  1
  H+  H173  1  0.63292908  0.34696248  0.80971115  1
  H+  H174  1  0.91949372  0.83597027  0.96700988  1
  H+  H175  1  0.36634337  0.89222578  0.35526902  1
  H+  H176  1  0.39635993  0.87745939  0.65137564  1
  H+  H177  1  0.68729730  0.33607095  1.06960292  1
  H+  H178  1  0.77972813  0.64275712  0.79663710  1
  H+  H179  1  0.22802982  0.36689212  0.83594960  1
  H+  H180  1  0.38531086  0.12793638  0.31841655  1
  H+  H181  1  0.14109154  0.36261423  0.50362279  1
  H+  H182  1  0.03909234  0.14232010  0.81749670  1
  H+  H183  1  0.61406335  0.22628988  0.84723905  1
  H+  H184  1  0.48034437  0.89867467  0.18575612  1
  H+  H185  1  0.90556369  1.02297748  0.51310810  1
  H+  H186  1  0.85824188  0.73489312  0.78477374  1
  H+  H187  1  0.37990841  0.90153281  0.50211760  1
  H+  H188  1  0.85380631  0.89369978  0.81295698  1
  H+  H189  1  0.65169968  0.52926892  0.51506042  1
  H+  H190  1  0.65478199  0.57143118  0.93227734  1
  H+  H191  1  0.16375834  0.11004188  0.53112325  1
  H+  H192  1  0.76365576  0.88351267  0.66935647  1
  H+  H193  1  0.38548277  0.27360407  0.65701409  1
  H+  H194  1  0.58817210  0.02087028  0.21562643  1
  H+  H195  1  0.56309270  0.78245209  0.95898565  1
  H+  H196  1  0.89674304  0.02974866  0.83168846  1
  H+  H197  1  0.64074704  0.13495253  0.62970817  1
  H+  H198  1  0.89621634  0.26960748  0.17800009  1
  H+  H199  1  0.45676105  0.35413764  0.16688488  1
  H+  H200  1  0.02994396  0.38163195  0.01523015  1
  H+  H201  1  0.91262394  0.03601138  0.17178743  1
  H+  H202  1  0.15424915  0.24421690  0.01430280  1
  H+  H203  1  0.14273636  0.61723396  0.82833547  1
  H+  H204  1  0.38173090  0.11217289  0.99815530  1
  H+  H205  1  0.65034075  0.10818645  0.77315345  1
  H+  H206  1  0.82265610  0.40557161  -0.07176023  1
  H+  H207  1  0.26920033  0.63216618  0.50147984  1
  H+  H208  1  0.40019541  0.60000526  0.32651050  1
  H+  H209  1  0.82200082  0.62798760  0.16567183  1
  H+  H210  1  0.27822025  0.13331761  0.00560949  1
  H+  H211  1  0.60590180  0.08866941  0.49956414  1
  H+  H212  1  0.60608947  0.72934711  0.81941381  1
  H+  H213  1  0.10968847  0.37649040  0.34869173  1
  H+  H214  1  0.35486031  0.38102192  0.66955647  1
  H+  H215  1  0.15672771  0.15612305  0.01527006  1
  H+  H216  1  0.87053117  0.60102838  0.00691868  1
  H+  H217  1  0.96903281  0.70965103  0.88546527  1
  H+  H218  1  0.37634941  0.27032194  0.99058432  1
  H+  H219  1  0.61203192  0.47249479  0.67742309  1
  H+  H220  1  0.11917282  0.13132775  0.34611543  1
  H+  H221  1  0.83568363  0.41799022  0.76494839  1
  H+  H222  1  0.35803647  0.23153346  0.16692947  1
  H+  H223  1  0.63591198  0.76981349  0.50357154  1
  H+  H224  1  0.13702982  0.26008630  0.36097174  1
  H+  H225  1  0.70121792  0.56273387  0.34040701  1
  H+  H226  1  -0.03142739  0.86628592  0.05018518  1
  H+  H227  1  0.13674885  0.52039235  0.50855190  1
  H+  H228  1  0.63277822  0.36938460  0.64809134  1
  H+  H229  1  0.17162550  0.08436663  0.27351118  1
  H+  H230  1  1.00791641  0.62598050  1.03382023  1
  H+  H231  1  0.61336474  0.46936482  0.81879092  1
  H+  H232  1  0.73183276  0.87046458  0.32685705  1
  H+  H233  1  0.28702627  0.89810857  -0.01225227  1
  H+  H234  1  0.87397161  0.13662180  0.34222158  1
  H+  H235  1  0.62101955  0.00097707  0.50048077  1
  H+  H236  1  0.23784551  0.12888646  0.17512694  1
  H+  H237  1  0.12637491  0.77135655  0.18515261  1
  H+  H238  1  0.11042215  0.89799579  0.81021871  1
  H+  H239  1  0.23112199  0.11359129  0.33271556  1
  H+  H240  1  0.85663426  0.47707956  0.66507394  1
  H+  H241  1  0.52756246  0.89089185  0.34307885  1
  H+  H242  1  0.21495689  0.60384896  0.32876827  1
  H+  H243  1  0.16029083  0.32689825  0.41309694  1
  H+  H244  1  0.34001699  0.41328554  0.42276146  1
  H+  H245  1  0.62105331  0.73351769  0.34809361  1
  H+  H246  1  0.60678559  0.70795197  0.00140245  1
  H+  H247  1  0.29561440  0.66837397  0.41398011  1
  H+  H248  1  0.37917913  0.60280583  0.66426995  1
  H+  H249  1  0.89304339  0.27096715  0.33258428  1
  H+  H250  1  0.21683977  0.35751231  0.65400786  1
  H+  H251  1  0.12508014  0.90749520  0.15602751  1
  H+  H252  1  0.14359943  0.50589580  0.16862244  1
  H+  H253  1  0.11620390  0.30511923  0.16327579  1
  H+  H254  1  0.97523462  0.91010824  1.04159691  1
  H+  H255  1  0.08982878  0.14994072  0.41034503  1
  H+  H256  1  0.27302302  0.88545951  0.66559444  1
  H+  H257  1  0.62308211  0.58230418  0.18970237  1
  H+  H258  1  0.38412767  0.78156791  0.35128559  1
  H+  H259  1  0.36168722  0.97866608  0.81840431  1
  H+  H260  1  0.07363726  0.89865599  0.01046740  1
  H+  H261  1  0.25286532  0.89752324  0.20001920  1
  H+  H262  1  0.86751318  0.23370325  0.01195632  1
  H+  H263  1  0.63136869  0.87023398  0.82978323  1
  H+  H264  1  0.28272607  0.64968839  0.01130207  1
  H+  H265  1  0.89518907  1.02381976  0.32470809  1
  H+  H266  1  0.78603878  0.13218811  0.17344204  1
  H+  H267  1  0.36108684  0.14007092  0.66414011  1
  H+  H268  1  0.78625797  0.13912506  0.35143343  1
  H+  H269  1  0.65251988  0.93768222  0.67707480  1
  H+  H270  1  0.52157054  0.14455004  0.33424053  1
  H+  H271  1  0.27021816  0.37988866  0.36285582  1
  H+  H272  1  0.86184749  0.88403071  0.33994201  1
  H+  H273  1  0.12159820  0.27258813  0.64890898  1
  H+  H274  1  0.59551669  0.82193821  0.64744284  1
  H+  H275  1  0.89932478  0.14611592  0.50165660  1
  H+  H276  1  0.23525917  0.11787983  0.82737570  1
  H+  H277  1  0.60920419  0.14350254  0.34661725  1
  H+  H278  1  0.35473630  0.46969787  0.66913189  1
  H+  H279  1  0.87969784  0.60919944  0.64406141  1
  H+  H280  1  0.85137434  0.12845449  0.67134080  1
  H+  H281  1  0.36231260  0.48099957  0.00249872  1
  H+  H282  1  0.86472782  0.38436844  0.33917636  1
  H+  H283  1  0.38430741  0.61213294  0.50536436  1
  H+  H284  1  0.61013017  0.11886243  0.15208158  1
  H+  H285  1  0.10819885  0.38677038  0.66659161  1
  H+  H286  1  -0.00773741  0.60950492  0.50555725  1
  H+  H287  1  0.10813555  0.88808903  0.49263674  1
  H+  H288  1  0.41499115  0.58186408  0.89494295  1
  H+  H289  1  0.82410214  0.91978339  0.08649356  1
  H+  H290  1  0.83329281  0.17220181  0.07111101  1
  H+  H291  1  0.11908209  0.18543838  0.10440705  1
  H+  H292  1  0.48897655  0.36348817  0.50660368  1
  H+  H293  1  0.08537359  0.66398300  0.11999511  1
  H+  H294  1  0.59144513  0.66987753  0.43995175  1
  H+  H295  1  0.40034223  0.08633335  0.88928189  1
  H+  H296  1  0.07921851  0.41150259  0.76467021  1
  H+  H297  1  0.63305623  1.00139295  -0.00239692  1
  H+  H298  1  0.73239950  0.67744493  0.87440589  1
  H+  H299  1  0.86037899  0.16730375  0.44350773  1
  H+  H300  1  0.37722921  0.97952885  0.08642004  1
  H+  H301  1  0.14126967  0.13450877  0.16985750  1
  H+  H302  1  0.64153084  0.61389430  0.67555837  1
  H+  H303  1  0.18465950  0.08960116  0.92429283  1
  H+  H304  1  0.51003102  0.08295969  0.74330756  1
  H+  H305  1  0.93249953  0.33258403  0.93655721  1
  H+  H306  1  0.58782344  0.91518636  0.43191770  1
  H+  H307  1  0.39417731  0.81844869  0.28669319  1
  H+  H308  1  0.66963730  0.83185867  0.26979517  1
  H+  H309  1  0.08793528  0.93444988  0.75113965  1
  H+  H310  1  0.11133287  0.82048803  0.23866975  1
  H+  H311  1  0.06922388  0.17059060  0.71492865  1
  H+  H312  1  0.57441529  0.66012444  0.73021857  1
  H+  H313  1  0.58896644  0.19500596  0.15744494  1
  H+  H314  1  0.77269783  0.35971249  0.17345687  1
  H+  H315  1  0.34942408  0.67595461  0.06368599  1
  H+  H316  1  0.82009668  0.92664872  0.75922522  1
  H+  H317  1  0.16979003  0.83620736  0.59612872  1
  H+  H318  1  0.66206100  0.82716927  0.56337861  1
  H+  H319  1  0.32901600  0.41724540  0.76179167  1
  H+  H320  1  0.42053546  0.83650601  0.56346274  1
  H+  H321  1  0.64295455  0.61260844  0.51251875  1
  H+  H322  1  0.41709121  0.97882816  0.09634893  1
  H+  H323  1  0.42482447  0.33340672  0.27092234  1
  H+  H324  1  0.16303506  0.57972304  0.56869563  1
  H+  H325  1  0.88620751  0.07113250  0.93485740  1
  H+  H326  1  0.33260281  0.17146425  0.75203424  1
  H+  H327  1  0.40860282  0.32979960  0.89185156  1
  H+  H328  1  0.20183153  0.88562489  0.29757018  1
  H+  H329  1  0.37766902  0.77584713  0.83255964  1
  H+  H330  1  0.15958011  0.83829330  0.88163333  1
  H+  H331  1  0.77619681  0.38581223  0.33725360  1
  H+  H332  1  0.72614917  0.12773749  0.99502609  1
  H+  H333  1  0.83013372  0.41151620  0.43229877  1
  H+  H334  1  0.14085567  0.94918892  0.09014285  1
  H+  H335  1  0.65021392  0.32393560  0.27228265  1
  H+  H336  1  0.90758632  0.12145631  0.83573586  1
  H+  H337  1  0.12909408  0.99033916  0.65082376  1
  H+  H338  1  0.82036675  0.16740965  0.72904983  1
  H+  H339  1  0.89434315  0.27121189  0.50970519  1
  H+  H340  1  0.49275684  0.52324924  0.21104613  1
  H+  H341  1  0.32666012  0.41980813  0.09569702  1
  H+  H342  1  0.90706349  0.57912005  0.26925663  1
  H+  H343  1  0.38681288  0.52472460  0.83400909  1
  H+  H344  1  0.57885720  0.92333711  0.76348613  1
  H+  H345  1  0.13429063  0.61077882  0.02503151  1
  H+  H346  1  0.43125895  0.55645664  0.27653018  1
  H+  H347  1  0.93982977  0.07646845  0.57481076  1
  H+  H348  1  0.64195525  0.81985332  0.91329265  1
  H+  H349  1  0.04426583  0.14702958  0.16025889  1
  H+  H350  1  0.32820537  0.65467962  0.73203526  1
  H+  H351  1  0.05181960  0.72629229  0.92536881  1
  H+  H352  1  0.04618021  0.66144659  0.83160245  1
  H+  H353  1  0.69783423  0.42460259  0.91281651  1
  H+  H354  1  0.54626486  0.12473236  0.73170547  1
  H+  H355  1  0.90030500  0.82813594  0.86787461  1
  H+  H356  1  0.92254665  0.57938475  0.59309736  1
  H+  H357  1  0.33198213  0.91626264  0.72512044  1
  H+  H358  1  0.92085230  0.83996725  0.56648166  1
  H+  H359  1  0.14270190  0.03209519  0.82856018  1
  H+  H360  1  0.76112536  0.90130837  0.48893465  1
  H+  H361  1  0.58180877  0.65523927  0.06463056  1
  H+  H362  1  0.35914167  0.14488993  0.18219868  1
  H+  H363  1  0.07885557  0.66857019  0.72472511  1
  H+  H364  1  0.85917276  0.47375135  -0.01847131  1
  H+  H365  1  0.62549759  0.93059900  0.08163338  1
  H+  H366  1  0.61356330  0.42344791  0.44142059  1
  H+  H367  1  0.54867640  0.14448417  0.43408128  1
  H+  H368  1  0.13033202  0.61172249  0.65729546  1
  H+  H369  1  0.34086507  0.16736496  0.40259362  1
  H+  H370  1  0.35349510  0.93697732  0.44443004  1
  H+  H371  1  0.79282653  0.99180489  0.46040108  1
  H+  H372  1  0.65999318  0.07874242  0.55918160  1
  H+  H373  1  0.66843188  0.37693215  0.91466893  1
  H+  H374  1  0.67928975  0.09409079  0.28345930  1
  H+  H375  1  0.81039719  0.66471273  0.10369506  1
  H+  H376  1  0.16800451  0.33374540  0.93025658  1
  H+  H377  1  0.35831893  0.72333550  0.49671016  1
  H+  H378  1  0.07952573  0.41585598  0.43547111  1
  H+  H379  1  0.16986504  0.33211799  0.56204934  1
  H+  H380  1  0.02120219  0.38034733  0.33684107  1
  H+  H381  1  0.56384760  0.39745752  0.09792151  1
  H+  H382  1  0.90900993  0.82520936  0.27354608  1
  H+  H383  1  0.17568194  0.56184705  0.25630964  1
  O2-  O384  1  0.10722188  0.17880437  0.15102903  1
  O2-  O385  1  0.10745167  0.15553991  0.48687620  1
  O2-  O386  1  0.09711110  0.17656009  0.79888333  1
  O2-  O387  1  0.09344643  0.40021360  0.14764912  1
  O2-  O388  1  0.08315730  0.41254708  0.48019529  1
  O2-  O389  1  0.07823403  0.41160096  0.81012930  1
  O2-  O390  1  0.09956331  0.66551983  0.16505278  1
  O2-  O391  1  0.09985753  0.67707030  0.47708458  1
  O2-  O392  1  0.09360860  0.67907809  0.80229944  1
  O2-  O393  1  0.12623929  0.95498353  0.13267430  1
  O2-  O394  1  0.07570864  0.91415662  0.47575729  1
  O2-  O395  1  0.08021410  0.92902903  0.79666387  1
  O2-  O396  1  0.33107455  0.16806189  0.15551155  1
  O2-  O397  1  0.35627518  0.16942661  0.48561271  1
  O2-  O398  1  0.33543741  0.16973760  0.79792324  1
  O2-  O399  1  0.32211803  0.41604352  0.14143798  1
  O2-  O400  1  0.34067317  0.41155860  0.48428845  1
  O2-  O401  1  0.33200017  0.42122852  0.80741228  1
  O2-  O402  1  0.34014302  0.66281674  0.14466536  1
  O2-  O403  1  0.32713095  0.66273954  0.48067269  1
  O2-  O404  1  0.33271282  0.66997697  0.80948226  1
  O2-  O405  1  0.31685783  0.92863930  0.20027721  1
  O2-  O406  1  0.36099161  0.94328585  0.49035430  1
  O2-  O407  1  0.32866975  0.91819910  0.80404083  1
  O2-  O408  1  0.57738916  0.14345503  0.13360508  1
  O2-  O409  1  0.55342984  0.13122052  0.47810811  1
  O2-  O410  1  0.58544483  0.16854204  0.86884915  1
  O2-  O411  1  0.55762222  0.38800488  0.14299795  1
  O2-  O412  1  0.60640981  0.41574433  0.48636892  1
  O2-  O413  1  0.57492748  0.41021765  0.80634996  1
  O2-  O414  1  0.59020717  0.65704615  0.13941511  1
  O2-  O415  1  0.58936835  0.67052425  0.48591795  1
  O2-  O416  1  0.58103693  0.66745453  0.80888183  1
  O2-  O417  1  0.62794106  0.92049182  0.12783449  1
  O2-  O418  1  0.58586802  0.91472934  0.47778386  1
  O2-  O419  1  0.57904651  0.92198487  0.80852918  1
  O2-  O420  1  0.84197871  0.16311358  0.15354773  1
  O2-  O421  1  0.86175423  0.16857639  0.48854312  1
  O2-  O422  1  0.81931969  0.15560483  0.84694746  1
  O2-  O423  1  0.82680680  0.39805677  0.15337670  1
  O2-  O424  1  0.82753960  0.40886217  0.47761734  1
  O2-  O425  1  0.83133253  0.41213045  0.80989859  1
  O2-  O426  1  0.80841418  0.67013623  0.14841463  1
  O2-  O427  1  0.83731869  0.68350878  0.47821603  1
  O2-  O428  1  0.83030467  0.67454062  0.77067676  1
  O2-  O429  1  0.82807640  0.93680715  0.13032261  1
  O2-  O430  1  0.81170179  0.95040713  0.46808693  1
  O2-  O431  1  0.82298182  0.92612193  0.80548469  1
  O2-  O432  1  0.17311825  0.09634935  0.18620749  1
  O2-  O433  1  0.20125208  0.08988622  0.54968644  1
  O2-  O434  1  0.17671313  0.09092623  0.84648770  1
  O2-  O435  1  0.14889910  0.36751603  0.17131750  1
  O2-  O436  1  0.17414809  0.33366759  0.51549151  1
  O2-  O437  1  0.16796489  0.33450302  0.85202090  1
  O2-  O438  1  0.17714074  0.56592993  0.18555879  1
  O2-  O439  1  0.16818099  0.58104952  0.52267836  1
  O2-  O440  1  0.17142649  0.58699925  0.84512992  1
  O2-  O441  1  0.14010202  0.82977353  0.19928351  1
  O2-  O442  1  0.17769263  0.84266702  0.51902954  1
  O2-  O443  1  0.16580654  0.84702177  0.83706001  1
  O2-  O444  1  0.41159171  0.10406232  0.23437586  1
  O2-  O445  1  0.47085885  0.10519004  0.50779420  1
  O2-  O446  1  0.41029425  0.08582592  0.84551097  1
  O2-  O447  1  0.39903612  0.32769069  0.18716436  1
  O2-  O448  1  0.42779572  0.33575159  0.51850779  1
  O2-  O449  1  0.41014731  0.33228046  0.84666140  1
  O2-  O450  1  0.44974064  0.54271770  0.20668805  1
  O2-  O451  1  0.41781404  0.58589427  0.52174079  1
  O2-  O452  1  0.41946161  0.58517866  0.84975046  1
  O2-  O453  1  0.32800469  0.77798194  0.22804723  1
  O2-  O454  1  0.41368242  0.82847458  0.51724070  1
  O2-  O455  1  0.40418723  0.83686887  0.84627508  1
  O2-  O456  1  0.64531102  0.05307520  0.19739640  1
  O2-  O457  1  0.64560793  0.06608079  0.51342624  1
  O2-  O458  1  0.65573288  0.09502278  0.81536006  1
  O2-  O459  1  0.58805725  0.27532021  0.20288293  1
  O2-  O460  1  0.65358950  0.37045792  0.50128268  1
  O2-  O461  1  0.65855207  0.30996317  0.80596470  1
  O2-  O462  1  0.59243098  0.52570055  0.20950714  1
  O2-  O463  1  0.67831017  0.58909397  0.52851544  1
  O2-  O464  1  0.68752972  0.62211561  0.85907064  1
  O2-  O465  1  0.67682311  0.81747439  0.18857307  1
  O2-  O466  1  0.66363125  0.83199716  0.51817808  1
  O2-  O467  1  0.65967336  0.83708991  0.84402630  1
  O2-  O468  1  0.94098762  0.09481706  0.18859563  1
  O2-  O469  1  0.94843824  0.07951116  0.53013010  1
  O2-  O470  1  0.93484931  0.08847242  0.84876247  1
  O2-  O471  1  0.92671395  0.33030436  0.19246139  1
  O2-  O472  1  0.91988744  0.33294608  0.52254350  1
  O2-  O473  1  0.92068184  0.33273564  0.86060200  1
  O2-  O474  1  0.88511590  0.56331541  0.18524581  1
  O2-  O475  1  0.93577591  0.57433312  0.52535834  1
  O2-  O476  1  0.99704641  0.68008311  0.90266082  1
  O2-  O477  1  0.91901894  0.82666951  0.19612981  1
  O2-  O478  1  0.92306698  0.84535153  0.52133098  1
  O2-  O479  1  0.90839117  0.83825816  0.82379153  1
  O2-  O480  1  0.17001509  0.08258268  0.31822410  1
  O2-  O481  1  0.18793444  0.09227219  0.61381425  1
  O2-  O482  1  0.18713041  0.08580633  0.96988356  1
  O2-  O483  1  0.16587491  0.32495966  0.36885805  1
  O2-  O484  1  0.15943787  0.33418215  0.63418899  1
  O2-  O485  1  0.16940773  0.33576893  0.97595781  1
  O2-  O486  1  0.16706200  0.55768704  0.30256883  1
  O2-  O487  1  0.16002863  0.58056560  0.64258632  1
  O2-  O488  1  0.17502683  0.59108109  1.01498327  1
  O2-  O489  1  0.16667466  0.84895716  0.33060897  1
  O2-  O490  1  0.16849757  0.83653032  0.64171301  1
  O2-  O491  1  0.13192906  0.78993451  0.96181898  1
  O2-  O492  1  0.42185013  0.10466416  0.30078855  1
  O2-  O493  1  0.39980317  0.08249272  0.64185693  1
  O2-  O494  1  0.41426902  0.08566532  0.97722771  1
  O2-  O495  1  0.43065997  0.32934448  0.31519723  1
  O2-  O496  1  0.41675473  0.33684174  0.64507878  1
  O2-  O497  1  0.40544551  0.32946794  0.97410288  1
  O2-  O498  1  0.42467480  0.56271123  0.32191431  1
  O2-  O499  1  0.41294225  0.57454304  0.64796873  1
  O2-  O500  1  0.41143568  0.58297933  0.97487012  1
  O2-  O501  1  0.41934567  0.83551239  0.32885188  1
  O2-  O502  1  0.43168080  0.85423936  0.63334089  1
  O2-  O503  1  0.42527809  0.85689722  1.01048834  1
  O2-  O504  1  0.67543592  0.09397601  0.32800292  1
  O2-  O505  1  0.67092469  0.09995865  0.62747186  1
  O2-  O506  1  0.67011672  0.09165350  0.97449408  1
  O2-  O507  1  0.66732720  0.33819411  0.31552101  1
  O2-  O508  1  0.66491712  0.34842647  0.62267289  1
  O2-  O509  1  0.67291495  0.32930369  1.02647056  1
  O2-  O510  1  0.64079266  0.52315739  0.32509420  1
  O2-  O511  1  0.67057995  0.58008636  0.68507854  1
  O2-  O512  1  0.64810437  0.56026977  0.97684121  1
  O2-  O513  1  0.66968236  0.84044933  0.31431496  1
  O2-  O514  1  0.64431529  0.81298296  0.64185627  1
  O2-  O515  1  0.62553674  0.80850035  0.95869087  1
  O2-  O516  1  0.92804404  0.08555493  0.31098239  1
  O2-  O517  1  0.87962847  0.07607587  0.64582636  1
  O2-  O518  1  0.83511987  0.04814566  0.96123615  1
  O2-  O519  1  0.92175970  0.33141217  0.31659034  1
  O2-  O520  1  0.91355680  0.33500696  0.64687693  1
  O2-  O521  1  0.93004155  0.33455047  0.98245542  1
  O2-  O522  1  0.91384077  0.58353428  0.31383425  1
  O2-  O523  1  0.91423221  0.58167575  0.63933891  1
  O2-  O524  1  0.90908387  0.57838516  0.99484706  1
  O2-  O525  1  0.90205529  0.82280384  0.31886259  1
  O2-  O526  1  0.92157758  0.84069332  0.64700674  1
  O2-  O527  1  0.86078902  0.80504363  0.95156027  1
  O2-  O528  1  0.15497118  0.19992746  0.04123117  1
  O2-  O529  1  0.08712122  0.15804024  0.36515798  1
  O2-  O530  1  0.05930568  0.17633479  0.67142930  1
  O2-  O531  1  0.08931357  0.40700378  0.03257357  1
  O2-  O532  1  0.08332039  0.41383686  0.35133647  1
  O2-  O533  1  0.07931992  0.41616026  0.68561211  1
  O2-  O534  1  0.06848002  0.66183624  0.04794705  1
  O2-  O535  1  0.08786276  0.67344762  0.35401266  1
  O2-  O536  1  0.07942964  0.66799025  0.67937492  1
  O2-  O537  1  0.13569765  0.92212816  0.01010620  1
  O2-  O538  1  0.06997281  0.90885538  0.36220254  1
  O2-  O539  1  0.09824751  0.93563881  0.67449172  1
  O2-  O540  1  0.33807046  0.16185535  0.02407300  1
  O2-  O541  1  0.33579650  0.16949363  0.35766078  1
  O2-  O542  1  0.33231343  0.17411359  0.67669833  1
  O2-  O543  1  0.33213674  0.42120910  0.01954396  1
  O2-  O544  1  0.33391554  0.41155834  0.37290954  1
  O2-  O545  1  0.32178865  0.40875922  0.68409064  1
  O2-  O546  1  0.34649547  0.67945363  0.01875470  1
  O2-  O547  1  0.27698631  0.67887555  0.37224886  1
  O2-  O548  1  0.32830420  0.64556112  0.68727111  1
  O2-  O549  1  0.34466410  0.92927575  -0.02939203  1
  O2-  O550  1  0.33888865  0.92314931  0.37322203  1
  O2-  O551  1  0.33427813  0.91766765  0.67969233  1
  O2-  O552  1  0.56539900  0.15457206  0.01705880  1
  O2-  O553  1  0.57543328  0.17099218  0.35899071  1
  O2-  O554  1  0.57964707  0.17659733  0.61808987  1
  O2-  O555  1  0.56697997  0.39960133  0.02058503  1
  O2-  O556  1  0.60707918  0.44011221  0.35654042  1
  O2-  O557  1  0.57884457  0.40947702  0.68605703  1
  O2-  O558  1  0.57628152  0.64969280  0.01883711  1
  O2-  O559  1  0.59872189  0.67568002  0.36603092  1
  O2-  O560  1  0.57595061  0.65739376  0.68487148  1
  O2-  O561  1  0.60676403  0.93916726  0.01468451  1
  O2-  O562  1  0.58923724  0.92346845  0.35614080  1
  O2-  O563  1  0.60475600  0.94805193  0.68353173  1
  O2-  O564  1  0.82884527  0.17330270  0.02635018  1
  O2-  O565  1  0.84854891  0.16918552  0.36145819  1
  O2-  O566  1  0.82298743  0.16790181  0.68482470  1
  O2-  O567  1  0.82900488  0.41005882  -0.02748652  1
  O2-  O568  1  0.83604699  0.41639829  0.35322778  1
  O2-  O569  1  0.82206161  0.41600401  0.67898683  1
  O2-  O570  1  0.80941068  0.65007172  0.02122085  1
  O2-  O571  1  0.80573379  0.64379438  0.34943334  1
  O2-  O572  1  0.75757075  0.63113081  0.66113087  1
  O2-  O573  1  0.79565569  0.89593611  0.00898069  1
  O2-  O574  1  0.83570186  0.92125889  0.34959494  1
  O2-  O575  1  0.82122222  0.92042713  0.68631286  1
