# generated using pymatgen
data_H2O
_symmetry_space_group_name_H-M   'P 1'
_cell_length_a   17.95076398
_cell_length_b   17.95294276
_cell_length_c   21.97842732
_cell_angle_alpha   90.03292547
_cell_angle_beta   89.96516161
_cell_angle_gamma   119.95307382
_symmetry_Int_Tables_number   1
_chemical_formula_structural   H2O
_chemical_formula_sum   'H384 O192'
_cell_volume   6136.92607750
_cell_formula_units_Z   192
loop_
 _symmetry_equiv_pos_site_id
 _symmetry_equiv_pos_as_xyz
  1  'x, y, z'
loop_
 _atom_type_symbol
 _atom_type_oxidation_number
  H+  1.0
  O2-  -2.0
loop_
 _atom_site_type_symbol
 _atom_site_label
 _atom_site_symmetry_multiplicity
 _atom_site_fract_x
 _atom_site_fract_y
 _atom_site_fract_z
 _atom_site_occupancy
  H+  H0  1  0.25617499  0.85688567  0.84587342  1
  H+  H1  1  0.76527013  0.89440475  0.82230039  1
  H+  H2  1  0.43981297  0.34641755  0.64793236  1
  H+  H3  1  0.13059858  0.11101746  0.66914489  1
  H+  H4  1  0.80597122  0.40428717  0.15325278  1
  H+  H5  1  0.83829615  0.72034008  0.55442464  1
  H+  H6  1  0.60234660  0.11188783  -0.00702027  1
  H+  H7  1  0.60409444  0.12578198  0.68590301  1
  H+  H8  1  -0.01535481  0.38395987  0.19012651  1
  H+  H9  1  0.91576895  0.33763059  0.59395387  1
  H+  H10  1  0.41904007  0.37644645  0.17331463  1
  H+  H11  1  0.88958275  0.52377791  0.83365841  1
  H+  H12  1  0.63335572  0.49414013  0.33635889  1
  H+  H13  1  0.38943592  0.98273457  0.31236165  1
  H+  H14  1  0.38965860  0.35684346  0.32734074  1
  H+  H15  1  0.60340293  0.62828603  0.49573248  1
  H+  H16  1  0.61579439  0.13906729  0.84278640  1
  H+  H17  1  0.15881413  0.32439242  0.59706085  1
  H+  H18  1  0.14701440  0.13413359  0.18232180  1
  H+  H19  1  0.90735154  0.89057314  0.49458431  1
  H+  H20  1  0.47121353  0.55927862  0.86574207  1
  H+  H21  1  0.78021491  0.79414333  0.46019246  1
  H+  H22  1  0.05003592  0.12612493  0.33034152  1
  H+  H23  1  0.11052496  0.23608416  0.81095969  1
  H+  H24  1  0.57759410  0.87926344  0.17419795  1
  H+  H25  1  0.15731717  0.08664290  0.90093348  1
  H+  H26  1  0.38523455  0.11073500  0.84476325  1
  H+  H27  1  0.25711428  0.12083673  0.33050804  1
  H+  H28  1  0.48230869  0.61802377  0.17985630  1
  H+  H29  1  0.25410783  0.37324226  0.80817523  1
  H+  H30  1  0.95398653  0.83966572  0.51037835  1
  H+  H31  1  0.39791201  0.85888912  0.30932624  1
  H+  H32  1  0.39318097  0.76315264  0.32451122  1
  H+  H33  1  0.17630845  0.32883584  0.26337600  1
  H+  H34  1  0.13852698  0.77596348  1.01048192  1
  H+  H35  1  0.17190739  0.11959109  0.34915961  1
  H+  H36  1  0.22429862  0.87967893  0.52030534  1
  H+  H37  1  0.11868862  0.64399341  0.34218325  1
  H+  H38  1  0.88135254  0.60724306  0.66008446  1
  H+  H39  1  0.33196560  0.40976640  0.39596034  1
  H+  H40  1  0.15128816  0.33080156  0.75979325  1
  H+  H41  1  0.38462677  0.51830033  0.32904374  1
  H+  H42  1  0.47487343  0.10985345  0.99988423  1
  H+  H43  1  0.86708887  0.58929164  0.97824560  1
  H+  H44  1  0.18874884  0.83216660  0.22970812  1
  H+  H45  1  0.36525664  0.72544052  0.67404197  1
  H+  H46  1  0.98459510  0.62242214  0.32553037  1
  H+  H47  1  0.36819996  0.48113073  1.01839619  1
  H+  H48  1  0.71516026  0.85449572  0.33014858  1
  H+  H49  1  0.63895782  0.03096535  0.84564003  1
  H+  H50  1  0.60875549  0.76416216  0.17927196  1
  H+  H51  1  0.13655780  0.62243788  0.50687014  1
  H+  H52  1  0.88818081  0.27628867  0.84288158  1
  H+  H53  1  0.62355363  1.02307474  0.17295859  1
  H+  H54  1  0.64713786  0.28264593  0.31709129  1
  H+  H55  1  0.06956308  0.96453086  0.48865287  1
  H+  H56  1  0.54503237  0.40837116  0.00369257  1
  H+  H57  1  0.97766779  0.36836104  0.49972743  1
  H+  H58  1  0.62708620  0.76296009  0.33448676  1
  H+  H59  1  0.97152123  0.60718998  0.65847974  1
  H+  H60  1  0.39889413  0.62999917  0.82866442  1
  H+  H61  1  0.02491305  0.88678773  0.01141744  1
  H+  H62  1  0.36699304  0.81899622  0.86791119  1
  H+  H63  1  0.63586816  0.40872711  1.00765137  1
  H+  H64  1  0.35104486  0.46913354  0.66452217  1
  H+  H65  1  0.23740023  0.87259024  0.31853458  1
  H+  H66  1  0.72759563  0.10167429  0.32035318  1
  H+  H67  1  0.56567268  0.40110553  0.68968092  1
  H+  H68  1  0.07955536  0.34114183  0.20200036  1
  H+  H69  1  0.67916548  0.30213483  0.62529279  1
  H+  H70  1  0.34672693  0.37542968  0.81874685  1
  H+  H71  1  0.08163476  0.89611058  0.83263699  1
  H+  H72  1  0.44539893  0.87230334  0.16332315  1
  H+  H73  1  0.06370509  0.18746542  0.16302221  1
  H+  H74  1  0.14820771  0.87279227  0.30478537  1
  H+  H75  1  0.77255517  0.14358454  0.83375920  1
  H+  H76  1  0.73999313  0.38304656  0.49219440  1
  H+  H77  1  0.14725597  0.89756540  0.51128132  1
  H+  H78  1  0.66118306  0.53193719  0.65141608  1
  H+  H79  1  0.34352009  0.21297690  0.66994605  1
  H+  H80  1  0.64135980  0.27906926  0.85070342  1
  H+  H81  1  0.64773143  0.39228586  0.68556256  1
  H+  H82  1  0.25390423  0.85572935  0.17253227  1
  H+  H83  1  0.15233343  0.84163427  0.60463631  1
  H+  H84  1  0.10782344  0.38924652  0.66750052  1
  H+  H85  1  0.13222636  0.12142994  0.84026735  1
  H+  H86  1  0.02485986  0.36964459  0.01911132  1
  H+  H87  1  0.88879979  0.36959976  0.49890418  1
  H+  H88  1  0.54828620  0.39291833  0.16117180  1
  H+  H89  1  0.46400535  0.60591865  0.50368109  1
  H+  H90  1  0.87739656  0.36504688  0.00601403  1
  H+  H91  1  0.37647052  0.98833585  0.82763337  1
  H+  H92  1  0.23420758  0.09818986  0.48984326  1
  H+  H93  1  0.21118081  0.26067730  0.19194887  1
  H+  H94  1  0.10905160  0.37787308  0.81618576  1
  H+  H95  1  0.89449997  0.26297320  0.33115616  1
  H+  H96  1  0.28289568  0.39009659  1.03560700  1
  H+  H97  1  0.49510304  0.11517229  0.30973650  1
  H+  H98  1  0.12743302  0.02114837  0.99342441  1
  H+  H99  1  0.35693410  0.63629562  0.49025795  1
  H+  H100  1  0.60441003  0.24699952  0.47784205  1
  H+  H101  1  0.93858969  0.49879724  0.97596629  1
  H+  H102  1  0.80071876  0.38775439  1.00293578  1
  H+  H103  1  0.40276475  0.85864167  1.00841696  1
  H+  H104  1  0.60976203  0.88172574  0.33952180  1
  H+  H105  1  0.26945532  0.13450310  0.83138864  1
  H+  H106  1  0.10386820  0.58918447  0.85128948  1
  H+  H107  1  0.38759353  0.27379729  0.83980107  1
  H+  H108  1  0.22875501  0.61591795  0.66148018  1
  H+  H109  1  0.36593813  0.63454397  0.33868094  1
  H+  H110  1  0.12982253  0.27394489  0.32261471  1
  H+  H111  1  0.28612210  0.88134540  1.02176362  1
  H+  H112  1  0.35782965  0.47384079  0.49005068  1
  H+  H113  1  0.10209276  -0.00627196  0.82959080  1
  H+  H114  1  0.38020120  0.86539891  0.51336215  1
  H+  H115  1  0.36521083  0.20933092  0.48936238  1
  H+  H116  1  0.97416567  0.87500220  0.31801307  1
  H+  H117  1  0.63221159  0.39545800  0.33343085  1
  H+  H118  1  0.84591839  0.10014741  0.13997931  1
  H+  H119  1  0.25993003  0.60406109  0.15764660  1
  H+  H120  1  0.54734792  0.16175246  0.14577412  1
  H+  H121  1  1.02205354  0.53954761  0.93145464  1
  H+  H122  1  0.62390373  0.85853177  0.50826427  1
  H+  H123  1  0.65683390  0.07994041  0.90891222  1
  H+  H124  1  0.38202477  0.86431670  0.65976298  1
  H+  H125  1  0.60479233  0.42940726  0.10030086  1
  H+  H126  1  0.66268066  0.08324005  0.60586691  1
  H+  H127  1  0.15477162  0.90677304  0.16279000  1
  H+  H128  1  0.13982241  0.61763133  0.65904198  1
  H+  H129  1  0.95571727  0.87299259  0.84186237  1
  H+  H130  1  0.83228990  0.15583829  0.40373705  1
  H+  H131  1  0.60904094  -0.01872510  0.67539537  1
  H+  H132  1  0.85326572  0.29546539  0.23984684  1
  H+  H133  1  -0.02235121  0.36864425  0.65304860  1
  H+  H134  1  0.86242911  0.14776413  0.67698392  1
  H+  H135  1  0.35375512  0.61559002  0.16403595  1
  H+  H136  1  0.94211392  0.07534224  0.17569537  1
  H+  H137  1  0.37983009  0.77533791  0.50551516  1
  H+  H138  1  0.88021380  0.02831340  0.84257536  1
  H+  H139  1  0.49134722  0.86040434  0.32382932  1
  H+  H140  1  0.14805175  0.51379284  0.00895349  1
  H+  H141  1  0.03689616  0.63561647  0.00526135  1
  H+  H142  1  0.21743156  0.35571118  0.65641915  1
  H+  H143  1  0.51467614  0.88414502  0.49417765  1
  H+  H144  1  0.97439393  0.11622249  0.66726731  1
  H+  H145  1  0.86563532  0.73555499  0.33826135  1
  H+  H146  1  0.85708629  0.62458747  -0.01580772  1
  H+  H147  1  0.22593303  0.36358875  0.50215208  1
  H+  H148  1  0.13714131  0.36433282  0.50232644  1
  H+  H149  1  0.87357337  0.77605394  0.18581743  1
  H+  H150  1  0.23053912  0.61494172  0.32588812  1
  H+  H151  1  0.27520299  0.37917224  0.33545264  1
  H+  H152  1  0.36601200  0.99223308  0.51816159  1
  H+  H153  1  0.73036475  0.86745666  0.16492861  1
  H+  H154  1  0.07476892  0.42064905  0.76819444  1
  H+  H155  1  0.85998736  0.72584168  0.82502865  1
  H+  H156  1  0.38394672  0.24006746  0.15172724  1
  H+  H157  1  0.12188104  0.39065643  0.33587032  1
  H+  H158  1  0.37318098  0.49895605  0.84737806  1
  H+  H159  1  0.59031072  0.17841250  0.38352913  1
  H+  H160  1  0.86708491  0.38653278  0.83178258  1
  H+  H161  1  0.63823185  0.87019692  0.83240885  1
  H+  H162  1  0.09622316  0.92972943  0.24229595  1
  H+  H163  1  0.38353934  0.22311773  0.34129226  1
  H+  H164  1  0.86081358  0.89936347  0.33918881  1
  H+  H165  1  0.35420723  0.12825291  0.67260363  1
  H+  H166  1  0.63585029  0.62346502  1.00010907  1
  H+  H167  1  0.64621980  0.52706896  0.17287659  1
  H+  H168  1  0.46630544  0.35475567  0.49868790  1
  H+  H169  1  0.58563298  0.61791012  0.82860074  1
  H+  H170  1  0.56876232  0.65965757  0.73696090  1
  H+  H171  1  0.38472753  0.60376136  0.65508830  1
  H+  H172  1  0.60010219  0.71664044  0.49963521  1
  H+  H173  1  0.18615107  0.31463570  0.14525045  1
  H+  H174  1  0.87230364  0.64424052  0.82529352  1
  H+  H175  1  -0.01959817  0.36307692  0.84129641  1
  H+  H176  1  0.12203297  0.13763307  0.48069194  1
  H+  H177  1  0.68058508  0.37298872  0.54896137  1
  H+  H178  1  0.88251567  0.11850056  0.84382990  1
  H+  H179  1  0.10992322  0.21782827  0.67321841  1
  H+  H180  1  0.15962984  0.56682871  0.94889991  1
  H+  H181  1  0.02281961  0.63616248  0.82095721  1
  H+  H182  1  -0.04543763  0.43483860  0.14920936  1
  H+  H183  1  0.41033422  0.38170215  -0.00471311  1
  H+  H184  1  0.87020918  0.48376554  0.49000960  1
  H+  H185  1  0.87249356  0.39080737  0.67129821  1
  H+  H186  1  0.40414695  0.10944056  0.31532183  1
  H+  H187  1  0.52252577  0.89142584  0.83394286  1
  H+  H188  1  0.11520651  0.48245731  0.49244835  1
  H+  H189  1  0.12725644  0.23060744  0.48475305  1
  H+  H190  1  0.35713862  0.38292470  0.48848364  1
  H+  H191  1  0.87012979  0.15494421  0.49479937  1
  H+  H192  1  0.11482537  0.88836836  1.01210937  1
  H+  H193  1  0.66625963  0.28906584  0.16464899  1
  H+  H194  1  0.29101509  0.16219251  0.15976715  1
  H+  H195  1  0.61696715  0.63977991  0.16128978  1
  H+  H196  1  0.51715359  0.68469064  0.78417307  1
  H+  H197  1  0.86017879  1.01920707  0.48467798  1
  H+  H198  1  0.51945873  0.62625097  0.34320609  1
  H+  H199  1  0.92889045  0.32118589  0.93392988  1
  H+  H200  1  0.09629873  0.49701660  0.85716038  1
  H+  H201  1  0.32333104  0.16419306  0.05930525  1
  H+  H202  1  0.74674078  0.35880759  0.67692224  1
  H+  H203  1  0.97053846  0.89026581  0.65898780  1
  H+  H204  1  0.00796318  0.12836551  0.01134071  1
  H+  H205  1  0.09528898  0.51402302  0.18282674  1
  H+  H206  1  0.72250711  0.11586577  0.66563253  1
  H+  H207  1  0.64513537  0.12060284  0.16571673  1
  H+  H208  1  0.86859632  0.38979508  0.33636858  1
  H+  H209  1  0.89177737  0.03174188  0.45910846  1
  H+  H210  1  0.97638668  0.61796543  0.50730094  1
  H+  H211  1  0.40135637  0.52448396  0.18228194  1
  H+  H212  1  0.39805825  0.76661561  0.00749039  1
  H+  H213  1  0.11318578  0.48119470  0.66736450  1
  H+  H214  1  0.48229531  0.36522889  0.32775853  1
  H+  H215  1  0.52822185  0.64842200  1.00758151  1
  H+  H216  1  0.39160620  0.61389363  1.00118409  1
  H+  H217  1  0.84990362  0.99179121  0.66773181  1
  H+  H218  1  0.73123217  0.61779802  0.32816745  1
  H+  H219  1  0.40939219  0.13361153  0.15650996  1
  H+  H220  1  0.84913612  0.75562810  1.01998128  1
  H+  H221  1  0.53908218  0.87966802  1.02148075  1
  H+  H222  1  0.57486459  0.92346276  0.77061783  1
  H+  H223  1  0.87519355  0.72102874  0.53767240  1
  H+  H224  1  0.12416934  0.62959194  0.17513450  1
  H+  H225  1  0.60193989  0.47626436  0.48349593  1
  H+  H226  1  0.86528083  0.86491198  0.84076423  1
  H+  H227  1  0.37378523  0.97131756  0.01727453  1
  H+  H228  1  0.90971493  0.54263748  0.16574895  1
  H+  H229  1  1.02071381  0.14175393  0.82688038  1
  H+  H230  1  0.14120125  0.73853948  0.16901257  1
  H+  H231  1  0.90292569  0.24819964  0.98451135  1
  H+  H232  1  0.66999307  0.08100229  0.25992071  1
  H+  H233  1  0.12667305  1.01242707  0.66998081  1
  H+  H234  1  0.86982358  0.64812558  0.32953838  1
  H+  H235  1  0.91428734  0.57961975  0.56611945  1
  H+  H236  1  0.46684263  0.10987555  0.66800499  1
  H+  H237  1  0.78306509  0.64237631  0.66765875  1
  H+  H238  1  0.03767771  0.64811479  0.17017733  1
  H+  H239  1  0.89619021  0.53283539  0.32266461  1
  H+  H240  1  0.09595967  0.12366911  0.00895916  1
  H+  H241  1  0.83507126  0.58971816  0.47988102  1
  H+  H242  1  0.73878544  0.64652668  0.01656286  1
  H+  H243  1  0.21565924  0.11025330  0.99293920  1
  H+  H244  1  1.00335463  0.15408537  0.51172943  1
  H+  H245  1  0.03143695  0.38663887  0.33749558  1
  H+  H246  1  0.72249414  0.10979822  0.51199747  1
  H+  H247  1  0.10975549  0.74102867  0.49548240  1
  H+  H248  1  0.07241012  0.35758373  0.23152709  1
  H+  H249  1  0.62798947  0.14410311  0.32961601  1
  H+  H250  1  0.28149542  0.63192857  0.00856718  1
  H+  H251  1  0.37070263  0.12088371  0.50029105  1
  H+  H252  1  0.34473596  0.12142544  0.00512210  1
  H+  H253  1  0.62133530  0.73755217  0.01066462  1
  H+  H254  1  0.35484053  0.35071782  0.65198394  1
  H+  H255  1  0.12727799  0.98532934  0.30184971  1
  H+  H256  1  0.66939522  0.88801691  1.01538279  1
  H+  H257  1  0.41436378  0.83411360  0.60215588  1
  H+  H258  1  0.10495394  0.88940488  0.67641155  1
  H+  H259  1  0.13378580  0.35119536  1.05980872  1
  H+  H260  1  0.30887198  0.38897533  0.16962704  1
  H+  H261  1  0.14115759  0.52568012  0.32964747  1
  H+  H262  1  0.83925564  0.12284060  0.04429669  1
  H+  H263  1  0.10633613  0.72591812  0.67082761  1
  H+  H264  1  0.73318020  0.88630684  0.65995344  1
  H+  H265  1  0.51157416  0.20293533  0.45121162  1
  H+  H266  1  0.70650016  0.58435732  0.49479538  1
  H+  H267  1  0.64972815  0.53815761  1.00383734  1
  H+  H268  1  0.61509905  0.39416791  0.47992814  1
  H+  H269  1  0.87427267  0.64759650  0.16446682  1
  H+  H270  1  0.61713202  0.39761166  0.84284280  1
  H+  H271  1  0.21484588  0.86646884  0.66209028  1
  H+  H272  1  0.58930296  0.19307074  -0.03778586  1
  H+  H273  1  0.87180225  0.87334973  -0.00713940  1
  H+  H274  1  0.63931884  0.78556196  0.81315301  1
  H+  H275  1  0.51897005  0.89038210  0.67367172  1
  H+  H276  1  0.83026872  0.92993859  0.76601237  1
  H+  H277  1  0.70820190  0.84753593  0.50840283  1
  H+  H278  1  0.63503733  1.02124085  0.51257676  1
  H+  H279  1  0.13341752  0.26319365  1.04968709  1
  H+  H280  1  0.63079622  0.87758990  0.66316892  1
  H+  H281  1  0.85127884  0.85153652  0.18349005  1
  H+  H282  1  0.52304620  0.54304882  0.70595334  1
  H+  H283  1  0.65904894  0.29234895  1.00260759  1
  H+  H284  1  0.35485100  -0.02203408  0.66916046  1
  H+  H285  1  0.63587578  0.60916520  0.33351054  1
  H+  H286  1  0.85771914  0.23388756  0.48600737  1
  H+  H287  1  0.11932368  0.71725845  0.82620296  1
  H+  H288  1  0.58096635  0.52980131  0.84726546  1
  H+  H289  1  0.81472835  -0.03572256  1.00568374  1
  H+  H290  1  0.41226715  0.07182607  0.94315340  1
  H+  H291  1  0.08627898  0.68140592  0.43632349  1
  H+  H292  1  0.41948743  0.58230620  0.27165407  1
  H+  H293  1  0.07873481  0.16048261  0.73567148  1
  H+  H294  1  0.86649459  0.47822028  0.67365665  1
  H+  H295  1  0.61036822  0.97251144  0.33271413  1
  H+  H296  1  0.84111969  0.42671276  0.42792222  1
  H+  H297  1  0.65932942  0.84256299  0.60011513  1
  H+  H298  1  0.32740884  0.91907174  0.72784922  1
  H+  H299  1  0.85958793  0.23464086  0.67288659  1
  H+  H300  1  0.32407715  0.41079449  0.72668054  1
  H+  H301  1  0.80902182  0.62300926  0.42075448  1
  H+  H302  1  0.07999539  0.66824017  0.07059621  1
  H+  H303  1  0.78715257  0.89149086  0.10407244  1
  H+  H304  1  0.93452976  0.89082823  0.59377889  1
  H+  H305  1  0.05543473  0.13304659  0.10493585  1
  H+  H306  1  0.92750997  0.11170223  0.60564659  1
  H+  H307  1  0.93562433  0.13610858  0.34830521  1
  H+  H308  1  0.77942038  0.63795257  0.16989295  1
  H+  H309  1  0.86074360  0.43096995  0.09093473  1
  H+  H310  1  0.40017927  0.32120045  0.55535947  1
  H+  H311  1  0.15778026  0.31079466  0.93369072  1
  H+  H312  1  0.43591293  0.35555899  0.93280471  1
  H+  H313  1  0.82885970  0.17371833  0.77197575  1
  H+  H314  1  0.78151522  0.39309976  0.33279730  1
  H+  H315  1  0.73160675  0.36654116  0.84524439  1
  H+  H316  1  0.39878404  0.91591171  0.80936440  1
  H+  H317  1  0.44115644  0.09924175  0.21120470  1
  H+  H318  1  0.06623948  0.16823145  0.39674009  1
  H+  H319  1  0.99376601  0.22484868  0.54590354  1
  H+  H320  1  0.18932178  0.82798017  0.95189192  1
  H+  H321  1  0.35842998  0.90962144  0.10892324  1
  H+  H322  1  0.66735338  0.37840487  0.16735452  1
  H+  H323  1  0.33627303  0.66951642  0.39654738  1
  H+  H324  1  0.65714497  0.57239617  0.55994097  1
  H+  H325  1  0.32104628  0.92728952  0.45979392  1
  H+  H326  1  0.35253884  0.66653057  0.73126816  1
  H+  H327  1  0.60691691  0.43406585  0.78068984  1
  H+  H328  1  0.63770361  0.82132549  0.24014229  1
  H+  H329  1  0.41592941  0.57233757  0.94426354  1
  H+  H330  1  0.16835909  0.59058843  0.56420656  1
  H+  H331  1  0.89773968  0.83819621  0.27163024  1
  H+  H332  1  0.15559111  0.57521504  0.23919592  1
  H+  H333  1  0.17342441  0.85897462  0.86209784  1
  H+  H334  1  0.46706510  0.58425241  0.65415145  1
  H+  H335  1  0.59506869  0.42381808  0.39995698  1
  H+  H336  1  0.89719765  0.08353432  0.93683816  1
  H+  H337  1  0.84945825  -0.00612650  0.17438379  1
  H+  H338  1  0.40744086  0.72267842  0.82956091  1
  H+  H339  1  0.55100705  0.01290611  0.96284466  1
  H+  H340  1  0.43744570  0.33439718  0.23103391  1
  H+  H341  1  0.46824421  0.10147668  0.52003581  1
  H+  H342  1  0.37136513  0.92661495  0.37134308  1
  H+  H343  1  0.05175293  0.41135100  0.08430684  1
  H+  H344  1  0.41236215  0.08338345  0.60309779  1
  H+  H345  1  0.47767192  0.11533680  0.84856513  1
  H+  H346  1  0.62138043  0.59416970  0.65090247  1
  H+  H347  1  0.10299496  0.93726389  0.12360555  1
  H+  H348  1  0.85495886  0.90551690  0.66360532  1
  H+  H349  1  0.42946078  0.82390073  0.91975591  1
  H+  H350  1  0.36436723  0.42876875  0.10879337  1
  H+  H351  1  0.82635522  0.69478821  0.08330744  1
  H+  H352  1  0.35446151  0.15708798  0.39847481  1
  H+  H353  1  0.47431711  0.36506032  0.83590074  1
  H+  H354  1  0.84139598  0.97863597  0.35054564  1
  H+  H355  1  0.93821884  0.57630632  0.89176724  1
  H+  H356  1  0.08270938  0.66479683  0.72892443  1
  H+  H357  1  0.90166140  0.84116609  0.93553622  1
  H+  H358  1  0.22474473  0.10767043  0.66829288  1
  H+  H359  1  0.08940085  0.42273424  0.43303750  1
  H+  H360  1  0.58510688  0.66994307  0.10266109  1
  H+  H361  1  0.93195254  0.59392468  0.23002469  1
  H+  H362  1  0.07350919  0.92342492  0.73519492  1
  H+  H363  1  0.61260980  0.97605531  0.01931376  1
  H+  H364  1  0.57552980  0.91374840  0.43517869  1
  H+  H365  1  0.68193675  0.34663463  0.25947687  1
  H+  H366  1  0.33506435  0.65561696  0.07015791  1
  H+  H367  1  0.26982370  0.64014412  0.48878598  1
  H+  H368  1  0.57769015  0.65754435  0.40354698  1
  H+  H369  1  0.83815847  0.66337312  0.72915212  1
  H+  H370  1  0.60952658  0.21557073  0.69439802  1
  H+  H371  1  0.20543011  0.33328965  0.92792721  1
  H+  H372  1  0.68623804  0.34724546  0.94172352  1
  H+  H373  1  0.80649688  0.88141050  0.42675781  1
  H+  H374  1  0.12102105  0.73408336  0.33843363  1
  H+  H375  1  0.66702060  0.58371439  0.23358435  1
  H+  H376  1  0.32695311  0.15879018  0.77163396  1
  H+  H377  1  0.76442414  0.11039155  0.12818302  1
  H+  H378  1  0.58074223  0.16219958  0.78312587  1
  H+  H379  1  0.19980867  0.14148080  0.24291808  1
  H+  H380  1  0.60939726  0.18901244  0.08842321  1
  H+  H381  1  0.40299402  0.57389436  0.56225401  1
  H+  H382  1  0.57010749  0.91729376  0.11180817  1
  H+  H383  1  0.83779969  0.41303199  0.77013324  1
  O2-  O384  1  0.05381849  0.13093427  0.15090786  1
  O2-  O385  1  0.09224282  0.16997400  0.46933162  1
  O2-  O386  1  0.07882147  0.16640012  0.80837594  1
  O2-  O387  1  0.00583572  0.42845495  0.15799495  1
  O2-  O388  1  0.08614431  0.42117478  0.47841654  1
  O2-  O389  1  0.07616451  0.41196648  0.81254388  1
  O2-  O390  1  0.10101965  0.67196866  0.15773136  1
  O2-  O391  1  0.08391883  0.68043242  0.48173882  1
  O2-  O392  1  0.08430715  0.66081354  0.80649448  1
  O2-  O393  1  0.12966811  0.94456713  0.16387192  1
  O2-  O394  1  0.13074966  0.98660223  0.47698501  1
  O2-  O395  1  0.06503346  0.93306983  0.81141241  1
  O2-  O396  1  0.34585328  0.17959830  0.13820731  1
  O2-  O397  1  0.34247499  0.14977820  0.47425264  1
  O2-  O398  1  0.33011000  0.16031198  0.81674188  1
  O2-  O399  1  0.36899928  0.42796357  0.15476630  1
  O2-  O400  1  0.32669253  0.41317098  0.47374808  1
  O2-  O401  1  0.32033345  0.40825311  0.80185523  1
  O2-  O402  1  0.31925361  0.63696263  0.14286005  1
  O2-  O403  1  0.33060062  0.66995693  0.47356581  1
  O2-  O404  1  0.40512328  0.67815920  0.80208443  1
  O2-  O405  1  0.35758213  0.90572629  0.15498750  1
  O2-  O406  1  0.32869475  0.92371381  0.50331219  1
  O2-  O407  1  0.35127787  0.92769886  0.80938637  1
  O2-  O408  1  0.61046088  0.19020957  0.13327784  1
  O2-  O409  1  0.56076878  0.19446004  0.45677341  1
  O2-  O410  1  0.58343420  0.16858468  0.82844166  1
  O2-  O411  1  0.60902281  0.42762372  0.14579774  1
  O2-  O412  1  0.57842628  0.41701800  0.46301032  1
  O2-  O413  1  0.58617755  0.42417998  0.82312303  1
  O2-  O414  1  0.58298013  0.66708864  0.14810621  1
  O2-  O415  1  0.57267577  0.65869196  0.48066143  1
  O2-  O416  1  0.57397779  0.69010041  0.77785166  1
  O2-  O417  1  0.55461198  0.91469028  0.15599887  1
  O2-  O418  1  0.57606568  0.91125434  0.48018454  1
  O2-  O419  1  0.58001057  0.92817278  0.81576801  1
  O2-  O420  1  0.82057747  0.12504486  0.11048178  1
  O2-  O421  1  0.83089558  0.17149223  0.47488439  1
  O2-  O422  1  0.83256463  0.17389914  0.81721435  1
  O2-  O423  1  0.86474405  0.44184261  0.13617574  1
  O2-  O424  1  0.83730282  0.42298028  0.47332717  1
  O2-  O425  1  0.83443668  0.41421259  0.81538781  1
  O2-  O426  1  0.83954118  0.67509524  0.15476606  1
  O2-  O427  1  0.78542692  0.58358957  0.45593510  1
  O2-  O428  1  0.83995148  0.66915515  0.80598165  1
  O2-  O429  1  0.79014130  0.89003830  0.14891670  1
  O2-  O430  1  0.80021659  0.85461375  0.46847192  1
  O2-  O431  1  0.82962707  0.92837894  0.81089605  1
  O2-  O432  1  0.20538894  0.16385305  0.20083529  1
  O2-  O433  1  0.17189984  0.07510879  0.50160045  1
  O2-  O434  1  0.16008216  0.08767567  0.85494347  1
  O2-  O435  1  0.20697909  0.31417550  0.18764615  1
  O2-  O436  1  0.16439180  0.33043929  0.51641997  1
  O2-  O437  1  0.15506420  0.32663120  0.80372720  1
  O2-  O438  1  0.14633378  0.57173122  0.19361027  1
  O2-  O439  1  0.16592461  0.58985708  0.51858714  1
  O2-  O440  1  0.10111888  0.54650465  0.88131257  1
  O2-  O441  1  0.19090596  0.82730383  0.18418066  1
  O2-  O442  1  0.16047508  0.85381774  0.52712786  1
  O2-  O443  1  0.19834077  0.82186761  0.86521771  1
  O2-  O444  1  0.44890402  0.11189287  0.16735295  1
  O2-  O445  1  0.40934804  0.07707423  0.53507699  1
  O2-  O446  1  0.41496255  0.07934990  0.85928137  1
  O2-  O447  1  0.44600385  0.34121922  0.18636101  1
  O2-  O448  1  0.40483075  0.32175895  0.51013310  1
  O2-  O449  1  0.41341986  0.33559476  0.85017423  1
  O2-  O450  1  0.42333667  0.58473709  0.19775643  1
  O2-  O451  1  0.40233392  0.57597479  0.51605012  1
  O2-  O452  1  0.41259667  0.55446184  0.86841716  1
  O2-  O453  1  0.38070548  0.83941768  0.16667129  1
  O2-  O454  1  0.41246360  0.83451518  0.52303585  1
  O2-  O455  1  0.42214966  0.82181036  0.87347698  1
  O2-  O456  1  0.66670598  0.08380607  0.18363013  1
  O2-  O457  1  0.66499473  0.07923695  0.53105151  1
  O2-  O458  1  0.66973753  0.08989849  0.86369052  1
  O2-  O459  1  0.69775082  0.34846628  0.18345306  1
  O2-  O460  1  0.67722996  0.35596860  0.50652900  1
  O2-  O461  1  0.67339090  0.34004784  0.86479537  1
  O2-  O462  1  0.67193330  0.58779528  0.18870777  1
  O2-  O463  1  0.64905003  0.56829791  0.51362593  1
  O2-  O464  1  0.57031967  0.57532639  0.86200002  1
  O2-  O465  1  0.63061321  0.82371256  0.19539975  1
  O2-  O466  1  0.65120412  0.82706191  0.52788540  1
  O2-  O467  1  0.66973046  0.83874898  0.83835441  1
  O2-  O468  1  0.88172595  0.05561008  0.18650188  1
  O2-  O469  1  0.96156449  0.16375601  0.53588633  1
  O2-  O470  1  0.91099545  0.08747408  0.86109708  1
  O2-  O471  1  0.91146827  0.30617428  0.24844818  1
  O2-  O472  1  0.91654350  0.33670093  0.51413004  1
  O2-  O473  1  0.92061622  0.33630025  0.85957491  1
  O2-  O474  1  0.93953496  0.60150529  0.18469621  1
  O2-  O475  1  0.91563708  0.57964238  0.52030391  1
  O2-  O476  1  0.92428454  0.58406663  0.84898035  1
  O2-  O477  1  0.88939166  0.83318741  0.20304312  1
  O2-  O478  1  0.96109648  0.89720318  0.51311225  1
  O2-  O479  1  0.89706144  0.83679230  0.85810872  1
  O2-  O480  1  0.19587733  0.10079343  0.31687785  1
  O2-  O481  1  0.16071673  0.07761606  0.65507888  1
  O2-  O482  1  0.15346044  0.08131347  0.97765798  1
  O2-  O483  1  0.17025927  0.33319980  0.30809411  1
  O2-  O484  1  0.15582429  0.32281747  0.64244601  1
  O2-  O485  1  0.16708590  0.32116664  1.06835115  1
  O2-  O486  1  0.16875936  0.58592032  0.31350737  1
  O2-  O487  1  0.16970898  0.58688949  0.64339679  1
  O2-  O488  1  0.17962639  0.57217075  0.99154774  1
  O2-  O489  1  0.17709594  0.83679573  0.30511588  1
  O2-  O490  1  0.15266433  0.83747348  0.65019246  1
  O2-  O491  1  0.18193285  0.83603659  0.99530727  1
  O2-  O492  1  0.43393253  0.08110806  0.29585513  1
  O2-  O493  1  0.40785397  0.08274861  0.65077548  1
  O2-  O494  1  0.41274512  0.07146433  0.98825980  1
  O2-  O495  1  0.42288294  0.32818542  0.31383605  1
  O2-  O496  1  0.38029422  0.31480358  0.63452868  1
  O2-  O497  1  0.45092374  0.36652190  0.97646107  1
  O2-  O498  1  0.41592716  0.58058322  0.31780430  1
  O2-  O499  1  0.40483962  0.56661990  0.63628469  1
  O2-  O500  1  0.42344629  0.58268408  0.98937801  1
  O2-  O501  1  0.42855802  0.82411628  0.30561918  1
  O2-  O502  1  0.41574748  0.83615447  0.64769678  1
  O2-  O503  1  0.43326843  0.82845601  0.99302853  1
  O2-  O504  1  0.66745346  0.07685135  0.30602881  1
  O2-  O505  1  0.66120510  0.08309322  0.65205013  1
  O2-  O506  1  0.60932399  0.05234088  0.97690345  1
  O2-  O507  1  0.67607342  0.34536708  0.30546063  1
  O2-  O508  1  0.68156372  0.32185264  0.66689007  1
  O2-  O509  1  0.69262381  0.35246110  0.98730754  1
  O2-  O510  1  0.66820675  0.58050261  0.31723396  1
  O2-  O511  1  0.66994100  0.58507281  0.63185781  1
  O2-  O512  1  0.67656980  0.60104568  0.99123474  1
  O2-  O513  1  0.65302682  0.82321212  0.31872980  1
  O2-  O514  1  0.66604309  0.85104090  0.64618900  1
  O2-  O515  1  0.70000483  0.85900004  0.99649597  1
  O2-  O516  1  0.87226748  0.09707950  0.34642645  1
  O2-  O517  1  0.91596520  0.09583702  0.64952030  1
  O2-  O518  1  0.89314020  0.07866390  0.98320743  1
  O2-  O519  1  0.91985084  0.32343957  0.31485386  1
  O2-  O520  1  0.91582710  0.33727047  0.63944444  1
  O2-  O521  1  0.92813497  0.31108877  0.97915656  1
  O2-  O522  1  0.92559703  0.59298250  0.30713211  1
  O2-  O523  1  0.91097981  0.57435193  0.64368017  1
  O2-  O524  1  0.98148795  0.55198088  0.95440796  1
  O2-  O525  1  0.91052649  0.84455171  0.31807297  1
  O2-  O526  1  0.91764619  0.87768214  0.63692995  1
  O2-  O527  1  0.90625083  0.84659877  0.98120561  1
  O2-  O528  1  0.06514683  0.15019303  0.03040301  1
  O2-  O529  1  0.05013399  0.17274075  0.35324903  1
  O2-  O530  1  0.08099632  0.15740436  0.68896842  1
  O2-  O531  1  0.07585822  0.40352739  0.04598015  1
  O2-  O532  1  0.09139577  0.41989221  0.35289408  1
  O2-  O533  1  0.07829487  0.42024775  0.68188232  1
  O2-  O534  1  0.06301809  0.68588899  0.03344826  1
  O2-  O535  1  0.08825581  0.67481223  0.35577539  1
  O2-  O536  1  0.08096397  0.66463231  0.68327978  1
  O2-  O537  1  0.08487751  0.91924233  0.02594409  1
  O2-  O538  1  0.09357760  0.92497477  0.28770021  1
  O2-  O539  1  0.07832635  0.92508914  0.68974203  1
  O2-  O540  1  0.31253167  0.15113585  0.01521067  1
  O2-  O541  1  0.35624814  0.16103864  0.35257920  1
  O2-  O542  1  0.31875978  0.15461516  0.68824911  1
  O2-  O543  1  0.34644131  0.42201964  0.03586447  1
  O2-  O544  1  0.33588263  0.40879414  0.35042873  1
  O2-  O545  1  0.32034683  0.40769918  0.68046366  1
  O2-  O546  1  0.34242135  0.66459435  0.02458440  1
  O2-  O547  1  0.33903810  0.67033980  0.35061022  1
  O2-  O548  1  0.33583477  0.66448282  0.68772166  1
  O2-  O549  1  0.34846018  0.91106175  0.03347170  1
  O2-  O550  1  0.35883744  0.92015110  0.32791063  1
  O2-  O551  1  0.32309284  0.91594645  0.68291258  1
  O2-  O552  1  0.58727002  0.17242165  0.00358960  1
  O2-  O553  1  0.59851302  0.17782134  0.33866789  1
  O2-  O554  1  0.57316388  0.15384330  0.70462333  1
  O2-  O555  1  0.60509372  0.43834799  0.02281613  1
  O2-  O556  1  0.60282997  0.42794300  0.35097335  1
  O2-  O557  1  0.62682046  0.43211745  0.69859578  1
  O2-  O558  1  0.58894520  0.67672912  0.02369685  1
  O2-  O559  1  0.58081434  0.65631560  0.35789403  1
  O2-  O560  1  0.54582704  0.59556631  0.68179224  1
  O2-  O561  1  0.59802126  0.91873968  0.03796149  1
  O2-  O562  1  0.57733383  0.91264721  0.35023682  1
  O2-  O563  1  0.57958314  0.91951062  0.68976182  1
  O2-  O564  1  0.85359872  0.13163190  -0.00258963  1
  O2-  O565  1  0.83601737  0.15375517  0.35701263  1
  O2-  O566  1  0.82930545  0.17571553  0.69095654  1
  O2-  O567  1  0.86117024  0.40931062  0.01678056  1
  O2-  O568  1  0.84152319  0.42360026  0.34925394  1
  O2-  O569  1  0.84077032  0.41766519  0.69084566  1
  O2-  O570  1  0.80555181  0.70416496  0.04332047  1
  O2-  O571  1  0.83459688  0.67207886  0.34648645  1
  O2-  O572  1  0.84069502  0.65958970  0.68368978  1
  O2-  O573  1  0.78810975  0.90416561  0.02168035  1
  O2-  O574  1  0.81948316  0.91659081  0.35671690  1
  O2-  O575  1  0.81772831  0.92964628  0.68021705  1
