# generated using pymatgen
data_H2O
_symmetry_space_group_name_H-M   'P 1'
_cell_length_a   17.99603033
_cell_length_b   17.99345134
_cell_length_c   22.00714263
_cell_angle_alpha   89.99778870
_cell_angle_beta   89.98706782
_cell_angle_gamma   119.99448886
_symmetry_Int_Tables_number   1
_chemical_formula_structural   H2O
_chemical_formula_sum   'H384 O192'
_cell_volume   6171.76779270
_cell_formula_units_Z   192
loop_
 _symmetry_equiv_pos_site_id
 _symmetry_equiv_pos_as_xyz
  1  'x, y, z'
loop_
 _atom_type_symbol
 _atom_type_oxidation_number
  H+  1.0
  O2-  -2.0
loop_
 _atom_site_type_symbol
 _atom_site_label
 _atom_site_symmetry_multiplicity
 _atom_site_fract_x
 _atom_site_fract_y
 _atom_site_fract_z
 _atom_site_occupancy
  H+  H0  1  -0.01242114  0.36448699  0.49755673  1
  H+  H1  1  0.26516325  0.12107204  0.48776744  1
  H+  H2  1  0.62391026  0.64177866  0.49303895  1
  H+  H3  1  0.96953286  0.82434614  0.19124489  1
  H+  H4  1  0.13934134  0.52192717  0.65942505  1
  H+  H5  1  0.93662571  0.89119376  0.66938420  1
  H+  H6  1  0.15505013  0.82418301  0.49951961  1
  H+  H7  1  0.76641906  0.63258637  0.99922476  1
  H+  H8  1  0.22493100  0.36192190  0.32833385  1
  H+  H9  1  0.89212114  0.87298350  0.50895899  1
  H+  H10  1  0.98273122  0.87401514  0.83405914  1
  H+  H11  1  0.41136579  1.00495393  0.35721232  1
  H+  H12  1  0.36751230  0.21578180  0.15929674  1
  H+  H13  1  0.39482596  0.79200197  0.32614194  1
  H+  H14  1  0.40278825  0.13710418  0.50153823  1
  H+  H15  1  0.47437308  0.85834206  0.98720972  1
  H+  H16  1  0.11053221  0.97547204  -0.01997778  1
  H+  H17  1  0.46106056  0.52282694  0.53944702  1
  H+  H18  1  0.38260363  0.99378599  0.00365284  1
  H+  H19  1  0.33635576  0.66818580  0.39688202  1
  H+  H20  1  0.38711530  0.26385018  0.32589557  1
  H+  H21  1  0.11337476  0.12138980  -0.00402257  1
  H+  H22  1  0.73445447  0.12183468  0.82804482  1
  H+  H23  1  0.61291865  0.00002023  0.16068647  1
  H+  H24  1  0.95032152  0.59254206  0.30669913  1
  H+  H25  1  0.97270272  0.12708133  0.82243015  1
  H+  H26  1  0.61793632  0.98405722  0.34977336  1
  H+  H27  1  0.66306037  0.73059044  0.15758118  1
  H+  H28  1  0.63641074  0.86698598  0.34607219  1
  H+  H29  1  0.34029743  0.35056738  0.66067042  1
  H+  H30  1  0.10930962  0.37784827  -0.00177665  1
  H+  H31  1  0.25526328  0.36369068  0.48923820  1
  H+  H32  1  0.64949050  0.77138704  0.70462761  1
  H+  H33  1  0.37394892  0.11257297  -0.01644439  1
  H+  H34  1  0.02576624  0.95775080  0.12178356  1
  H+  H35  1  0.87323863  0.73271632  0.49377286  1
  H+  H36  1  0.36205148  0.88784702  0.66712194  1
  H+  H37  1  0.12843780  0.76339737  -0.03606418  1
  H+  H38  1  0.47748822  0.12893090  0.33280170  1
  H+  H39  1  0.83566593  0.46146284  0.82401978  1
  H+  H40  1  0.97182603  0.85576244  0.97793382  1
  H+  H41  1  0.47949436  0.62531087  0.32364074  1
  H+  H42  1  0.72723887  0.37235005  0.60796105  1
  H+  H43  1  0.12579323  0.63865981  0.50419050  1
  H+  H44  1  0.53416905  0.63847200  0.49942688  1
  H+  H45  1  0.09006259  0.41666688  0.72883775  1
  H+  H46  1  0.28322980  0.85629256  0.30237912  1
  H+  H47  1  0.52081453  0.38986512  0.84051210  1
  H+  H48  1  0.61144549  0.46072345  0.15680367  1
  H+  H49  1  -0.02536755  0.36150164  0.17186971  1
  H+  H50  1  0.23257402  0.59873336  0.50919760  1
  H+  H51  1  0.87729395  0.60429509  0.14035808  1
  H+  H52  1  0.78768607  0.15955745  0.65046397  1
  H+  H53  1  0.41458503  0.58591704  0.22588100  1
  H+  H54  1  0.14581653  0.78507598  0.82004206  1
  H+  H55  1  0.17330436  0.13966104  0.84213205  1
  H+  H56  1  0.52486589  0.37855852  0.33895519  1
  H+  H57  1  0.59754114  0.24206655  0.00765090  1
  H+  H58  1  0.11024425  0.07712681  0.48867036  1
  H+  H59  1  0.85591752  0.46293344  0.33749420  1
  H+  H60  1  0.12109819  0.60019833  0.98271007  1
  H+  H61  1  0.87692694  0.73391980  0.67091645  1
  H+  H62  1  0.83788311  0.22554974  1.02314967  1
  H+  H63  1  0.58379758  0.92758312  0.89185998  1
  H+  H64  1  0.98701875  0.37280950  0.65660569  1
  H+  H65  1  0.27657978  0.87391177  0.33172814  1
  H+  H66  1  0.87829209  0.60798065  0.98631436  1
  H+  H67  1  0.40514659  0.82900042  0.89457355  1
  H+  H68  1  0.85204354  0.37943437  -0.01779182  1
  H+  H69  1  0.72801415  0.11810274  0.34153739  1
  H+  H70  1  0.97899067  0.35531492  0.97722907  1
  H+  H71  1  0.11687217  0.47406838  0.82022304  1
  H+  H72  1  0.77405816  0.39391452  0.17807485  1
  H+  H73  1  0.21624808  0.59106697  0.15266176  1
  H+  H74  1  0.36718613  0.89421531  0.81886363  1
  H+  H75  1  0.85927678  0.87757973  -0.00312839  1
  H+  H76  1  0.13441443  0.51912067  -0.01262917  1
  H+  H77  1  0.72778535  0.35732280  0.33497847  1
  H+  H78  1  0.37991769  0.26183419  0.50532337  1
  H+  H79  1  0.36328816  0.74687234  0.17586934  1
  H+  H80  1  0.63733984  0.86336748  0.00173294  1
  H+  H81  1  0.51257454  0.15756704  0.68322897  1
  H+  H82  1  0.12133315  0.25199529  0.66024233  1
  H+  H83  1  0.38114083  0.27291603  0.83283612  1
  H+  H84  1  0.60858839  0.38582004  -0.00745810  1
  H+  H85  1  0.87370414  0.64358131  0.49292348  1
  H+  H86  1  0.88022338  1.01304656  0.32771543  1
  H+  H87  1  0.13124362  0.93643522  0.49497424  1
  H+  H88  1  0.36589355  0.12565082  0.16149840  1
  H+  H89  1  0.78077765  0.63796352  0.81809933  1
  H+  H90  1  0.47267499  0.35679969  0.98925748  1
  H+  H91  1  0.90282151  1.09448145  0.56525370  1
  H+  H92  1  0.48522147  0.12081769  0.19069797  1
  H+  H93  1  0.87213449  0.85257144  0.32851365  1
  H+  H94  1  0.22676675  0.60948788  0.83422583  1
  H+  H95  1  0.37216316  0.88940327  0.17612736  1
  H+  H96  1  0.03026501  0.39076838  0.33674065  1
  H+  H97  1  0.34111989  0.75510511  0.01505871  1
  H+  H98  1  0.49987735  0.57876795  0.14429029  1
  H+  H99  1  0.76724243  0.88303071  0.49125357  1
  H+  H100  1  0.51457800  0.93244651  0.16048195  1
  H+  H101  1  0.27189851  0.79796241  0.10547229  1
  H+  H102  1  0.12623191  0.25436884  0.49966194  1
  H+  H103  1  0.39829697  0.87844315  0.98823992  1
  H+  H104  1  0.64457429  0.37449149  0.51097430  1
  H+  H105  1  0.87006951  0.22601118  0.16830089  1
  H+  H106  1  0.20367367  0.06534207  0.66996804  1
  H+  H107  1  0.60949953  0.47215680  0.34129222  1
  H+  H108  1  0.89417607  0.52729495  0.50161315  1
  H+  H109  1  0.39285063  0.53722435  0.32457817  1
  H+  H110  1  0.80557871  0.00340135  0.62744033  1
  H+  H111  1  0.26780413  0.38645055  0.83367359  1
  H+  H112  1  0.88968655  0.35770216  0.32999585  1
  H+  H113  1  0.73697755  0.11985557  0.18510283  1
  H+  H114  1  0.14594695  0.87239900  0.81488231  1
  H+  H115  1  0.73161683  0.60230346  0.65307450  1
  H+  H116  1  0.37606024  0.34759545  0.50576263  1
  H+  H117  1  0.23075089  0.84255294  0.14650606  1
  H+  H118  1  0.38905794  0.02879990  0.65347474  1
  H+  H119  1  0.91860499  1.00262343  0.68104452  1
  H+  H120  1  0.78853074  0.84340386  0.66606979  1
  H+  H121  1  0.15043281  0.03577591  0.18448762  1
  H+  H122  1  0.86473083  0.09939899  0.64980765  1
  H+  H123  1  0.89573853  0.27216747  0.33150451  1
  H+  H124  1  0.00650113  0.62491806  -0.00612716  1
  H+  H125  1  0.72563539  0.85908281  0.00321071  1
  H+  H126  1  0.12034958  0.25764182  0.83499268  1
  H+  H127  1  0.63058472  0.86610944  0.50068146  1
  H+  H128  1  0.31135574  0.56707887  0.07541469  1
  H+  H129  1  0.76303777  0.62140711  0.15716341  1
  H+  H130  1  0.12388682  0.99761652  0.82943430  1
  H+  H131  1  0.11397483  0.38254383  0.66838085  1
  H+  H132  1  0.41022039  1.02425434  0.19330013  1
  H+  H133  1  0.85531143  0.47674398  0.64816215  1
  H+  H134  1  0.22803556  0.61975656  0.32184637  1
  H+  H135  1  0.86651114  0.39169225  0.17389414  1
  H+  H136  1  0.13939014  0.61204104  0.65679931  1
  H+  H137  1  0.09411412  0.12657303  0.67859942  1
  H+  H138  1  0.63104512  0.73474043  0.13776786  1
  H+  H139  1  0.56075005  0.60153099  0.70596370  1
  H+  H140  1  0.96423431  0.85966734  0.32944801  1
  H+  H141  1  0.61838826  0.14451160  0.18562981  1
  H+  H142  1  0.89741673  0.27836732  0.50428209  1
  H+  H143  1  0.86419645  0.58951231  0.32680786  1
  H+  H144  1  0.96881228  0.10391039  0.32815831  1
  H+  H145  1  0.01427625  0.13299799  0.49172968  1
  H+  H146  1  0.64061131  0.36491861  0.17702183  1
  H+  H147  1  0.27086518  0.13647910  0.34263643  1
  H+  H148  1  0.71829505  0.10153938  0.99115226  1
  H+  H149  1  0.24960254  0.66963028  0.01407715  1
  H+  H150  1  0.38188027  0.76620383  0.65768086  1
  H+  H151  1  1.05170804  0.91044846  0.66709034  1
  H+  H152  1  0.68090323  0.84000903  0.90886665  1
  H+  H153  1  0.46251635  0.60940903  0.86915788  1
  H+  H154  1  0.61740493  0.23333264  0.18391249  1
  H+  H155  1  0.61401087  0.23552762  0.35407299  1
  H+  H156  1  0.36616302  0.64716274  0.33524016  1
  H+  H157  1  0.13808595  0.60888902  0.16754833  1
  H+  H158  1  0.27520102  0.63065448  0.67284205  1
  H+  H159  1  0.40430192  1.03739871  0.82859906  1
  H+  H160  1  0.40964429  0.76328785  0.16833754  1
  H+  H161  1  0.13022604  0.26211475  0.98827103  1
  H+  H162  1  0.73396441  0.61481277  0.49831379  1
  H+  H163  1  0.61026158  0.93145302  0.65091236  1
  H+  H164  1  0.44895012  0.56726511  0.65864956  1
  H+  H165  1  0.39479087  0.35618492  0.32475582  1
  H+  H166  1  0.92140619  0.33323719  0.23492455  1
  H+  H167  1  0.98943155  0.11989797  0.18045465  1
  H+  H168  1  0.34489652  0.45192517  0.49877956  1
  H+  H169  1  0.21909716  0.10858546  0.98545878  1
  H+  H170  1  0.63208937  0.60735791  0.99083750  1
  H+  H171  1  0.71853123  0.60618136  0.32842414  1
  H+  H172  1  0.60529231  0.44539495  0.67434459  1
  H+  H173  1  0.50447160  0.63372446  1.00691455  1
  H+  H174  1  0.85559115  0.46827832  0.99018365  1
  H+  H175  1  0.13333029  0.14658228  0.16737430  1
  H+  H176  1  0.35479778  0.24574316  0.65857230  1
  H+  H177  1  0.10921343  0.69517074  0.54835897  1
  H+  H178  1  0.63112293  0.60891636  0.32621269  1
  H+  H179  1  0.61297359  -0.02673076  0.99984721  1
  H+  H180  1  1.02442772  0.38925994  0.81380710  1
  H+  H181  1  0.76578305  0.88157749  0.34129843  1
  H+  H182  1  0.10921159  0.13822060  0.33986454  1
  H+  H183  1  0.72149967  0.36459150  0.97348289  1
  H+  H184  1  0.37610654  0.51345075  1.00254002  1
  H+  H185  1  0.11844606  0.48264713  0.33413236  1
  H+  H186  1  0.71152986  0.33805044  0.82076120  1
  H+  H187  1  0.84221204  0.14917791  0.40653095  1
  H+  H188  1  0.80487221  0.85562001  0.63415787  1
  H+  H189  1  0.98612777  0.88806475  0.50611651  1
  H+  H190  1  0.51197726  0.90603617  0.65870902  1
  H+  H191  1  0.36088625  0.13476649  0.34112956  1
  H+  H192  1  0.59913708  0.37694855  0.82590794  1
  H+  H193  1  0.52278269  0.37240577  0.15496647  1
  H+  H194  1  0.13154423  0.85085512  -0.04158708  1
  H+  H195  1  0.06354640  0.65326682  0.21950348  1
  H+  H196  1  0.98323018  0.16474266  0.97279548  1
  H+  H197  1  0.92064372  0.07652369  0.23453692  1
  H+  H198  1  0.08071890  0.92919060  0.39194890  1
  H+  H199  1  0.17215328  0.08850671  0.91662315  1
  H+  H200  1  0.75441221  0.88076570  0.14158236  1
  H+  H201  1  0.87178166  0.13660989  0.16736021  1
  H+  H202  1  0.37846744  0.59557816  0.16026540  1
  H+  H203  1  0.44275805  0.46981324  0.37674721  1
  H+  H204  1  0.60738757  0.71673453  0.87117799  1
  H+  H205  1  0.89252090  0.62007878  0.65662195  1
  H+  H206  1  0.88967525  0.14907931  -0.01197426  1
  H+  H207  1  0.64098051  0.36395859  0.33698660  1
  H+  H208  1  0.36306087  0.46540292  0.15956832  1
  H+  H209  1  0.64919492  0.84095447  0.28129845  1
  H+  H210  1  0.65284917  0.74628687  0.67835046  1
  H+  H211  1  0.85361396  0.71622255  0.33985660  1
  H+  H212  1  1.02690883  0.64065441  0.66495476  1
  H+  H213  1  0.59220942  0.57326055  0.64932080  1
  H+  H214  1  0.13087969  0.02907231  0.32896833  1
  H+  H215  1  0.61107600  0.72932233  0.34225999  1
  H+  H216  1  0.38815564  0.01747429  0.50563286  1
  H+  H217  1  0.90734956  0.89630515  0.15622082  1
  H+  H218  1  0.33663731  0.44541710  0.66638660  1
  H+  H219  1  0.12905883  0.34599174  0.49918598  1
  H+  H220  1  0.79845562  0.08237839  0.50659161  1
  H+  H221  1  0.11950051  0.46980893  0.49178012  1
  H+  H222  1  0.24499974  0.11784135  0.17979438  1
  H+  H223  1  0.48951873  0.13107538  0.83586894  1
  H+  H224  1  0.36938909  0.60306854  0.48977896  1
  H+  H225  1  0.66094242  1.02429262  0.51461699  1
  H+  H226  1  0.87371086  0.49869786  0.15149417  1
  H+  H227  1  -0.01534912  0.61606173  0.50581170  1
  H+  H228  1  0.14061931  0.27693020  0.17536742  1
  H+  H229  1  -0.02925455  0.60801809  0.15046386  1
  H+  H230  1  -0.03234277  0.59992403  0.83495355  1
  H+  H231  1  0.35988563  0.63493965  0.82983113  1
  H+  H232  1  0.86484789  0.14699407  0.80867409  1
  H+  H233  1  0.52447061  0.90183699  0.49869274  1
  H+  H234  1  0.35808583  0.39205517  0.83186203  1
  H+  H235  1  0.38428498  0.35059991  0.16985436  1
  H+  H236  1  0.51339255  0.15437354  0.01027892  1
  H+  H237  1  0.09483483  0.72205441  0.16849134  1
  H+  H238  1  0.11659283  0.72929632  0.66791729  1
  H+  H239  1  0.88024943  0.24214940  0.65721085  1
  H+  H240  1  0.35624880  0.22332258  1.00478949  1
  H+  H241  1  0.87135369  0.89711768  0.82920563  1
  H+  H242  1  0.57580083  0.65733881  0.92875072  1
  H+  H243  1  0.15141094  0.87940957  0.65609926  1
  H+  H244  1  0.08985067  0.88523151  0.32785071  1
  H+  H245  1  0.87035171  0.72971776  0.81937413  1
  H+  H246  1  0.92228003  0.99216680  0.15319071  1
  H+  H247  1  0.10122563  0.64441767  0.30792191  1
  H+  H248  1  0.62012629  0.57551078  0.16439592  1
  H+  H249  1  0.51183519  0.36932293  0.67820376  1
  H+  H250  1  0.60560617  0.17549003  0.67216586  1
  H+  H251  1  0.90503171  0.81529174  0.24291864  1
  H+  H252  1  0.10461754  0.46849518  0.15177154  1
  H+  H253  1  0.63497620  0.77808202  0.50668314  1
  H+  H254  1  0.73409164  0.86543442  0.84563020  1
  H+  H255  1  0.27200381  0.38053271  0.16180262  1
  H+  H256  1  0.66964748  0.34174561  0.24145452  1
  H+  H257  1  0.08244971  0.72485133  0.29818685  1
  H+  H258  1  0.69370963  0.87764727  0.65617714  1
  H+  H259  1  0.59776936  0.88465596  0.19056440  1
  H+  H260  1  0.17157428  0.57371794  0.56753642  1
  H+  H261  1  0.66825362  0.60002849  0.87533741  1
  H+  H262  1  0.88773765  0.28143077  0.81723431  1
  H+  H263  1  0.38497022  0.69310374  0.50593879  1
  H+  H264  1  0.37732932  0.80877136  0.49027415  1
  H+  H265  1  0.87071597  0.39152011  0.49370019  1
  H+  H266  1  0.37054350  0.58967245  0.66381367  1
  H+  H267  1  0.36934171  0.14251214  0.81782280  1
  H+  H268  1  0.85129873  0.71128414  0.16132949  1
  H+  H269  1  0.64975002  1.03099053  0.83567012  1
  H+  H270  1  0.37366076  0.52216247  0.85268790  1
  H+  H271  1  0.46955675  0.85636406  0.84026703  1
  H+  H272  1  0.10420501  0.22458720  0.33991599  1
  H+  H273  1  0.24034349  0.35199359  0.65915601  1
  H+  H274  1  0.26613932  0.37383198  0.00447208  1
  H+  H275  1  0.63928868  0.11860962  0.34244503  1
  H+  H276  1  0.12831529  0.35080672  0.83695047  1
  H+  H277  1  0.86149604  0.12665156  0.34203885  1
  H+  H278  1  0.12069994  1.00931528  0.09630539  1
  H+  H279  1  0.75374501  0.92189277  0.13775455  1
  H+  H280  1  0.52999533  0.89448589  0.34490977  1
  H+  H281  1  0.14110292  0.37124179  0.32857109  1
  H+  H282  1  0.11814520  0.86335848  0.15865942  1
  H+  H283  1  0.68411962  0.12994712  0.69252175  1
  H+  H284  1  0.64242247  0.52532937  0.49803701  1
  H+  H285  1  0.27585303  0.13454655  0.82566656  1
  H+  H286  1  0.88481754  0.61029446  0.83307603  1
  H+  H287  1  0.34584700  0.12354659  0.66985764  1
  H+  H288  1  0.39129663  0.57861365  0.94974127  1
  H+  H289  1  0.67420842  0.07999208  0.92523990  1
  H+  H290  1  0.31252313  0.65326879  0.08370788  1
  H+  H291  1  0.68384940  0.88535852  0.58594090  1
  H+  H292  1  0.93255510  0.34472942  0.59473991  1
  H+  H293  1  0.17725428  0.86713594  0.56498488  1
  H+  H294  1  0.86548255  0.98507893  0.82678076  1
  H+  H295  1  0.09415744  0.94391894  0.76815589  1
  H+  H296  1  0.90797665  0.57899688  0.92553081  1
  H+  H297  1  0.41299894  0.08958635  0.92514444  1
  H+  H298  1  0.34031619  0.92679053  0.72517918  1
  H+  H299  1  0.91733797  0.33916456  0.87700703  1
  H+  H300  1  0.91733464  0.83272226  0.89021851  1
  H+  H301  1  0.07368474  0.66392131  0.04883232  1
  H+  H302  1  0.10754008  0.38178226  0.15511154  1
  H+  H303  1  0.38295898  0.35582239  0.99187309  1
  H+  H304  1  0.02304169  0.09302484  0.02692620  1
  H+  H305  1  0.92114578  0.59160522  0.59573559  1
  H+  H306  1  0.15051889  0.31047169  0.59633026  1
  H+  H307  1  0.88204756  0.76592379  0.98366945  1
  H+  H308  1  0.35986814  0.72418510  0.82322270  1
  H+  H309  1  0.42756385  0.10013323  0.60020631  1
  H+  H310  1  0.39443929  0.30910009  0.59970794  1
  H+  H311  1  0.57479981  0.65621574  0.77394493  1
  H+  H312  1  0.15759365  0.31919555  0.92752350  1
  H+  H313  1  0.32402357  0.40086097  0.06536131  1
  H+  H314  1  0.40768623  0.55352682  0.57745062  1
  H+  H315  1  0.31664007  0.15188893  0.73070637  1
  H+  H316  1  0.16677939  0.33907021  0.23284442  1
  H+  H317  1  0.68105014  0.57087768  0.58998838  1
  H+  H318  1  0.58185643  0.40780099  0.05662577  1
  H+  H319  1  0.58302257  0.92649867  0.43880301  1
  H+  H320  1  0.82806285  0.66093957  0.40021546  1
  H+  H321  1  0.91039384  0.10955204  0.88098134  1
  H+  H322  1  0.65408462  0.32673944  0.91792528  1
  H+  H323  1  0.17440645  0.09555423  0.27429215  1
  H+  H324  1  0.69965595  0.09455115  0.56695698  1
  H+  H325  1  0.84710527  0.38063158  0.81517236  1
  H+  H326  1  0.67503989  0.08976768  0.24384451  1
  H+  H327  1  0.61344252  0.80572188  0.18652066  1
  H+  H328  1  0.07232428  0.12074383  0.81582293  1
  H+  H329  1  0.63330888  0.51998074  0.98778968  1
  H+  H330  1  0.32779850  0.15992447  0.06262038  1
  H+  H331  1  0.89438821  0.94891942  0.74217322  1
  H+  H332  1  0.33972972  0.92287845  0.05770808  1
  H+  H333  1  0.94325754  0.85193152  0.60453178  1
  H+  H334  1  0.32798064  0.16225851  0.43091894  1
  H+  H335  1  0.38746451  0.95549213  0.42056631  1
  H+  H336  1  0.35169729  0.42048783  0.40586827  1
  H+  H337  1  0.17416948  0.58252960  0.26062368  1
  H+  H338  1  0.65914474  0.56909700  0.22992320  1
  H+  H339  1  0.33599151  0.66047751  0.73168130  1
  H+  H340  1  0.82568189  0.66277349  0.05854204  1
  H+  H341  1  0.62171426  1.04936072  0.65500001  1
  H+  H342  1  0.39100476  0.89646490  0.51401964  1
  H+  H343  1  0.59948234  0.72305495  0.00898765  1
  H+  H344  1  0.40146572  0.82497957  0.59743543  1
  H+  H345  1  0.82811715  0.90873813  0.39902477  1
  H+  H346  1  0.07572711  0.40598468  0.05642174  1
  H+  H347  1  0.28135817  0.89867775  0.80765717  1
  H+  H348  1  0.10815671  0.62689601  0.82338204  1
  H+  H349  1  0.55908503  0.60680483  0.08555255  1
  H+  H350  1  0.61728481  0.88185865  0.84918104  1
  H+  H351  1  0.82535751  0.16367829  0.07864063  1
  H+  H352  1  0.23466463  0.87138623  0.65349902  1
  H+  H353  1  0.41758822  0.88899273  0.34246205  1
  H+  H354  1  0.64821032  0.52058427  0.83535955  1
  H+  H355  1  0.08224211  0.91153662  0.03632353  1
  H+  H356  1  0.84143085  0.67191644  0.72854360  1
  H+  H357  1  0.10037576  0.16844154  0.10586608  1
  H+  H358  1  0.09101797  0.41759941  0.42868278  1
  H+  H359  1  0.52294715  0.38349874  0.49689179  1
  H+  H360  1  0.12783696  0.83187573  0.22898650  1
  H+  H361  1  0.84531065  0.97558789  0.48268544  1
  H+  H362  1  0.60810450  0.64274997  0.77819728  1
  H+  H363  1  0.83689867  0.17837793  0.74898841  1
  H+  H364  1  0.59843173  0.21740361  0.76893095  1
  H+  H365  1  0.49228373  0.14085688  0.48807645  1
  H+  H366  1  0.57944401  0.41124173  0.43593734  1
  H+  H367  1  0.85450121  0.38827944  0.64689585  1
  H+  H368  1  0.58133009  0.66670354  0.39927427  1
  H+  H369  1  0.78357788  0.39501385  0.49758579  1
  H+  H370  1  0.42274555  0.89741687  0.23847600  1
  H+  H371  1  0.16648222  0.57739009  0.89335992  1
  H+  H372  1  0.29210658  0.93170448  0.50365920  1
  H+  H373  1  0.83441533  0.40801175  0.39930234  1
  H+  H374  1  0.40614710  0.32504005  0.89544125  1
  H+  H375  1  0.41953483  0.09015478  0.27215230  1
  H+  H376  1  0.41695978  0.32244975  0.22853278  1
  H+  H377  1  0.57696825  0.92341907  0.06306356  1
  H+  H378  1  0.06949510  0.15443514  0.43029841  1
  H+  H379  1  0.17262039  0.85024878  0.30844257  1
  H+  H380  1  0.07874305  0.65720767  0.76514769  1
  H+  H381  1  0.92433465  0.26439748  0.94833082  1
  H+  H382  1  0.07145933  0.16861308  0.73675588  1
  H+  H383  1  0.85591441  0.91995733  0.05811146  1
  O2-  O384  1  0.09931551  0.17224389  0.15072501  1
  O2-  O385  1  0.07230179  0.14969762  0.47562505  1
  O2-  O386  1  0.06242276  0.16712379  0.80355262  1
  O2-  O387  1  0.07397664  0.40735169  0.13782028  1
  O2-  O388  1  0.08844321  0.41061331  0.47400184  1
  O2-  O389  1  0.08669118  0.41430669  0.80311104  1
  O2-  O390  1  0.07049140  0.65844898  0.17341432  1
  O2-  O391  1  0.10068902  0.67715401  0.50588877  1
  O2-  O392  1  0.07423324  0.65396990  0.80992620  1
  O2-  O393  1  0.08229346  0.95823422  0.11976804  1
  O2-  O394  1  0.09715309  0.96116602  0.47613841  1
  O2-  O395  1  0.08913891  0.93686166  0.81264608  1
  O2-  O396  1  0.33388220  0.15426570  0.14601983  1
  O2-  O397  1  0.32586128  0.16035685  0.47685267  1
  O2-  O398  1  0.33389791  0.16736441  0.80331367  1
  O2-  O399  1  0.33136257  0.40451768  0.14527497  1
  O2-  O400  1  0.31798425  0.39673337  0.47650184  1
  O2-  O401  1  0.32874541  0.42537866  0.82297995  1
  O2-  O402  1  0.30843755  0.60275768  0.10791755  1
  O2-  O403  1  0.34699210  0.64211664  0.48232696  1
  O2-  O404  1  0.33165799  0.66359033  0.80779314  1
  O2-  O405  1  0.28471560  0.85052251  0.12741967  1
  O2-  O406  1  0.35400669  0.95365324  0.49547914  1
  O2-  O407  1  0.34582148  0.93122242  0.80142516  1
  O2-  O408  1  0.58100507  0.17024995  0.18714847  1
  O2-  O409  1  0.57508041  0.17882170  0.43261658  1
  O2-  O410  1  0.60705108  0.21652649  0.81461327  1
  O2-  O411  1  0.58329175  0.40094000  0.14040947  1
  O2-  O412  1  0.58273631  0.41656546  0.48135057  1
  O2-  O413  1  0.58394317  0.41700896  0.84473147  1
  O2-  O414  1  0.54450063  0.57183047  0.12296818  1
  O2-  O415  1  0.59118452  0.67161729  0.48065075  1
  O2-  O416  1  0.56999011  0.65658555  0.88425512  1
  O2-  O417  1  0.57085553  0.94136588  0.14516423  1
  O2-  O418  1  0.58434711  0.92453566  0.48478748  1
  O2-  O419  1  0.58278923  0.91223010  0.84921595  1
  O2-  O420  1  0.83867814  0.16484000  0.15437358  1
  O2-  O421  1  0.84858660  0.08135920  0.48466744  1
  O2-  O422  1  0.83636979  0.18034383  0.79409974  1
  O2-  O423  1  0.83670409  0.42460564  0.16446221  1
  O2-  O424  1  0.84195470  0.42276777  0.47846904  1
  O2-  O425  1  0.80594568  0.40152928  0.80891022  1
  O2-  O426  1  0.82286563  0.65502583  0.14000014  1
  O2-  O427  1  0.84158461  0.67270241  0.47876388  1
  O2-  O428  1  0.84320816  0.66975619  0.80365580  1
  O2-  O429  1  0.92865832  0.94794673  0.12988442  1
  O2-  O430  1  0.82844425  0.91453765  0.47703279  1
  O2-  O431  1  0.83775119  0.92373485  0.81323456  1
  O2-  O432  1  0.18514029  0.09570918  0.19821923  1
  O2-  O433  1  0.14594925  0.05022633  0.49944760  1
  O2-  O434  1  0.18440597  0.09462440  0.85567714  1
  O2-  O435  1  0.16711856  0.33850346  0.18759748  1
  O2-  O436  1  0.15811915  0.31502045  0.51523830  1
  O2-  O437  1  0.15398502  0.31769252  0.85425928  1
  O2-  O438  1  0.16409247  0.57298679  0.17783428  1
  O2-  O439  1  0.17187113  0.57250095  0.52152511  1
  O2-  O440  1  0.16553667  0.57630494  0.84788309  1
  O2-  O441  1  0.13783343  0.82900146  0.18013468  1
  O2-  O442  1  0.18070716  0.88016462  0.51961207  1
  O2-  O443  1  0.17629527  0.84226702  0.80106527  1
  O2-  O444  1  0.41992914  0.08301055  0.19849659  1
  O2-  O445  1  0.44211511  0.11692158  0.51639810  1
  O2-  O446  1  0.42796305  0.09632875  0.84598697  1
  O2-  O447  1  0.41533187  0.32028960  0.18323137  1
  O2-  O448  1  0.40986454  0.32192876  0.52170610  1
  O2-  O449  1  0.40731577  0.33187495  0.85048090  1
  O2-  O450  1  0.41130111  0.57252860  0.18188019  1
  O2-  O451  1  0.42598463  0.54988547  0.53358002  1
  O2-  O452  1  0.39837708  0.58234732  0.86977141  1
  O2-  O453  1  0.42639643  0.92547217  0.19894607  1
  O2-  O454  1  0.41144338  0.85269756  0.52009640  1
  O2-  O455  1  0.40690010  0.82818859  0.84881680  1
  O2-  O456  1  0.67607216  0.09213073  0.19870340  1
  O2-  O457  1  0.71276579  0.07854115  0.52754098  1
  O2-  O458  1  0.67820567  0.09118753  0.84914777  1
  O2-  O459  1  0.67752077  0.34411865  0.19649623  1
  O2-  O460  1  0.68199252  0.35131957  0.52484656  1
  O2-  O461  1  0.64695434  0.30617520  0.83380072  1
  O2-  O462  1  0.66382418  0.56423286  0.18528001  1
  O2-  O463  1  0.67275130  0.58646452  0.51204896  1
  O2-  O464  1  0.68319185  0.58512459  0.83620316  1
  O2-  O465  1  0.61410137  0.84748558  0.21488986  1
  O2-  O466  1  0.66526595  0.84040959  0.51664193  1
  O2-  O467  1  0.67505841  0.83502479  0.86362302  1
  O2-  O468  1  0.92736047  0.08222998  0.18908039  1
  O2-  O469  1  0.92230576  0.12888034  0.52538244  1
  O2-  O470  1  0.90768419  0.09416442  0.83763548  1
  O2-  O471  1  0.91536092  0.33274299  0.18972842  1
  O2-  O472  1  0.92793746  0.33893976  0.51526981  1
  O2-  O473  1  0.91836012  0.34288123  0.83198917  1
  O2-  O474  1  0.91034289  0.57303123  0.13412572  1
  O2-  O475  1  0.92274960  0.58830674  0.51631857  1
  O2-  O476  1  0.90725646  0.57358758  0.85013130  1
  O2-  O477  1  0.91072175  0.81199428  0.19686839  1
  O2-  O478  1  0.92816163  0.84828718  0.52223327  1
  O2-  O479  1  0.92036437  0.83863410  0.84490008  1
  O2-  O480  1  0.16655892  0.09222163  0.31942333  1
  O2-  O481  1  0.14228473  0.02945466  0.65561799  1
  O2-  O482  1  0.16076238  0.08035676  0.96683331  1
  O2-  O483  1  0.16620130  0.33527489  0.31323082  1
  O2-  O484  1  0.15423909  0.31513033  0.64141123  1
  O2-  O485  1  0.15937907  0.32183794  0.97396102  1
  O2-  O486  1  0.16864455  0.58563463  0.30538798  1
  O2-  O487  1  0.17084504  0.58214295  0.64290353  1
  O2-  O488  1  0.16159252  0.57922179  0.97219889  1
  O2-  O489  1  0.11455324  0.82682317  0.29248834  1
  O2-  O490  1  0.17435734  0.84468605  0.63696244  1
  O2-  O491  1  0.15755712  0.81829795  0.94213000  1
  O2-  O492  1  0.41753535  0.09303577  0.31822294  1
  O2-  O493  1  0.41443065  0.09132003  0.64413138  1
  O2-  O494  1  0.40752040  0.08541199  0.97011290  1
  O2-  O495  1  0.42097965  0.32360310  0.30819133  1
  O2-  O496  1  0.38492747  0.30760551  0.64455748  1
  O2-  O497  1  0.41086905  0.32371677  0.97630598  1
  O2-  O498  1  0.41874866  0.59592336  0.30789795  1
  O2-  O499  1  0.38769626  0.54827427  0.64657019  1
  O2-  O500  1  0.39765748  0.57551502  0.99478459  1
  O2-  O501  1  0.43178544  0.85272687  0.31446607  1
  O2-  O502  1  0.40480922  0.82598711  0.64247214  1
  O2-  O503  1  0.41481412  0.83538051  0.97168502  1
  O2-  O504  1  0.66837440  0.08886390  0.32535908  1
  O2-  O505  1  0.66503467  0.11369368  0.65060205  1
  O2-  O506  1  0.66452937  0.06411074  0.96940064  1
  O2-  O507  1  0.66621346  0.32941213  0.32095026  1
  O2-  O508  1  0.66700904  0.34491019  0.59018763  1
  O2-  O509  1  0.65964803  0.33958763  0.96180062  1
  O2-  O510  1  0.65809284  0.57520533  0.31242938  1
  O2-  O511  1  0.67508878  0.56221285  0.63470711  1
  O2-  O512  1  0.66577963  0.58181817  0.97543095  1
  O2-  O513  1  0.66145181  0.83473626  0.32528206  1
  O2-  O514  1  0.69708475  0.91811953  0.62524970  1
  O2-  O515  1  0.66489089  0.82961066  0.98780400  1
  O2-  O516  1  0.90901558  0.07343482  0.31160929  1
  O2-  O517  1  0.86654404  0.05035282  0.62966836  1
  O2-  O518  1  0.93247451  0.16256457  0.95476918  1
  O2-  O519  1  0.92433645  0.33127758  0.31476231  1
  O2-  O520  1  0.92719547  0.34169886  0.63975265  1
  O2-  O521  1  0.92221133  0.31721138  0.95727297  1
  O2-  O522  1  0.88713557  0.55455688  0.30890931  1
  O2-  O523  1  0.92372873  0.59065005  0.64100214  1
  O2-  O524  1  0.90937989  0.57847640  0.97141451  1
  O2-  O525  1  0.90371085  0.82250559  0.31477671  1
  O2-  O526  1  0.95264884  0.85026408  0.64886068  1
  O2-  O527  1  0.90947754  0.82556915  0.96691319  1
  O2-  O528  1  0.07837772  0.14453106  0.01981269  1
  O2-  O529  1  0.07360025  0.16401913  0.35389607  1
  O2-  O530  1  0.07790155  0.16932010  0.68900352  1
  O2-  O531  1  0.07837411  0.40857357  0.01117598  1
  O2-  O532  1  0.09156572  0.42262290  0.35078170  1
  O2-  O533  1  0.08978731  0.41856444  0.68274131  1
  O2-  O534  1  0.06971654  0.65301931  0.00537317  1
  O2-  O535  1  0.05954762  0.66031596  0.29262191  1
  O2-  O536  1  0.08835826  0.66771942  0.67883339  1
  O2-  O537  1  0.07856481  0.91252226  -0.00805278  1
  O2-  O538  1  0.06976879  0.92507331  0.34780763  1
  O2-  O539  1  0.11296552  0.94521279  0.68399767  1
  O2-  O540  1  0.32148526  0.16165822  0.01798708  1
  O2-  O541  1  0.33210745  0.16736127  0.35651752  1
  O2-  O542  1  0.30703435  0.14460682  0.68492786  1
  O2-  O543  1  0.32618229  0.40390780  0.02007322  1
  O2-  O544  1  0.38215957  0.44009170  0.36540200  1
  O2-  O545  1  0.30561530  0.38185542  0.67479341  1
  O2-  O546  1  0.29304334  0.71309705  0.04195568  1
  O2-  O547  1  0.33444691  0.67482137  0.35263616  1
  O2-  O548  1  0.33655537  0.65781255  0.68575148  1
  O2-  O549  1  0.37745556  0.94065674  0.02217286  1
  O2-  O550  1  0.41789392  0.96223912  0.38171786  1
  O2-  O551  1  0.33630183  0.92349766  0.67930692  1
  O2-  O552  1  0.56280757  0.19391287  0.03534481  1
  O2-  O553  1  0.57897531  0.17365676  0.36947375  1
  O2-  O554  1  0.57245666  0.19317589  0.69770424  1
  O2-  O555  1  0.57790859  0.41370927  0.01205737  1
  O2-  O556  1  0.58250955  0.41252870  0.35837295  1
  O2-  O557  1  0.56658496  0.39656887  0.69979421  1
  O2-  O558  1  0.56838773  0.65897158  0.01293909  1
  O2-  O559  1  0.57909559  0.66669163  0.35406695  1
  O2-  O560  1  0.54595366  0.58579930  0.66335502  1
  O2-  O561  1  0.58096083  0.91359294  0.01903515  1
  O2-  O562  1  0.58797507  0.92364777  0.36530064  1
  O2-  O563  1  0.57183482  0.95045009  0.66835467  1
  O2-  O564  1  0.82023282  0.16593211  0.03331584  1
  O2-  O565  1  0.83798382  0.16008217  0.36325666  1
  O2-  O566  1  0.84446632  0.17900601  0.66868170  1
  O2-  O567  1  0.82179495  0.40616380  0.00055876  1
  O2-  O568  1  0.83173337  0.40204562  0.35414547  1
  O2-  O569  1  0.81718006  0.41373748  0.64522898  1
  O2-  O570  1  0.82821802  0.66312388  0.01343263  1
  O2-  O571  1  0.82121757  0.65595189  0.35512771  1
  O2-  O572  1  0.84177358  0.67265814  0.68251396  1
  O2-  O573  1  0.83260877  0.90864124  0.01656888  1
  O2-  O574  1  0.82804601  0.90955918  0.35348849  1
  O2-  O575  1  0.93292499  0.96622254  0.70618006  1
