# generated using pymatgen
data_H2O
_symmetry_space_group_name_H-M   'P 1'
_cell_length_a   17.99469945
_cell_length_b   18.00059807
_cell_length_c   22.01401844
_cell_angle_alpha   89.99432933
_cell_angle_beta   89.98915413
_cell_angle_gamma   120.00848095
_symmetry_Int_Tables_number   1
_chemical_formula_structural   H2O
_chemical_formula_sum   'H384 O192'
_cell_volume   6174.82068047
_cell_formula_units_Z   192
loop_
 _symmetry_equiv_pos_site_id
 _symmetry_equiv_pos_as_xyz
  1  'x, y, z'
loop_
 _atom_type_symbol
 _atom_type_oxidation_number
  H+  1.0
  O2-  -2.0
loop_
 _atom_site_type_symbol
 _atom_site_label
 _atom_site_symmetry_multiplicity
 _atom_site_fract_x
 _atom_site_fract_y
 _atom_site_fract_z
 _atom_site_occupancy
  H+  H0  1  0.46917769  0.30727443  0.27632788  1
  H+  H1  1  1.02789160  0.88520352  0.31712463  1
  H+  H2  1  0.38971772  0.27734625  0.67074068  1
  H+  H3  1  0.27165547  0.88243751  0.65891783  1
  H+  H4  1  0.63130192  0.25838383  0.52844143  1
  H+  H5  1  0.84223602  0.92378683  0.10499831  1
  H+  H6  1  0.36964975  0.08726780  0.49479920  1
  H+  H7  1  0.66038020  0.89537185  0.49143636  1
  H+  H8  1  0.63355302  0.07664287  0.32463529  1
  H+  H9  1  0.77229937  0.63894465  0.15218631  1
  H+  H10  1  0.41605798  0.24171213  0.45181406  1
  H+  H11  1  0.11672188  0.39066670  0.33955093  1
  H+  H12  1  0.60517894  0.84435442  0.64346410  1
  H+  H13  1  0.95084173  0.12414491  0.84772286  1
  H+  H14  1  0.38181796  0.49534127  0.82194337  1
  H+  H15  1  0.01478523  0.12682118  1.00697231  1
  H+  H16  1  0.50833592  0.85158632  0.47363369  1
  H+  H17  1  0.11587508  0.25793197  0.98541238  1
  H+  H18  1  -0.01634577  0.58723058  0.28352368  1
  H+  H19  1  0.62156115  0.23126488  0.83666051  1
  H+  H20  1  0.34951079  0.24357007  0.99979755  1
  H+  H21  1  0.87528294  0.96755157  0.49828112  1
  H+  H22  1  0.53611878  0.38592469  0.35258455  1
  H+  H23  1  0.11117300  0.22685944  0.33524408  1
  H+  H24  1  0.63707844  0.52505536  -0.00110489  1
  H+  H25  1  0.33645598  0.67406321  0.11062141  1
  H+  H26  1  0.32987367  0.42647887  0.73000712  1
  H+  H27  1  0.13259590  0.61548074  0.33249368  1
  H+  H28  1  0.63068808  0.62343866  0.32229021  1
  H+  H29  1  0.87558647  1.02766191  0.00182897  1
  H+  H30  1  0.34517953  0.29873542  0.86273751  1
  H+  H31  1  0.12015809  0.64443620  0.81605875  1
  H+  H32  1  0.89209196  0.59825142  0.85142613  1
  H+  H33  1  0.54989812  0.16436973  0.31008270  1
  H+  H34  1  0.11763652  0.98022995  0.67087020  1
  H+  H35  1  0.13336974  0.52055784  0.50265866  1
  H+  H36  1  0.39149042  0.85060139  0.83940890  1
  H+  H37  1  0.24243840  0.36799094  -0.00988480  1
  H+  H38  1  0.86077169  0.85564388  0.82369243  1
  H+  H39  1  0.63316336  0.10761736  0.83783624  1
  H+  H40  1  0.61342800  0.48094967  0.82695103  1
  H+  H41  1  0.11257996  0.10784762  0.17104305  1
  H+  H42  1  0.11285259  0.39455915  0.48618293  1
  H+  H43  1  0.65381533  0.37340036  0.83803990  1
  H+  H44  1  0.76194837  0.13718121  0.82927194  1
  H+  H45  1  0.73990466  0.86212614  0.68668552  1
  H+  H46  1  0.10788611  0.85315869  0.47315563  1
  H+  H47  1  0.17363222  0.34461780  0.88933543  1
  H+  H48  1  0.88220072  0.71332208  0.66047137  1
  H+  H49  1  0.63467075  0.34713140  0.53883199  1
  H+  H50  1  0.53024996  0.89575210  0.67352368  1
  H+  H51  1  0.46523663  0.11731148  0.65111356  1
  H+  H52  1  0.53013950  0.38730659  0.82256791  1
  H+  H53  1  0.78124251  0.14953992  0.67617759  1
  H+  H54  1  0.11913511  0.48735702  0.16127165  1
  H+  H55  1  0.38196376  0.36364715  0.67148259  1
  H+  H56  1  0.85315937  0.36920502  0.00911625  1
  H+  H57  1  0.40931679  0.03292109  0.16926512  1
  H+  H58  1  0.86436715  0.24346756  0.67753806  1
  H+  H59  1  0.47780474  0.87347326  0.18448405  1
  H+  H60  1  0.10026949  -0.00680670  0.52245140  1
  H+  H61  1  0.62147299  0.49147384  0.66850757  1
  H+  H62  1  0.38858182  0.78526788  0.18489937  1
  H+  H63  1  0.07925543  0.88141403  0.41071721  1
  H+  H64  1  0.82037820  1.00489788  0.83693286  1
  H+  H65  1  0.89868378  0.82246943  1.06015167  1
  H+  H66  1  0.62364666  0.01313474  0.99264214  1
  H+  H67  1  0.13699634  0.02696161  0.31813128  1
  H+  H68  1  0.61865716  0.63828335  0.49177864  1
  H+  H69  1  0.38882549  0.29172442  0.52436211  1
  H+  H70  1  0.89218711  0.61888839  0.14379436  1
  H+  H71  1  0.62196992  0.63411981  0.67167292  1
  H+  H72  1  0.83937874  0.83284380  0.63533674  1
  H+  H73  1  0.94610288  0.45907786  0.23130963  1
  H+  H74  1  0.63806056  0.52678957  0.17003080  1
  H+  H75  1  0.35627123  0.72208871  1.01168140  1
  H+  H76  1  0.29762188  0.61475431  0.67757343  1
  H+  H77  1  0.59860479  0.72311995  0.16120090  1
  H+  H78  1  0.40125881  0.39949575  0.96960185  1
  H+  H79  1  0.64612026  0.77863870  0.32429520  1
  H+  H80  1  0.19695554  0.85572117  0.86328127  1
  H+  H81  1  0.01778418  0.41057216  0.67207807  1
  H+  H82  1  0.61828813  0.39287397  0.16793310  1
  H+  H83  1  0.22449441  0.65320253  0.64530114  1
  H+  H84  1  0.39370303  0.25141530  0.00708644  1
  H+  H85  1  0.53153110  0.62837924  0.66978240  1
  H+  H86  1  0.85887194  0.70683850  0.49433348  1
  H+  H87  1  0.28959836  0.90201629  0.17213762  1
  H+  H88  1  0.88752500  0.46810137  0.85534813  1
  H+  H89  1  0.34007954  0.15814725  0.76205590  1
  H+  H90  1  0.47293229  0.61466520  0.17694673  1
  H+  H91  1  0.07110826  0.26319747  0.80407870  1
  H+  H92  1  0.62468876  0.76536589  1.00082221  1
  H+  H93  1  0.60479763  0.88013121  0.83173781  1
  H+  H94  1  0.89025840  1.02763140  0.33343767  1
  H+  H95  1  0.27829050  0.64700435  0.17022860  1
  H+  H96  1  1.02334603  0.38256860  0.33968118  1
  H+  H97  1  0.11901069  0.76800891  0.24949360  1
  H+  H98  1  0.36950730  0.95936504  0.80410398  1
  H+  H99  1  0.72949661  0.12218281  0.50366387  1
  H+  H100  1  0.35247524  0.62405288  0.34289668  1
  H+  H101  1  0.15196824  0.08300852  0.23168891  1
  H+  H102  1  0.36149676  0.62260683  0.49134674  1
  H+  H103  1  0.36922707  0.22084282  0.15627462  1
  H+  H104  1  0.39849269  0.62148120  0.83522491  1
  H+  H105  1  0.38886462  0.25505522  0.82996153  1
  H+  H106  1  1.01022395  0.13365040  0.16176324  1
  H+  H107  1  0.88981961  0.60600786  0.51732420  1
  H+  H108  1  0.11817695  0.63621643  0.49219792  1
  H+  H109  1  0.07688657  0.15981204  0.06436454  1
  H+  H110  1  0.08611055  0.17518385  0.42457575  1
  H+  H111  1  0.13979620  0.28482085  0.49346229  1
  H+  H112  1  0.44719201  0.08325790  0.75997170  1
  H+  H113  1  0.10296139  0.73059822  0.66938536  1
  H+  H114  1  0.78437755  0.89069372  0.49655657  1
  H+  H115  1  0.28107799  0.86796235  0.79924387  1
  H+  H116  1  0.87990687  0.85747307  0.65341621  1
  H+  H117  1  0.36935643  0.97458023  0.48940377  1
  H+  H118  1  0.86989667  0.70482806  0.85531914  1
  H+  H119  1  0.98359677  0.13387547  0.65468816  1
  H+  H120  1  0.62741628  0.53395354  0.32673097  1
  H+  H121  1  0.21720514  0.36740745  0.17113623  1
  H+  H122  1  0.23539300  0.02719116  0.44987318  1
  H+  H123  1  0.97801222  0.84013245  0.86442368  1
  H+  H124  1  0.86765898  0.13259715  0.85209146  1
  H+  H125  1  0.98657392  0.60986241  0.84429192  1
  H+  H126  1  0.38009837  0.37650425  0.16143087  1
  H+  H127  1  0.08945099  0.13743435  0.89538677  1
  H+  H128  1  0.65511970  0.82653571  0.94219506  1
  H+  H129  1  0.41108829  0.58386697  0.27076285  1
  H+  H130  1  0.43656486  0.84196432  0.55913414  1
  H+  H131  1  0.00798059  0.38039190  0.01281782  1
  H+  H132  1  0.14065790  0.41635737  0.81819155  1
  H+  H133  1  0.13223845  0.75165316  0.33872546  1
  H+  H134  1  0.63848041  0.52077611  0.51639628  1
  H+  H135  1  0.84952962  0.81393787  0.29826415  1
  H+  H136  1  0.40786271  0.12196954  0.17428313  1
  H+  H137  1  0.73591812  0.86500046  0.32308539  1
  H+  H138  1  0.52552596  0.39003783  0.16049289  1
  H+  H139  1  0.37429000  0.51850216  -0.01216737  1
  H+  H140  1  0.35886685  0.49383335  0.16322836  1
  H+  H141  1  0.36381031  0.39463109  0.49911928  1
  H+  H142  1  0.61204306  0.22775228  1.00653543  1
  H+  H143  1  0.89766585  0.33844262  0.94291794  1
  H+  H144  1  1.03214149  0.14589318  0.48651372  1
  H+  H145  1  0.02935896  0.88962144  0.16315768  1
  H+  H146  1  0.75445663  0.89569397  0.66225049  1
  H+  H147  1  0.14629229  0.62870260  0.18567393  1
  H+  H148  1  0.97281572  0.83221712  0.48667170  1
  H+  H149  1  0.38547897  0.52112851  0.32812576  1
  H+  H150  1  0.85156282  0.89181756  1.01083571  1
  H+  H151  1  0.61465044  0.97984439  0.16645173  1
  H+  H152  1  0.09797558  0.43748804  0.76064776  1
  H+  H153  1  0.63673359  0.42367507  0.36262778  1
  H+  H154  1  0.64563265  1.02881432  0.66605306  1
  H+  H155  1  0.10923816  0.72629357  1.02148360  1
  H+  H156  1  0.38393883  0.40738628  0.81179177  1
  H+  H157  1  0.60388821  0.87959448  0.01572357  1
  H+  H158  1  0.89911784  0.86829616  0.16422810  1
  H+  H159  1  0.87848680  0.35987310  0.51187475  1
  H+  H160  1  0.48710994  0.11058452  1.00381032  1
  H+  H161  1  0.36520403  0.96628937  0.01261213  1
  H+  H162  1  0.27490152  0.39397206  0.48989152  1
  H+  H163  1  0.75544329  0.37167661  1.00758058  1
  H+  H164  1  0.12781788  0.36439312  0.17600966  1
  H+  H165  1  0.88331996  -0.01656493  0.16323125  1
  H+  H166  1  0.13817272  0.11695198  0.32416603  1
  H+  H167  1  0.89250765  0.84584691  0.50347311  1
  H+  H168  1  0.22870869  0.36003239  0.32459710  1
  H+  H169  1  0.52982878  0.13743451  0.49317141  1
  H+  H170  1  0.39295767  0.52102195  0.65146797  1
  H+  H171  1  0.63255598  0.36527225  0.99660088  1
  H+  H172  1  0.85774393  0.71007827  0.34326312  1
  H+  H173  1  0.58697188  0.42798696  0.73521652  1
  H+  H174  1  0.52660398  0.39354638  0.51390463  1
  H+  H175  1  0.22293459  0.60971565  1.01811714  1
  H+  H176  1  0.27811186  0.13133636  0.32487850  1
  H+  H177  1  0.10492091  0.63433951  1.02715161  1
  H+  H178  1  0.89240415  0.26559203  0.32465326  1
  H+  H179  1  0.10145313  0.46248457  1.01927569  1
  H+  H180  1  0.26619329  0.39096445  0.67285653  1
  H+  H181  1  0.10265035  0.22195390  0.15934899  1
  H+  H182  1  0.72182782  0.60426522  0.84895376  1
  H+  H183  1  0.88845598  0.38802085  0.65816153  1
  H+  H184  1  -0.01522039  0.61855725  0.51594437  1
  H+  H185  1  0.65631138  0.57926707  0.93751700  1
  H+  H186  1  0.39879937  0.77809455  0.65415596  1
  H+  H187  1  0.03815898  0.65464735  0.15558083  1
  H+  H188  1  0.27633727  0.14306590  0.67527823  1
  H+  H189  1  0.59987406  0.62937934  0.01060928  1
  H+  H190  1  0.88149382  0.27536579  1.00669360  1
  H+  H191  1  0.35568712  0.63288635  0.01182074  1
  H+  H192  1  0.63668296  0.77432816  0.84460051  1
  H+  H193  1  0.11133070  0.34490520  0.98756505  1
  H+  H194  1  0.09279126  0.87033430  0.82722238  1
  H+  H195  1  0.77691860  0.13432051  0.33635221  1
  H+  H196  1  0.64360974  0.11682904  0.65947181  1
  H+  H197  1  0.39700652  0.34016514  0.22112295  1
  H+  H198  1  0.83757699  0.85237455  0.85283072  1
  H+  H199  1  0.23823152  0.13385853  0.50826713  1
  H+  H200  1  0.38195207  0.02243607  0.64961529  1
  H+  H201  1  0.43034952  0.22783524  0.47956787  1
  H+  H202  1  0.38681355  0.62191663  0.18015327  1
  H+  H203  1  0.98094207  0.86250786  1.01995024  1
  H+  H204  1  0.53236128  0.64024340  0.82517132  1
  H+  H205  1  0.40102703  0.25708329  0.32701761  1
  H+  H206  1  1.01857852  0.63275842  0.67336321  1
  H+  H207  1  0.53187353  0.40749254  1.00573253  1
  H+  H208  1  0.74538497  0.31566370  0.34498688  1
  H+  H209  1  0.84447720  0.35054733  0.35041362  1
  H+  H210  1  0.54601543  0.15178753  0.16220888  1
  H+  H211  1  0.75917826  0.88397947  1.01220196  1
  H+  H212  1  0.11439670  0.88225631  0.01854420  1
  H+  H213  1  0.07842520  0.67441355  0.76465571  1
  H+  H214  1  0.10930353  0.23606274  0.66374345  1
  H+  H215  1  0.61874900  0.29594973  0.32646354  1
  H+  H216  1  0.40887955  0.61613386  0.65337608  1
  H+  H217  1  0.16472008  0.10152685  0.84383629  1
  H+  H218  1  0.89532951  0.13724882  0.66320714  1
  H+  H219  1  0.62991363  0.10422185  -0.00947174  1
  H+  H220  1  0.86523276  0.21205130  0.17365865  1
  H+  H221  1  0.48370447  0.85913761  0.84346104  1
  H+  H222  1  0.11237863  -0.02897000  1.01270583  1
  H+  H223  1  0.80364880  0.01442814  0.53264425  1
  H+  H224  1  0.36358720  0.14016638  0.66807700  1
  H+  H225  1  0.10937573  0.96421814  0.82839135  1
  H+  H226  1  0.61810399  0.13794122  0.49911198  1
  H+  H227  1  0.89179860  0.61478798  -0.00667178  1
  H+  H228  1  0.13358705  0.17645401  0.89175605  1
  H+  H229  1  0.63296554  0.24128825  0.16309793  1
  H+  H230  1  0.56621364  0.65667163  0.06957640  1
  H+  H231  1  0.73081960  0.60481335  0.65918058  1
  H+  H232  1  0.15566089  0.53801027  0.81878514  1
  H+  H233  1  0.63703107  0.61270524  0.83973235  1
  H+  H234  1  0.60315119  0.63490649  0.15982849  1
  H+  H235  1  0.14442782  0.12302404  0.66497739  1
  H+  H236  1  0.52181866  0.64399130  0.34053537  1
  H+  H237  1  0.76327959  0.36216277  0.51092205  1
  H+  H238  1  0.39037958  0.86269078  0.65044680  1
  H+  H239  1  0.87789864  0.15918217  0.02002417  1
  H+  H240  1  0.10137698  0.36870663  0.64626393  1
  H+  H241  1  0.24372057  0.38152386  0.83485510  1
  H+  H242  1  0.88769589  0.11564476  0.33006524  1
  H+  H243  1  0.70883258  0.87563487  0.84530942  1
  H+  H244  1  0.60746710  0.97091531  0.82806207  1
  H+  H245  1  0.88691227  0.52760444  0.13752349  1
  H+  H246  1  0.12007440  0.76070533  0.84745768  1
  H+  H247  1  0.00092882  0.82810330  0.64190833  1
  H+  H248  1  0.46517879  0.60484861  0.99512240  1
  H+  H249  1  0.23340080  0.85874957  0.50331369  1
  H+  H250  1  0.17059855  0.16424241  0.51441422  1
  H+  H251  1  0.51442777  0.87739222  1.01375159  1
  H+  H252  1  0.11186908  0.49495073  0.66770795  1
  H+  H253  1  0.14190289  0.86666533  0.65538102  1
  H+  H254  1  0.26312044  0.62767477  0.34425956  1
  H+  H255  1  0.76208679  0.63437717  0.34299486  1
  H+  H256  1  0.38340791  0.73353275  0.82197375  1
  H+  H257  1  0.13105922  0.10348172  0.99612298  1
  H+  H258  1  0.85930177  0.71586025  0.00233043  1
  H+  H259  1  0.38960598  0.76973571  0.33875543  1
  H+  H260  1  0.08457992  1.00527359  0.49464625  1
  H+  H261  1  0.14513755  0.76802337  0.50765062  1
  H+  H262  1  0.61811541  0.85127148  0.17449643  1
  H+  H263  1  0.90533820  0.09143364  0.94437709  1
  H+  H264  1  0.37874050  0.85272265  0.99684558  1
  H+  H265  1  0.26442703  0.62051817  0.49305414  1
  H+  H266  1  0.12963086  0.63050750  0.65753168  1
  H+  H267  1  0.76167323  0.39162648  0.16224562  1
  H+  H268  1  0.76798107  0.62768869  -0.00360125  1
  H+  H269  1  -0.00417095  0.62686786  0.00545411  1
  H+  H270  1  0.81657061  0.71588587  0.70669342  1
  H+  H271  1  0.65946974  0.12100323  0.17136733  1
  H+  H272  1  0.25047543  0.07737496  0.02981736  1
  H+  H273  1  0.72995275  0.60780516  0.51210879  1
  H+  H274  1  0.24740360  0.09425344  0.83977416  1
  H+  H275  1  0.88220886  0.11519389  0.17234374  1
  H+  H276  1  0.60981788  0.23950094  0.63526394  1
  H+  H277  1  0.37883552  0.12395096  0.81251779  1
  H+  H278  1  0.37174177  0.38474535  0.33942848  1
  H+  H279  1  0.97516523  0.37203183  0.51062799  1
  H+  H280  1  0.53385844  0.64387083  0.48886426  1
  H+  H281  1  0.37228665  0.89269376  0.17064815  1
  H+  H282  1  0.85780089  0.14290762  0.49424150  1
  H+  H283  1  0.89940138  1.01857124  0.69381452  1
  H+  H284  1  0.33895118  0.07789591  1.03103686  1
  H+  H285  1  0.89200926  0.77246548  0.15991973  1
  H+  H286  1  0.92243343  0.56272773  0.60037318  1
  H+  H287  1  0.58340544  0.41828196  0.06941803  1
  H+  H288  1  0.42561548  0.83673719  0.28486640  1
  H+  H289  1  0.33981423  0.41297744  0.39793462  1
  H+  H290  1  0.36587496  0.12544737  0.32870720  1
  H+  H291  1  0.84166410  0.65921919  0.79031153  1
  H+  H292  1  0.42005965  0.58810105  0.89731530  1
  H+  H293  1  0.94469205  0.78977338  0.58195372  1
  H+  H294  1  0.07387573  0.41591371  0.10830204  1
  H+  H295  1  0.65527255  0.07133809  0.89776067  1
  H+  H296  1  0.32377060  0.44564061  0.09994317  1
  H+  H297  1  0.35959380  0.67221153  0.72973109  1
  H+  H298  1  0.58376759  0.18610179  0.77257947  1
  H+  H299  1  0.82275317  0.64318145  0.43849497  1
  H+  H300  1  0.32290725  0.64868107  0.42598721  1
  H+  H301  1  0.33805647  0.90901825  0.71418877  1
  H+  H302  1  0.66724056  0.58916257  0.22765287  1
  H+  H303  1  0.93510415  0.58732067  0.93672572  1
  H+  H304  1  0.02046560  0.13708856  0.33808903  1
  H+  H305  1  0.91712688  0.08456981  0.23256017  1
  H+  H306  1  0.51430399  0.87763637  0.37174008  1
  H+  H307  1  0.42237136  0.58527113  0.55792872  1
  H+  H308  1  0.66416780  0.33721127  0.93624564  1
  H+  H309  1  0.58523642  0.41698504  0.45534685  1
  H+  H310  1  0.58703012  0.91568954  0.73332804  1
  H+  H311  1  0.88624346  0.07456752  0.57263270  1
  H+  H312  1  0.88914532  0.90680653  0.35035032  1
  H+  H313  1  0.81466750  0.40092838  0.07244825  1
  H+  H314  1  0.43487715  0.08488735  0.25612534  1
  H+  H315  1  0.74598886  0.11303037  0.17112919  1
  H+  H316  1  0.85759010  0.40140357  0.16340892  1
  H+  H317  1  0.19277766  0.61045574  0.87234226  1
  H+  H318  1  0.83724582  0.17185577  0.39642077  1
  H+  H319  1  0.67044574  0.86474669  0.55661547  1
  H+  H320  1  0.17085641  0.58746511  0.23919969  1
  H+  H321  1  0.64947743  0.30316471  0.25729952  1
  H+  H322  1  0.66016778  0.82360731  0.22705294  1
  H+  H323  1  0.41171691  0.82334431  0.93785246  1
  H+  H324  1  0.16702338  0.83194189  0.59537402  1
  H+  H325  1  0.92223042  0.34421031  0.27483545  1
  H+  H326  1  0.91669687  0.35098447  0.60218762  1
  H+  H327  1  0.86991159  0.23794659  0.49511433  1
  H+  H328  1  0.67632944  0.08628044  0.56427655  1
  H+  H329  1  0.73690265  0.36372538  0.85171761  1
  H+  H330  1  0.42444917  0.07908098  0.94619188  1
  H+  H331  1  0.91538586  0.82175870  0.24933736  1
  H+  H332  1  0.85141441  0.18445949  0.08366330  1
  H+  H333  1  0.29199082  0.64872964  0.81074364  1
  H+  H334  1  0.09506657  0.92708804  0.10704661  1
  H+  H335  1  0.61257879  0.76118286  0.63618969  1
  H+  H336  1  0.83029506  0.17656121  0.77531715  1
  H+  H337  1  0.30040602  0.11289203  0.41566858  1
  H+  H338  1  0.18679395  0.11257821  0.60527644  1
  H+  H339  1  0.59416121  0.17515890  0.06841785  1
  H+  H340  1  0.44693605  0.37160105  0.92115329  1
  H+  H341  1  0.15406731  0.82041683  0.95082491  1
  H+  H342  1  0.11973942  0.89187661  0.31364082  1
  H+  H343  1  0.33254742  0.90926754  0.07222564  1
  H+  H344  1  0.51983131  0.39620093  0.67613279  1
  H+  H345  1  0.15695373  0.34106911  0.55306810  1
  H+  H346  1  0.11526287  1.00470904  0.16968952  1
  H+  H347  1  0.98807038  0.41517584  0.18880339  1
  H+  H348  1  0.59226970  0.66836943  0.76575658  1
  H+  H349  1  0.82431257  0.66064404  0.08910020  1
  H+  H350  1  0.81309420  0.95427290  0.77717075  1
  H+  H351  1  0.85069074  0.57212738  0.68631079  1
  H+  H352  1  0.30195584  0.35471458  0.03579469  1
  H+  H353  1  0.34341948  0.91420290  0.43090226  1
  H+  H354  1  0.67114550  0.57642815  0.59720080  1
  H+  H355  1  0.38840211  0.52475012  0.49890836  1
  H+  H356  1  0.70886197  0.41714878  0.22772370  1
  H+  H357  1  0.16708158  0.33461544  0.26629349  1
  H+  H358  1  0.94897027  0.99446953  0.74169647  1
  H+  H359  1  0.12792783  0.52312653  0.33158699  1
  H+  H360  1  0.92042059  0.81638163  0.92342437  1
  H+  H361  1  0.48990826  0.10229468  0.82177973  1
  H+  H362  1  0.32306488  0.13185695  0.11922702  1
  H+  H363  1  0.40810470  0.07674158  0.55766575  1
  H+  H364  1  0.68013088  0.08179190  0.26177212  1
  H+  H365  1  0.07924162  0.42356516  0.42944587  1
  H+  H366  1  0.03652157  0.68616004  0.35806275  1
  H+  H367  1  0.07837274  0.18591425  0.72632344  1
  H+  H368  1  0.40006226  0.86646552  0.50138282  1
  H+  H369  1  0.84387162  0.91762068  0.40838496  1
  H+  H370  1  0.15447054  0.57364072  0.96534514  1
  H+  H371  1  0.17216931  0.07380081  0.94200964  1
  H+  H372  1  0.29356798  0.90561040  0.30560171  1
  H+  H373  1  0.09236062  0.67758118  0.43736650  1
  H+  H374  1  0.80406171  0.37314592  0.44427822  1
  H+  H375  1  0.16385218  0.58459537  0.56167449  1
  H+  H376  1  0.04497201  0.28591053  0.60839189  1
  H+  H377  1  0.57417386  0.91772136  0.10905479  1
  H+  H378  1  0.93065696  0.56614409  0.22446715  1
  H+  H379  1  0.08598181  0.19201498  0.82636447  1
  H+  H380  1  0.08220312  0.91601002  0.72801222  1
  H+  H381  1  0.58624040  0.67146023  0.39779088  1
  H+  H382  1  0.22545603  0.85766678  0.00481057  1
  H+  H383  1  0.41717990  0.34878218  0.58297847  1
  O2-  O384  1  0.07213202  0.16175585  0.14460892  1
  O2-  O385  1  0.09011058  0.18174487  0.47075934  1
  O2-  O386  1  0.05015740  0.20182421  0.79757931  1
  O2-  O387  1  0.08134075  0.42486602  0.15311701  1
  O2-  O388  1  0.08084400  0.42468185  0.47528418  1
  O2-  O389  1  0.11160803  0.44832495  0.80464478  1
  O2-  O390  1  0.09613483  0.69352831  0.17345175  1
  O2-  O391  1  0.08910537  0.66950397  0.48247682  1
  O2-  O392  1  0.08304735  0.67085953  0.81015818  1
  O2-  O393  1  0.09163307  0.93036644  0.15256068  1
  O2-  O394  1  0.06206554  0.85859688  0.45216589  1
  O2-  O395  1  0.06949421  0.90624335  0.81162073  1
  O2-  O396  1  0.34782591  0.15913026  0.15951437  1
  O2-  O397  1  0.28018307  0.08632353  0.45694427  1
  O2-  O398  1  0.34456288  0.15356645  0.80779090  1
  O2-  O399  1  0.32652447  0.43448277  0.14313638  1
  O2-  O400  1  0.33614860  0.42194385  0.47582639  1
  O2-  O401  1  0.35021574  0.43550514  0.80325218  1
  O2-  O402  1  0.33925729  0.67694287  0.15575899  1
  O2-  O403  1  0.32438973  0.64729432  0.47445306  1
  O2-  O404  1  0.35486869  0.67488192  0.80169836  1
  O2-  O405  1  0.34382705  0.92335091  0.15029183  1
  O2-  O406  1  0.33833556  0.91235391  0.47499663  1
  O2-  O407  1  0.34300059  0.89643970  0.79446538  1
  O2-  O408  1  0.60592708  0.18357145  0.14554544  1
  O2-  O409  1  0.59202900  0.17401874  0.48752520  1
  O2-  O410  1  0.59296731  0.17403616  0.81678207  1
  O2-  O411  1  0.58569107  0.41949339  0.14635040  1
  O2-  O412  1  0.58689113  0.41698581  0.50031015  1
  O2-  O413  1  0.58867138  0.42227077  0.80692519  1
  O2-  O414  1  0.56761833  0.65976959  0.14579536  1
  O2-  O415  1  0.59215311  0.66868714  0.47199735  1
  O2-  O416  1  0.59321841  0.66826378  0.81135276  1
  O2-  O417  1  0.57458598  0.91862415  0.15436951  1
  O2-  O418  1  0.55562692  0.85295758  0.44665982  1
  O2-  O419  1  0.57475885  0.90924765  0.81368971  1
  O2-  O420  1  0.83858861  0.15773077  0.15185497  1
  O2-  O421  1  0.83944228  0.18078826  0.47453744  1
  O2-  O422  1  0.82431988  0.17420927  0.81998273  1
  O2-  O423  1  0.81854587  0.41453770  0.13882711  1
  O2-  O424  1  0.81795255  0.38687052  0.48814891  1
  O2-  O425  1  0.84926155  0.40428705  0.85022764  1
  O2-  O426  1  0.83133033  0.66942020  0.13389119  1
  O2-  O427  1  0.82539869  0.64395024  0.48409013  1
  O2-  O428  1  0.83326589  0.64775813  0.83406995  1
  O2-  O429  1  0.86418186  0.92485559  0.14637557  1
  O2-  O430  1  0.84463097  0.90780502  0.48285098  1
  O2-  O431  1  0.77828174  0.95658138  0.81131125  1
  O2-  O432  1  0.14267625  0.07598653  0.18633799  1
  O2-  O433  1  0.21746432  0.16251014  0.53648798  1
  O2-  O434  1  0.18759137  0.06538395  0.85746173  1
  O2-  O435  1  0.15842763  0.33297901  0.18804188  1
  O2-  O436  1  0.17022073  0.34547569  0.50896418  1
  O2-  O437  1  0.18184122  0.35514908  0.84492053  1
  O2-  O438  1  0.17308318  0.59290008  0.19388737  1
  O2-  O439  1  0.16950059  0.58238904  0.51683886  1
  O2-  O440  1  0.18725629  0.60534615  0.82840037  1
  O2-  O441  1  0.06506537  0.71839294  0.22739732  1
  O2-  O442  1  0.17381432  0.83044414  0.51979586  1
  O2-  O443  1  0.13652480  0.81571970  0.87073811  1
  O2-  O444  1  0.44231305  0.09262629  0.18547223  1
  O2-  O445  1  0.40998807  0.07085870  0.51263165  1
  O2-  O446  1  0.43078982  0.06722284  0.80283630  1
  O2-  O447  1  0.40781700  0.34436088  0.17744220  1
  O2-  O448  1  0.41772283  0.35170826  0.53734378  1
  O2-  O449  1  0.40018760  0.31351423  0.84408863  1
  O2-  O450  1  0.41201939  0.58573032  0.19363557  1
  O2-  O451  1  0.41643996  0.58613723  0.51280332  1
  O2-  O452  1  0.42632660  0.58945226  0.85207059  1
  O2-  O453  1  0.41726004  0.84477781  0.20101089  1
  O2-  O454  1  0.43062742  0.83637818  0.51449856  1
  O2-  O455  1  0.42158612  0.82333329  0.85867973  1
  O2-  O456  1  0.68201617  0.08430896  0.18606429  1
  O2-  O457  1  0.67061399  0.08683919  0.51979124  1
  O2-  O458  1  0.65779199  0.07182277  0.85158453  1
  O2-  O459  1  0.67769196  0.36614703  0.20232057  1
  O2-  O460  1  0.65787694  0.31198998  0.55510965  1
  O2-  O461  1  0.67469904  0.33961691  0.86021752  1
  O2-  O462  1  0.66880955  0.58864138  0.18226295  1
  O2-  O463  1  0.66980563  0.58256312  0.52970484  1
  O2-  O464  1  0.65919235  0.57587281  0.85785825  1
  O2-  O465  1  0.64400628  0.81494965  0.18304453  1
  O2-  O466  1  0.70427332  0.90313906  0.52181438  1
  O2-  O467  1  0.65325027  0.82956336  0.86504084  1
  O2-  O468  1  0.91827899  0.08497589  0.18752974  1
  O2-  O469  1  0.86537564  0.05877284  0.52977461  1
  O2-  O470  1  0.89650139  0.09964033  0.86993620  1
  O2-  O471  1  0.93487700  0.40483815  0.21006198  1
  O2-  O472  1  0.91812271  0.33824355  0.53009273  1
  O2-  O473  1  0.89400638  0.36511085  0.86895303  1
  O2-  O474  1  0.92643448  0.58949038  0.14622135  1
  O2-  O475  1  0.92860328  0.58865800  0.53699269  1
  O2-  O476  1  0.93040845  0.57657815  0.86632200  1
  O2-  O477  1  0.92677043  0.83179327  0.17686330  1
  O2-  O478  1  0.91869013  0.80957237  0.51163996  1
  O2-  O479  1  0.93918428  0.79215716  0.89132193  1
  O2-  O480  1  0.16874325  0.08880948  0.30556127  1
  O2-  O481  1  0.17552287  0.09433878  0.64921043  1
  O2-  O482  1  0.16123483  0.07081624  0.98609467  1
  O2-  O483  1  0.16775016  0.33310756  0.31184578  1
  O2-  O484  1  0.10358700  0.32045626  0.62365497  1
  O2-  O485  1  0.14266195  0.31792171  0.96856904  1
  O2-  O486  1  0.16155697  0.58455178  0.31768303  1
  O2-  O487  1  0.16575843  0.60608533  0.64030460  1
  O2-  O488  1  0.15866450  0.57741485  1.00940201  1
  O2-  O489  1  0.17094884  0.83029964  0.29708970  1
  O2-  O490  1  0.16751538  0.83148936  0.64128140  1
  O2-  O491  1  0.16198281  0.82617772  0.99550889  1
  O2-  O492  1  0.42499594  0.08342066  0.30219616  1
  O2-  O493  1  0.40525623  0.08295027  0.63569197  1
  O2-  O494  1  0.42488113  0.07249029  0.98999131  1
  O2-  O495  1  0.44186286  0.31713790  0.31133347  1
  O2-  O496  1  0.41906651  0.33989295  0.65854332  1
  O2-  O497  1  0.45762792  0.40920307  0.95625983  1
  O2-  O498  1  0.40964565  0.58224575  0.31637547  1
  O2-  O499  1  0.43106491  0.57992077  0.63573652  1
  O2-  O500  1  0.40601285  0.57953601  0.97650470  1
  O2-  O501  1  0.42587667  0.83115888  0.32960907  1
  O2-  O502  1  0.42828903  0.83848090  0.64101623  1
  O2-  O503  1  0.40805775  0.82077912  0.98315439  1
  O2-  O504  1  0.68435745  0.07919041  0.30719317  1
  O2-  O505  1  0.67825031  0.08953508  0.65088796  1
  O2-  O506  1  0.65082164  0.06888411  0.97090375  1
  O2-  O507  1  0.63465754  0.26630692  0.29683774  1
  O2-  O508  1  0.54213923  0.19558226  0.71078977  1
  O2-  O509  1  0.66194702  0.33363838  0.98175585  1
  O2-  O510  1  0.65921835  0.59054255  0.30702135  1
  O2-  O511  1  0.66986183  0.57252914  0.64481734  1
  O2-  O512  1  0.66395884  0.58518524  0.98249268  1
  O2-  O513  1  0.68022919  0.83380407  0.30255466  1
  O2-  O514  1  0.60560831  0.80401101  0.61303063  1
  O2-  O515  1  0.65632232  0.82667081  0.98784775  1
  O2-  O516  1  0.92071628  0.08669474  0.31614593  1
  O2-  O517  1  0.92132757  0.10396469  0.64497736  1
  O2-  O518  1  0.91373784  0.08843736  0.98925013  1
  O2-  O519  1  0.92471468  0.32963892  0.31819083  1
  O2-  O520  1  0.91753968  0.35585643  0.64854334  1
  O2-  O521  1  0.90332232  0.33828676  0.98846753  1
  O2-  O522  1  0.93581039  0.53960739  0.26271321  1
  O2-  O523  1  0.93179264  0.54795505  0.64544933  1
  O2-  O524  1  0.93206496  0.59237429  0.98297493  1
  O2-  O525  1  0.90621795  0.81937038  0.29522162  1
  O2-  O526  1  0.95968188  0.77389339  0.62181429  1
  O2-  O527  1  0.91571905  0.83080813  1.01738303  1
  O2-  O528  1  0.07772156  0.15742817  0.01896893  1
  O2-  O529  1  0.08287979  0.16710444  0.35192960  1
  O2-  O530  1  0.08980168  0.17937276  0.68280687  1
  O2-  O531  1  0.06784565  0.40011260  0.02772786  1
  O2-  O532  1  0.08501563  0.41953188  0.35400510  1
  O2-  O533  1  0.08072769  0.43495202  0.68242608  1
  O2-  O534  1  0.07194317  0.66447831  0.03358494  1
  O2-  O535  1  0.09392480  0.69344733  0.36133821  1
  O2-  O536  1  0.07844638  0.67250717  0.68888024  1
  O2-  O537  1  0.08336795  0.91260213  0.03217194  1
  O2-  O538  1  0.08763783  0.91855958  0.33152166  1
  O2-  O539  1  0.09089382  0.91910028  0.68334142  1
  O2-  O540  1  0.29051141  0.07030801  0.05649683  1
  O2-  O541  1  0.33530207  0.15521727  0.34517976  1
  O2-  O542  1  0.33817958  0.17212243  0.68896629  1
  O2-  O543  1  0.30377686  0.39618002  0.00641540  1
  O2-  O544  1  0.33894742  0.41198231  0.35233474  1
  O2-  O545  1  0.32650616  0.41846815  0.68441847  1
  O2-  O546  1  0.32647730  0.66246805  0.02975471  1
  O2-  O547  1  0.32249350  0.65314432  0.36176388  1
  O2-  O548  1  0.35442160  0.66466019  0.68363640  1
  O2-  O549  1  0.32936014  0.90571335  0.02670713  1
  O2-  O550  1  0.25988845  0.85465363  0.28065783  1
  O2-  O551  1  0.33473420  0.91477488  0.66973331  1
  O2-  O552  1  0.58451033  0.16840450  0.02340536  1
  O2-  O553  1  0.50854005  0.10771991  0.32897675  1
  O2-  O554  1  0.58779986  0.18558909  0.65923290  1
  O2-  O555  1  0.58839140  0.42211164  0.02384986  1
  O2-  O556  1  0.58852124  0.43145152  0.37340758  1
  O2-  O557  1  0.58273457  0.42777538  0.68870532  1
  O2-  O558  1  0.56523129  0.65575927  0.02363465  1
  O2-  O559  1  0.58330738  0.67205579  0.35187645  1
  O2-  O560  1  0.59031336  0.66210577  0.68733193  1
  O2-  O561  1  0.57387335  0.91046928  0.02985760  1
  O2-  O562  1  0.56527927  0.91338904  0.39911227  1
  O2-  O563  1  0.59060211  0.92244942  0.68824755  1
  O2-  O564  1  0.85920919  0.19765111  0.03773395  1
  O2-  O565  1  0.83874639  0.16685505  0.35127402  1
  O2-  O566  1  0.84215985  0.18345496  0.69101241  1
  O2-  O567  1  0.81603337  0.39868169  0.02522033  1
  O2-  O568  1  0.79710961  0.35808531  0.36641639  1
  O2-  O569  1  0.85068067  0.51836198  0.67876106  1
  O2-  O570  1  0.82977586  0.65322307  0.01009027  1
  O2-  O571  1  0.81912307  0.65424564  0.36191457  1
  O2-  O572  1  0.83130597  0.67497461  0.68952652  1
  O2-  O573  1  0.82064812  0.92056802  0.02529997  1
  O2-  O574  1  0.84796188  0.92426708  0.36266647  1
  O2-  O575  1  0.89313440  0.97354635  0.72305496  1
