# generated using pymatgen
data_H2O
_symmetry_space_group_name_H-M   'P 1'
_cell_length_a   17.96801033
_cell_length_b   17.97853875
_cell_length_c   21.98339948
_cell_angle_alpha   90.00628049
_cell_angle_beta   90.02275406
_cell_angle_gamma   119.99079769
_symmetry_Int_Tables_number   1
_chemical_formula_structural   H2O
_chemical_formula_sum   'H384 O192'
_cell_volume   6150.63655253
_cell_formula_units_Z   192
loop_
 _symmetry_equiv_pos_site_id
 _symmetry_equiv_pos_as_xyz
  1  'x, y, z'
loop_
 _atom_type_symbol
 _atom_type_oxidation_number
  H+  1.0
  O2-  -2.0
loop_
 _atom_site_type_symbol
 _atom_site_label
 _atom_site_symmetry_multiplicity
 _atom_site_fract_x
 _atom_site_fract_y
 _atom_site_fract_z
 _atom_site_occupancy
  H+  H0  1  0.24326441  0.12778970  0.82909061  1
  H+  H1  1  0.65648984  0.51167497  0.18050858  1
  H+  H2  1  0.54909335  0.88513040  0.34354830  1
  H+  H3  1  0.50172123  0.61927160  0.32204257  1
  H+  H4  1  0.36895679  0.38699958  -0.00158545  1
  H+  H5  1  0.98718003  0.88283167  0.83505878  1
  H+  H6  1  0.39115640  0.26156001  0.51470934  1
  H+  H7  1  0.07620450  0.59010384  0.65549876  1
  H+  H8  1  0.96305303  0.61599872  0.51066281  1
  H+  H9  1  0.63641905  0.85581627  0.65794593  1
  H+  H10  1  0.20553176  0.35665743  0.34243658  1
  H+  H11  1  0.52293486  0.38761310  -0.00277771  1
  H+  H12  1  0.76842638  0.90610805  0.18643076  1
  H+  H13  1  0.50009387  0.59541605  0.51860135  1
  H+  H14  1  0.37414708  0.26929235  0.96748429  1
  H+  H15  1  0.92925923  0.64318758  0.82874120  1
  H+  H16  1  0.53345793  0.62921092  0.82896041  1
  H+  H17  1  0.99940559  0.44267705  0.62691213  1
  H+  H18  1  0.88259688  0.10403507  0.98629302  1
  H+  H19  1  0.11321514  0.97749039  0.33774598  1
  H+  H20  1  0.12270217  0.50323701  -0.01037390  1
  H+  H21  1  0.40607906  0.11914168  0.48503087  1
  H+  H22  1  0.14394462  0.11625833  0.16886965  1
  H+  H23  1  0.76671829  0.11953781  0.00022764  1
  H+  H24  1  0.38419478  0.38148512  0.31212615  1
  H+  H25  1  0.33803453  0.66916657  0.06204856  1
  H+  H26  1  0.43373147  0.26559616  0.17460757  1
  H+  H27  1  0.08961850  0.37171204  0.32040225  1
  H+  H28  1  0.62786782  0.36126831  0.48951167  1
  H+  H29  1  0.58213791  0.38012429  0.15442631  1
  H+  H30  1  0.37536507  0.13823577  1.00558664  1
  H+  H31  1  0.09299308  0.71123803  0.69893920  1
  H+  H32  1  0.92691256  0.84358999  0.93031156  1
  H+  H33  1  0.87079310  0.11417061  0.32534367  1
  H+  H34  1  0.72802443  0.86054188  0.50613254  1
  H+  H35  1  0.35608912  0.84815993  0.51251376  1
  H+  H36  1  0.20996103  0.85589797  0.16433918  1
  H+  H37  1  0.33748269  0.88154952  0.28738334  1
  H+  H38  1  0.71305227  0.95605181  0.20962392  1
  H+  H39  1  0.89489878  0.12812395  0.83335502  1
  H+  H40  1  0.48080855  0.12085046  -0.01093613  1
  H+  H41  1  0.89690059  0.62663517  0.98815079  1
  H+  H42  1  0.38353967  0.34432044  0.52535187  1
  H+  H43  1  0.63756474  0.35729807  0.34098458  1
  H+  H44  1  0.77365332  0.88395389  0.66877313  1
  H+  H45  1  0.12413357  0.98747266  -0.00594966  1
  H+  H46  1  0.85936007  0.64004862  0.47044333  1
  H+  H47  1  0.87427368  0.10598405  0.65942357  1
  H+  H48  1  0.02490203  0.89500625  0.48915248  1
  H+  H49  1  0.12510544  0.47420622  0.31945033  1
  H+  H50  1  0.87823023  1.01851101  0.65820183  1
  H+  H51  1  0.25364276  0.60090792  0.31509096  1
  H+  H52  1  0.93487831  0.60629543  0.92723358  1
  H+  H53  1  0.12343867  0.23043209  0.13838306  1
  H+  H54  1  0.41717419  0.52909375  0.31084874  1
  H+  H55  1  0.12763333  0.36412108  0.49625470  1
  H+  H56  1  0.11098699  0.48065587  0.47887209  1
  H+  H57  1  0.62473126  0.19052513  0.83502851  1
  H+  H58  1  0.61915307  0.63419660  0.67479211  1
  H+  H59  1  0.22516699  0.38663382  0.31582358  1
  H+  H60  1  0.78561244  0.16416249  0.82802499  1
  H+  H61  1  0.87436100  0.89025538  0.34399908  1
  H+  H62  1  0.89144805  0.28698781  0.49943457  1
  H+  H63  1  0.94017714  0.37362260  0.16364896  1
  H+  H64  1  0.08436412  0.22338435  0.66840134  1
  H+  H65  1  0.47188384  0.12532751  0.83974803  1
  H+  H66  1  0.87593829  0.74885138  0.81813044  1
  H+  H67  1  0.12678942  0.40135715  0.83258652  1
  H+  H68  1  0.14270371  0.27613407  0.83944639  1
  H+  H69  1  0.13202906  0.61635208  0.16612013  1
  H+  H70  1  0.88857832  0.69575792  0.91209597  1
  H+  H71  1  0.87951368  0.15081475  0.14905740  1
  H+  H72  1  0.48497623  0.52251341  0.56435478  1
  H+  H73  1  0.63203487  0.30934406  0.81979617  1
  H+  H74  1  0.88829647  0.62153552  0.15972323  1
  H+  H75  1  0.00940961  0.09669389  0.35609719  1
  H+  H76  1  0.35277027  0.46309696  0.17457230  1
  H+  H77  1  0.82161799  0.39122790  0.13577657  1
  H+  H78  1  0.35044343  0.87691621  0.16158414  1
  H+  H79  1  0.12729587  0.65667875  -0.00374546  1
  H+  H80  1  0.86493088  0.37340124  0.34425559  1
  H+  H81  1  0.88675980  -0.01291408  0.15903966  1
  H+  H82  1  -0.02016068  0.86450804  0.33497525  1
  H+  H83  1  0.78652342  0.41867009  0.80842731  1
  H+  H84  1  0.13790549  0.61181718  0.50934424  1
  H+  H85  1  0.35519937  0.28720908  0.29476562  1
  H+  H86  1  0.87258051  0.14815076  0.49727801  1
  H+  H87  1  0.86859135  0.48804825  0.98552909  1
  H+  H88  1  0.40945548  0.76651356  0.33138124  1
  H+  H89  1  0.36804516  -0.01669129  1.00383375  1
  H+  H90  1  0.25236274  0.89221993  0.52439059  1
  H+  H91  1  0.64339623  0.61183723  -0.01685671  1
  H+  H92  1  -0.02249963  0.61047160  0.15224942  1
  H+  H93  1  0.37320470  0.47630409  0.83234499  1
  H+  H94  1  0.11909246  -0.03422924  0.65188607  1
  H+  H95  1  0.10985411  0.89441471  0.81976850  1
  H+  H96  1  0.27277828  0.14554256  0.33460795  1
  H+  H97  1  0.12283301  0.56821377  0.59926178  1
  H+  H98  1  0.72768907  0.61635775  0.65720693  1
  H+  H99  1  0.62475120  0.88402477  0.00496084  1
  H+  H100  1  0.06723063  0.18978790  0.33086821  1
  H+  H101  1  0.86890947  0.72829258  0.16409982  1
  H+  H102  1  0.03566584  0.65383507  -0.00407961  1
  H+  H103  1  0.14248830  0.78396083  0.99542085  1
  H+  H104  1  0.83891351  0.42506983  0.71484319  1
  H+  H105  1  0.52965945  0.15006351  0.52948961  1
  H+  H106  1  0.63982572  0.75525857  0.15172418  1
  H+  H107  1  0.35732451  0.72120371  0.16015955  1
  H+  H108  1  0.98847167  0.38873579  0.97369438  1
  H+  H109  1  0.15351283  0.12845281  0.83557905  1
  H+  H110  1  0.87345489  0.52200836  0.14710546  1
  H+  H111  1  0.89156899  0.37859298  0.82660533  1
  H+  H112  1  0.40511386  0.27404299  0.82154069  1
  H+  H113  1  0.11492225  0.85792063  0.31321615  1
  H+  H114  1  0.68559053  0.57974125  0.27965717  1
  H+  H115  1  0.62633152  0.89692686  0.49353427  1
  H+  H116  1  0.36496281  0.21554481  0.71304181  1
  H+  H117  1  0.63511411  0.84638626  0.83942979  1
  H+  H118  1  0.58732647  0.85887507  0.15283801  1
  H+  H119  1  0.32776248  0.91249652  0.10167370  1
  H+  H120  1  -0.00297820  0.12316839  0.16232783  1
  H+  H121  1  0.63580355  0.10443612  0.32696813  1
  H+  H122  1  0.86593819  0.97659569  0.33693120  1
  H+  H123  1  0.64761575  1.02213310  0.33300286  1
  H+  H124  1  0.18095401  0.08689184  0.57175013  1
  H+  H125  1  0.35662124  0.96868097  0.83470398  1
  H+  H126  1  0.14705136  0.38001207  0.99576703  1
  H+  H127  1  0.04274269  0.63919143  0.74890058  1
  H+  H128  1  0.06662677  0.40644073  0.22564359  1
  H+  H129  1  0.38024445  0.60503493  0.16655763  1
  H+  H130  1  0.36836917  0.64904950  0.67473227  1
  H+  H131  1  0.38762990  0.86223774  0.84515676  1
  H+  H132  1  0.38449566  0.10465509  0.17272800  1
  H+  H133  1  0.46033125  0.34396052  0.21780802  1
  H+  H134  1  0.64541462  1.00105037  0.17818085  1
  H+  H135  1  0.74622549  0.12302355  0.67489392  1
  H+  H136  1  0.63468220  0.27133595  0.51211809  1
  H+  H137  1  0.20015177  0.85613238  0.30227993  1
  H+  H138  1  0.61197983  0.96711875  0.67247655  1
  H+  H139  1  0.86940241  0.73549048  0.00707405  1
  H+  H140  1  0.67269340  0.82784461  0.93511264  1
  H+  H141  1  0.41650307  0.36779522  0.82655597  1
  H+  H142  1  0.72395980  0.60520657  0.49795535  1
  H+  H143  1  0.67346139  0.58051895  0.56280517  1
  H+  H144  1  0.23403019  0.37371305  0.00345395  1
  H+  H145  1  0.27637342  0.87536837  0.69459431  1
  H+  H146  1  0.52288563  0.13360068  0.69122959  1
  H+  H147  1  0.89061606  0.77703381  0.34355532  1
  H+  H148  1  0.23911103  0.87851860  0.99780087  1
  H+  H149  1  0.72535445  0.37218768  -0.03123966  1
  H+  H150  1  0.85480745  0.48407284  0.49259821  1
  H+  H151  1  0.61945989  0.72051096  1.00667437  1
  H+  H152  1  0.77553167  0.14405656  0.34698512  1
  H+  H153  1  0.84146657  0.68447331  0.75950535  1
  H+  H154  1  0.88282376  0.49703965  0.81084347  1
  H+  H155  1  0.50558668  0.58627974  0.14406896  1
  H+  H156  1  -0.02118069  0.37701783  0.48886030  1
  H+  H157  1  0.27668619  0.13471152  0.16710524  1
  H+  H158  1  0.06192825  0.63064333  0.56833655  1
  H+  H159  1  0.12801474  0.52569588  0.17351567  1
  H+  H160  1  0.51833106  0.37423621  0.50576232  1
  H+  H161  1  0.12352583  0.86535499  0.51585082  1
  H+  H162  1  0.63426498  0.26470272  0.34506711  1
  H+  H163  1  0.17174512  0.60228853  0.92554460  1
  H+  H164  1  0.77844097  0.89594823  0.82401079  1
  H+  H165  1  0.65269968  0.12457850  0.53183041  1
  H+  H166  1  0.52207895  0.13110548  0.15279992  1
  H+  H167  1  0.13874103  0.11505436  0.66706966  1
  H+  H168  1  0.13357416  0.53143139  0.84190670  1
  H+  H169  1  0.56997157  0.02896316  0.95548345  1
  H+  H170  1  0.89144983  0.86762900  0.65219294  1
  H+  H171  1  0.16338014  0.34463580  0.09165810  1
  H+  H172  1  0.85731251  0.64215277  0.66880758  1
  H+  H173  1  0.28137496  0.13303010  0.49187969  1
  H+  H174  1  0.60003794  0.74762925  0.16839366  1
  H+  H175  1  0.26859602  0.63406267  0.15277080  1
  H+  H176  1  0.60385767  0.94454878  0.82140351  1
  H+  H177  1  0.72329006  0.35755808  0.64573840  1
  H+  H178  1  0.01142726  0.59259483  0.36896335  1
  H+  H179  1  0.27066666  0.63856739  0.82708621  1
  H+  H180  1  0.83125919  0.21331751  0.66725472  1
  H+  H181  1  0.61453044  0.23559293  0.00080362  1
  H+  H182  1  0.38117108  1.03332984  0.32139991  1
  H+  H183  1  0.42321093  0.85877674  0.34688162  1
  H+  H184  1  0.47529520  0.85725037  0.65432528  1
  H+  H185  1  0.88364569  0.27895122  0.33900658  1
  H+  H186  1  0.88231851  0.52496500  0.33484786  1
  H+  H187  1  0.36704878  0.89300945  1.00542810  1
  H+  H188  1  0.39663437  0.54257399  0.67537715  1
  H+  H189  1  0.78386145  0.14784012  0.50313331  1
  H+  H190  1  0.09606951  0.72525387  0.54089175  1
  H+  H191  1  0.03116941  0.14345008  0.82577680  1
  H+  H192  1  1.03140463  0.34152924  0.63673744  1
  H+  H193  1  0.22313832  0.11131038  0.68300155  1
  H+  H194  1  0.86770224  0.97686296  0.00304525  1
  H+  H195  1  0.86396177  0.28159472  0.14835499  1
  H+  H196  1  0.65430468  0.62527236  0.83617387  1
  H+  H197  1  0.89212607  0.28791306  0.82856697  1
  H+  H198  1  0.11238165  0.22868922  0.49864259  1
  H+  H199  1  0.86501194  0.98185461  0.49769355  1
  H+  H200  1  0.62263512  0.97309188  0.00778708  1
  H+  H201  1  0.97024323  0.37358987  0.32891220  1
  H+  H202  1  0.72666665  0.36492456  0.48862538  1
  H+  H203  1  0.61538283  0.13581315  0.69170675  1
  H+  H204  1  0.14145936  0.82683521  0.21953716  1
  H+  H205  1  0.40428505  0.50090453  0.39322669  1
  H+  H206  1  0.13697900  1.02426966  0.17011578  1
  H+  H207  1  0.03748934  0.39901022  0.82660403  1
  H+  H208  1  0.23624189  0.63021157  0.98518536  1
  H+  H209  1  0.63438704  0.98962969  0.49370718  1
  H+  H210  1  0.10664394  0.75300300  0.83252813  1
  H+  H211  1  0.37055544  0.64425761  1.00146463  1
  H+  H212  1  0.78043085  0.63615761  0.36940716  1
  H+  H213  1  0.00613237  0.23991458  0.25974220  1
  H+  H214  1  0.42227162  0.58736540  0.22504395  1
  H+  H215  1  0.51640150  0.12790777  0.33832533  1
  H+  H216  1  0.97778667  0.86418440  0.17632590  1
  H+  H217  1  0.83715983  0.92506839  0.43696461  1
  H+  H218  1  0.89167018  0.38288500  0.97592433  1
  H+  H219  1  0.46610428  0.85765553  0.17191112  1
  H+  H220  1  0.61595250  0.11558423  -0.00816636  1
  H+  H221  1  0.12201039  0.98851326  0.82409596  1
  H+  H222  1  0.86469992  0.98876863  0.81959488  1
  H+  H223  1  0.23692766  0.12349133  0.98645398  1
  H+  H224  1  0.66217013  0.34947053  0.91264101  1
  H+  H225  1  0.76032746  0.37092225  0.34838129  1
  H+  H226  1  0.22548666  0.61058886  0.50438181  1
  H+  H227  1  0.36075108  0.72386426  0.83043115  1
  H+  H228  1  0.02974541  0.87848052  0.64559453  1
  H+  H229  1  0.87084941  0.39838782  0.65555898  1
  H+  H230  1  0.59421192  0.58653717  0.14950592  1
  H+  H231  1  0.38214295  0.01458820  0.17384772  1
  H+  H232  1  0.61039612  0.38689701  0.99038233  1
  H+  H233  1  0.55722080  0.13287646  0.40222405  1
  H+  H234  1  0.64575498  0.08591320  0.83238453  1
  H+  H235  1  0.36485479  0.64571709  0.49455711  1
  H+  H236  1  0.39099295  0.10591889  0.70006046  1
  H+  H237  1  0.92054050  0.83163082  0.23794343  1
  H+  H238  1  0.47886421  0.34549387  0.67962825  1
  H+  H239  1  0.26459560  0.37551562  0.51193129  1
  H+  H240  1  0.75853792  0.64029011  0.83332671  1
  H+  H241  1  0.10164250  0.72509231  0.15215101  1
  H+  H242  1  0.64225645  0.52334165  0.65816111  1
  H+  H243  1  0.64199361  0.52218486  -0.01811149  1
  H+  H244  1  0.11207312  0.60873032  0.84375901  1
  H+  H245  1  0.39257320  1.02001768  0.68557229  1
  H+  H246  1  0.43706625  0.59155935  0.61430118  1
  H+  H247  1  0.84920256  0.69912076  -0.08826608  1
  H+  H248  1  0.64231899  0.76954932  0.66083512  1
  H+  H249  1  0.12309387  0.37284279  0.66417879  1
  H+  H250  1  0.89770731  0.61602662  0.35150892  1
  H+  H251  1  0.64873218  0.76626306  0.84068285  1
  H+  H252  1  0.10631713  0.88743220  0.15098752  1
  H+  H253  1  0.66732606  0.82771916  0.56474007  1
  H+  H254  1  0.20503612  0.83552782  0.83642519  1
  H+  H255  1  0.83039528  0.17619548  0.76348285  1
  H+  H256  1  0.62228237  0.38847971  0.66738701  1
  H+  H257  1  0.61849254  0.72520064  0.49447343  1
  H+  H258  1  0.38319498  0.77115440  0.66007161  1
  H+  H259  1  0.98028239  0.11554130  0.50896731  1
  H+  H260  1  0.14737718  0.11713415  0.51512719  1
  H+  H261  1  0.87165560  0.52635824  0.65043338  1
  H+  H262  1  0.74236187  0.28244684  0.21474236  1
  H+  H263  1  0.39487765  0.53054553  0.99149884  1
  H+  H264  1  0.42025504  0.83346334  0.90373886  1
  H+  H265  1  0.89834892  0.87045006  0.99167796  1
  H+  H266  1  0.48298192  0.86646451  -0.00268857  1
  H+  H267  1  0.86137526  0.73333992  0.66571099  1
  H+  H268  1  0.65446668  0.61407986  0.33494354  1
  H+  H269  1  0.78425393  0.12833527  0.15756487  1
  H+  H270  1  0.14320939  0.88167716  -0.00513791  1
  H+  H271  1  0.62815204  0.72867710  0.34094008  1
  H+  H272  1  0.82792271  0.15578203  0.05704588  1
  H+  H273  1  0.69068538  0.59603890  0.89784301  1
  H+  H274  1  0.13368032  0.10640071  0.32482737  1
  H+  H275  1  0.88694621  0.86725901  0.49913109  1
  H+  H276  1  0.28666490  0.38475259  0.83142303  1
  H+  H277  1  0.62583295  0.47226805  0.34814808  1
  H+  H278  1  0.36688625  0.87942155  0.68000005  1
  H+  H279  1  0.73390879  0.86052762  -0.00604721  1
  H+  H280  1  0.40554332  1.03380428  0.50168983  1
  H+  H281  1  0.39317036  0.61184966  0.83744375  1
  H+  H282  1  0.38771205  0.63892933  0.34013597  1
  H+  H283  1  0.74393714  0.86616813  0.33381800  1
  H+  H284  1  0.82462917  0.04528191  0.27573874  1
  H+  H285  1  0.15620246  0.82277233  0.74935571  1
  H+  H286  1  0.58948221  0.20503528  0.58734945  1
  H+  H287  1  0.03385334  0.89626058  -0.00441640  1
  H+  H288  1  0.62087307  0.42811071  0.09313680  1
  H+  H289  1  0.65487344  0.86984644  0.33412310  1
  H+  H290  1  0.33480878  0.17246033  0.43009275  1
  H+  H291  1  0.29372690  0.91705073  0.45998632  1
  H+  H292  1  0.09854810  0.64564639  0.40202098  1
  H+  H293  1  0.41938676  0.82995831  0.23591330  1
  H+  H294  1  0.36636399  0.15905382  0.33146637  1
  H+  H295  1  0.93416910  0.09485080  0.22160564  1
  H+  H296  1  0.33702127  0.90882911  0.77695649  1
  H+  H297  1  0.83535422  0.91937397  0.72730903  1
  H+  H298  1  0.59342606  0.66919577  0.40075567  1
  H+  H299  1  0.83816015  0.67342690  0.10146992  1
  H+  H300  1  0.97364748  0.10641489  0.98454727  1
  H+  H301  1  0.08432133  0.67097354  0.09082690  1
  H+  H302  1  0.78262553  0.64394723  0.00560028  1
  H+  H303  1  0.58047112  0.64046372  0.05599736  1
  H+  H304  1  0.63819518  0.27422216  0.66575784  1
  H+  H305  1  0.82914322  0.41429636  0.40656639  1
  H+  H306  1  0.10124277  0.38581858  0.16558090  1
  H+  H307  1  0.57564743  0.89537212  0.72631945  1
  H+  H308  1  0.01002709  0.13012109  0.67484611  1
  H+  H309  1  0.41680457  0.09020045  0.93027706  1
  H+  H310  1  0.34358389  0.43095209  0.74399630  1
  H+  H311  1  0.18464606  0.09739375  0.92285457  1
  H+  H312  1  0.39922515  0.22697933  0.03646017  1
  H+  H313  1  0.58228389  0.40937018  0.40379615  1
  H+  H314  1  0.51145324  0.86320448  0.82815736  1
  H+  H315  1  0.61275913  0.42392004  0.73154734  1
  H+  H316  1  0.68223545  0.30969380  0.24669835  1
  H+  H317  1  0.08157298  0.42459212  0.41726297  1
  H+  H318  1  0.08883069  0.15709681  0.08864439  1
  H+  H319  1  0.33249104  0.15728760  0.10686192  1
  H+  H320  1  0.91346076  0.83352359  0.59094487  1
  H+  H321  1  0.33350090  0.37555234  0.20583057  1
  H+  H322  1  0.62275629  0.63733806  0.49135245  1
  H+  H323  1  0.66943408  0.11531450  0.90043298  1
  H+  H324  1  0.59155037  0.05234230  0.63817091  1
  H+  H325  1  0.30598183  0.86830034  0.35464319  1
  H+  H326  1  0.95791563  0.61401500  0.66174251  1
  H+  H327  1  0.41573994  0.30330061  0.62485648  1
  H+  H328  1  0.35429281  0.72929498  0.49242968  1
  H+  H329  1  0.08703883  0.92030113  0.39905530  1
  H+  H330  1  0.10121628  0.27191141  0.24214669  1
  H+  H331  1  0.61742904  0.20986448  0.16088588  1
  H+  H332  1  0.08845023  0.16580953  0.44151330  1
  H+  H333  1  0.36170221  0.45405616  0.51769667  1
  H+  H334  1  0.60907713  0.92551947  0.40437260  1
  H+  H335  1  0.42468459  0.58616084  0.89749953  1
  H+  H336  1  0.89055676  0.58668192  0.55821048  1
  H+  H337  1  0.74677078  0.41682937  0.13137189  1
  H+  H338  1  0.87369395  0.89085402  0.16724841  1
  H+  H339  1  0.12718554  0.33311719  0.56340817  1
  H+  H340  1  0.35590344  0.41151211  0.42232855  1
  H+  H341  1  0.17161103  0.32971213  0.90100506  1
  H+  H342  1  0.68280278  0.05552829  0.24086670  1
  H+  H343  1  0.42313612  0.33461634  0.91444291  1
  H+  H344  1  0.59359301  0.66076954  0.76889313  1
  H+  H345  1  0.22300959  0.36490216  0.15096560  1
  H+  H346  1  0.58736466  0.19271779  0.76977503  1
  H+  H347  1  0.86302349  0.39688209  0.49353025  1
  H+  H348  1  0.60855306  0.46655426  0.50046381  1
  H+  H349  1  0.89590020  0.87994233  0.83586164  1
  H+  H350  1  0.58483303  0.17706618  0.06417409  1
  H+  H351  1  0.33082833  0.67212507  0.73136315  1
  H+  H352  1  0.08827271  0.17511960  0.76617066  1
  H+  H353  1  0.19389094  0.58105736  0.25570525  1
  H+  H354  1  0.16596891  0.08039275  0.26456548  1
  H+  H355  1  0.13652426  0.85251139  0.68599338  1
  H+  H356  1  0.91733300  0.08861657  0.89138121  1
  H+  H357  1  0.41927063  0.08898765  0.26250732  1
  H+  H358  1  0.84298648  0.92048106  0.06466992  1
  H+  H359  1  0.55686765  0.37440811  0.82765999  1
  H+  H360  1  0.92267143  0.35252839  0.90968146  1
  H+  H361  1  0.70216177  0.87099151  0.25546297  1
  H+  H362  1  0.23314718  0.34926393  0.67240586  1
  H+  H363  1  0.91653326  0.08583412  0.56650025  1
  H+  H364  1  0.94012557  0.36458456  0.58442185  1
  H+  H365  1  0.07994731  0.44203442  0.04635347  1
  H+  H366  1  0.35140814  0.41473333  0.06336239  1
  H+  H367  1  0.67932577  0.08003849  0.58148949  1
  H+  H368  1  0.13495964  0.86264891  0.58520767  1
  H+  H369  1  0.82407849  0.42490183  0.04110384  1
  H+  H370  1  0.07894152  0.92506284  0.09529516  1
  H+  H371  1  0.38070986  0.11730074  0.83213704  1
  H+  H372  1  0.11154679  0.22083299  1.00257678  1
  H+  H373  1  0.39207726  0.77976134  0.99777811  1
  H+  H374  1  0.48434974  0.61796368  0.98861391  1
  H+  H375  1  0.39894008  0.82172478  0.56481055  1
  H+  H376  1  0.73058568  0.60683618  0.18187816  1
  H+  H377  1  0.34855022  0.66618914  0.39751780  1
  H+  H378  1  0.53314803  0.64114406  0.68194099  1
  H+  H379  1  0.88745659  0.77907484  0.49084583  1
  H+  H380  1  0.11715994  0.98186623  0.49447550  1
  H+  H381  1  0.57621285  0.90492081  0.09571044  1
  H+  H382  1  0.11754163  0.13543692  -0.00602739  1
  H+  H383  1  0.83694028  0.17245151  0.40644120  1
  O2-  O384  1  0.09423883  0.16642629  0.13408540  1
  O2-  O385  1  0.08809064  0.16699133  0.48645023  1
  O2-  O386  1  0.09210318  0.17518853  0.81147016  1
  O2-  O387  1  0.06703786  0.41176007  0.18127768  1
  O2-  O388  1  0.07967911  0.42052262  0.46229410  1
  O2-  O389  1  0.09945194  0.43447344  0.81880546  1
  O2-  O390  1  0.07502514  0.66424921  0.13584819  1
  O2-  O391  1  0.06787777  0.66310986  0.53045385  1
  O2-  O392  1  0.04111896  0.64547028  0.82372800  1
  O2-  O393  1  0.07724542  0.92144791  0.14035146  1
  O2-  O394  1  0.08651688  0.92297856  0.47625647  1
  O2-  O395  1  0.08321676  0.92933181  0.80926481  1
  O2-  O396  1  0.33691220  0.15971192  0.15162553  1
  O2-  O397  1  0.34054576  0.16480821  0.47449468  1
  O2-  O398  1  0.33944525  0.17197448  0.79860192  1
  O2-  O399  1  0.32042164  0.39921999  0.16920055  1
  O2-  O400  1  0.32547006  0.39545280  0.50093784  1
  O2-  O401  1  0.34696457  0.41626392  0.81621525  1
  O2-  O402  1  0.33077640  0.66350625  0.14088295  1
  O2-  O403  1  0.33204067  0.66804386  0.47402793  1
  O2-  O404  1  0.33163615  0.66381229  0.81485236  1
  O2-  O405  1  0.32066699  0.90763616  0.14661373  1
  O2-  O406  1  0.30920157  0.91744495  0.50245469  1
  O2-  O407  1  0.33168092  0.90768903  0.82280280  1
  O2-  O408  1  0.58020877  0.16028689  0.13425881  1
  O2-  O409  1  0.59091245  0.18779373  0.54517671  1
  O2-  O410  1  0.58594524  0.20670483  0.81452649  1
  O2-  O411  1  0.63768679  0.42345447  0.13515116  1
  O2-  O412  1  0.57798471  0.40509328  0.48713257  1
  O2-  O413  1  0.61787391  0.41304764  0.81419815  1
  O2-  O414  1  0.55277317  0.58714663  0.12032893  1
  O2-  O415  1  0.58857740  0.66447632  0.47805319  1
  O2-  O416  1  0.59488168  0.65931451  0.81506933  1
  O2-  O417  1  0.56890304  0.89982632  0.14131814  1
  O2-  O418  1  0.60731656  0.93346351  0.47251556  1
  O2-  O419  1  0.57076949  0.88443158  0.80978397  1
  O2-  O420  1  0.83813563  0.16931558  0.13671922  1
  O2-  O421  1  0.84152848  0.17804956  0.48253699  1
  O2-  O422  1  0.84258483  0.18636198  0.80820738  1
  O2-  O423  1  0.80645649  0.43391112  0.11889028  1
  O2-  O424  1  0.82687898  0.42201729  0.47885785  1
  O2-  O425  1  0.84631377  0.43683841  0.79626742  1
  O2-  O426  1  0.84154972  0.66879456  0.14689909  1
  O2-  O427  1  0.82799181  0.66976515  0.45415749  1
  O2-  O428  1  0.84570337  0.68670600  0.80525375  1
  O2-  O429  1  0.84652159  0.92438905  0.15112683  1
  O2-  O430  1  0.83518644  0.92120033  0.48212284  1
  O2-  O431  1  0.83686324  0.92767976  0.80568860  1
  O2-  O432  1  0.16984693  0.08372848  0.18739936  1
  O2-  O433  1  0.17739737  0.08518246  0.52653379  1
  O2-  O434  1  0.18501433  0.09946425  0.85044199  1
  O2-  O435  1  0.16052644  0.33878023  0.13646883  1
  O2-  O436  1  0.14937796  0.33313595  0.52192113  1
  O2-  O437  1  0.17601511  0.33606391  0.85669655  1
  O2-  O438  1  0.16570956  0.58870936  0.17883752  1
  O2-  O439  1  0.16482324  0.57669672  0.51835362  1
  O2-  O440  1  0.15640937  0.59300841  0.85561572  1
  O2-  O441  1  0.14708386  0.82668614  0.17309016  1
  O2-  O442  1  0.14812492  0.84248455  0.54670759  1
  O2-  O443  1  0.14454904  0.81717690  0.82750351  1
  O2-  O444  1  0.41619698  0.07534843  0.18770462  1
  O2-  O445  1  0.44426573  0.09380776  0.48921966  1
  O2-  O446  1  0.41172579  0.09014335  0.85371620  1
  O2-  O447  1  0.48309256  0.32089649  0.18709368  1
  O2-  O448  1  0.42014436  0.31884967  0.53538767  1
  O2-  O449  1  0.44235853  0.33312074  0.84045148  1
  O2-  O450  1  0.40853335  0.57280084  0.18143897  1
  O2-  O451  1  0.45530796  0.54988735  0.54582357  1
  O2-  O452  1  0.42567838  0.58362842  0.85195907  1
  O2-  O453  1  0.40831759  0.82974227  0.19168387  1
  O2-  O454  1  0.38757831  0.81707314  0.51994186  1
  O2-  O455  1  0.41838909  0.83072059  0.85841946  1
  O2-  O456  1  0.69849442  0.03571249  0.20258957  1
  O2-  O457  1  0.68458619  0.09332777  0.53598945  1
  O2-  O458  1  0.68377144  0.13563167  0.85714024  1
  O2-  O459  1  0.69630241  0.29485735  0.20659329  1
  O2-  O460  1  0.66129943  0.32713890  0.48561833  1
  O2-  O461  1  0.66720325  0.37186364  0.83413772  1
  O2-  O462  1  0.67316532  0.56874577  0.19939007  1
  O2-  O463  1  0.66648558  0.57543192  0.51712763  1
  O2-  O464  1  0.69551872  0.60470958  0.85124220  1
  O2-  O465  1  0.71492337  0.89997674  0.21016971  1
  O2-  O466  1  0.66656171  0.82747255  0.51901983  1
  O2-  O467  1  0.67391649  0.82648129  0.85589524  1
  O2-  O468  1  0.93520989  0.09393289  0.17675322  1
  O2-  O469  1  0.91830947  0.08749157  0.52087684  1
  O2-  O470  1  0.92212323  0.09412059  0.84603593  1
  O2-  O471  1  0.87784997  0.34119529  0.15685590  1
  O2-  O472  1  0.92037256  0.34985484  0.50867080  1
  O2-  O473  1  0.91997611  0.34840350  0.84552508  1
  O2-  O474  1  0.91420902  0.58137693  0.16642371  1
  O2-  O475  1  0.89825671  0.58640524  0.51317463  1
  O2-  O476  1  0.94957974  0.60542187  0.84612425  1
  O2-  O477  1  0.91761839  0.83256748  0.19267714  1
  O2-  O478  1  0.91815462  0.83598773  0.51081776  1
  O2-  O479  1  0.92563380  0.84941607  0.85114242  1
  O2-  O480  1  0.16643799  0.07891304  0.31021969  1
  O2-  O481  1  0.17276685  0.08772894  0.65540633  1
  O2-  O482  1  0.17858857  0.09269271  0.96925759  1
  O2-  O483  1  0.06390686  0.26477131  0.27671115  1
  O2-  O484  1  0.24757976  0.40534547  0.68909011  1
  O2-  O485  1  0.16974878  0.34027442  1.00145945  1
  O2-  O486  1  0.20396689  0.55579364  0.29258114  1
  O2-  O487  1  0.06811278  0.55199106  0.61992027  1
  O2-  O488  1  0.17462052  0.60264422  0.97235937  1
  O2-  O489  1  0.13929285  0.82677110  0.29068340  1
  O2-  O490  1  0.16287288  0.82021349  0.70431572  1
  O2-  O491  1  0.17567694  0.84837234  0.98398260  1
  O2-  O492  1  0.41827599  0.09306746  0.30839193  1
  O2-  O493  1  0.42398720  0.08325073  0.67866501  1
  O2-  O494  1  0.41895730  0.08704843  0.97618229  1
  O2-  O495  1  0.37292726  0.34391554  0.27650012  1
  O2-  O496  1  0.41812702  0.30488139  0.66964153  1
  O2-  O497  1  0.41108925  0.33102208  0.95973321  1
  O2-  O498  1  0.44098814  0.59088346  0.30529522  1
  O2-  O499  1  0.43329437  0.60192937  0.65820064  1
  O2-  O500  1  0.42241346  0.58993305  0.97535071  1
  O2-  O501  1  0.44082839  0.82969410  0.31764216  1
  O2-  O502  1  0.41365686  0.83192866  0.64258431  1
  O2-  O503  1  0.42224496  0.84142277  0.98375003  1
  O2-  O504  1  0.67349220  0.08109675  0.31437324  1
  O2-  O505  1  0.64652242  0.06294949  0.65436925  1
  O2-  O506  1  0.62725618  0.07159436  0.96970065  1
  O2-  O507  1  0.66852379  0.32422517  0.32931422  1
  O2-  O508  1  0.66021821  0.32456621  0.63804473  1
  O2-  O509  1  0.66373636  0.33972892  0.95727342  1
  O2-  O510  1  0.68786949  0.58518649  0.32512030  1
  O2-  O511  1  0.66782365  0.58264297  0.64009716  1
  O2-  O512  1  0.67649791  0.58372359  0.96822539  1
  O2-  O513  1  0.68512664  0.84054627  0.31396654  1
  O2-  O514  1  0.67023411  0.82837504  0.64273960  1
  O2-  O515  1  0.67233367  0.83028391  0.98070631  1
  O2-  O516  1  0.87912070  0.07334494  0.29789018  1
  O2-  O517  1  0.90858408  0.08051762  0.64452454  1
  O2-  O518  1  0.91325368  0.07426779  0.96967904  1
  O2-  O519  1  0.90580716  0.33920995  0.32388017  1
  O2-  O520  1  0.95648910  0.37962236  0.62823632  1
  O2-  O521  1  0.92664730  0.35655044  0.95863888  1
  O2-  O522  1  0.92202951  0.58646294  0.32830679  1
  O2-  O523  1  0.90148493  0.58873033  0.63952001  1
  O2-  O524  1  0.92898122  0.59837697  0.97236671  1
  O2-  O525  1  0.91729160  0.83264116  0.32166724  1
  O2-  O526  1  0.91822480  0.83435180  0.63617730  1
  O2-  O527  1  0.92971932  0.84148565  0.97603773  1
  O2-  O528  1  0.08207464  0.15878298  0.01228040  1
  O2-  O529  1  0.06802599  0.14513635  0.35703786  1
  O2-  O530  1  0.07191349  0.16819494  0.68633793  1
  O2-  O531  1  0.08697498  0.43978218  0.00247060  1
  O2-  O532  1  0.07532739  0.41561416  0.33271045  1
  O2-  O533  1  0.07944833  0.32845356  0.63796604  1
  O2-  O534  1  0.09592760  0.68639426  0.01224765  1
  O2-  O535  1  0.05406564  0.58669712  0.39422041  1
  O2-  O536  1  0.05082766  0.64833295  0.70307225  1
  O2-  O537  1  0.09529299  0.92740463  0.01090347  1
  O2-  O538  1  0.08043225  0.91715870  0.35363102  1
  O2-  O539  1  0.09339307  0.90337083  0.64460297  1
  O2-  O540  1  0.34963695  0.17266398  0.02372876  1
  O2-  O541  1  0.33334656  0.18556130  0.34718760  1
  O2-  O542  1  0.33051752  0.15625999  0.73120535  1
  O2-  O543  1  0.34344316  0.41843885  0.01950650  1
  O2-  O544  1  0.38600707  0.44122821  0.38413207  1
  O2-  O545  1  0.34081718  0.44102548  0.69863935  1
  O2-  O546  1  0.34018283  0.67459723  0.01661311  1
  O2-  O547  1  0.35710912  0.67010997  0.35220082  1
  O2-  O548  1  0.33380187  0.67581662  0.68637536  1
  O2-  O549  1  0.33506594  0.92260097  0.01920354  1
  O2-  O550  1  0.31893716  0.90612610  0.31963438  1
  O2-  O551  1  0.33964578  0.90943140  0.70152184  1
  O2-  O552  1  0.58395021  0.17630420  0.01716743  1
  O2-  O553  1  0.57325642  0.14844235  0.35964368  1
  O2-  O554  1  0.58771507  0.17114980  0.69987039  1
  O2-  O555  1  0.58403542  0.41871905  0.00960802  1
  O2-  O556  1  0.59324249  0.41073770  0.35970452  1
  O2-  O557  1  0.59929282  0.42291434  0.68769645  1
  O2-  O558  1  0.58735719  0.65698485  0.01142546  1
  O2-  O559  1  0.59647730  0.66821873  0.35500793  1
  O2-  O560  1  0.59527143  0.66788952  0.69481177  1
  O2-  O561  1  0.59243544  0.91271981  0.02123520  1
  O2-  O562  1  0.60985316  0.92028511  0.35707439  1
  O2-  O563  1  0.58173906  0.90182609  0.68171574  1
  O2-  O564  1  0.82699824  0.14927557  0.01201932  1
  O2-  O565  1  0.83711315  0.17408720  0.36038695  1
  O2-  O566  1  0.80923409  0.15736976  0.68664226  1
  O2-  O567  1  0.83623249  0.42549801  -0.00341066  1
  O2-  O568  1  0.82550108  0.40563868  0.36060018  1
  O2-  O569  1  0.83222585  0.41968833  0.66985466  1
  O2-  O570  1  0.84107077  0.67572724  0.02405539  1
  O2-  O571  1  0.84027155  0.67125497  0.38736319  1
  O2-  O572  1  0.82902416  0.67466722  0.68450539  1
  O2-  O573  1  0.84014851  0.91658828  0.01979578  1
  O2-  O574  1  0.84215891  0.92038501  0.35767654  1
  O2-  O575  1  0.83554749  0.91752582  0.68175285  1
