# generated using pymatgen
data_H2O
_symmetry_space_group_name_H-M   'P 1'
_cell_length_a   17.99751118
_cell_length_b   17.99915538
_cell_length_c   22.00580044
_cell_angle_alpha   89.99531698
_cell_angle_beta   90.01425671
_cell_angle_gamma   120.04284659
_symmetry_Int_Tables_number   1
_chemical_formula_structural   H2O
_chemical_formula_sum   'H384 O192'
_cell_volume   6170.84584211
_cell_formula_units_Z   192
loop_
 _symmetry_equiv_pos_site_id
 _symmetry_equiv_pos_as_xyz
  1  'x, y, z'
loop_
 _atom_type_symbol
 _atom_type_oxidation_number
  H+  1.0
  O2-  -2.0
loop_
 _atom_site_type_symbol
 _atom_site_label
 _atom_site_symmetry_multiplicity
 _atom_site_fract_x
 _atom_site_fract_y
 _atom_site_fract_z
 _atom_site_occupancy
  H+  H0  1  0.89545428  0.88316779  0.49725544  1
  H+  H1  1  0.77217011  0.88135352  0.66476879  1
  H+  H2  1  0.13321208  0.36703516  0.51313221  1
  H+  H3  1  0.96278849  0.86074021  0.32547150  1
  H+  H4  1  0.61849505  0.27463594  0.31509704  1
  H+  H5  1  0.11207144  0.72188179  0.16002698  1
  H+  H6  1  0.38287247  0.31995762  0.17115612  1
  H+  H7  1  0.52295216  0.14233111  0.49874395  1
  H+  H8  1  0.60255160  0.17757321  0.70345730  1
  H+  H9  1  0.42051718  0.05604206  0.26226312  1
  H+  H10  1  0.69107450  0.09240430  0.33791365  1
  H+  H11  1  0.63378749  0.84911177  0.66052296  1
  H+  H12  1  0.85925073  0.74290662  0.49047384  1
  H+  H13  1  0.51061516  0.38799298  0.82143867  1
  H+  H14  1  0.49127968  0.37633371  0.50246561  1
  H+  H15  1  0.39221046  0.03421219  0.51071000  1
  H+  H16  1  0.13728867  0.27353688  0.83649370  1
  H+  H17  1  0.88985389  0.90409367  0.14112375  1
  H+  H18  1  0.89324212  0.83027848  0.86802855  1
  H+  H19  1  0.38521316  0.28170289  0.34492477  1
  H+  H20  1  0.61864092  0.95536068  0.83596750  1
  H+  H21  1  0.37933398  0.59730222  0.32816737  1
  H+  H22  1  0.09648799  0.17902071  0.09639278  1
  H+  H23  1  0.36359228  0.47688862  0.80582634  1
  H+  H24  1  0.96525995  0.36028009  0.66923363  1
  H+  H25  1  0.21241233  0.10192688  -0.01322858  1
  H+  H26  1  0.41341419  0.62055277  0.50359407  1
  H+  H27  1  0.87828949  0.98598472  0.14934737  1
  H+  H28  1  0.15329070  0.10137314  0.31894613  1
  H+  H29  1  0.38345693  0.53134178  0.88163226  1
  H+  H30  1  0.01889966  0.61721705  0.83271318  1
  H+  H31  1  0.92262486  0.79467466  0.14804753  1
  H+  H32  1  0.09758589  0.67379988  0.06908297  1
  H+  H33  1  0.87642691  0.27078802  0.51573376  1
  H+  H34  1  0.62487689  -0.03531145  0.67801122  1
  H+  H35  1  0.61748826  0.84970729  0.82746764  1
  H+  H36  1  0.65951059  0.26700964  -0.02219453  1
  H+  H37  1  1.02071489  0.88906829  0.67175762  1
  H+  H38  1  0.90026339  0.37053561  0.15904262  1
  H+  H39  1  0.10993190  0.97944971  0.67411579  1
  H+  H40  1  0.60078751  0.00193728  0.33287626  1
  H+  H41  1  0.86517498  0.13654914  0.67449322  1
  H+  H42  1  0.63093261  0.01919318  0.50682416  1
  H+  H43  1  0.30287791  0.74434817  0.69594398  1
  H+  H44  1  0.40850575  0.64973802  0.98536496  1
  H+  H45  1  0.10334675  0.46778250  0.67687992  1
  H+  H46  1  0.87875292  0.26218271  0.30108363  1
  H+  H47  1  0.73755497  0.10486532  0.66223324  1
  H+  H48  1  0.10839168  0.24129349  0.50653624  1
  H+  H49  1  0.36062963  0.36865556  0.66314064  1
  H+  H50  1  0.10892116  0.38570917  0.33672675  1
  H+  H51  1  0.64368870  0.87120322  0.13877037  1
  H+  H52  1  0.07847930  0.16844837  0.76776868  1
  H+  H53  1  0.78076515  0.65471635  0.16212013  1
  H+  H54  1  0.14460297  0.77211677  1.00204336  1
  H+  H55  1  0.52595761  0.88622507  0.49180392  1
  H+  H56  1  0.95144998  0.55236157  0.26496085  1
  H+  H57  1  0.47871653  0.37729726  0.33688708  1
  H+  H58  1  0.87478266  0.77412507  0.32726369  1
  H+  H59  1  0.21620668  0.61502860  0.66257156  1
  H+  H60  1  0.73261768  0.08210374  0.84590189  1
  H+  H61  1  0.50727071  0.87118037  0.33697929  1
  H+  H62  1  0.10479993  -0.03621346  0.34833540  1
  H+  H63  1  0.15914424  0.06410690  0.22877249  1
  H+  H64  1  0.37612404  0.37304722  0.34524850  1
  H+  H65  1  0.63187542  0.29454519  0.65263392  1
  H+  H66  1  0.65984654  0.17056678  0.86820383  1
  H+  H67  1  0.59796382  0.39094202  0.65977430  1
  H+  H68  1  0.73225883  0.10608030  0.99888406  1
  H+  H69  1  0.11076993  0.13906141  0.67559841  1
  H+  H70  1  0.92176055  0.10892185  0.30843908  1
  H+  H71  1  0.76540560  0.65480229  0.49333225  1
  H+  H72  1  0.35818209  0.95615898  0.34385773  1
  H+  H73  1  0.88874577  0.38253462  1.01067833  1
  H+  H74  1  0.85207175  -0.01138697  0.82189363  1
  H+  H75  1  0.10297822  0.38010290  0.68064297  1
  H+  H76  1  0.52486708  0.64857140  0.15111920  1
  H+  H77  1  0.60335292  0.88297335  0.33422635  1
  H+  H78  1  0.53280213  0.62061585  0.66846099  1
  H+  H79  1  0.65906953  0.33245327  0.25389019  1
  H+  H80  1  0.68389792  0.54217863  -0.01996524  1
  H+  H81  1  0.39424508  0.86442048  0.50372332  1
  H+  H82  1  0.14505144  0.82128558  0.91643384  1
  H+  H83  1  0.35754976  0.14222273  0.83208432  1
  H+  H84  1  0.51916673  0.63267484  0.33774525  1
  H+  H85  1  0.39802220  0.17618816  0.35657304  1
  H+  H86  1  0.64405211  0.09061219  0.66931963  1
  H+  H87  1  0.13140192  0.02425611  0.83605752  1
  H+  H88  1  0.62118744  0.63444882  0.00458622  1
  H+  H89  1  0.87198997  -0.02517354  0.99856728  1
  H+  H90  1  0.11307121  0.71784274  0.34135049  1
  H+  H91  1  0.40903023  0.59107325  0.64450201  1
  H+  H92  1  0.27082720  0.62684691  0.34250336  1
  H+  H93  1  0.61393153  0.62700465  0.82621368  1
  H+  H94  1  0.51325491  0.37809146  0.02923267  1
  H+  H95  1  0.59732981  0.10566576  0.34323746  1
  H+  H96  1  0.42797903  0.84770031  0.56512552  1
  H+  H97  1  0.35403117  0.37672651  0.50062652  1
  H+  H98  1  0.63396158  0.77858264  0.33024741  1
  H+  H99  1  0.11594941  0.38584610  0.83058013  1
  H+  H100  1  0.74623944  0.47902599  0.01722376  1
  H+  H101  1  0.85562210  0.38728811  0.67046882  1
  H+  H102  1  0.40107858  -0.00020060  0.17108467  1
  H+  H103  1  0.97341782  0.60611194  0.67803805  1
  H+  H104  1  0.92877402  0.32351956  0.90509702  1
  H+  H105  1  0.88788668  0.15080518  0.15512943  1
  H+  H106  1  0.79647231  0.07076220  0.36670402  1
  H+  H107  1  0.16151644  0.29220431  0.17534676  1
  H+  H108  1  0.52974822  0.88937113  0.67557205  1
  H+  H109  1  0.33538869  0.71744975  0.99134057  1
  H+  H110  1  0.38495063  0.52565373  0.18946315  1
  H+  H111  1  0.86114659  0.48924327  0.49414630  1
  H+  H112  1  0.35295426  0.62978228  0.68154571  1
  H+  H113  1  0.73803540  0.36397105  0.17269891  1
  H+  H114  1  0.87382506  -0.01593815  0.49349253  1
  H+  H115  1  0.63534920  0.61704503  0.32588322  1
  H+  H116  1  0.10606070  0.13673925  0.82720905  1
  H+  H117  1  0.72898254  0.86348530  0.99192572  1
  H+  H118  1  0.88424056  0.36416640  0.51486920  1
  H+  H119  1  0.23800910  0.09743076  0.32412238  1
  H+  H120  1  0.60987050  0.83516963  0.12012417  1
  H+  H121  1  0.37901305  0.73103136  0.50070396  1
  H+  H122  1  0.46847370  0.85406860  0.83657741  1
  H+  H123  1  0.07430657  0.62874664  0.50143066  1
  H+  H124  1  0.39609069  0.90239612  0.65498621  1
  H+  H125  1  0.50382491  0.66088015  0.98675040  1
  H+  H126  1  0.88222930  0.50726327  0.84496644  1
  H+  H127  1  0.61580031  0.02267108  0.16511863  1
  H+  H128  1  0.43992984  0.62546005  0.90254374  1
  H+  H129  1  0.77626815  0.89602142  0.34138631  1
  H+  H130  1  0.91527111  0.08480906  0.60506231  1
  H+  H131  1  0.12480118  0.77369504  0.66949332  1
  H+  H132  1  0.63828086  0.76261077  0.65828370  1
  H+  H133  1  0.87043311  0.70965352  0.82569505  1
  H+  H134  1  0.39845175  0.49848305  0.64930560  1
  H+  H135  1  0.12716073  0.86416399  0.66583121  1
  H+  H136  1  0.22818369  0.13123414  0.51287993  1
  H+  H137  1  0.10870263  0.88579045  0.82843151  1
  H+  H138  1  0.14776857  0.65907673  0.01498913  1
  H+  H139  1  0.97055361  0.11148754  0.83565835  1
  H+  H140  1  0.79784115  0.37123526  0.99877268  1
  H+  H141  1  0.38088557  0.27776826  0.84591405  1
  H+  H142  1  0.40256015  0.08822099  0.17403229  1
  H+  H143  1  0.14479426  0.52480090  0.32864122  1
  H+  H144  1  0.41490314  0.35161787  0.93585078  1
  H+  H145  1  0.11269284  0.23214418  1.00160117  1
  H+  H146  1  0.91411093  0.26728240  0.32247062  1
  H+  H147  1  0.85846433  0.22370086  0.67402620  1
  H+  H148  1  0.36443621  0.86981481  0.15686515  1
  H+  H149  1  0.13792840  0.89537476  1.02604537  1
  H+  H150  1  0.37101902  0.74531788  0.16393566  1
  H+  H151  1  0.72250588  0.61308132  0.32899820  1
  H+  H152  1  0.39197964  0.09613100  0.98817158  1
  H+  H153  1  0.35566416  0.23186815  0.67909197  1
  H+  H154  1  0.88787947  0.23982678  0.15565907  1
  H+  H155  1  0.11813164  0.14137148  0.15616279  1
  H+  H156  1  0.26199129  0.88777897  0.67139713  1
  H+  H157  1  0.60672412  0.48065762  0.33110104  1
  H+  H158  1  0.35442433  0.14205954  0.68047217  1
  H+  H159  1  0.13702133  0.60462566  0.85420091  1
  H+  H160  1  -0.00465901  0.12165709  0.16045115  1
  H+  H161  1  0.37071478  0.63881320  0.14171494  1
  H+  H162  1  0.12638304  0.47755229  0.16245441  1
  H+  H163  1  0.13898636  0.51721179  0.85346225  1
  H+  H164  1  0.12387548  0.85160167  0.33524584  1
  H+  H165  1  0.37493756  0.75517148  0.33180914  1
  H+  H166  1  0.34993772  0.86441088  0.34872883  1
  H+  H167  1  0.68114491  0.83704273  0.27380091  1
  H+  H168  1  0.36598851  0.42832012  1.00034362  1
  H+  H169  1  0.88517499  1.02268997  0.66226091  1
  H+  H170  1  0.35952131  0.31014821  0.99468564  1
  H+  H171  1  0.32769821  0.17364559  0.77393388  1
  H+  H172  1  0.37365475  0.96972413  0.00394271  1
  H+  H173  1  0.87956632  0.11247236  0.51651622  1
  H+  H174  1  0.60727829  0.96387598  -0.00416140  1
  H+  H175  1  0.50362942  0.11738901  0.34612861  1
  H+  H176  1  0.29170388  0.89295832  0.50142117  1
  H+  H177  1  0.88266842  0.11507741  0.83754082  1
  H+  H178  1  0.05655716  0.34463109  -0.00746379  1
  H+  H179  1  0.18043685  0.61352907  0.49331975  1
  H+  H180  1  0.86161829  0.22337050  0.83084752  1
  H+  H181  1  0.85728784  0.60960498  0.49988720  1
  H+  H182  1  0.64334543  0.77361500  0.99422216  1
  H+  H183  1  0.62973841  0.75575066  0.82609552  1
  H+  H184  1  0.36808975  0.66101356  0.65495715  1
  H+  H185  1  0.64302586  0.28045978  0.49779027  1
  H+  H186  1  0.04170264  0.11963544  0.32950901  1
  H+  H187  1  0.22884035  0.61050850  0.16946293  1
  H+  H188  1  0.39466746  0.81112575  0.27140113  1
  H+  H189  1  0.88526926  0.59527226  0.83294592  1
  H+  H190  1  0.11196187  0.63412549  0.15814913  1
  H+  H191  1  0.37903635  0.03149395  0.66454004  1
  H+  H192  1  0.21447749  0.85542056  0.33792950  1
  H+  H193  1  0.03315720  0.85425658  0.50742215  1
  H+  H194  1  0.87726133  0.74689175  1.01441769  1
  H+  H195  1  0.46551227  0.12559011  0.66750587  1
  H+  H196  1  0.12111114  0.97410253  0.02230622  1
  H+  H197  1  0.64052248  0.53290475  0.50000805  1
  H+  H198  1  0.05599199  0.77765493  0.88396190  1
  H+  H199  1  0.36412869  0.87683350  0.00446829  1
  H+  H200  1  0.68911524  0.36795213  0.96545749  1
  H+  H201  1  0.38176271  0.36633976  0.83813233  1
  H+  H202  1  0.99541772  0.44124121  0.30980075  1
  H+  H203  1  0.26356612  0.62864603  0.83801311  1
  H+  H204  1  0.58190457  0.66884299  0.39524663  1
  H+  H205  1  0.36294276  0.88665413  0.82369186  1
  H+  H206  1  0.22817256  0.85567249  0.17692683  1
  H+  H207  1  0.35573808  0.46997866  0.35185457  1
  H+  H208  1  0.89984084  0.42354736  0.31010742  1
  H+  H209  1  0.35408251  0.63422400  0.82585831  1
  H+  H210  1  0.52470044  0.63656130  0.49408307  1
  H+  H211  1  0.17269388  0.33729783  0.26644940  1
  H+  H212  1  0.27713477  0.38673823  0.66943986  1
  H+  H213  1  0.84019869  0.91806575  0.05854165  1
  H+  H214  1  0.90062084  0.25546449  1.00118730  1
  H+  H215  1  0.84718725  0.17062492  0.06953304  1
  H+  H216  1  0.49254749  0.89571648  0.13670086  1
  H+  H217  1  0.63385955  0.52162329  0.65147657  1
  H+  H218  1  0.76574134  0.85917535  0.18231548  1
  H+  H219  1  0.61883056  0.49719313  0.16375066  1
  H+  H220  1  0.87295559  0.47780990  0.14778338  1
  H+  H221  1  0.72834084  0.60578996  0.83082704  1
  H+  H222  1  0.50553232  0.38343793  0.65944535  1
  H+  H223  1  -0.02785252  0.11993768  0.51501239  1
  H+  H224  1  0.89901486  0.01136586  0.32000235  1
  H+  H225  1  0.30563747  0.63484101  0.51236304  1
  H+  H226  1  0.33653368  0.46939131  0.05058549  1
  H+  H227  1  0.07463094  0.71780126  0.49869883  1
  H+  H228  1  0.65080363  0.27368577  0.16903483  1
  H+  H229  1  0.14669675  0.61510679  0.33182901  1
  H+  H230  1  0.15298305  0.86380674  0.51133137  1
  H+  H231  1  0.64037031  0.42495269  0.01726209  1
  H+  H232  1  0.86377635  0.64583872  0.16736111  1
  H+  H233  1  0.23220980  0.86316602  0.99417212  1
  H+  H234  1  0.22092892  0.36065174  0.51615364  1
  H+  H235  1  0.76200051  0.13233209  0.50906884  1
  H+  H236  1  0.09495377  0.46735548  0.49230123  1
  H+  H237  1  0.63712019  0.51881102  0.83513505  1
  H+  H238  1  0.10375725  0.70884582  0.83976830  1
  H+  H239  1  0.21208091  0.60166253  0.94568838  1
  H+  H240  1  0.62851629  0.14073723  0.15347968  1
  H+  H241  1  0.84443702  0.60313308  0.26243128  1
  H+  H242  1  0.61293018  0.13881777  0.86467603  1
  H+  H243  1  0.36306299  0.06937482  0.31034213  1
  H+  H244  1  0.11473625  0.64916270  0.68731662  1
  H+  H245  1  0.47882139  0.13822655  0.83225492  1
  H+  H246  1  0.57018961  0.31525566  0.80550002  1
  H+  H247  1  0.13416954  0.27694248  0.66781601  1
  H+  H248  1  0.63130765  0.85646946  0.50418388  1
  H+  H249  1  0.56807554  0.15354265  0.40745142  1
  H+  H250  1  0.34703556  0.18755646  0.16603318  1
  H+  H251  1  0.14232455  0.27201197  0.32326297  1
  H+  H252  1  0.08054318  0.91487095  0.76635959  1
  H+  H253  1  0.22079928  0.11591528  0.66846531  1
  H+  H254  1  0.89532364  0.86314564  1.00029769  1
  H+  H255  1  0.71787006  0.85681429  0.82526441  1
  H+  H256  1  0.26596608  0.37953096  0.34290635  1
  H+  H257  1  0.52323362  0.62609719  0.82897349  1
  H+  H258  1  0.53746787  0.13802103  -0.00111962  1
  H+  H259  1  0.21953298  0.11476169  0.84014254  1
  H+  H260  1  0.36062391  0.19595276  0.01889947  1
  H+  H261  1  0.52528291  0.41491961  0.17405049  1
  H+  H262  1  0.98645555  0.85428198  0.84421794  1
  H+  H263  1  0.40220760  0.03898184  0.82936078  1
  H+  H264  1  0.73386221  0.36740755  0.49645949  1
  H+  H265  1  0.28111171  0.89761555  0.82940690  1
  H+  H266  1  0.88531220  0.44040714  0.44379183  1
  H+  H267  1  1.02135382  0.13872549  0.67525392  1
  H+  H268  1  0.74959258  0.37845771  0.32732007  1
  H+  H269  1  0.60073654  0.38764956  0.32651376  1
  H+  H270  1  0.48267525  0.96180193  0.62191167  1
  H+  H271  1  0.88609008  0.86091949  0.65605585  1
  H+  H272  1  0.87213231  0.49927155  0.67096326  1
  H+  H273  1  0.60865212  0.13536537  0.49714040  1
  H+  H274  1  0.54077090  0.13802774  0.15170804  1
  H+  H275  1  0.37598909  0.76829945  0.83681772  1
  H+  H276  1  0.98198079  0.35824934  0.84374905  1
  H+  H277  1  0.64553508  0.61453819  0.65701191  1
  H+  H278  1  0.62227685  0.74154935  0.49548263  1
  H+  H279  1  1.01264078  0.37553086  0.49568765  1
  H+  H280  1  0.29704393  0.43395185  0.20524670  1
  H+  H281  1  0.78028300  0.65040699  1.00708045  1
  H+  H282  1  0.36574037  0.14709424  0.49883918  1
  H+  H283  1  0.33474442  0.40970275  0.75263215  1
  H+  H284  1  0.86770340  0.13217667  1.00836775  1
  H+  H285  1  0.21218684  0.37743146  -0.00912519  1
  H+  H286  1  0.13859737  0.12782048  0.51325791  1
  H+  H287  1  0.83136168  0.16700180  0.34600931  1
  H+  H288  1  0.93812079  0.07785884  0.21904811  1
  H+  H289  1  0.43309023  0.34442303  0.56393382  1
  H+  H290  1  0.40055331  0.40660948  0.20220233  1
  H+  H291  1  0.58160491  0.91440611  0.43117823  1
  H+  H292  1  0.32316262  0.91769173  0.73089912  1
  H+  H293  1  0.67747806  0.04962399  0.90788315  1
  H+  H294  1  0.16024322  0.33741755  0.60926802  1
  H+  H295  1  0.60757560  0.87517229  -0.00066245  1
  H+  H296  1  0.28283466  0.67826986  0.74916528  1
  H+  H297  1  0.07788818  0.65894328  0.39978749  1
  H+  H298  1  0.30643287  0.12183259  0.06180964  1
  H+  H299  1  0.67374842  0.59899517  0.23160293  1
  H+  H300  1  0.41634996  0.09287597  0.57054657  1
  H+  H301  1  0.66581821  0.58688163  0.56330043  1
  H+  H302  1  0.33486930  0.65637445  0.40122437  1
  H+  H303  1  0.25060911  0.15460248  0.15402415  1
  H+  H304  1  0.11162906  0.14156379  1.00177444  1
  H+  H305  1  0.65798413  0.07223259  0.56987161  1
  H+  H306  1  0.56872749  0.40012687  0.09199836  1
  H+  H307  1  0.08177865  0.41767359  0.77483600  1
  H+  H308  1  0.15043863  0.07625570  0.93014563  1
  H+  H309  1  0.44397449  0.64819186  0.20770997  1
  H+  H310  1  0.86614347  0.64338430  0.35546335  1
  H+  H311  1  0.16712965  0.82769927  0.23441434  1
  H+  H312  1  0.63531326  0.28201816  0.81650645  1
  H+  H313  1  0.58482800  0.65538444  0.73141207  1
  H+  H314  1  0.59216254  0.66496279  0.06477328  1
  H+  H315  1  0.64254149  0.62718482  0.17069457  1
  H+  H316  1  0.31537032  0.39992365  0.44409140  1
  H+  H317  1  0.34114875  0.17785501  0.41107062  1
  H+  H318  1  0.76865978  0.39565968  0.66293954  1
  H+  H319  1  0.22494118  0.54346906  0.62711030  1
  H+  H320  1  0.85432363  0.90272431  0.81641622  1
  H+  H321  1  0.15500502  0.57974256  0.56191096  1
  H+  H322  1  0.06183175  0.19567218  0.44603070  1
  H+  H323  1  0.33969726  0.91693154  0.43766877  1
  H+  H324  1  0.88419733  0.60861469  0.66794788  1
  H+  H325  1  0.46804744  0.84786307  0.98584786  1
  H+  H326  1  0.83658016  0.66083034  0.76177939  1
  H+  H327  1  0.59868891  0.17249493  0.05754198  1
  H+  H328  1  0.62487879  0.64581878  0.49218001  1
  H+  H329  1  0.92106221  0.83856109  0.59638674  1
  H+  H330  1  0.68794688  0.60235621  0.92741317  1
  H+  H331  1  0.46130390  0.80178237  0.19524413  1
  H+  H332  1  0.64024457  0.06788612  0.22990462  1
  H+  H333  1  0.65812655  0.82328141  0.56480997  1
  H+  H334  1  0.56601737  0.22810009  0.73805288  1
  H+  H335  1  0.55566116  0.92634525  0.08040793  1
  H+  H336  1  0.97981153  0.11553796  0.99040839  1
  H+  H337  1  0.84955567  0.92927979  0.43096406  1
  H+  H338  1  0.64532552  0.10866976  0.99161387  1
  H+  H339  1  0.62508598  0.72700245  0.15802381  1
  H+  H340  1  0.06785478  0.90193400  0.10974716  1
  H+  H341  1  0.90989721  0.33200104  0.60783178  1
  H+  H342  1  0.10436407  0.14428759  0.38667187  1
  H+  H343  1  0.82456922  0.67415983  0.40470168  1
  H+  H344  1  0.59031491  0.42738388  0.42582095  1
  H+  H345  1  0.93884263  0.37254838  0.22176378  1
  H+  H346  1  0.44018222  0.57372340  0.55563087  1
  H+  H347  1  0.74589339  0.78015150  0.22305744  1
  H+  H348  1  0.10958131  0.01009619  0.17062274  1
  H+  H349  1  0.91752764  0.08351412  0.93173521  1
  H+  H350  1  0.17626407  0.58599650  0.23234119  1
  H+  H351  1  0.56324685  0.41519572  0.75823270  1
  H+  H352  1  0.14982997  0.37543742  0.17756620  1
  H+  H353  1  0.84299798  0.41421213  0.09079121  1
  H+  H354  1  0.37445518  0.24036404  0.49634252  1
  H+  H355  1  0.94076844  0.82875133  0.95268361  1
  H+  H356  1  0.07906234  0.66503341  0.74785422  1
  H+  H357  1  0.57979983  0.90281463  0.77068856  1
  H+  H358  1  0.12268708  0.82157818  0.57649448  1
  H+  H359  1  0.07707018  0.41218122  0.39607219  1
  H+  H360  1  0.34212774  0.90829811  0.09823659  1
  H+  H361  1  0.34208730  0.28403223  0.60978007  1
  H+  H362  1  0.31811006  0.65790104  0.08701147  1
  H+  H363  1  0.86084063  0.88552027  0.33774179  1
  H+  H364  1  0.77646243  0.63372149  0.66599701  1
  H+  H365  1  0.82768248  0.91696583  0.72499559  1
  H+  H366  1  0.86113157  0.36700949  0.83861326  1
  H+  H367  1  0.16557200  0.09053239  0.60648711  1
  H+  H368  1  0.22772109  0.36210554  0.83204820  1
  H+  H369  1  0.66815588  0.34765148  0.59019551  1
  H+  H370  1  0.62502178  0.39971711  0.48366941  1
  H+  H371  1  1.04017910  0.38859787  0.15724413  1
  H+  H372  1  0.40676314  0.82615075  0.92794119  1
  H+  H373  1  0.39143283  0.53632963  0.27845223  1
  H+  H374  1  0.16271384  0.33714576  0.92943020  1
  H+  H375  1  0.73240445  0.32691595  0.88906571  1
  H+  H376  1  0.79497729  0.40866640  0.39046006  1
  H+  H377  1  0.83538594  0.67283354  0.07432737  1
  H+  H378  1  0.04991169  0.90415360  0.40457330  1
  H+  H379  1  0.94617870  0.61216123  0.50301748  1
  H+  H380  1  0.81790034  0.15755682  0.44998755  1
  H+  H381  1  0.42839322  0.07843090  0.92792185  1
  H+  H382  1  0.83042904  0.16680359  0.76940033  1
  H+  H383  1  0.86534188  0.72378455  0.66597304  1
  O2-  O384  1  0.09791699  0.18069085  0.14196423  1
  O2-  O385  1  0.07503723  0.18216307  0.48607916  1
  O2-  O386  1  0.07635218  0.16822064  0.81339954  1
  O2-  O387  1  0.10286657  0.41697441  0.14893611  1
  O2-  O388  1  0.07253151  0.40718060  0.47925354  1
  O2-  O389  1  0.08485210  0.41748370  0.82004912  1
  O2-  O390  1  0.08335498  0.66398875  0.14071510  1
  O2-  O391  1  0.04949721  0.65974936  0.48027961  1
  O2-  O392  1  0.08202575  0.65175752  0.82038343  1
  O2-  O393  1  0.03988692  0.89451344  0.15163856  1
  O2-  O394  1  0.00732393  0.88464409  0.48616707  1
  O2-  O395  1  0.08008399  0.91679682  0.81209362  1
  O2-  O396  1  0.30894018  0.19297544  0.13723012  1
  O2-  O397  1  0.33870460  0.17921270  0.48167298  1
  O2-  O398  1  0.32653473  0.17260787  0.81983371  1
  O2-  O399  1  0.35838138  0.47108226  0.21620249  1
  O2-  O400  1  0.31337336  0.39612951  0.48899736  1
  O2-  O401  1  0.33330794  0.41488910  0.79903285  1
  O2-  O402  1  0.32635376  0.65930546  0.13159942  1
  O2-  O403  1  0.35438351  0.66994322  0.48606734  1
  O2-  O404  1  0.32074328  0.66284273  0.81600053  1
  O2-  O405  1  0.34406109  0.90899241  0.14414640  1
  O2-  O406  1  0.34888497  0.92500461  0.48360167  1
  O2-  O407  1  0.33646483  0.92155608  0.80881298  1
  O2-  O408  1  0.59928777  0.17156917  0.13532068  1
  O2-  O409  1  0.58094438  0.16652790  0.47888372  1
  O2-  O410  1  0.57488689  0.26200742  0.80355356  1
  O2-  O411  1  0.58344454  0.43491140  0.15645710  1
  O2-  O412  1  0.59422735  0.43045708  0.47113608  1
  O2-  O413  1  0.56879896  0.41049820  0.80291661  1
  O2-  O414  1  0.58956772  0.66930359  0.14059135  1
  O2-  O415  1  0.59308207  0.67582921  0.47640434  1
  O2-  O416  1  0.58190243  0.65626965  0.81082846  1
  O2-  O417  1  0.54164476  0.94603458  0.11901638  1
  O2-  O418  1  0.58629795  0.91807084  0.47633171  1
  O2-  O419  1  0.57703401  0.89472408  0.81579780  1
  O2-  O420  1  0.85903958  0.18086872  0.13857416  1
  O2-  O421  1  0.82325281  0.16380892  0.49454544  1
  O2-  O422  1  0.83119597  0.16325441  0.81442955  1
  O2-  O423  1  0.84007660  0.41721812  0.13712490  1
  O2-  O424  1  0.84853612  0.42836514  0.47939187  1
  O2-  O425  1  0.82278122  0.39027077  0.82576308  1
  O2-  O426  1  0.84117940  0.67859176  0.14562369  1
  O2-  O427  1  0.82456403  0.68208732  0.47561907  1
  O2-  O428  1  0.83296655  0.65287215  0.80687544  1
  O2-  O429  1  0.84690575  0.92357466  0.13707951  1
  O2-  O430  1  0.85285065  0.92599598  0.47593229  1
  O2-  O431  1  0.81894386  0.92699898  0.80430146  1
  O2-  O432  1  0.14919137  0.06949648  0.18501456  1
  O2-  O433  1  0.17012601  0.10158393  0.53091631  1
  O2-  O434  1  0.15761434  0.08364889  0.85256320  1
  O2-  O435  1  0.18407471  0.34835302  0.19596104  1
  O2-  O436  1  0.15962546  0.33542100  0.53236016  1
  O2-  O437  1  0.16949839  0.33478550  0.85048363  1
  O2-  O438  1  0.17021516  0.58179713  0.18751594  1
  O2-  O439  1  0.13273113  0.57537937  0.51951931  1
  O2-  O440  1  0.17088855  0.57786942  0.86876220  1
  O2-  O441  1  0.16777370  0.82610694  0.18960555  1
  O2-  O442  1  0.10426862  0.81758236  0.53253235  1
  O2-  O443  1  0.11693631  0.80680418  0.87348956  1
  O2-  O444  1  0.43267000  0.06026185  0.19041784  1
  O2-  O445  1  0.42056886  0.09467385  0.52491778  1
  O2-  O446  1  0.42273416  0.09548732  0.84916820  1
  O2-  O447  1  0.42324534  0.36634597  0.19749849  1
  O2-  O448  1  0.43131851  0.34280015  0.51840986  1
  O2-  O449  1  0.41231127  0.33963619  0.85855763  1
  O2-  O450  1  0.43493726  0.62052405  0.16817948  1
  O2-  O451  1  0.44630646  0.59057107  0.51154896  1
  O2-  O452  1  0.41856268  0.58757355  0.86272511  1
  O2-  O453  1  0.40758691  0.80169950  0.18876928  1
  O2-  O454  1  0.42306806  0.83371652  0.52090058  1
  O2-  O455  1  0.40735008  0.83055106  0.84875901  1
  O2-  O456  1  0.65579483  0.07697770  0.18700395  1
  O2-  O457  1  0.65629445  0.07828508  0.52489091  1
  O2-  O458  1  0.68238605  0.03289549  0.86532870  1
  O2-  O459  1  0.67955055  0.33000636  0.19018404  1
  O2-  O460  1  0.67359836  0.34168992  0.51052112  1
  O2-  O461  1  0.73833107  0.31979033  0.84360981  1
  O2-  O462  1  0.68244952  0.60749110  0.18692410  1
  O2-  O463  1  0.66500446  0.59206571  0.51756010  1
  O2-  O464  1  0.66903140  0.58004714  0.84830972  1
  O2-  O465  1  0.72008664  0.81365038  0.20930664  1
  O2-  O466  1  0.65534598  0.82076319  0.51933633  1
  O2-  O467  1  0.65604124  0.81919735  0.83756699  1
  O2-  O468  1  0.93408910  0.08541916  0.17497931  1
  O2-  O469  1  0.91170618  0.08312858  0.52907473  1
  O2-  O470  1  0.90957016  0.07982001  0.85048907  1
  O2-  O471  1  0.93284721  0.34709976  0.18074178  1
  O2-  O472  1  0.91191123  0.33148920  0.52991413  1
  O2-  O473  1  0.92191640  0.32457351  0.86000350  1
  O2-  O474  1  0.86784151  0.58047329  0.23216238  1
  O2-  O475  1  0.88458325  0.57694866  0.51507610  1
  O2-  O476  1  0.91815830  0.56978718  0.85047972  1
  O2-  O477  1  0.94896572  0.85596350  0.13608171  1
  O2-  O478  1  0.92161254  0.84488984  0.51502077  1
  O2-  O479  1  0.93424144  0.81004813  0.86757950  1
  O2-  O480  1  0.17874424  0.06474324  0.30872404  1
  O2-  O481  1  0.16086926  0.08430201  0.65215757  1
  O2-  O482  1  0.15157928  0.07782537  0.97567619  1
  O2-  O483  1  0.16963714  0.33355166  0.31319546  1
  O2-  O484  1  0.16282674  0.33863107  0.65483367  1
  O2-  O485  1  0.15478720  0.33567560  0.97436088  1
  O2-  O486  1  0.17899231  0.58623314  0.31572564  1
  O2-  O487  1  0.18548722  0.56524229  0.63298838  1
  O2-  O488  1  0.21774354  0.61328041  0.99034140  1
  O2-  O489  1  0.15701162  0.82551613  0.31901582  1
  O2-  O490  1  0.15438959  0.83096796  0.64907254  1
  O2-  O491  1  0.16994436  0.83381272  0.98406165  1
  O2-  O492  1  0.41018341  0.05725162  0.30804721  1
  O2-  O493  1  0.40820074  0.09096420  0.64782818  1
  O2-  O494  1  0.42865164  0.07355908  0.97299590  1
  O2-  O495  1  0.41221271  0.34345515  0.33160005  1
  O2-  O496  1  0.38954651  0.31783418  0.63767239  1
  O2-  O497  1  0.41351521  0.35877861  0.98117503  1
  O2-  O498  1  0.41022288  0.56525022  0.31937901  1
  O2-  O499  1  0.43719428  0.55908060  0.63128968  1
  O2-  O500  1  0.46154215  0.66874008  0.96201794  1
  O2-  O501  1  0.40117827  0.81632528  0.31629752  1
  O2-  O502  1  0.44655355  0.90216839  0.63461236  1
  O2-  O503  1  0.40591823  0.82099841  0.97307124  1
  O2-  O504  1  0.63042312  0.06702297  0.32301377  1
  O2-  O505  1  0.67478219  0.06679887  0.64792390  1
  O2-  O506  1  0.67299887  0.07393377  0.98172593  1
  O2-  O507  1  0.64671238  0.33394815  0.30078535  1
  O2-  O508  1  0.66733481  0.35328140  0.63534052  1
  O2-  O509  1  0.70304210  0.32160115  0.95765443  1
  O2-  O510  1  0.66373004  0.58479872  0.31103532  1
  O2-  O511  1  0.67205491  0.58247933  0.63821052  1
  O2-  O512  1  0.69028406  0.60065118  0.97263311  1
  O2-  O513  1  0.66525619  0.84010463  0.31705655  1
  O2-  O514  1  0.66563764  0.82265622  0.64209415  1
  O2-  O515  1  0.66777187  0.83371012  0.98009642  1
  O2-  O516  1  0.94296603  0.06950892  0.30093993  1
  O2-  O517  1  0.91526064  0.08481316  0.65077081  1
  O2-  O518  1  0.91843446  0.08089768  0.97689318  1
  O2-  O519  1  0.95228074  0.44514503  0.28463858  1
  O2-  O520  1  0.90503454  0.33082542  0.65326289  1
  O2-  O521  1  0.93624216  0.31690629  0.98138498  1
  O2-  O522  1  0.95305742  0.60800474  0.25899993  1
  O2-  O523  1  0.91425189  0.57473746  0.66008994  1
  O2-  O524  1  0.69662185  0.46057086  0.99062775  1
  O2-  O525  1  0.90176123  0.83404547  0.31255301  1
  O2-  O526  1  0.91815650  0.83220076  0.64148058  1
  O2-  O527  1  0.92526208  0.82827849  0.99563631  1
  O2-  O528  1  0.08295232  0.17249973  0.01856975  1
  O2-  O529  1  0.10319189  0.15550286  0.34341351  1
  O2-  O530  1  0.08177760  0.17097609  0.69056237  1
  O2-  O531  1  0.01855937  0.36163167  0.01375566  1
  O2-  O532  1  0.08264437  0.41960425  0.35134842  1
  O2-  O533  1  0.07108671  0.40989744  0.69485008  1
  O2-  O534  1  0.10847512  0.68088952  0.02333456  1
  O2-  O535  1  0.09402112  0.65920067  0.35698695  1
  O2-  O536  1  0.07646891  0.66918344  0.70166600  1
  O2-  O537  1  0.12817088  0.93606213  0.05081341  1
  O2-  O538  1  0.06518543  0.90389104  0.36146932  1
  O2-  O539  1  0.08025462  0.91831729  0.68912948  1
  O2-  O540  1  0.32315253  0.13372255  0.01873883  1
  O2-  O541  1  0.34690488  0.18041067  0.36423975  1
  O2-  O542  1  0.32568363  0.17197435  0.69818219  1
  O2-  O543  1  0.32759778  0.45183770  0.00807964  1
  O2-  O544  1  0.32426398  0.40732928  0.36380256  1
  O2-  O545  1  0.33841702  0.41136144  0.68127626  1
  O2-  O546  1  0.30958624  0.65545613  0.00449820  1
  O2-  O547  1  0.33401729  0.65626629  0.35641056  1
  O2-  O548  1  0.25708719  0.69086618  0.71278147  1
  O2-  O549  1  0.33923463  0.91130221  0.02190644  1
  O2-  O550  1  0.32697927  0.90070415  0.36593019  1
  O2-  O551  1  0.32324980  0.92079500  0.68546355  1
  O2-  O552  1  0.59851554  0.17041936  0.01191629  1
  O2-  O553  1  0.56468356  0.14683767  0.36086274  1
  O2-  O554  1  0.56625153  0.20246829  0.69595487  1
  O2-  O555  1  0.56051336  0.37472046  0.04875788  1
  O2-  O556  1  0.57427153  0.41973220  0.34651598  1
  O2-  O557  1  0.56463719  0.41749679  0.67558217  1
  O2-  O558  1  0.59069721  0.66412981  0.01915136  1
  O2-  O559  1  0.58070755  0.66899612  0.35016182  1
  O2-  O560  1  0.59086338  0.65947373  0.68621783  1
  O2-  O561  1  0.57128267  0.90252459  0.00805286  1
  O2-  O562  1  0.56849128  0.90849419  0.35063736  1
  O2-  O563  1  0.58653189  0.90464903  0.69266602  1
  O2-  O564  1  0.84116090  0.16629643  0.02268198  1
  O2-  O565  1  0.78668161  0.11938459  0.37020771  1
  O2-  O566  1  0.82950936  0.16248280  0.68810330  1
  O2-  O567  1  0.85271929  0.40792902  0.02059252  1
  O2-  O568  1  0.80602651  0.40063214  0.34837723  1
  O2-  O569  1  0.82796188  0.42241559  0.68091627  1
  O2-  O570  1  0.83911355  0.67849947  0.02780080  1
  O2-  O571  1  0.82727973  0.66621417  0.35888068  1
  O2-  O572  1  0.83627415  0.66412902  0.68275074  1
  O2-  O573  1  0.84300864  0.91399713  0.01329481  1
  O2-  O574  1  0.83831871  0.92532277  0.35220193  1
  O2-  O575  1  0.83261013  0.91403186  0.68021728  1
