# generated using pymatgen
data_H2O
_symmetry_space_group_name_H-M   'P 1'
_cell_length_a   17.97216094
_cell_length_b   17.98449667
_cell_length_c   21.99267103
_cell_angle_alpha   89.93941429
_cell_angle_beta   89.98803970
_cell_angle_gamma   120.00011778
_symmetry_Int_Tables_number   1
_chemical_formula_structural   H2O
_chemical_formula_sum   'H384 O192'
_cell_volume   6156.10871339
_cell_formula_units_Z   192
loop_
 _symmetry_equiv_pos_site_id
 _symmetry_equiv_pos_as_xyz
  1  'x, y, z'
loop_
 _atom_type_symbol
 _atom_type_oxidation_number
  H+  1.0
  O2-  -2.0
loop_
 _atom_site_type_symbol
 _atom_site_label
 _atom_site_symmetry_multiplicity
 _atom_site_fract_x
 _atom_site_fract_y
 _atom_site_fract_z
 _atom_site_occupancy
  H+  H0  1  0.60314913  0.97789159  0.17393048  1
  H+  H1  1  0.14189303  0.27565967  0.16943421  1
  H+  H2  1  0.34277860  0.22133364  0.67491951  1
  H+  H3  1  0.41552391  0.87930822  0.67064618  1
  H+  H4  1  0.87025456  0.83796378  0.87067858  1
  H+  H5  1  -0.02674805  0.60233563  0.66642600  1
  H+  H6  1  0.26718899  0.65369228  0.00147932  1
  H+  H7  1  0.39496097  -0.03172995  0.32745295  1
  H+  H8  1  0.10323109  0.71826057  0.48200888  1
  H+  H9  1  0.73205365  0.86913091  0.99852700  1
  H+  H10  1  0.72845989  0.60547340  0.33780601  1
  H+  H11  1  0.88681755  0.85973939  0.35642881  1
  H+  H12  1  0.62259466  0.86952425  0.18063392  1
  H+  H13  1  0.94778763  0.43873895  0.62345580  1
  H+  H14  1  0.62321196  0.61171269  0.03270106  1
  H+  H15  1  0.29125809  0.90408793  0.83220911  1
  H+  H16  1  0.81850190  0.93084173  0.66900314  1
  H+  H17  1  0.99253075  0.14314523  0.49610806  1
  H+  H18  1  0.38023366  0.38636154  0.34339903  1
  H+  H19  1  0.27343537  0.14974050  0.83405693  1
  H+  H20  1  0.71352389  0.87230524  0.17153914  1
  H+  H21  1  0.71439947  0.03165351  0.19907418  1
  H+  H22  1  0.35786132  0.73273033  0.16222071  1
  H+  H23  1  0.35172829  0.13303304  0.51804244  1
  H+  H24  1  0.71199630  0.36466603  0.67323854  1
  H+  H25  1  0.59757579  0.60398490  0.17744109  1
  H+  H26  1  0.85846823  0.98608258  0.16133191  1
  H+  H27  1  0.89511965  0.51367788  0.00689368  1
  H+  H28  1  0.64014289  0.84905657  0.32409505  1
  H+  H29  1  0.76663755  0.13222279  0.49131779  1
  H+  H30  1  0.32176814  0.49244295  1.02128540  1
  H+  H31  1  0.73313475  0.34859711  0.31415457  1
  H+  H32  1  0.26993172  0.12125626  0.30823905  1
  H+  H33  1  0.14132878  0.61398729  0.66280698  1
  H+  H34  1  0.85382915  0.71094000  0.50910300  1
  H+  H35  1  0.46513806  0.10696266  0.50293619  1
  H+  H36  1  0.42405505  0.06083381  0.25392428  1
  H+  H37  1  0.36852018  0.27164193  0.52334239  1
  H+  H38  1  0.48511086  0.11045744  0.99634683  1
  H+  H39  1  1.01479057  0.62775647  0.48863480  1
  H+  H40  1  0.11050274  0.61711474  0.82345357  1
  H+  H41  1  0.39793895  0.33504172  0.57895810  1
  H+  H42  1  0.69894061  0.36778757  0.84526933  1
  H+  H43  1  0.65043772  0.00082427  0.68617233  1
  H+  H44  1  0.64981738  0.57111608  0.61489680  1
  H+  H45  1  0.60957154  0.75853087  0.64911728  1
  H+  H46  1  0.38420995  0.40448427  0.31200351  1
  H+  H47  1  0.26115190  0.38619126  0.67182052  1
  H+  H48  1  0.11327526  -0.03211260  1.02259961  1
  H+  H49  1  0.23920093  0.36105878  0.83334399  1
  H+  H50  1  0.37750272  0.01790319  0.50102367  1
  H+  H51  1  0.74216196  0.84961018  0.48950651  1
  H+  H52  1  0.02033122  0.13370565  0.33877796  1
  H+  H53  1  0.09396101  0.17280586  0.09658183  1
  H+  H54  1  0.27316933  0.87965085  0.47418980  1
  H+  H55  1  0.76100342  0.38463562  0.47460825  1
  H+  H56  1  0.38190898  0.02453141  0.66654935  1
  H+  H57  1  0.58443672  0.74602546  0.14918737  1
  H+  H58  1  0.07494537  0.42236298  0.40443499  1
  H+  H59  1  0.09690177  0.63463267  0.17323197  1
  H+  H60  1  0.21405439  0.85774710  0.21928476  1
  H+  H61  1  0.27493242  0.12954360  0.15647326  1
  H+  H62  1  0.28175683  0.65128230  0.66810273  1
  H+  H63  1  0.64409704  0.87407052  0.85154183  1
  H+  H64  1  0.13512453  0.11890081  0.85030705  1
  H+  H65  1  0.13657188  0.02389130  0.17326867  1
  H+  H66  1  0.92526607  0.09162904  0.23025018  1
  H+  H67  1  0.74562652  0.95839200  0.68189658  1
  H+  H68  1  0.11881410  0.22229900  0.81746149  1
  H+  H69  1  0.46205019  0.77258859  0.44906136  1
  H+  H70  1  0.14822156  0.07539277  0.55620011  1
  H+  H71  1  0.74798867  0.14696940  -0.01689549  1
  H+  H72  1  1.01998743  0.88143412  0.48222767  1
  H+  H73  1  0.63779415  0.06402140  0.57417112  1
  H+  H74  1  0.89401521  0.63938586  0.18479505  1
  H+  H75  1  0.88315966  1.02327617  0.32600837  1
  H+  H76  1  0.49388468  0.38029717  0.51175651  1
  H+  H77  1  0.74464786  0.59170569  0.18936207  1
  H+  H78  1  0.60276119  0.35700510  0.84679119  1
  H+  H79  1  0.49276880  0.65802827  0.14954910  1
  H+  H80  1  0.10935513  0.48754036  0.34142855  1
  H+  H81  1  1.02512700  0.38460416  0.14771215  1
  H+  H82  1  0.86593757  0.23198679  0.16330216  1
  H+  H83  1  0.11841482  0.47846237  0.67582981  1
  H+  H84  1  0.86324280  0.72505473  0.36361281  1
  H+  H85  1  0.45384341  0.35546802  0.67210901  1
  H+  H86  1  0.36677973  0.35921816  0.66710740  1
  H+  H87  1  0.36841107  0.64761843  0.66901681  1
  H+  H88  1  0.64586113  1.01941029  0.32205172  1
  H+  H89  1  0.21791780  0.10873148  0.65276688  1
  H+  H90  1  0.73827245  0.62559429  0.82467520  1
  H+  H91  1  0.10122930  0.47679391  0.49078284  1
  H+  H92  1  0.35115987  0.47789107  0.66875398  1
  H+  H93  1  0.38559474  0.11787157  0.84525617  1
  H+  H94  1  0.42423336  0.25948984  0.31206363  1
  H+  H95  1  0.44319125  0.86481319  0.57758507  1
  H+  H96  1  0.14886604  0.79406805  0.96529669  1
  H+  H97  1  0.71471791  0.59790141  0.52143151  1
  H+  H98  1  0.77052839  0.88127165  0.33660867  1
  H+  H99  1  0.27820594  0.89200877  1.00137766  1
  H+  H100  1  0.38643807  0.62607825  1.00042645  1
  H+  H101  1  0.36539746  0.74860600  0.00532592  1
  H+  H102  1  0.10250298  0.69260833  -0.10470300  1
  H+  H103  1  0.25027465  0.40733956  0.35722923  1
  H+  H104  1  0.01237788  0.38604467  0.48815461  1
  H+  H105  1  0.84987741  0.46676629  0.68192517  1
  H+  H106  1  0.62097442  0.51147035  0.52304874  1
  H+  H107  1  0.86895934  0.89178467  0.01531823  1
  H+  H108  1  0.84624223  0.37881197  0.67886776  1
  H+  H109  1  0.72988256  0.13278653  0.65891884  1
  H+  H110  1  0.36762306  0.39213831  0.16144561  1
  H+  H111  1  0.39022033  0.27159042  0.16935299  1
  H+  H112  1  0.45177940  0.35010947  -0.00635540  1
  H+  H113  1  0.89073685  0.02810360  0.84702542  1
  H+  H114  1  0.87960364  0.87245813  0.17356189  1
  H+  H115  1  0.24728151  0.36403162  -0.00221754  1
  H+  H116  1  0.60294948  0.61307865  0.49204817  1
  H+  H117  1  0.65195708  0.13275645  -0.01247151  1
  H+  H118  1  0.60257408  0.22416329  0.67449136  1
  H+  H119  1  0.40501024  0.74853049  0.29998057  1
  H+  H120  1  0.27573115  0.38681700  0.16799122  1
  H+  H121  1  0.73856930  0.11510046  0.83829566  1
  H+  H122  1  0.74717534  0.58440243  0.68831937  1
  H+  H123  1  0.39288603  0.86155087  0.28042010  1
  H+  H124  1  0.60748412  0.34567252  -0.00081907  1
  H+  H125  1  0.89539181  0.12456675  0.17246351  1
  H+  H126  1  0.23917576  0.61064262  0.83111360  1
  H+  H127  1  0.99680375  0.39575517  0.98537946  1
  H+  H128  1  0.75106683  0.60819307  0.03762110  1
  H+  H129  1  0.60535853  0.93112335  0.77874943  1
  H+  H130  1  0.47902619  0.12529306  0.84147424  1
  H+  H131  1  0.10887215  0.14589033  0.48993076  1
  H+  H132  1  0.96465816  0.24742572  0.04969627  1
  H+  H133  1  0.62565022  0.65491240  0.81984927  1
  H+  H134  1  0.87520972  0.84811591  0.50155930  1
  H+  H135  1  0.53062162  0.89458367  0.83182535  1
  H+  H136  1  0.87423619  0.17218760  0.66698282  1
  H+  H137  1  0.11777881  0.37634099  0.82896636  1
  H+  H138  1  0.97476971  0.61705078  0.32751019  1
  H+  H139  1  0.39087100  0.76942222  0.48859508  1
  H+  H140  1  0.87848840  0.27335590  0.50432298  1
  H+  H141  1  0.89126635  0.37004423  0.32625154  1
  H+  H142  1  0.61108120  0.89957807  0.68078443  1
  H+  H143  1  0.37896612  0.00278540  0.16393882  1
  H+  H144  1  0.14795331  0.25675113  0.32520630  1
  H+  H145  1  0.77439513  0.36809766  0.15072133  1
  H+  H146  1  0.10772871  0.72936782  0.32241968  1
  H+  H147  1  -0.02471769  0.85867513  0.35401146  1
  H+  H148  1  0.68290369  0.09706375  0.90612292  1
  H+  H149  1  0.52216644  0.87750161  1.01362184  1
  H+  H150  1  0.38261218  0.40080157  0.81733380  1
  H+  H151  1  0.64295229  1.02171929  0.84625363  1
  H+  H152  1  0.61093606  0.22475387  0.00733550  1
  H+  H153  1  0.39643172  0.77817587  0.83499355  1
  H+  H154  1  0.84860719  0.38116301  0.48761728  1
  H+  H155  1  0.91826305  0.12944126  0.99831010  1
  H+  H156  1  0.55343526  0.37663597  0.35093328  1
  H+  H157  1  0.68630948  0.85242739  0.63112643  1
  H+  H158  1  0.12393010  0.61185793  0.50005070  1
  H+  H159  1  0.15003007  0.22733892  0.00217511  1
  H+  H160  1  0.49288580  0.87953614  0.51213450  1
  H+  H161  1  0.53012292  0.10449893  0.15589295  1
  H+  H162  1  0.90714246  0.81413112  0.95756726  1
  H+  H163  1  0.89667035  0.76333057  0.69753168  1
  H+  H164  1  0.11631494  0.39017348  0.14989122  1
  H+  H165  1  0.99208873  0.63648471  0.18459830  1
  H+  H166  1  0.86551381  0.47889788  0.33478825  1
  H+  H167  1  0.77758467  0.13740697  0.16120119  1
  H+  H168  1  0.37319852  0.52636041  0.17321091  1
  H+  H169  1  0.86539286  0.25455179  0.67792544  1
  H+  H170  1  0.12525191  0.13066346  0.01084936  1
  H+  H171  1  0.37006524  0.97673362  0.00745639  1
  H+  H172  1  0.11604441  0.24146829  0.49128308  1
  H+  H173  1  0.87420161  0.58302336  0.66932285  1
  H+  H174  1  0.58217046  0.45956708  1.02359594  1
  H+  H175  1  0.88553548  0.42217577  0.00711625  1
  H+  H176  1  0.61029956  0.51370657  0.67548594  1
  H+  H177  1  0.51095330  0.89477592  0.18859876  1
  H+  H178  1  0.61491819  0.73667428  0.49088117  1
  H+  H179  1  0.53591513  0.87155323  0.31774267  1
  H+  H180  1  0.24374686  0.30455150  0.30256370  1
  H+  H181  1  0.61319148  0.95412320  0.48239658  1
  H+  H182  1  0.58648950  0.38238387  0.69297331  1
  H+  H183  1  0.55270222  0.00623093  0.53830261  1
  H+  H184  1  0.35313731  0.39222513  0.50652524  1
  H+  H185  1  0.28920637  0.88063537  0.70241000  1
  H+  H186  1  0.16259151  0.82272876  0.54400868  1
  H+  H187  1  0.45647457  0.33264473  0.26379549  1
  H+  H188  1  0.63408357  0.11748565  0.66453858  1
  H+  H189  1  1.00135737  0.12211354  0.99024175  1
  H+  H190  1  0.63981987  0.24473098  0.16333251  1
  H+  H191  1  0.13348493  -0.02360296  0.64964760  1
  H+  H192  1  0.36760486  0.52847411  0.33859112  1
  H+  H193  1  0.88743382  0.77169249  1.02382875  1
  H+  H194  1  0.33236790  0.14889860  0.25275312  1
  H+  H195  1  -0.03087471  0.87312067  0.18013826  1
  H+  H196  1  0.96517392  0.97382843  0.66817833  1
  H+  H197  1  0.99200198  0.39321417  0.65756179  1
  H+  H198  1  0.56179861  0.55831958  0.17392261  1
  H+  H199  1  0.40373320  0.63964445  0.50421945  1
  H+  H200  1  0.12762878  0.49910874  -0.00392806  1
  H+  H201  1  0.39890606  0.58495765  0.23244388  1
  H+  H202  1  0.77404739  0.13859423  0.33285291  1
  H+  H203  1  0.15619676  0.64263437  -0.03645338  1
  H+  H204  1  0.10464352  0.88516626  0.18467427  1
  H+  H205  1  0.88841359  0.28063468  0.84232392  1
  H+  H206  1  0.48214948  0.35520837  0.16755341  1
  H+  H207  1  0.13376065  0.11037023  0.32417058  1
  H+  H208  1  0.11723182  0.71994702  0.67275071  1
  H+  H209  1  0.67153319  0.30853123  0.22061881  1
  H+  H210  1  0.86902016  0.05900056  0.63991769  1
  H+  H211  1  0.10899965  0.88177356  0.32425231  1
  H+  H212  1  0.84998883  0.75112697  0.70167208  1
  H+  H213  1  0.05298035  0.88079609  0.65249823  1
  H+  H214  1  0.21768914  0.36484892  0.51262473  1
  H+  H215  1  0.88696718  0.61624268  0.83113854  1
  H+  H216  1  0.89747154  0.63081196  0.97861513  1
  H+  H217  1  0.67771614  0.07858067  0.26171473  1
  H+  H218  1  0.16330693  0.86364187  0.64007509  1
  H+  H219  1  0.52436319  0.12064178  0.32997570  1
  H+  H220  1  0.14248756  0.87226103  -0.00383895  1
  H+  H221  1  0.99928384  0.10340618  0.67303282  1
  H+  H222  1  0.77292478  -0.11176751  0.84665850  1
  H+  H223  1  0.26306387  0.13406704  0.50992624  1
  H+  H224  1  0.64079914  0.35582674  0.42711372  1
  H+  H225  1  0.41679703  0.28837654  0.82632860  1
  H+  H226  1  0.88806084  0.36290915  0.16563048  1
  H+  H227  1  0.86765392  0.74748101  0.86552467  1
  H+  H228  1  0.12915082  0.36332474  0.50353197  1
  H+  H229  1  0.11694460  0.08156048  0.65597898  1
  H+  H230  1  1.03162061  0.38333674  0.82933703  1
  H+  H231  1  0.47070728  0.61407095  0.66267040  1
  H+  H232  1  1.03104110  0.14330512  0.15556765  1
  H+  H233  1  0.91496619  0.56915922  0.57014573  1
  H+  H234  1  0.34263891  0.86945009  0.15922910  1
  H+  H235  1  0.12305436  0.02112199  0.49464973  1
  H+  H236  1  0.17107601  0.90261228  0.82835681  1
  H+  H237  1  0.10501671  0.72640885  0.19104908  1
  H+  H238  1  1.01301298  0.39009061  0.33909049  1
  H+  H239  1  0.38162420  0.99204513  0.83668100  1
  H+  H240  1  0.81789832  0.93192553  0.51689777  1
  H+  H241  1  0.64601494  0.25798832  0.31559926  1
  H+  H242  1  0.08126842  0.91354272  0.42332309  1
  H+  H243  1  0.46272550  0.60708545  -0.00304052  1
  H+  H244  1  0.39846593  0.86918756  0.84073628  1
  H+  H245  1  0.86074762  0.14330921  0.48943612  1
  H+  H246  1  0.87699173  0.51975457  0.83703562  1
  H+  H247  1  0.23141022  0.10113616  1.00236394  1
  H+  H248  1  0.24260227  0.85046192  0.62096779  1
  H+  H249  1  0.13095883  0.85632945  0.48765117  1
  H+  H250  1  0.64265781  0.56963128  1.09016305  1
  H+  H251  1  0.11239372  -0.02612488  0.33071080  1
  H+  H252  1  0.86788889  0.74502344  0.17075329  1
  H+  H253  1  0.35350116  0.48229664  0.50820925  1
  H+  H254  1  0.64469966  0.51310115  0.34350525  1
  H+  H255  1  0.37156388  0.13363965  1.00751021  1
  H+  H256  1  0.84531564  0.38263510  0.83456115  1
  H+  H257  1  0.51516764  0.13416880  0.67162365  1
  H+  H258  1  0.62280428  0.27219464  0.46602497  1
  H+  H259  1  0.88007825  0.51498362  0.50759810  1
  H+  H260  1  0.91917033  0.59476423  0.91762452  1
  H+  H261  1  0.60542859  0.63588826  0.67769120  1
  H+  H262  1  0.02578179  0.13980065  0.82610235  1
  H+  H263  1  0.35977629  0.63282092  0.33454111  1
  H+  H264  1  0.61142679  0.35371626  0.15534858  1
  H+  H265  1  0.90983829  0.30754588  0.99419764  1
  H+  H266  1  0.90691616  0.05330899  0.49433361  1
  H+  H267  1  0.36722654  -0.10436195  0.48916204  1
  H+  H268  1  0.46782559  0.60215107  0.32722341  1
  H+  H269  1  0.59884336  0.23375283  0.82772687  1
  H+  H270  1  0.36217020  0.21780468  0.00141720  1
  H+  H271  1  0.91550604  0.59616994  0.24492385  1
  H+  H272  1  1.04027260  0.66301898  0.95247889  1
  H+  H273  1  0.20374269  1.02037733  0.76805594  1
  H+  H274  1  0.85476864  0.62258697  0.50919947  1
  H+  H275  1  0.61413056  0.12136852  0.33405284  1
  H+  H276  1  0.28621300  0.31010123  -0.03181406  1
  H+  H277  1  0.86711321  0.13946059  0.82691807  1
  H+  H278  1  0.40698928  0.78858846  0.66115770  1
  H+  H279  1  0.88405504  0.61525328  0.33632933  1
  H+  H280  1  0.21120433  0.60921745  0.50037499  1
  H+  H281  1  0.60867785  0.86191521  0.47945899  1
  H+  H282  1  0.87694020  0.98437685  0.00679403  1
  H+  H283  1  0.13265267  0.61536953  0.32625909  1
  H+  H284  1  0.35410195  0.64299035  0.15640174  1
  H+  H285  1  0.84680380  0.42618043  0.10168608  1
  H+  H286  1  0.48421588  0.62664078  0.82644842  1
  H+  H287  1  0.15272347  0.51637992  0.83685879  1
  H+  H288  1  0.64425356  0.54228333  0.82871664  1
  H+  H289  1  0.68194682  0.54707903  0.24530523  1
  H+  H290  1  0.31962631  0.90025221  0.09825922  1
  H+  H291  1  0.30421593  0.44102997  0.41852411  1
  H+  H292  1  0.58244239  0.67881070  0.73306663  1
  H+  H293  1  0.64027473  0.32279848  0.93919135  1
  H+  H294  1  0.42000962  0.32798955  0.92584394  1
  H+  H295  1  0.63861997  0.86069630  1.00397877  1
  H+  H296  1  0.12172766  0.94229176  0.74262647  1
  H+  H297  1  0.58064376  0.90186858  0.38374840  1
  H+  H298  1  0.41910904  0.83225786  0.93148886  1
  H+  H299  1  0.87239360  0.19047200  0.07659555  1
  H+  H300  1  0.09628542  0.43473825  0.05208023  1
  H+  H301  1  0.62142974  0.74158903  0.82862339  1
  H+  H302  1  0.19241761  0.32080164  0.89470612  1
  H+  H303  1  0.32789806  0.68462013  0.07256440  1
  H+  H304  1  0.40578525  0.07645463  0.60331128  1
  H+  H305  1  0.64971972  0.34577798  0.61733005  1
  H+  H306  1  0.57185921  0.14980543  0.42321749  1
  H+  H307  1  0.82758042  0.92666334  0.10242894  1
  H+  H308  1  0.08402619  0.90739228  0.11756379  1
  H+  H309  1  0.18689246  0.87221559  0.89291129  1
  H+  H310  1  0.81967597  0.91644409  0.39943757  1
  H+  H311  1  0.89159728  0.27983836  0.32571342  1
  H+  H312  1  0.57354892  0.17135804  0.76966294  1
  H+  H313  1  0.91644239  0.34231982  0.55959526  1
  H+  H314  1  0.39209913  0.09742469  0.16507451  1
  H+  H315  1  0.14363518  0.57027209  0.23122941  1
  H+  H316  1  0.02000708  0.61789448  0.82309729  1
  H+  H317  1  0.84032821  0.90252799  0.79452047  1
  H+  H318  1  0.57394798  0.42004099  0.41673309  1
  H+  H319  1  0.42393630  0.08564280  0.93767516  1
  H+  H320  1  0.37398104  0.64545892  0.81768192  1
  H+  H321  1  0.56338068  0.67658594  0.06093409  1
  H+  H322  1  0.81096389  0.40590722  0.77577037  1
  H+  H323  1  0.42655820  0.18882549  0.41207761  1
  H+  H324  1  0.83756508  0.17415364  0.76855252  1
  H+  H325  1  0.35876176  0.93356833  0.75050570  1
  H+  H326  1  0.16776267  0.58538629  0.60175900  1
  H+  H327  1  0.58166702  0.37625027  0.49916416  1
  H+  H328  1  0.91262417  0.87251344  0.67675804  1
  H+  H329  1  0.92499155  0.34039162  0.22595884  1
  H+  H330  1  0.14468696  0.03772544  0.84314015  1
  H+  H331  1  0.55920474  0.39056378  0.07376763  1
  H+  H332  1  0.39642058  0.53651776  0.82526233  1
  H+  H333  1  0.80748335  0.60605236  0.74731865  1
  H+  H334  1  0.02360850  0.87933275  0.02431386  1
  H+  H335  1  0.57511192  0.63788641  0.42662631  1
  H+  H336  1  0.83538217  0.41870172  0.39347330  1
  H+  H337  1  0.38794976  0.86709521  -0.01034907  1
  H+  H338  1  0.61278439  0.72027455  0.00010460  1
  H+  H339  1  0.62146469  0.10808001  0.15711064  1
  H+  H340  1  0.88610921  0.11398072  0.32495135  1
  H+  H341  1  0.63229739  0.79712607  0.55071329  1
  H+  H342  1  0.83060634  0.17135945  0.39307131  1
  H+  H343  1  0.92073497  0.85313419  0.56276918  1
  H+  H344  1  0.47338468  0.61083681  0.50369115  1
  H+  H345  1  0.11937137  0.52174715  0.16734582  1
  H+  H346  1  0.29629423  0.43252818  0.07887971  1
  H+  H347  1  0.14070150  0.11590530  0.16707839  1
  H+  H348  1  0.54203731  0.40204869  0.75019771  1
  H+  H349  1  0.08212565  0.67437999  0.38659131  1
  H+  H350  1  0.61128559  0.70903845  0.33512578  1
  H+  H351  1  0.62576510  0.44721756  0.16603182  1
  H+  H352  1  0.15910289  0.08269983  0.26100371  1
  H+  H353  1  0.04872327  0.10473744  0.73407190  1
  H+  H354  1  0.34040375  0.67891910  0.76171328  1
  H+  H355  1  0.41550306  0.59136516  0.60132373  1
  H+  H356  1  0.82610378  0.65111148  0.41286580  1
  H+  H357  1  0.08182562  0.41309270  0.73196107  1
  H+  H358  1  0.33809239  0.42099000  0.76173812  1
  H+  H359  1  0.38475017  0.08880078  0.30682505  1
  H+  H360  1  0.92308256  0.34746311  0.89785306  1
  H+  H361  1  0.66604574  0.82150967  0.26412283  1
  H+  H362  1  0.33991767  0.16092119  0.10032663  1
  H+  H363  1  0.83841093  0.67214192  0.11653292  1
  H+  H364  1  0.32068161  0.16712220  0.76898559  1
  H+  H365  1  0.59297896  0.15598071  0.06253888  1
  H+  H366  1  0.19215146  0.59662252  0.92207644  1
  H+  H367  1  0.92962583  0.12427103  0.59079142  1
  H+  H368  1  0.56897561  0.90197395  0.07711568  1
  H+  H369  1  0.88029385  0.71106873  0.78659318  1
  H+  H370  1  0.16736995  0.07151309  0.94565121  1
  H+  H371  1  0.34779640  0.13452836  0.67291624  1
  H+  H372  1  0.81061049  0.57045104  0.05361615  1
  H+  H373  1  0.22117169  0.61189283  0.32722072  1
  H+  H374  1  0.45337997  0.23309456  0.42487268  1
  H+  H375  1  0.17103416  0.32823304  0.23124569  1
  H+  H376  1  0.92714661  0.09519513  0.90102544  1
  H+  H377  1  0.59720136  0.13128947  0.48921315  1
  H+  H378  1  0.35903657  0.89964257  0.38021742  1
  H+  H379  1  0.34882254  0.68950816  0.38579646  1
  H+  H380  1  0.67053433  0.83935355  0.91086047  1
  H+  H381  1  0.61019221  0.61904407  0.33600504  1
  H+  H382  1  0.08826012  0.66482288  0.73547860  1
  H+  H383  1  0.08132816  0.16761605  0.39834714  1
  O2-  O384  1  0.09253166  0.17219178  0.14230387  1
  O2-  O385  1  0.08272487  0.17970382  0.47370028  1
  O2-  O386  1  0.08343984  0.15955425  0.80764667  1
  O2-  O387  1  0.08547335  0.41800330  0.13233719  1
  O2-  O388  1  0.07314178  0.41796659  0.47256879  1
  O2-  O389  1  0.09123302  0.40962052  0.81307545  1
  O2-  O390  1  0.07133489  0.67368515  0.16641101  1
  O2-  O391  1  0.07347632  0.65606214  0.46992109  1
  O2-  O392  1  0.08282201  0.65145565  0.81268287  1
  O2-  O393  1  0.08130456  0.91673362  0.16224427  1
  O2-  O394  1  0.08106656  0.91333986  0.46924221  1
  O2-  O395  1  0.14810816  0.97334250  0.78115055  1
  O2-  O396  1  0.33740440  0.15726801  0.14598032  1
  O2-  O397  1  0.32446450  0.16894347  0.52086935  1
  O2-  O398  1  0.33043515  0.17259111  0.81380889  1
  O2-  O399  1  0.33578853  0.42288788  0.15239878  1
  O2-  O400  1  0.32223617  0.42272321  0.49260084  1
  O2-  O401  1  0.34378796  0.42307966  0.80707721  1
  O2-  O402  1  0.33320136  0.68056893  0.13782436  1
  O2-  O403  1  0.40270826  0.73274009  0.46135501  1
  O2-  O404  1  0.34101893  0.67698116  0.80708256  1
  O2-  O405  1  0.31386982  0.89930532  0.14373888  1
  O2-  O406  1  0.33516013  0.91634747  0.46444049  1
  O2-  O407  1  0.35484953  0.93125962  0.82082830  1
  O2-  O408  1  0.59031619  0.13593452  0.14058645  1
  O2-  O409  1  0.56945190  0.15971847  0.46847662  1
  O2-  O410  1  0.57078807  0.17244835  0.81446571  1
  O2-  O411  1  0.58519222  0.39080816  0.14641932  1
  O2-  O412  1  0.55611296  0.41362495  0.49694084  1
  O2-  O413  1  0.53491456  0.39083256  0.82072285  1
  O2-  O414  1  0.54076516  0.69919394  0.12348946  1
  O2-  O415  1  0.57114392  0.63943799  0.47226566  1
  O2-  O416  1  0.59293094  0.68491421  0.80787135  1
  O2-  O417  1  0.56107272  0.91577246  0.16182910  1
  O2-  O418  1  0.58110640  0.89597298  0.46468990  1
  O2-  O419  1  0.59458823  0.92870575  0.82352683  1
  O2-  O420  1  0.83941858  0.17179785  0.14628687  1
  O2-  O421  1  0.82492260  0.16925229  0.47618408  1
  O2-  O422  1  0.83343773  0.16755711  0.81358605  1
  O2-  O423  1  0.83737409  0.40438135  0.14436775  1
  O2-  O424  1  0.82546740  0.41731019  0.47152967  1
  O2-  O425  1  0.81126926  0.40940933  0.82087189  1
  O2-  O426  1  0.84414968  0.68105763  0.16108398  1
  O2-  O427  1  0.82092619  0.65019943  0.49592905  1
  O2-  O428  1  0.84338631  0.66439948  0.81390688  1
  O2-  O429  1  0.82265107  0.92529987  0.14767806  1
  O2-  O430  1  0.80633471  0.89143305  0.48390630  1
  O2-  O431  1  0.83706727  0.91574323  0.83698799  1
  O2-  O432  1  0.17106413  0.08646850  0.18410634  1
  O2-  O433  1  0.14824805  0.08056378  0.51112586  1
  O2-  O434  1  0.16717470  0.09092768  0.86713746  1
  O2-  O435  1  0.16924113  0.33519729  0.18647093  1
  O2-  O436  1  0.15429489  0.32943010  0.51939666  1
  O2-  O437  1  0.18025263  0.32567097  0.85110652  1
  O2-  O438  1  0.13719396  0.57748530  0.18755382  1
  O2-  O439  1  0.15358097  0.58083941  0.51773675  1
  O2-  O440  1  0.17993754  0.57787571  0.84950675  1
  O2-  O441  1  0.15183268  0.82762781  0.22734309  1
  O2-  O442  1  0.16071345  0.82338844  0.49903283  1
  O2-  O443  1  0.19336042  0.86855668  0.84825059  1
  O2-  O444  1  0.41930256  0.06326058  0.17733920  1
  O2-  O445  1  0.40809543  0.07368498  0.52325496  1
  O2-  O446  1  0.41860909  0.09096730  0.86038451  1
  O2-  O447  1  0.42182954  0.33236392  0.18278737  1
  O2-  O448  1  0.39795817  0.33519097  0.53318662  1
  O2-  O449  1  0.44473800  0.34802256  0.84259241  1
  O2-  O450  1  0.39533694  0.58685678  0.18736413  1
  O2-  O451  1  0.41721795  0.59753111  0.52233649  1
  O2-  O452  1  0.42197121  0.59784998  0.83623576  1
  O2-  O453  1  0.40559649  0.83380339  0.24425683  1
  O2-  O454  1  0.44259374  0.87755755  0.53232610  1
  O2-  O455  1  0.42828268  0.83732161  0.85395117  1
  O2-  O456  1  0.68690837  0.06644933  0.19457182  1
  O2-  O457  1  0.61430133  0.04665252  0.53187171  1
  O2-  O458  1  0.67876274  0.08575730  0.85777386  1
  O2-  O459  1  0.66671050  0.30627830  0.17470413  1
  O2-  O460  1  0.65266556  0.33636373  0.46652290  1
  O2-  O461  1  0.63910911  0.33168867  0.85990909  1
  O2-  O462  1  0.69222144  0.53879454  0.20200702  1
  O2-  O463  1  0.65403980  0.57355093  0.53565146  1
  O2-  O464  1  0.67672123  0.60388000  0.83661773  1
  O2-  O465  1  0.65490379  0.83868050  0.18954432  1
  O2-  O466  1  0.64254288  0.79886340  0.50528864  1
  O2-  O467  1  0.67420314  0.84290090  0.86468546  1
  O2-  O468  1  0.92650624  0.09352583  0.18487462  1
  O2-  O469  1  0.92856053  0.11076294  0.51076912  1
  O2-  O470  1  0.92045198  0.09097123  0.85556535  1
  O2-  O471  1  0.92225124  0.33397917  0.18130147  1
  O2-  O472  1  0.91057547  0.33575184  0.51446948  1
  O2-  O473  1  0.91929709  0.34261113  0.85210978  1
  O2-  O474  1  0.92239441  0.60482083  0.19894702  1
  O2-  O475  1  0.91458388  0.57425680  0.52480238  1
  O2-  O476  1  0.91653867  0.58145780  0.84659183  1
  O2-  O477  1  0.90691474  0.84009111  0.18949620  1
  O2-  O478  1  0.91309851  0.82973284  0.52149883  1
  O2-  O479  1  0.89323404  0.80326751  0.88837280  1
  O2-  O480  1  0.16212353  0.07968906  0.30643861  1
  O2-  O481  1  0.15923022  0.06970528  0.63480176  1
  O2-  O482  1  0.16892474  0.06898767  0.99092573  1
  O2-  O483  1  0.19431587  0.31275746  0.30701550  1
  O2-  O484  1  0.16037082  0.32727336  0.64911997  1
  O2-  O485  1  0.23228208  0.31186043  0.97014540  1
  O2-  O486  1  0.15876904  0.57835022  0.31688528  1
  O2-  O487  1  0.17486666  0.58760702  0.64643623  1
  O2-  O488  1  0.18930914  0.61125834  0.96645832  1
  O2-  O489  1  0.14729270  0.82383670  0.29482074  1
  O2-  O490  1  0.18026354  0.82121679  0.62522153  1
  O2-  O491  1  0.18051011  0.85790606  0.97160531  1
  O2-  O492  1  0.42278590  0.06403501  0.29944436  1
  O2-  O493  1  0.40653921  0.08295107  0.64851300  1
  O2-  O494  1  0.42325341  0.08098424  0.98320146  1
  O2-  O495  1  0.46823323  0.31972266  0.30523853  1
  O2-  O496  1  0.39428634  0.32467158  0.65442658  1
  O2-  O497  1  0.39907422  0.31599308  0.96832285  1
  O2-  O498  1  0.40776387  0.58074203  0.31333857  1
  O2-  O499  1  0.41060832  0.58605217  0.64648867  1
  O2-  O500  1  0.40042762  0.58177602  0.98941892  1
  O2-  O501  1  0.45188660  0.79606189  0.27469482  1
  O2-  O502  1  0.44322642  0.85069330  0.64998219  1
  O2-  O503  1  0.41505306  0.83189991  0.97720234  1
  O2-  O504  1  0.67405145  0.08065608  0.30934932  1
  O2-  O505  1  0.66871967  0.09115744  0.64919257  1
  O2-  O506  1  0.68953902  0.11077330  0.96857547  1
  O2-  O507  1  0.67639068  0.31426499  0.29474485  1
  O2-  O508  1  0.64967714  0.33582904  0.66085883  1
  O2-  O509  1  0.63947260  0.31769536  0.98424376  1
  O2-  O510  1  0.66871574  0.56972896  0.32179711  1
  O2-  O511  1  0.64883898  0.57347698  0.66027582  1
  O2-  O512  1  0.64914288  0.57438767  1.04594446  1
  O2-  O513  1  0.66908810  0.81702943  0.30959428  1
  O2-  O514  1  0.62519408  0.81136473  0.62357851  1
  O2-  O515  1  0.67160930  0.83571550  0.98379288  1
  O2-  O516  1  0.91705732  0.08391207  0.31089385  1
  O2-  O517  1  0.91963884  0.11815977  0.63549046  1
  O2-  O518  1  0.93908006  0.09369979  0.97808852  1
  O2-  O519  1  0.92533157  0.34161119  0.31294250  1
  O2-  O520  1  0.93578999  0.38103605  0.63434161  1
  O2-  O521  1  0.93309385  0.36290313  0.97289952  1
  O2-  O522  1  0.91228246  0.58533493  0.31589965  1
  O2-  O523  1  0.91468403  0.56578055  0.64930340  1
  O2-  O524  1  0.93378739  0.60894119  0.96264893  1
  O2-  O525  1  0.91467443  0.82657601  0.36840245  1
  O2-  O526  1  0.92508248  0.91827789  0.64763411  1
  O2-  O527  1  0.91651261  0.82736515  1.00338418  1
  O2-  O528  1  0.10310864  0.17089049  0.01956911  1
  O2-  O529  1  0.08153659  0.16206754  0.35282980  1
  O2-  O530  1  0.03142830  0.07812396  0.69302007  1
  O2-  O531  1  0.09174338  0.43811926  0.00724954  1
  O2-  O532  1  0.07564208  0.42442882  0.35705454  1
  O2-  O533  1  0.07584043  0.41858575  0.68743034  1
  O2-  O534  1  0.10271897  0.69303016  -0.05951142  1
  O2-  O535  1  0.08059741  0.66891045  0.34168333  1
  O2-  O536  1  0.08507624  0.66138705  0.68965760  1
  O2-  O537  1  0.08460924  0.90763816  0.03857207  1
  O2-  O538  1  0.08467029  0.91415669  0.34692359  1
  O2-  O539  1  0.11302175  0.91461099  0.66478469  1
  O2-  O540  1  0.33787353  0.16075959  0.02248349  1
  O2-  O541  1  0.33189288  0.14444371  0.29703596  1
  O2-  O542  1  0.31254334  0.15919927  0.68846662  1
  O2-  O543  1  0.27260218  0.44067748  0.04057778  1
  O2-  O544  1  0.28916400  0.45971873  0.38007658  1
  O2-  O545  1  0.32319609  0.41832564  0.68547478  1
  O2-  O546  1  0.32763671  0.68632355  0.02414736  1
  O2-  O547  1  0.33370739  0.67049766  0.34323182  1
  O2-  O548  1  0.34257806  0.68315823  0.68250547  1
  O2-  O549  1  0.33702792  0.91449734  0.01973758  1
  O2-  O550  1  0.38777862  0.91169463  0.34035725  1
  O2-  O551  1  0.34950603  0.92527450  0.70407233  1
  O2-  O552  1  0.59071127  0.16165709  0.01755825  1
  O2-  O553  1  0.58241042  0.15058100  0.34943777  1
  O2-  O554  1  0.57601325  0.16257445  0.68610104  1
  O2-  O555  1  0.54994638  0.39658096  0.02924721  1
  O2-  O556  1  0.60143173  0.41538202  0.37884318  1
  O2-  O557  1  0.55186189  0.40930459  0.70361992  1
  O2-  O558  1  0.57694995  0.66268089  0.01864279  1
  O2-  O559  1  0.57825495  0.64854493  0.35033822  1
  O2-  O560  1  0.57626538  0.66968233  0.68761447  1
  O2-  O561  1  0.57876537  0.90009230  0.03316575  1
  O2-  O562  1  0.59160981  0.90748141  0.33939510  1
  O2-  O563  1  0.64803559  0.94942024  0.70650314  1
  O2-  O564  1  0.90541324  0.20978266  0.03664875  1
  O2-  O565  1  0.83551564  0.17232477  0.34820547  1
  O2-  O566  1  0.83837887  0.19341115  0.68772662  1
  O2-  O567  1  0.86401424  0.45699570  0.02721282  1
  O2-  O568  1  0.83962915  0.41764885  0.34818555  1
  O2-  O569  1  0.81408318  0.40549794  0.69559729  1
  O2-  O570  1  0.81363522  0.62446816  0.04209225  1
  O2-  O571  1  0.83161113  0.65976171  0.36807272  1
  O2-  O572  1  0.79658400  0.58106303  0.70533463  1
  O2-  O573  1  0.83983206  0.92561566  0.02355306  1
  O2-  O574  1  0.82867142  0.91989792  0.35506968  1
  O2-  O575  1  0.78629107  0.95664143  0.65163479  1
