# generated using pymatgen
data_H2O
_symmetry_space_group_name_H-M   'P 1'
_cell_length_a   17.99260257
_cell_length_b   17.99794721
_cell_length_c   22.00406182
_cell_angle_alpha   89.99372268
_cell_angle_beta   90.01382908
_cell_angle_gamma   119.98027833
_symmetry_Int_Tables_number   1
_chemical_formula_structural   H2O
_chemical_formula_sum   'H384 O192'
_cell_volume   6172.15336259
_cell_formula_units_Z   192
loop_
 _symmetry_equiv_pos_site_id
 _symmetry_equiv_pos_as_xyz
  1  'x, y, z'
loop_
 _atom_type_symbol
 _atom_type_oxidation_number
  H+  1.0
  O2-  -2.0
loop_
 _atom_site_type_symbol
 _atom_site_label
 _atom_site_symmetry_multiplicity
 _atom_site_fract_x
 _atom_site_fract_y
 _atom_site_fract_z
 _atom_site_occupancy
  H+  H0  1  0.90102208  0.86701320  0.18118884  1
  H+  H1  1  0.61146883  0.88139171  0.00613165  1
  H+  H2  1  0.12094201  0.87411420  0.85596413  1
  H+  H3  1  0.48833285  0.87157821  0.84508108  1
  H+  H4  1  0.51923050  0.39430894  0.84204627  1
  H+  H5  1  0.13022611  0.11873898  0.98397971  1
  H+  H6  1  0.12570193  0.00878207  0.64851275  1
  H+  H7  1  0.64792573  0.84724452  0.49625590  1
  H+  H8  1  0.61216801  0.91692227  0.54955980  1
  H+  H9  1  0.37363831  0.48304180  0.48915479  1
  H+  H10  1  0.89617285  0.28455345  0.65261217  1
  H+  H11  1  0.18677992  0.22660523  0.67258679  1
  H+  H12  1  0.12529264  0.35459535  -0.00473339  1
  H+  H13  1  0.86282020  0.63640011  0.34383271  1
  H+  H14  1  0.39934583  0.39009618  0.82185075  1
  H+  H15  1  0.26541718  0.38311057  0.00902503  1
  H+  H16  1  0.89114333  0.77145000  0.50210487  1
  H+  H17  1  0.47851659  0.12506245  0.66120578  1
  H+  H18  1  0.22147564  0.13629807  0.96208855  1
  H+  H19  1  0.61745036  0.85777375  0.33257252  1
  H+  H20  1  0.35911580  0.07287884  0.81183577  1
  H+  H21  1  0.63134685  0.26279591  -0.03409711  1
  H+  H22  1  0.14129991  0.81519577  0.97802389  1
  H+  H23  1  0.89661022  0.51877870  0.34226163  1
  H+  H24  1  0.39657512  0.53434533  0.82665051  1
  H+  H25  1  0.92988631  0.60197956  0.93494368  1
  H+  H26  1  -0.02878630  0.11169524  0.17122856  1
  H+  H27  1  0.74120533  0.62714639  0.84453486  1
  H+  H28  1  0.52406564  0.89411242  0.67537143  1
  H+  H29  1  0.95136425  0.59809537  0.38514509  1
  H+  H30  1  0.71734280  0.59276868  0.99081556  1
  H+  H31  1  0.25022992  0.88954576  -0.02264144  1
  H+  H32  1  0.10637963  0.20871414  0.32923853  1
  H+  H33  1  0.87945231  -0.03135145  0.49786310  1
  H+  H34  1  0.60699709  0.22636201  0.69226666  1
  H+  H35  1  0.84364161  0.90618849  0.24614573  1
  H+  H36  1  0.14040530  0.12195843  0.49696531  1
  H+  H37  1  0.11472051  0.09928734  0.82995891  1
  H+  H38  1  0.23886388  0.62081664  0.50719931  1
  H+  H39  1  0.90173387  0.53140403  0.85102314  1
  H+  H40  1  0.60414231  0.13637565  0.67442556  1
  H+  H41  1  0.14878812  0.10676562  0.32390623  1
  H+  H42  1  0.38378518  0.87322245  0.67410864  1
  H+  H43  1  0.84625463  0.48485701  0.99073703  1
  H+  H44  1  0.85603138  0.87202999  0.01638352  1
  H+  H45  1  0.62292193  0.89365855  0.15879695  1
  H+  H46  1  0.07766226  0.16891363  0.05592233  1
  H+  H47  1  0.48078231  0.60943777  0.33044928  1
  H+  H48  1  0.78660826  0.41520996  0.31200478  1
  H+  H49  1  0.02896191  0.87185099  0.34466235  1
  H+  H50  1  0.61684108  0.13336587  1.00539422  1
  H+  H51  1  0.84817353  0.46527886  0.13325110  1
  H+  H52  1  0.49662003  0.61601217  0.49635143  1
  H+  H53  1  0.36782319  -0.01392564  0.99969573  1
  H+  H54  1  -0.02958242  0.10792649  0.32544347  1
  H+  H55  1  0.72579655  0.62025575  0.32706050  1
  H+  H56  1  0.68034695  0.42880810  0.30387565  1
  H+  H57  1  0.15115889  0.70385544  0.91377083  1
  H+  H58  1  0.83407550  0.16959922  0.59296173  1
  H+  H59  1  0.48338740  0.62334026  0.82573311  1
  H+  H60  1  0.26496325  0.88984102  0.70649343  1
  H+  H61  1  0.71709605  0.84799385  0.99980634  1
  H+  H62  1  0.37569804  0.22925212  0.34709776  1
  H+  H63  1  0.63688231  0.03662972  0.51185254  1
  H+  H64  1  0.40408436  0.61207166  -0.00251871  1
  H+  H65  1  0.18905296  0.23986948  0.70541143  1
  H+  H66  1  0.65590147  0.76322368  0.49950411  1
  H+  H67  1  0.37523293  0.39401692  0.66308692  1
  H+  H68  1  0.13911292  0.07657700  0.18581287  1
  H+  H69  1  0.62447853  0.64634469  0.82730703  1
  H+  H70  1  -0.09427867  0.08232375  0.93051435  1
  H+  H71  1  0.87421257  0.10115906  0.65008116  1
  H+  H72  1  0.14734123  0.53178585  0.66015485  1
  H+  H73  1  0.53248963  0.63563412  0.15980574  1
  H+  H74  1  0.39893999  0.12297936  0.17992779  1
  H+  H75  1  0.87241931  0.89427198  0.83205527  1
  H+  H76  1  0.88467209  0.35091259  0.32035116  1
  H+  H77  1  0.59753565  0.71922788  0.33978982  1
  H+  H78  1  0.14605364  0.53333126  0.50845205  1
  H+  H79  1  0.87320000  0.38846254  0.83948956  1
  H+  H80  1  0.02798497  0.63167063  0.30818240  1
  H+  H81  1  0.10933064  0.22707717  -0.00325752  1
  H+  H82  1  0.78646965  0.88096618  0.49265299  1
  H+  H83  1  0.01072403  0.40102217  0.81462878  1
  H+  H84  1  0.87732811  0.02861789  0.83580269  1
  H+  H85  1  0.37017364  0.72259830  0.33277339  1
  H+  H86  1  0.26806732  0.61200104  0.15428777  1
  H+  H87  1  0.89764162  0.77946043  0.32680967  1
  H+  H88  1  0.39695050  0.78747071  0.84325903  1
  H+  H89  1  0.90437598  0.87024495  0.32846801  1
  H+  H90  1  -0.01036339  0.86663632  0.50566086  1
  H+  H91  1  0.10887977  0.94969545  0.82814338  1
  H+  H92  1  0.77319633  0.64703753  0.16305653  1
  H+  H93  1  0.11408251  0.86733982  0.15248753  1
  H+  H94  1  0.61710162  0.62904327  1.00685884  1
  H+  H95  1  0.83177465  0.16883256  0.45587754  1
  H+  H96  1  0.11748232  0.72150398  0.30852541  1
  H+  H97  1  0.15591336  0.78216963  0.39013643  1
  H+  H98  1  0.87023775  0.11578351  0.83910782  1
  H+  H99  1  0.95299444  0.08350675  0.66754285  1
  H+  H100  1  0.87953512  0.53451687  0.52783522  1
  H+  H101  1  0.16164140  0.31522002  0.38097604  1
  H+  H102  1  0.89687476  0.37333819  0.66676096  1
  H+  H103  1  0.38711149  0.36055795  0.18131336  1
  H+  H104  1  0.98849316  0.88227246  0.99680537  1
  H+  H105  1  0.52749334  0.62674320  1.01102064  1
  H+  H106  1  0.62887425  0.76344753  0.99354467  1
  H+  H107  1  0.29721183  0.64353058  0.00774335  1
  H+  H108  1  0.76787781  0.12406187  0.00769514  1
  H+  H109  1  0.11349542  0.64696366  0.52794136  1
  H+  H110  1  0.07362442  0.65404427  0.21838286  1
  H+  H111  1  0.40950110  0.80900945  0.14614039  1
  H+  H112  1  0.63326343  0.02229794  0.83812434  1
  H+  H113  1  0.87860234  0.88732415  0.68046537  1
  H+  H114  1  0.39090891  0.51836111  0.00268801  1
  H+  H115  1  0.23916772  0.10605807  0.81500954  1
  H+  H116  1  0.11314153  0.73510330  0.53407539  1
  H+  H117  1  0.60142475  0.66021133  0.42671480  1
  H+  H118  1  0.89159795  0.76934690  0.16126025  1
  H+  H119  1  0.24295359  0.11748323  0.33005088  1
  H+  H120  1  0.96861037  0.10972274  0.98676806  1
  H+  H121  1  0.15863173  0.57561143  0.10455215  1
  H+  H122  1  0.02093870  0.68925259  0.00401956  1
  H+  H123  1  0.95489398  0.59650542  0.17443517  1
  H+  H124  1  0.38407023  0.27255907  0.65491765  1
  H+  H125  1  0.61247763  0.10239814  0.34169239  1
  H+  H126  1  0.24463572  0.62769420  0.66439514  1
  H+  H127  1  0.91076660  0.62543843  0.67957482  1
  H+  H128  1  0.11194054  0.47652686  0.33367031  1
  H+  H129  1  0.08783519  0.44980557  0.00429216  1
  H+  H130  1  0.62278704  0.73426907  0.82474802  1
  H+  H131  1  0.35284444  0.38009645  1.00892980  1
  H+  H132  1  0.38259903  0.11714486  0.51066784  1
  H+  H133  1  0.53483655  0.65851247  0.67592254  1
  H+  H134  1  0.12103572  0.59628236  0.97783161  1
  H+  H135  1  0.13527219  0.53703704  0.81976022  1
  H+  H136  1  0.37968279  0.12094928  0.65849180  1
  H+  H137  1  0.33047928  0.18887460  0.81974854  1
  H+  H138  1  0.62013403  0.14217773  0.16241586  1
  H+  H139  1  0.63478922  0.50360743  0.82283877  1
  H+  H140  1  0.41068019  0.83679980  0.57338387  1
  H+  H141  1  0.36875081  0.46971549  0.16245803  1
  H+  H142  1  0.12959583  0.86477888  0.67736603  1
  H+  H143  1  0.87781538  0.10332480  0.17078211  1
  H+  H144  1  0.03297319  0.40175023  0.66734960  1
  H+  H145  1  0.87489062  0.73639774  0.84086214  1
  H+  H146  1  0.37640258  0.64640923  0.48797006  1
  H+  H147  1  0.78570571  0.71155927  0.02028522  1
  H+  H148  1  0.11695701  0.15378237  0.14304512  1
  H+  H149  1  0.76248422  0.39303205  0.50851126  1
  H+  H150  1  0.76948072  0.65261143  0.48961466  1
  H+  H151  1  0.33954370  0.93002709  0.09608208  1
  H+  H152  1  0.11429360  0.23724924  0.15616488  1
  H+  H153  1  0.89228510  0.86623694  0.49934906  1
  H+  H154  1  0.41849662  0.07893249  0.27010441  1
  H+  H155  1  0.73105983  0.11514052  0.17740665  1
  H+  H156  1  0.09894446  0.22270131  0.82378135  1
  H+  H157  1  0.87840675  0.25225800  1.00623326  1
  H+  H158  1  0.73434823  0.86775814  0.84345438  1
  H+  H159  1  0.08878720  0.60785734  0.16299989  1
  H+  H160  1  0.27907809  0.65011962  0.82007689  1
  H+  H161  1  0.88787648  0.62878295  0.98872253  1
  H+  H162  1  0.82411142  0.68305293  0.68324794  1
  H+  H163  1  0.63638718  0.01837861  0.99164952  1
  H+  H164  1  0.52515154  0.39587858  0.16955624  1
  H+  H165  1  0.36442342  -0.00459445  0.78153272  1
  H+  H166  1  0.85844160  0.24314926  0.84505448  1
  H+  H167  1  0.03816745  0.52838187  0.94652405  1
  H+  H168  1  0.61783514  0.63911784  0.33605072  1
  H+  H169  1  0.52452462  0.88663329  0.51511009  1
  H+  H170  1  0.52613514  0.89007238  0.00681955  1
  H+  H171  1  0.08234540  0.09125075  0.67953964  1
  H+  H172  1  0.62396516  0.50850877  0.99411641  1
  H+  H173  1  0.27860065  0.63575149  0.33418177  1
  H+  H174  1  0.59159413  0.66652785  0.09968328  1
  H+  H175  1  0.99334689  0.03992661  0.54943907  1
  H+  H176  1  0.63565337  0.52666225  0.32020850  1
  H+  H177  1  0.12870457  0.49552846  0.14830478  1
  H+  H178  1  0.38509061  0.02775805  0.51238378  1
  H+  H179  1  0.86100521  0.24340771  0.50493287  1
  H+  H180  1  0.59270066  0.10622699  0.82856384  1
  H+  H181  1  0.12385786  -0.04036257  0.16746989  1
  H+  H182  1  0.11722604  0.89279900  0.51068973  1
  H+  H183  1  0.30237516  0.35670166  0.81228173  1
  H+  H184  1  0.64153931  0.02949067  0.17870430  1
  H+  H185  1  0.39322229  0.59903687  0.17499702  1
  H+  H186  1  0.52709609  0.38697525  0.47199315  1
  H+  H187  1  0.63265112  0.36393023  0.16505893  1
  H+  H188  1  0.33486631  0.67993366  0.73839242  1
  H+  H189  1  0.28464815  0.12202025  0.02676780  1
  H+  H190  1  0.36800488  0.64665114  0.81874133  1
  H+  H191  1  0.39542304  0.78751491  -0.00562476  1
  H+  H192  1  0.91857659  0.75897154  0.68956993  1
  H+  H193  1  0.62806015  0.59170228  0.53091685  1
  H+  H194  1  0.37795244  0.90656054  0.15374362  1
  H+  H195  1  0.74467652  0.38540673  0.82927442  1
  H+  H196  1  0.61616692  0.48496912  0.16723231  1
  H+  H197  1  0.22679548  0.11715418  0.50237207  1
  H+  H198  1  0.60014290  0.24546169  0.31126122  1
  H+  H199  1  0.11772833  0.98709538  0.00673728  1
  H+  H200  1  0.39953996  0.11597935  -0.00074645  1
  H+  H201  1  0.72525314  0.85957202  0.18879599  1
  H+  H202  1  0.86555868  0.97792766  0.33725998  1
  H+  H203  1  0.00174586  0.35689802  0.01020384  1
  H+  H204  1  0.64556040  0.62221200  0.17436440  1
  H+  H205  1  0.62428222  0.89237108  0.82802429  1
  H+  H206  1  0.47616453  0.35932226  0.65924082  1
  H+  H207  1  0.60106406  0.47043003  0.66067142  1
  H+  H208  1  0.57317007  0.94682376  0.36624333  1
  H+  H209  1  0.63775316  0.36107539  0.69274915  1
  H+  H210  1  0.23394661  0.37689940  0.49446781  1
  H+  H211  1  0.38749961  0.52889196  0.65273892  1
  H+  H212  1  0.36697816  0.65326855  0.67692507  1
  H+  H213  1  0.63903188  0.28480829  0.49998806  1
  H+  H214  1  0.26311450  0.12257298  0.66044398  1
  H+  H215  1  -0.02524274  0.33711898  0.17656967  1
  H+  H216  1  0.53030662  0.13973571  0.16251507  1
  H+  H217  1  0.36226566  0.89302854  -0.00108124  1
  H+  H218  1  0.85261550  0.12700453  0.35312798  1
  H+  H219  1  0.11690071  0.23862309  0.48449980  1
  H+  H220  1  0.34901605  0.69299597  0.18194756  1
  H+  H221  1  0.39291593  0.03173407  0.17413206  1
  H+  H222  1  0.85653368  0.12167358  0.00741082  1
  H+  H223  1  0.39204891  0.61135711  0.32718723  1
  H+  H224  1  0.48508416  0.36932129  0.33126734  1
  H+  H225  1  0.11681158  0.37543096  0.15787050  1
  H+  H226  1  0.85866239  0.21725133  0.35399309  1
  H+  H227  1  0.11456182  0.39963026  0.48881413  1
  H+  H228  1  0.68981541  0.59565434  0.61778978  1
  H+  H229  1  0.38268182  0.78571218  0.66776769  1
  H+  H230  1  0.02643754  0.40260221  0.49404676  1
  H+  H231  1  0.63253703  0.02942350  0.66390048  1
  H+  H232  1  0.38961321  0.36464617  0.50172064  1
  H+  H233  1  0.20766921  0.38351953  0.84193948  1
  H+  H234  1  0.28013122  0.39203375  0.34115829  1
  H+  H235  1  -0.00303278  0.86443444  0.16158110  1
  H+  H236  1  0.60950124  0.59893830  0.64289329  1
  H+  H237  1  0.86259584  0.21000258  0.16276764  1
  H+  H238  1  0.95840788  0.31666032  0.87510634  1
  H+  H239  1  0.36526515  0.88172563  0.34463418  1
  H+  H240  1  0.12603228  0.40736035  0.66749108  1
  H+  H241  1  0.28576952  0.13708560  0.16956717  1
  H+  H242  1  0.59567264  0.92559729  0.09823177  1
  H+  H243  1  0.63747271  0.77446461  0.17164955  1
  H+  H244  1  0.63532285  0.26055112  0.33454712  1
  H+  H245  1  0.13817697  0.75797250  0.16288817  1
  H+  H246  1  0.87097426  0.97278412  0.19234517  1
  H+  H247  1  0.58550198  0.43343890  0.72912052  1
  H+  H248  1  0.72538510  0.86382275  0.65873398  1
  H+  H249  1  0.18537780  0.71795907  -0.06223413  1
  H+  H250  1  0.11905699  0.65259366  0.78227328  1
  H+  H251  1  0.61499736  0.89649098  0.66917737  1
  H+  H252  1  0.97307792  0.35282896  0.33052616  1
  H+  H253  1  0.38938872  0.77917161  0.51209228  1
  H+  H254  1  0.51957187  0.14261225  0.49518815  1
  H+  H255  1  0.36749225  0.89394165  0.50152104  1
  H+  H256  1  0.89013788  0.38030854  0.51550504  1
  H+  H257  1  0.49434827  0.81507828  0.30290784  1
  H+  H258  1  0.85580280  0.96088272  0.67524398  1
  H+  H259  1  0.27208242  0.87212546  0.35046176  1
  H+  H260  1  0.23191513  0.87522512  0.52446807  1
  H+  H261  1  0.24832569  0.39185540  0.65274552  1
  H+  H262  1  0.11535052  0.36913181  0.83675313  1
  H+  H263  1  0.38348641  0.27155875  -0.00465415  1
  H+  H264  1  0.71594989  0.12001469  0.84065331  1
  H+  H265  1  0.72870943  0.12537401  0.33528795  1
  H+  H266  1  0.51284826  0.38951637  0.01580030  1
  H+  H267  1  0.23828741  0.36397974  0.17540717  1
  H+  H268  1  0.81113513  0.41341995  1.04084493  1
  H+  H269  1  0.44993342  0.29791086  0.85230153  1
  H+  H270  1  0.85199341  0.64015077  0.50344856  1
  H+  H271  1  0.03816198  0.64426744  0.68509888  1
  H+  H272  1  0.78511743  0.39379105  0.69328702  1
  H+  H273  1  0.66596270  0.33222116  0.75236750  1
  H+  H274  1  0.63489045  0.27510305  0.16989522  1
  H+  H275  1  0.60868513  0.14343973  0.49663653  1
  H+  H276  1  0.37734066  1.01371736  0.32700862  1
  H+  H277  1  0.39284666  0.36402670  0.33491511  1
  H+  H278  1  0.14118183  0.61001765  0.29802431  1
  H+  H279  1  0.27648836  0.85306357  0.80768769  1
  H+  H280  1  0.90058351  0.61967800  0.84847547  1
  H+  H281  1  0.90898418  0.08530528  0.26843773  1
  H+  H282  1  0.98458017  0.85829783  0.84626977  1
  H+  H283  1  0.63824427  0.37208265  0.49248437  1
  H+  H284  1  0.96983447  0.62411767  0.53079923  1
  H+  H285  1  0.49981728  0.88522281  0.16480179  1
  H+  H286  1  0.57433466  0.41825142  0.28408219  1
  H+  H287  1  0.11235217  -0.02089501  0.49845644  1
  H+  H288  1  0.08470147  0.90171764  0.40641319  1
  H+  H289  1  0.14519852  0.06861304  0.88731852  1
  H+  H290  1  0.91756008  0.30447743  0.23682333  1
  H+  H291  1  0.37323968  0.13824371  0.34536561  1
  H+  H292  1  0.42664621  0.57531441  0.23481094  1
  H+  H293  1  0.07429851  0.39129688  0.09696490  1
  H+  H294  1  0.33589619  0.92034439  0.44206200  1
  H+  H295  1  0.92853154  0.06488285  0.57566033  1
  H+  H296  1  0.67556366  0.59567721  0.23589894  1
  H+  H297  1  0.35469022  0.42525809  0.72494963  1
  H+  H298  1  0.66369409  0.33090715  0.87165593  1
  H+  H299  1  0.92401000  0.59212408  0.61673150  1
  H+  H300  1  0.31505207  0.14963772  0.72284050  1
  H+  H301  1  0.83367247  0.67054818  0.39961933  1
  H+  H302  1  0.82531040  0.14943184  0.10212878  1
  H+  H303  1  0.70274224  0.38811140  0.24518002  1
  H+  H304  1  0.17802267  0.56665457  0.25486838  1
  H+  H305  1  0.67146663  0.58519638  0.89908357  1
  H+  H306  1  0.17738434  0.85319147  0.58691107  1
  H+  H307  1  0.72403302  0.12877133  0.51439663  1
  H+  H308  1  0.18622517  0.59235570  0.59560490  1
  H+  H309  1  0.48466782  0.08845209  0.81507805  1
  H+  H310  1  0.81723787  0.17643840  0.78132174  1
  H+  H311  1  0.42433381  0.33889321  0.93958402  1
  H+  H312  1  0.89942367  0.31684118  0.95044211  1
  H+  H313  1  0.61339797  0.93030164  0.42320108  1
  H+  H314  1  0.83712540  0.44343234  0.45938981  1
  H+  H315  1  0.67331827  0.10220073  0.26925357  1
  H+  H316  1  0.08916579  0.92642115  0.06597378  1
  H+  H317  1  0.03340243  0.14470391  0.49039095  1
  H+  H318  1  0.37066558  0.48031770  0.33747963  1
  H+  H319  1  0.13308713  0.36671883  0.34003014  1
  H+  H320  1  0.05415652  0.12307831  0.73950528  1
  H+  H321  1  0.58432005  0.41430537  0.41232589  1
  H+  H322  1  0.87074858  0.54963097  0.21623332  1
  H+  H323  1  0.83919305  0.91241734  0.39146978  1
  H+  H324  1  0.76374880  0.37770744  0.13762046  1
  H+  H325  1  0.15893875  0.07632554  0.59323985  1
  H+  H326  1  0.67605352  0.83820903  0.59616048  1
  H+  H327  1  0.34176477  0.42265251  0.43067093  1
  H+  H328  1  0.85533704  0.68086479  0.78143133  1
  H+  H329  1  0.62222066  0.82110037  0.26633022  1
  H+  H330  1  0.17577722  0.35156263  0.55312973  1
  H+  H331  1  0.34816432  0.67039552  0.06968123  1
  H+  H332  1  0.07696205  0.42596925  0.75903456  1
  H+  H333  1  0.08232849  0.42797379  0.39829969  1
  H+  H334  1  0.15749721  0.33440759  0.93321723  1
  H+  H335  1  0.83656556  0.91317809  0.77147026  1
  H+  H336  1  0.34833853  0.17553753  0.07858901  1
  H+  H337  1  0.43450463  0.83042461  0.25879592  1
  H+  H338  1  0.17542716  0.33203013  0.23372650  1
  H+  H339  1  0.15381686  0.60084026  0.87299551  1
  H+  H340  1  0.87425738  0.48364183  0.68319930  1
  H+  H341  1  0.77133877  0.14388287  0.64829483  1
  H+  H342  1  0.33927499  0.56085524  0.61160068  1
  H+  H343  1  0.59034310  0.17006012  0.06230728  1
  H+  H344  1  0.36421540  0.22789608  0.49605220  1
  H+  H345  1  0.85936581  0.42661070  0.77730822  1
  H+  H346  1  0.59152532  0.92052540  0.76858485  1
  H+  H347  1  0.41769459  0.09318783  0.59530654  1
  H+  H348  1  0.09570722  0.63564226  0.40993415  1
  H+  H349  1  0.90417860  0.78981103  0.99331068  1
  H+  H350  1  0.63763571  0.41437568  0.81683987  1
  H+  H351  1  0.71074126  0.35707810  0.96306852  1
  H+  H352  1  0.08106188  0.15762164  0.39051280  1
  H+  H353  1  0.83403781  0.93386224  0.05238457  1
  H+  H354  1  0.82405937  0.67745364  0.06977325  1
  H+  H355  1  0.22644352  0.84981590  0.15585551  1
  H+  H356  1  0.57719695  0.42472603  0.07230268  1
  H+  H357  1  0.48388331  0.10956388  0.99499959  1
  H+  H358  1  0.15970296  0.30785576  0.64931267  1
  H+  H359  1  0.13052935  0.84325040  0.35277153  1
  H+  H360  1  0.41839006  0.33404012  0.24278224  1
  H+  H361  1  0.33135088  0.40846658  0.10313143  1
  H+  H362  1  0.33971296  0.67363416  0.43205909  1
  H+  H363  1  0.00686262  0.13704834  0.82847928  1
  H+  H364  1  0.56141893  0.12243207  0.40909237  1
  H+  H365  1  0.56259450  0.14030990  0.76451951  1
  H+  H366  1  0.33747153  0.16594146  0.43813788  1
  H+  H367  1  0.80893671  0.38160227  0.37467400  1
  H+  H368  1  0.58924421  0.66064314  0.73314883  1
  H+  H369  1  0.92419192  0.84508945  0.90311349  1
  H+  H370  1  0.37087538  0.23215817  0.17181175  1
  H+  H371  1  0.14264721  0.78384337  0.67918964  1
  H+  H372  1  0.66968307  0.83405291  0.90065477  1
  H+  H373  1  0.42541159  0.84526203  0.93354479  1
  H+  H374  1  0.92949115  0.35377316  0.57024869  1
  H+  H375  1  0.50141342  0.08728095  0.34713988  1
  H+  H376  1  0.06807671  0.65379684  0.42027928  1
  H+  H377  1  0.42360244  0.33687656  0.55930094  1
  H+  H378  1  0.85819191  0.63929157  0.15505681  1
  H+  H379  1  0.09509380  0.72662655  0.05511435  1
  H+  H380  1  0.65400429  0.08877119  0.60409997  1
  H+  H381  1  0.66167847  0.07914059  0.93270304  1
  H+  H382  1  0.43705065  0.59433259  0.55477341  1
  H+  H383  1  0.18572630  0.06937554  0.24446973  1
  O2-  O384  1  0.08051979  0.17880883  0.13708618  1
  O2-  O385  1  0.08882679  0.17867870  0.46848899  1
  O2-  O386  1  0.06810111  0.16114540  0.81393587  1
  O2-  O387  1  0.08147812  0.39997510  0.14257311  1
  O2-  O388  1  0.08618013  0.43298809  0.47670056  1
  O2-  O389  1  0.07228334  0.42617718  0.80451902  1
  O2-  O390  1  0.06394196  0.64435217  0.17301422  1
  O2-  O391  1  0.07619426  0.67180040  0.53337725  1
  O2-  O392  1  0.08415413  0.67687942  0.76608505  1
  O2-  O393  1  0.08653817  0.90461177  0.14543491  1
  O2-  O394  1  0.08276537  0.91592449  0.49025963  1
  O2-  O395  1  0.08195282  0.88705949  0.83009869  1
  O2-  O396  1  0.34537960  0.17286124  0.15383363  1
  O2-  O397  1  0.33308515  0.16550730  0.48381706  1
  O2-  O398  1  0.30106408  0.13349403  0.79937539  1
  O2-  O399  1  0.33341893  0.40838954  0.14899731  1
  O2-  O400  1  0.33812094  0.42192984  0.47628671  1
  O2-  O401  1  0.35828135  0.40611442  0.80319329  1
  O2-  O402  1  0.33252168  0.64811356  0.15139711  1
  O2-  O403  1  0.34209111  0.67410819  0.47750851  1
  O2-  O404  1  0.33999597  0.68102355  0.80638108  1
  O2-  O405  1  0.33980163  0.92909543  0.14132521  1
  O2-  O406  1  0.33734306  0.92469775  0.48720028  1
  O2-  O407  1  0.29128076  0.83262839  0.77054683  1
  O2-  O408  1  0.58947346  0.17089257  0.14540655  1
  O2-  O409  1  0.57682091  0.16821348  0.47524678  1
  O2-  O410  1  0.55163566  0.12745397  0.80964677  1
  O2-  O411  1  0.58381555  0.42487835  0.15163415  1
  O2-  O412  1  0.58670841  0.41504981  0.45699893  1
  O2-  O413  1  0.60249087  0.44271281  0.80618301  1
  O2-  O414  1  0.59278836  0.67116293  0.14560333  1
  O2-  O415  1  0.60537385  0.66217314  0.47405634  1
  O2-  O416  1  0.59337622  0.67399627  0.80906873  1
  O2-  O417  1  0.59560836  0.92720043  0.14410372  1
  O2-  O418  1  0.58907931  0.91756428  0.50940224  1
  O2-  O419  1  0.59337748  0.92275482  0.81379187  1
  O2-  O420  1  0.82645128  0.14802097  0.14794859  1
  O2-  O421  1  0.82730783  0.17980706  0.49967819  1
  O2-  O422  1  0.81455245  0.16997829  0.82534332  1
  O2-  O423  1  0.82067043  0.40651478  0.11741917  1
  O2-  O424  1  0.82965210  0.42892689  0.50241803  1
  O2-  O425  1  0.85387007  0.42722941  0.82230501  1
  O2-  O426  1  0.83300442  0.67651817  0.14398895  1
  O2-  O427  1  0.83132035  0.67556095  0.48135623  1
  O2-  O428  1  0.84556684  0.67486708  0.82594689  1
  O2-  O429  1  0.84426843  0.90939122  0.20157115  1
  O2-  O430  1  0.84756715  0.91076707  0.47805844  1
  O2-  O431  1  0.83850846  0.92078897  0.81650448  1
  O2-  O432  1  0.18250276  0.06180915  0.19667668  1
  O2-  O433  1  0.16461675  0.08760446  0.51460421  1
  O2-  O434  1  0.14567548  0.06844061  0.84217361  1
  O2-  O435  1  0.17556735  0.33333794  0.18932398  1
  O2-  O436  1  0.17202219  0.34723778  0.50817027  1
  O2-  O437  1  0.14857711  0.34194456  0.85255530  1
  O2-  O438  1  0.16118855  0.56268720  0.14739849  1
  O2-  O439  1  0.18153208  0.59114811  0.52793318  1
  O2-  O440  1  0.16742443  0.59918169  0.82999016  1
  O2-  O441  1  0.16556210  0.82056825  0.16868340  1
  O2-  O442  1  0.17304851  0.84978030  0.54145009  1
  O2-  O443  1  0.19029181  0.85402093  0.89195207  1
  O2-  O444  1  0.42606935  0.08910343  0.19404088  1
  O2-  O445  1  0.41480957  0.08867637  0.52767172  1
  O2-  O446  1  0.39013450  0.04054026  0.81319327  1
  O2-  O447  1  0.41985589  0.33327324  0.19712188  1
  O2-  O448  1  0.41914061  0.33275819  0.51424529  1
  O2-  O449  1  0.45850925  0.35491487  0.86022803  1
  O2-  O450  1  0.42631066  0.57192427  0.18921107  1
  O2-  O451  1  0.43597375  0.59240132  0.50977671  1
  O2-  O452  1  0.42036741  0.59581010  0.83276593  1
  O2-  O453  1  0.43584350  0.85416030  0.17657642  1
  O2-  O454  1  0.41858012  0.83904859  0.52813734  1
  O2-  O455  1  0.42960671  0.84461702  0.86250738  1
  O2-  O456  1  0.67100376  0.08919534  0.19485223  1
  O2-  O457  1  0.66126694  0.09623510  0.52660558  1
  O2-  O458  1  0.65204450  0.08243914  0.85253171  1
  O2-  O459  1  0.66667986  0.33768706  0.17980877  1
  O2-  O460  1  0.66718255  0.34450741  0.51493265  1
  O2-  O461  1  0.68052452  0.35561702  0.82853053  1
  O2-  O462  1  0.67731902  0.59338160  0.18974476  1
  O2-  O463  1  0.65136730  0.61578449  0.48989528  1
  O2-  O464  1  0.67791077  0.59558179  0.85400574  1
  O2-  O465  1  0.66201165  0.83317985  0.19011179  1
  O2-  O466  1  0.68301487  0.82459951  0.51336318  1
  O2-  O467  1  0.67219066  0.83751162  0.85526839  1
  O2-  O468  1  0.91326655  0.07856274  0.18900658  1
  O2-  O469  1  0.95394223  0.05883851  0.53543199  1
  O2-  O470  1  0.90608118  0.08928295  0.85059059  1
  O2-  O471  1  0.91587133  0.30106615  0.19185059  1
  O2-  O472  1  0.92473102  0.35213040  0.52479795  1
  O2-  O473  1  0.90590646  0.31628864  0.86384551  1
  O2-  O474  1  0.89116203  0.57246927  0.17560353  1
  O2-  O475  1  0.90626918  0.59645246  0.53888253  1
  O2-  O476  1  0.93112757  0.59153117  0.86617970  1
  O2-  O477  1  0.93117421  0.83271991  0.17364652  1
  O2-  O478  1  0.92387722  0.83432177  0.51571180  1
  O2-  O479  1  0.92270384  0.83921032  0.85793763  1
  O2-  O480  1  0.18585523  0.08416837  0.30993493  1
  O2-  O481  1  0.16092395  0.07087300  0.63829608  1
  O2-  O482  1  0.16235801  0.09028286  0.96679370  1
  O2-  O483  1  0.16400506  0.33239276  0.33852026  1
  O2-  O484  1  0.18830480  0.36781091  0.63619332  1
  O2-  O485  1  0.16086557  0.33012858  0.97799515  1
  O2-  O486  1  0.17289511  0.57683978  0.29780723  1
  O2-  O487  1  0.18467541  0.59242533  0.64313628  1
  O2-  O488  1  0.09712602  0.54259801  0.95514965  1
  O2-  O489  1  0.16490065  0.80858738  0.35002797  1
  O2-  O490  1  0.17093039  0.84580812  0.66616204  1
  O2-  O491  1  0.18886040  0.87040948  0.95746241  1
  O2-  O492  1  0.41476434  0.07522563  0.31586523  1
  O2-  O493  1  0.41782752  0.09599482  0.64289347  1
  O2-  O494  1  0.42206086  0.08075953  0.98199588  1
  O2-  O495  1  0.42200980  0.33236481  0.32071060  1
  O2-  O496  1  0.41691048  0.33296103  0.64105135  1
  O2-  O497  1  0.40744504  0.33238244  0.98297827  1
  O2-  O498  1  0.42143754  0.58014907  0.31229032  1
  O2-  O499  1  0.39460825  0.58174886  0.63158677  1
  O2-  O500  1  0.43048290  0.57722011  0.98773125  1
  O2-  O501  1  0.44130600  0.81967738  0.30201570  1
  O2-  O502  1  0.41210093  0.84588884  0.65219153  1
  O2-  O503  1  0.42301931  0.84753366  0.98022211  1
  O2-  O504  1  0.67584241  0.11750051  0.31372500  1
  O2-  O505  1  0.65899734  0.09069962  0.64951643  1
  O2-  O506  1  0.66656696  0.07949204  0.97782303  1
  O2-  O507  1  0.72921328  0.42906894  0.28019273  1
  O2-  O508  1  0.66637244  0.32886066  0.70677331  1
  O2-  O509  1  0.65551027  0.31643675  0.94232723  1
  O2-  O510  1  0.66697970  0.59403859  0.30981862  1
  O2-  O511  1  0.62746769  0.56560625  0.61475976  1
  O2-  O512  1  0.65875709  0.56861076  0.97460779  1
  O2-  O513  1  0.59174900  0.80575768  0.30621078  1
  O2-  O514  1  0.67365994  0.85692063  0.63785833  1
  O2-  O515  1  0.65935954  0.82490445  0.98023639  1
  O2-  O516  1  0.90895984  0.08293575  0.31378994  1
  O2-  O517  1  0.89748182  0.06208006  0.64344135  1
  O2-  O518  1  0.90717220  0.07844610  0.97563798  1
  O2-  O519  1  0.91289305  0.31548249  0.31671631  1
  O2-  O520  1  0.93055733  0.34810131  0.64792993  1
  O2-  O521  1  0.91272464  0.31421374  0.99376147  1
  O2-  O522  1  0.93031348  0.58377776  0.34345640  1
  O2-  O523  1  0.93195751  0.58863127  0.66141588  1
  O2-  O524  1  0.92890497  0.60910076  0.98155528  1
  O2-  O525  1  0.93504417  0.83999516  0.31480490  1
  O2-  O526  1  0.97041025  0.85911090  0.66263260  1
  O2-  O527  1  0.92696170  0.84990605  0.98083827  1
  O2-  O528  1  0.08019786  0.16564781  0.01108171  1
  O2-  O529  1  0.07836964  0.14984044  0.34544148  1
  O2-  O530  1  0.03515335  0.09501650  0.69930729  1
  O2-  O531  1  0.06790113  0.39306853  0.02290870  1
  O2-  O532  1  0.08182885  0.41885164  0.35325604  1
  O2-  O533  1  0.09410740  0.43584065  0.68279713  1
  O2-  O534  1  0.07559166  0.74146846  0.01832941  1
  O2-  O535  1  0.08691535  0.66189200  0.29012972  1
  O2-  O536  1  0.09888367  0.67909467  0.70030301  1
  O2-  O537  1  0.08285237  0.92793228  0.02143053  1
  O2-  O538  1  0.08736584  0.89026793  0.36290235  1
  O2-  O539  1  0.05154027  0.90499926  0.67933088  1
  O2-  O540  1  0.34245922  0.17021648  0.03281200  1
  O2-  O541  1  0.34394842  0.16848808  0.36206945  1
  O2-  O542  1  0.32336158  0.15564120  0.67766971  1
  O2-  O543  1  0.32402788  0.41017823  0.02715047  1
  O2-  O544  1  0.34087816  0.42000527  0.35425416  1
  O2-  O545  1  0.34964140  0.42845841  0.68003350  1
  O2-  O546  1  0.35432326  0.67829268  0.02501809  1
  O2-  O547  1  0.33705640  0.66436127  0.35207443  1
  O2-  O548  1  0.33239765  0.67883450  0.69079128  1
  O2-  O549  1  0.32968480  0.92225910  0.01202810  1
  O2-  O550  1  0.33505417  0.91080348  0.35948108  1
  O2-  O551  1  0.32063004  0.90569094  0.72824784  1
  O2-  O552  1  0.58607470  0.16437426  0.01737839  1
  O2-  O553  1  0.54905671  0.08571978  0.37115106  1
  O2-  O554  1  0.56936690  0.16132462  0.69211847  1
  O2-  O555  1  0.57400494  0.42290747  0.02722563  1
  O2-  O556  1  0.59414702  0.43383242  0.32591890  1
  O2-  O557  1  0.57810138  0.41678332  0.68500884  1
  O2-  O558  1  0.58993199  0.66105260  0.02437217  1
  O2-  O559  1  0.58294686  0.66235864  0.35747465  1
  O2-  O560  1  0.58177260  0.64975934  0.68816483  1
  O2-  O561  1  0.58663892  0.91658569  0.02225420  1
  O2-  O562  1  0.62101685  0.93956393  0.37920243  1
  O2-  O563  1  0.58553193  0.92603774  0.68763774  1
  O2-  O564  1  0.82607302  0.15037752  0.02672188  1
  O2-  O565  1  0.82426891  0.15769885  0.37072503  1
  O2-  O566  1  0.83381412  0.17219908  0.63761760  1
  O2-  O567  1  0.80765823  0.42321190  -0.00362192  1
  O2-  O568  1  0.83756037  0.41318949  0.33798445  1
  O2-  O569  1  0.84846599  0.42258544  0.69733656  1
  O2-  O570  1  0.81917425  0.68264956  0.02439683  1
  O2-  O571  1  0.83330122  0.66839637  0.35452280  1
  O2-  O572  1  0.87856589  0.69735368  0.70212561  1
  O2-  O573  1  0.80947692  0.87411773  0.04009556  1
  O2-  O574  1  0.84179310  0.91587648  0.34668782  1
  O2-  O575  1  0.83467705  0.90223001  0.69214422  1
