# generated using pymatgen
data_H2O
_symmetry_space_group_name_H-M   'P 1'
_cell_length_a   17.98817729
_cell_length_b   17.98660148
_cell_length_c   22.00713084
_cell_angle_alpha   90.00649708
_cell_angle_beta   89.95411071
_cell_angle_gamma   119.99782102
_symmetry_Int_Tables_number   1
_chemical_formula_structural   H2O
_chemical_formula_sum   'H384 O192'
_cell_volume   6166.51370551
_cell_formula_units_Z   192
loop_
 _symmetry_equiv_pos_site_id
 _symmetry_equiv_pos_as_xyz
  1  'x, y, z'
loop_
 _atom_type_symbol
 _atom_type_oxidation_number
  H+  1.0
  O2-  -2.0
loop_
 _atom_site_type_symbol
 _atom_site_label
 _atom_site_symmetry_multiplicity
 _atom_site_fract_x
 _atom_site_fract_y
 _atom_site_fract_z
 _atom_site_occupancy
  H+  H0  1  0.35960931  0.61580544  0.00629385  1
  H+  H1  1  0.02476666  0.80281554  0.37698533  1
  H+  H2  1  0.08481047  0.91512249  0.43441672  1
  H+  H3  1  0.13301657  0.77101063  0.98965700  1
  H+  H4  1  0.10705052  0.46769468  0.51445143  1
  H+  H5  1  0.59611379  -0.00735081  1.01719481  1
  H+  H6  1  0.62790987  0.34411699  0.31851190  1
  H+  H7  1  0.35091817  0.68310656  0.40332739  1
  H+  H8  1  0.87250500  0.27697650  0.66644227  1
  H+  H9  1  0.00354698  0.38199759  0.67376366  1
  H+  H10  1  0.40783252  0.93396158  0.45716881  1
  H+  H11  1  0.38609410  0.28815461  0.65648759  1
  H+  H12  1  0.47845953  0.11082994  0.31330698  1
  H+  H13  1  0.70970099  0.10553858  0.84005070  1
  H+  H14  1  0.61146275  0.72371459  0.49404815  1
  H+  H15  1  0.10454862  0.70896520  0.70720688  1
  H+  H16  1  0.38239658  0.51925895  0.17177385  1
  H+  H17  1  0.88441474  0.86472225  0.00327950  1
  H+  H18  1  0.73085519  0.36981557  0.65653982  1
  H+  H19  1  0.63281027  0.35540944  0.98610657  1
  H+  H20  1  0.61771702  0.23513481  0.66474950  1
  H+  H21  1  0.12174026  0.81102575  0.62862871  1
  H+  H22  1  0.35997551  0.63119256  0.49742341  1
  H+  H23  1  0.61045543  0.64464423  0.82457292  1
  H+  H24  1  0.75905082  0.56104402  0.54761895  1
  H+  H25  1  0.96808422  0.60582241  0.97837108  1
  H+  H26  1  0.39637198  1.04293370  0.48666467  1
  H+  H27  1  0.02333892  0.88458900  0.02156976  1
  H+  H28  1  0.60838129  0.63483395  0.33670679  1
  H+  H29  1  0.52758710  0.88723561  0.50249348  1
  H+  H30  1  0.36514499  0.47553246  -0.00053079  1
  H+  H31  1  1.02357001  0.13397715  0.84380052  1
  H+  H32  1  0.12622631  0.59988630  0.32878460  1
  H+  H33  1  0.62396145  0.14051490  0.48099450  1
  H+  H34  1  0.86834714  0.36556826  0.66885853  1
  H+  H35  1  0.78328418  0.38381140  0.17119528  1
  H+  H36  1  0.76728681  0.63251464  -0.00181333  1
  H+  H37  1  0.63716496  0.12178779  0.65129933  1
  H+  H38  1  0.28460821  0.16411956  0.65748893  1
  H+  H39  1  0.22875726  0.61829759  0.51427641  1
  H+  H40  1  0.88793217  0.12763320  0.65975113  1
  H+  H41  1  1.00892908  0.32493797  0.84570521  1
  H+  H42  1  0.89685633  0.86627396  0.51368265  1
  H+  H43  1  0.01681306  0.63581399  0.83632684  1
  H+  H44  1  0.85192700  0.25158768  0.32631229  1
  H+  H45  1  0.12954068  0.74074598  0.48950425  1
  H+  H46  1  0.23580295  0.35387944  0.32495957  1
  H+  H47  1  0.57229020  0.66592805  0.76512657  1
  H+  H48  1  0.99597428  0.60644809  0.49252523  1
  H+  H49  1  0.11509846  0.46549428  0.82803485  1
  H+  H50  1  0.86673746  0.53124089  0.82363387  1
  H+  H51  1  0.27688116  0.14946190  0.49969679  1
  H+  H52  1  0.32255397  0.65155198  0.75957664  1
  H+  H53  1  0.99377591  0.13324818  0.31658634  1
  H+  H54  1  0.14691760  0.37242345  0.18078476  1
  H+  H55  1  0.41794562  0.34632507  0.56857617  1
  H+  H56  1  0.46805948  0.60701082  0.49945324  1
  H+  H57  1  0.35456489  0.46526247  0.48423204  1
  H+  H58  1  0.35512748  0.62431204  0.82031062  1
  H+  H59  1  0.90608543  0.90707567  0.33875525  1
  H+  H60  1  0.59427721  0.63429133  0.67195273  1
  H+  H61  1  0.89682128  0.26435295  0.16203387  1
  H+  H62  1  0.08330296  0.02770097  0.87110363  1
  H+  H63  1  0.44119758  0.80219769  0.90476339  1
  H+  H64  1  0.11719490  0.23036906  1.01209723  1
  H+  H65  1  0.39129153  0.36171235  -0.00425548  1
  H+  H66  1  0.86589545  0.74325896  0.84195539  1
  H+  H67  1  0.36802160  0.83936967  0.66750438  1
  H+  H68  1  0.77278523  0.13916022  0.00062574  1
  H+  H69  1  0.86330671  0.65204030  0.83443299  1
  H+  H70  1  0.17192529  0.05327029  0.65919535  1
  H+  H71  1  0.70129440  0.62235409  0.67608642  1
  H+  H72  1  0.15069786  0.53518366  0.17349362  1
  H+  H73  1  0.13822724  1.03116714  0.50184786  1
  H+  H74  1  0.63620359  0.64565491  0.16891478  1
  H+  H75  1  0.64975130  1.03189113  0.50257772  1
  H+  H76  1  0.16419133  0.84654961  0.91449345  1
  H+  H77  1  0.94560635  0.75221787  0.57194558  1
  H+  H78  1  0.60950645  0.47615579  0.66856988  1
  H+  H79  1  0.58718534  0.00880532  0.19897328  1
  H+  H80  1  0.23123047  0.60739544  -0.00383796  1
  H+  H81  1  0.71888024  0.13870069  0.34504220  1
  H+  H82  1  0.61518426  0.88442023  0.49757066  1
  H+  H83  1  0.39551625  0.36527909  0.30513320  1
  H+  H84  1  0.57763443  0.57343962  0.02018506  1
  H+  H85  1  0.34050522  0.32971507  0.85103161  1
  H+  H86  1  0.37208466  0.16095767  0.65528781  1
  H+  H87  1  0.47787836  0.12736110  0.64736771  1
  H+  H88  1  0.14138385  0.36444900  -0.01544531  1
  H+  H89  1  0.86120303  0.86065904  0.16292898  1
  H+  H90  1  0.63764772  0.11951959  0.99352267  1
  H+  H91  1  0.37334922  0.13617741  0.00265130  1
  H+  H92  1  0.13482062  0.61143912  0.67339252  1
  H+  H93  1  0.10371841  0.22360831  0.49432099  1
  H+  H94  1  0.17474735  0.33597136  0.92558257  1
  H+  H95  1  0.02896203  0.64687982  0.34468467  1
  H+  H96  1  0.51548943  0.37481789  0.48740477  1
  H+  H97  1  0.87842344  0.91221041  0.83400243  1
  H+  H98  1  0.61248942  0.38733595  0.66390879  1
  H+  H99  1  0.86969551  0.46674989  0.48691124  1
  H+  H100  1  0.76531025  0.39799757  0.33921535  1
  H+  H101  1  0.76499804  0.13831639  0.66621233  1
  H+  H102  1  0.48616251  0.87771389  0.33173339  1
  H+  H103  1  0.12778377  0.89646090  0.49119210  1
  H+  H104  1  0.17529339  0.83156263  0.22829160  1
  H+  H105  1  0.60200463  0.21921434  0.81756351  1
  H+  H106  1  0.51893274  0.12939193  0.00332290  1
  H+  H107  1  0.60089786  0.99175918  0.35313409  1
  H+  H108  1  0.52400301  0.14993594  0.15419132  1
  H+  H109  1  0.11882051  0.96674468  0.01986210  1
  H+  H110  1  0.72456700  0.62853810  0.84776036  1
  H+  H111  1  0.44991599  0.37398818  0.12638051  1
  H+  H112  1  0.57882640  0.92773143  0.73169479  1
  H+  H113  1  0.15169814  0.56413001  0.27309916  1
  H+  H114  1  0.24307042  0.84532239  0.66169757  1
  H+  H115  1  0.37546030  0.51225967  0.65807154  1
  H+  H116  1  0.23837530  0.62343890  0.17927452  1
  H+  H117  1  0.11703526  0.90159045  0.84934501  1
  H+  H118  1  0.87870102  0.53476407  0.34025735  1
  H+  H119  1  0.59157866  0.87076835  0.18652522  1
  H+  H120  1  0.03303681  0.90440815  0.72453476  1
  H+  H121  1  0.59609208  0.49601738  0.50669225  1
  H+  H122  1  0.10664536  0.17510275  0.75510656  1
  H+  H123  1  0.85520551  0.46676619  0.66672314  1
  H+  H124  1  0.87936496  0.11263315  0.50805313  1
  H+  H125  1  0.88578887  0.36762223  1.03432224  1
  H+  H126  1  0.37039129  0.89468073  0.32253070  1
  H+  H127  1  0.95321244  0.67464774  0.54841098  1
  H+  H128  1  0.15083932  0.77901669  0.16557399  1
  H+  H129  1  0.88653499  0.63772009  0.71049903  1
  H+  H130  1  0.65030107  0.26942910  0.16746425  1
  H+  H131  1  0.81726785  0.67334802  0.38003933  1
  H+  H132  1  0.14598631  0.77198109  0.32340441  1
  H+  H133  1  0.34050293  -0.01253786  0.80654152  1
  H+  H134  1  0.85272990  0.92186887  0.44071012  1
  H+  H135  1  0.77882019  0.90035367  0.00036597  1
  H+  H136  1  0.40108916  0.78562244  0.32944772  1
  H+  H137  1  0.37070158  0.99257917  0.15308217  1
  H+  H138  1  0.47380088  0.37780048  0.66095657  1
  H+  H139  1  0.17604572  0.04063090  0.94173919  1
  H+  H140  1  0.38549986  0.27851763  0.51206468  1
  H+  H141  1  0.85497629  0.99495796  0.67519569  1
  H+  H142  1  0.11709378  0.14625771  0.66755453  1
  H+  H143  1  0.63347453  0.77840411  0.33061853  1
  H+  H144  1  0.35797226  0.37917883  0.49005157  1
  H+  H145  1  0.73507895  0.87848567  0.81709647  1
  H+  H146  1  0.87503086  0.76902994  0.30694740  1
  H+  H147  1  0.46749606  0.10590314  0.83332530  1
  H+  H148  1  0.64584691  0.78705550  0.81286338  1
  H+  H149  1  0.39448514  0.75890784  0.84259941  1
  H+  H150  1  0.84885646  0.32796655  0.83345253  1
  H+  H151  1  0.86150535  0.22701476  0.01694599  1
  H+  H152  1  0.85545183  0.87075975  0.66037892  1
  H+  H153  1  0.47157640  0.61869035  0.84116747  1
  H+  H154  1  0.67009874  0.33763070  0.59469218  1
  H+  H155  1  0.60774055  0.37959312  0.48419372  1
  H+  H156  1  0.72802108  0.36354959  0.49746751  1
  H+  H157  1  0.88945881  1.00569384  0.83278119  1
  H+  H158  1  0.71462496  0.86909327  0.66406683  1
  H+  H159  1  0.46968424  0.86435470  0.66650143  1
  H+  H160  1  0.60527300  0.10304389  0.17987015  1
  H+  H161  1  0.32652170  0.19570500  0.84356486  1
  H+  H162  1  0.13028867  0.85708587  0.00822228  1
  H+  H163  1  0.52630045  0.37824199  0.00298062  1
  H+  H164  1  0.84930787  0.59281289  0.70725612  1
  H+  H165  1  0.63996112  0.51046726  0.98841242  1
  H+  H166  1  0.37609345  0.25257222  0.14668675  1
  H+  H167  1  0.92413807  0.33644457  1.08655431  1
  H+  H168  1  0.12526661  0.12347554  0.16000020  1
  H+  H169  1  0.59738045  0.72503177  0.67072648  1
  H+  H170  1  0.88988614  0.11592493  0.99174024  1
  H+  H171  1  1.02542135  0.11932041  0.16011059  1
  H+  H172  1  0.37580902  0.84785528  0.51898401  1
  H+  H173  1  0.15795736  0.15336819  0.80560188  1
  H+  H174  1  0.11329697  0.62950304  -0.02208172  1
  H+  H175  1  0.86610913  0.20019313  0.82924229  1
  H+  H176  1  0.76785456  0.60662464  0.54711847  1
  H+  H177  1  0.18498386  0.93327541  0.66061656  1
  H+  H178  1  0.24885379  0.09759018  0.84403954  1
  H+  H179  1  0.88141030  0.77390515  0.99645310  1
  H+  H180  1  0.23034238  0.36623650  0.17544351  1
  H+  H181  1  0.04156590  0.39722724  0.15767915  1
  H+  H182  1  0.13179000  0.35864209  0.51987277  1
  H+  H183  1  0.86775470  -0.01424192  1.00810833  1
  H+  H184  1  0.09698394  0.51197064  0.65755898  1
  H+  H185  1  0.58447372  0.92529721  0.06699590  1
  H+  H186  1  0.87890777  0.26207156  0.51545399  1
  H+  H187  1  0.71257807  0.60296228  0.31559632  1
  H+  H188  1  0.62442986  0.51294430  0.31608123  1
  H+  H189  1  0.09714473  0.67805989  0.39926839  1
  H+  H190  1  0.38844766  0.01816002  0.99455830  1
  H+  H191  1  0.81196885  0.74260574  0.69093446  1
  H+  H192  1  0.23221935  0.86653726  0.31928554  1
  H+  H193  1  0.77188126  0.15271757  0.40431986  1
  H+  H194  1  0.12584496  0.36499669  0.65692439  1
  H+  H195  1  0.85788959  0.37262921  0.49127751  1
  H+  H196  1  0.89283366  0.36712690  0.83274619  1
  H+  H197  1  0.72075814  0.35298673  0.98246178  1
  H+  H198  1  0.63372042  0.25673220  0.31887089  1
  H+  H199  1  0.39036132  0.27113592  -0.00557273  1
  H+  H200  1  0.13455671  0.38965924  0.81544754  1
  H+  H201  1  0.13128888  0.11864925  0.32634579  1
  H+  H202  1  0.52093104  0.37868910  0.32174629  1
  H+  H203  1  0.12633165  0.78431568  0.85698880  1
  H+  H204  1  0.60108791  0.13011527  0.82023810  1
  H+  H205  1  1.01336000  0.13445740  0.49200022  1
  H+  H206  1  0.86446814  0.18112578  0.44835255  1
  H+  H207  1  0.66918327  0.83394840  0.56569456  1
  H+  H208  1  0.47600451  0.61270700  0.32683885  1
  H+  H209  1  0.36773314  0.72368106  0.50471640  1
  H+  H210  1  0.37050492  0.47359825  0.33559827  1
  H+  H211  1  0.08984449  0.16202813  0.09741212  1
  H+  H212  1  0.17149011  0.27979879  0.82228869  1
  H+  H213  1  0.79875037  0.54298153  0.22448841  1
  H+  H214  1  0.13399854  0.64621938  0.15742613  1
  H+  H215  1  0.23915244  0.87838391  0.49266967  1
  H+  H216  1  0.85779218  0.51639559  0.18986298  1
  H+  H217  1  0.90883926  1.04551369  0.31972252  1
  H+  H218  1  0.36714332  0.22641627  0.30868755  1
  H+  H219  1  0.24825061  0.90732896  0.81482267  1
  H+  H220  1  0.48768659  0.12715028  0.49041807  1
  H+  H221  1  0.74337936  0.12057692  0.50197266  1
  H+  H222  1  0.48098685  0.85073622  0.00498360  1
  H+  H223  1  0.98590054  0.87978043  0.71666849  1
  H+  H224  1  0.23887171  0.09529560  -0.00404356  1
  H+  H225  1  0.71002216  0.36061975  0.82730630  1
  H+  H226  1  1.02613723  0.14410393  1.01602538  1
  H+  H227  1  0.57112151  0.72105077  0.10629322  1
  H+  H228  1  0.62296402  0.39885473  0.81705676  1
  H+  H229  1  0.62113745  0.01667444  0.84079806  1
  H+  H230  1  0.36451152  0.63064838  0.16425839  1
  H+  H231  1  0.36781109  0.15299551  0.49497814  1
  H+  H232  1  0.37697111  0.10239820  0.84455994  1
  H+  H233  1  0.89702964  0.35496481  0.17737722  1
  H+  H234  1  0.86574071  0.76501227  0.15873007  1
  H+  H235  1  0.83081551  0.93860201  0.73575179  1
  H+  H236  1  0.62729862  0.37483468  0.15516436  1
  H+  H237  1  0.36773109  0.98364821  0.31786698  1
  H+  H238  1  0.58311178  0.16938442  0.72161680  1
  H+  H239  1  0.08519976  0.66544051  -0.07658329  1
  H+  H240  1  0.63832688  0.86957472  0.33113787  1
  H+  H241  1  0.74801194  0.46585588  0.78380895  1
  H+  H242  1  0.06829887  0.45762451  0.36218758  1
  H+  H243  1  0.75872903  0.88521220  0.16479224  1
  H+  H244  1  0.73020691  0.86064152  0.50666958  1
  H+  H245  1  0.40801590  0.74739038  1.00157678  1
  H+  H246  1  0.11427344  0.23497550  0.67246842  1
  H+  H247  1  0.41642417  0.83261800  0.57872637  1
  H+  H248  1  0.85950840  0.63809706  0.33317688  1
  H+  H249  1  0.53823030  0.78822221  1.02421146  1
  H+  H250  1  0.10469695  0.85461626  0.33471181  1
  H+  H251  1  0.46274901  0.60314589  0.65389520  1
  H+  H252  1  -0.02183005  0.37594380  0.36400632  1
  H+  H253  1  0.96790761  0.17500646  0.86232748  1
  H+  H254  1  0.46836878  0.61245888  0.17092853  1
  H+  H255  1  0.62488430  0.78803853  1.01859550  1
  H+  H256  1  1.01920639  0.37966029  0.52058466  1
  H+  H257  1  0.53860535  0.37435549  0.15722020  1
  H+  H258  1  0.83274342  0.10375138  0.81571472  1
  H+  H259  1  0.97193700  0.84309484  0.30769310  1
  H+  H260  1  0.85525534  0.48481292  0.01110689  1
  H+  H261  1  0.86486370  0.97708035  0.49967817  1
  H+  H262  1  0.67487293  0.32374263  0.23000944  1
  H+  H263  1  0.60650965  0.22074052  0.00022470  1
  H+  H264  1  0.48499534  0.56717998  1.02045103  1
  H+  H265  1  0.13087362  0.65064964  0.49200291  1
  H+  H266  1  0.37869779  0.65228589  0.34375458  1
  H+  H267  1  0.76017307  0.65363578  0.15423573  1
  H+  H268  1  0.88062063  0.13720560  0.15696672  1
  H+  H269  1  0.13033597  0.11648701  0.50063461  1
  H+  H270  1  0.39474315  0.13620051  0.16162570  1
  H+  H271  1  0.27801971  0.13977930  0.31862967  1
  H+  H272  1  0.21886377  0.35487210  0.50466333  1
  H+  H273  1  0.13181543  0.89801890  0.17019892  1
  H+  H274  1  1.01031694  0.56774628  0.63425001  1
  H+  H275  1  0.27906411  0.89356768  0.01013565  1
  H+  H276  1  0.26134443  0.38454992  0.67927482  1
  H+  H277  1  0.89247397  0.02060347  0.17287244  1
  H+  H278  1  0.22722179  0.60063076  0.83360938  1
  H+  H279  1  0.41362489  0.58127710  0.26918239  1
  H+  H280  1  0.36099111  0.38750337  0.15496286  1
  H+  H281  1  0.13789626  0.59919526  0.84559577  1
  H+  H282  1  0.61572443  0.89669675  0.81439587  1
  H+  H283  1  0.12118354  0.47799135  0.00438454  1
  H+  H284  1  0.40763519  0.56775210  0.55855227  1
  H+  H285  1  0.22864403  0.98902361  0.71912577  1
  H+  H286  1  0.59315193  0.62578568  0.49530173  1
  H+  H287  1  0.15206046  1.02755978  0.17425997  1
  H+  H288  1  0.66071511  0.08368684  0.93410072  1
  H+  H289  1  0.39215538  0.31476411  0.90338843  1
  H+  H290  1  0.08445940  0.16975332  0.39719671  1
  H+  H291  1  0.66939952  0.09024082  0.59339599  1
  H+  H292  1  0.42161987  0.09885826  0.21992054  1
  H+  H293  1  1.03232580  0.39144070  1.02037515  1
  H+  H294  1  0.46528612  0.64110115  0.97193317  1
  H+  H295  1  0.35524385  0.71223389  0.66547756  1
  H+  H296  1  0.28941925  0.39504409  0.77648879  1
  H+  H297  1  0.64016648  0.27479388  0.49474770  1
  H+  H298  1  0.81562080  0.91568795  0.10207464  1
  H+  H299  1  0.52107156  0.88109664  0.82939905  1
  H+  H300  1  0.17733667  0.57450364  0.93342628  1
  H+  H301  1  0.91516923  0.08361733  0.56580588  1
  H+  H302  1  0.34747153  0.62120797  0.66101779  1
  H+  H303  1  0.35194854  0.38675429  0.68360106  1
  H+  H304  1  0.34314937  0.16995887  0.06112820  1
  H+  H305  1  0.95502026  0.28764549  0.90695742  1
  H+  H306  1  0.65700896  0.32338354  0.88956199  1
  H+  H307  1  0.67618923  0.83327744  0.93171120  1
  H+  H308  1  0.58163464  0.66550496  0.39761178  1
  H+  H309  1  0.79433867  0.68616767  0.75239818  1
  H+  H310  1  0.41812256  0.07450370  0.93226389  1
  H+  H311  1  0.07076242  0.41135297  0.72941414  1
  H+  H312  1  0.93264700  0.08786514  0.22950732  1
  H+  H313  1  0.17233156  0.32742662  0.26852601  1
  H+  H314  1  0.55262521  0.62726616  0.09898693  1
  H+  H315  1  0.34175883  0.40767248  0.39126180  1
  H+  H316  1  0.58946752  0.40307652  0.06125329  1
  H+  H317  1  0.58460401  0.92671189  0.40794120  1
  H+  H318  1  0.81971821  0.42408562  0.40111351  1
  H+  H319  1  0.62494318  0.86432998  0.65940232  1
  H+  H320  1  0.91772992  0.84778470  0.91056817  1
  H+  H321  1  0.89979698  0.32775184  0.57209585  1
  H+  H322  1  0.94188207  0.55839863  0.55143992  1
  H+  H323  1  0.89274250  0.83448726  0.60886645  1
  H+  H324  1  0.90570073  0.83213462  0.22043223  1
  H+  H325  1  0.86288728  0.64676681  0.45487726  1
  H+  H326  1  0.77816226  0.43292241  0.05719574  1
  H+  H327  1  0.53670992  0.50936015  0.55124490  1
  H+  H328  1  0.40697883  0.58068360  0.89748146  1
  H+  H329  1  0.33011435  0.64999239  0.06766687  1
  H+  H330  1  0.38256348  0.72587955  0.15961993  1
  H+  H331  1  0.68854885  0.87926610  0.93884780  1
  H+  H332  1  0.91346951  0.59118914  0.27976093  1
  H+  H333  1  0.66432700  0.83554931  0.24460872  1
  H+  H334  1  0.91653075  0.29890436  0.27280768  1
  H+  H335  1  0.10680088  0.42884114  0.10229146  1
  H+  H336  1  0.42658606  0.34453658  0.24147057  1
  H+  H337  1  0.09062345  0.92256270  0.11666533  1
  H+  H338  1  0.93773214  0.09237257  0.93938977  1
  H+  H339  1  0.80509709  0.43210989  0.74434569  1
  H+  H340  1  0.33154687  0.42098290  0.09745731  1
  H+  H341  1  0.60788104  0.43506566  0.75455754  1
  H+  H342  1  0.65791530  0.57642602  0.93289944  1
  H+  H343  1  0.28621231  0.90095966  0.15824116  1
  H+  H344  1  0.16373072  0.33399198  0.60207696  1
  H+  H345  1  0.34209427  0.92563640  0.06691127  1
  H+  H346  1  0.38939364  0.11609576  0.30990035  1
  H+  H347  1  0.97673606  0.12519367  0.66303769  1
  H+  H348  1  0.12573861  0.23286956  0.33752869  1
  H+  H349  1  0.61057384  0.09002552  0.27447291  1
  H+  H350  1  0.63186195  0.77546939  0.18458930  1
  H+  H351  1  0.84342865  0.64162224  0.15755243  1
  H+  H352  1  0.28744687  0.15580185  0.15253261  1
  H+  H353  1  0.29210202  0.87939201  0.72725724  1
  H+  H354  1  0.98920179  0.87464985  0.51592089  1
  H+  H355  1  0.20437468  0.75225960  0.71807550  1
  H+  H356  1  0.10637009  0.68044804  0.79767731  1
  H+  H357  1  0.60804988  0.98244386  0.66935742  1
  H+  H358  1  0.59029103  0.16202830  0.41876228  1
  H+  H359  1  0.16713645  0.09645967  0.59567837  1
  H+  H360  1  0.27707920  0.38705943  -0.00139209  1
  H+  H361  1  0.98063632  0.87821485  0.85315176  1
  H+  H362  1  0.89912648  0.57316714  0.89042471  1
  H+  H363  1  0.17769487  0.09601520  0.22908084  1
  H+  H364  1  0.45821496  0.83720685  0.24328118  1
  H+  H365  1  0.12799178  0.68329627  0.09418836  1
  H+  H366  1  0.87773421  0.69416333  0.45551002  1
  H+  H367  1  0.42218162  0.10072923  0.58766061  1
  H+  H368  1  0.58545211  0.16841255  0.09643352  1
  H+  H369  1  0.65979589  0.60391036  0.22580509  1
  H+  H370  1  0.96144940  0.62209701  0.62832561  1
  H+  H371  1  0.18548738  0.85337660  0.55875695  1
  H+  H372  1  0.65311610  0.58309310  0.60936610  1
  H+  H373  1  0.12669938  0.02713587  0.31575891  1
  H+  H374  1  0.81870658  0.16247961  0.72842570  1
  H+  H375  1  0.34539009  0.93241799  0.40706429  1
  H+  H376  1  0.85658431  0.43264690  0.12093563  1
  H+  H377  1  0.15688610  0.59008238  0.56793130  1
  H+  H378  1  0.96911695  0.98854687  0.37668172  1
  H+  H379  1  0.88167668  0.61205640  0.98857284  1
  H+  H380  1  0.57300870  0.40444173  0.38529376  1
  H+  H381  1  0.64431548  0.53779617  0.83462253  1
  H+  H382  1  0.82487064  0.66545459  0.05808427  1
  H+  H383  1  0.84075995  0.15847651  0.09979433  1
  O2-  O384  1  0.08744440  0.14962645  0.14432725  1
  O2-  O385  1  0.07385971  0.16453411  0.47592669  1
  O2-  O386  1  0.12026381  0.17759005  0.80133147  1
  O2-  O387  1  0.10348509  0.43288392  0.14715567  1
  O2-  O388  1  0.08179902  0.40840501  0.52935270  1
  O2-  O389  1  0.08918448  0.40561019  0.81099923  1
  O2-  O390  1  0.10865638  0.67822080  0.13601718  1
  O2-  O391  1  0.10128106  0.68055102  0.47343295  1
  O2-  O392  1  0.08131310  0.66814529  0.84009371  1
  O2-  O393  1  0.10206127  0.93130477  0.16108576  1
  O2-  O394  1  0.09248457  0.92407545  0.47854830  1
  O2-  O395  1  0.08615437  0.93298245  0.83323162  1
  O2-  O396  1  0.34594853  0.18537423  0.13496528  1
  O2-  O397  1  0.33784561  0.18587423  0.48774846  1
  O2-  O398  1  0.30692214  0.13572000  0.82928587  1
  O2-  O399  1  0.33221314  0.42189939  0.14274262  1
  O2-  O400  1  0.32504066  0.40435739  0.47040386  1
  O2-  O401  1  0.28463194  0.38719529  0.82241527  1
  O2-  O402  1  0.34062399  0.66674334  0.14723365  1
  O2-  O403  1  0.33278625  0.66612321  0.48602412  1
  O2-  O404  1  0.32114377  0.65186258  0.80512391  1
  O2-  O405  1  0.34539707  0.93135539  0.14159928  1
  O2-  O406  1  0.35490145  0.93591435  0.45313759  1
  O2-  O407  1  0.29066472  0.94188302  0.78344711  1
  O2-  O408  1  0.58625822  0.17287951  0.14180376  1
  O2-  O409  1  0.59244335  0.16877559  0.46434869  1
  O2-  O410  1  0.57186235  0.15908873  0.80130879  1
  O2-  O411  1  0.59513079  0.40111571  0.13682026  1
  O2-  O412  1  0.57434764  0.40683525  0.46864437  1
  O2-  O413  1  0.63380249  0.45229313  0.79627835  1
  O2-  O414  1  0.56475838  0.67278321  0.13267032  1
  O2-  O415  1  0.57619439  0.66524358  0.47587142  1
  O2-  O416  1  0.58058006  0.67535214  0.80985514  1
  O2-  O417  1  0.55039405  0.89270937  0.17992347  1
  O2-  O418  1  0.58596568  0.91671680  0.48445393  1
  O2-  O419  1  0.57833873  0.92360815  0.81020117  1
  O2-  O420  1  0.84937950  0.16713765  0.14406095  1
  O2-  O421  1  0.83987441  0.16474901  0.48901433  1
  O2-  O422  1  0.81831155  0.14871580  0.80930800  1
  O2-  O423  1  0.84764533  0.42518940  0.16503875  1
  O2-  O424  1  0.83020673  0.40564045  0.47518068  1
  O2-  O425  1  0.79197530  0.44896715  0.79025685  1
  O2-  O426  1  0.82216395  0.67704620  0.13732869  1
  O2-  O427  1  0.96953136  0.71538470  0.58256497  1
  O2-  O428  1  0.83067962  0.68281281  0.82776126  1
  O2-  O429  1  0.81871617  0.91136017  0.14713855  1
  O2-  O430  1  0.83885116  0.91572842  0.48453515  1
  O2-  O431  1  0.85389579  0.94699874  0.81708972  1
  O2-  O432  1  0.17923976  0.09248402  0.18386054  1
  O2-  O433  1  0.16441242  0.09098174  0.51742722  1
  O2-  O434  1  0.13084028  0.01732163  0.86282217  1
  O2-  O435  1  0.17211712  0.33719996  0.19395872  1
  O2-  O436  1  0.16194188  0.32367276  0.52510659  1
  O2-  O437  1  0.19269963  0.34048410  0.83732554  1
  O2-  O438  1  0.17652456  0.59428875  0.19096594  1
  O2-  O439  1  0.16637811  0.59302325  0.52330740  1
  O2-  O440  1  0.16809875  0.56737597  0.85426985  1
  O2-  O441  1  0.17823083  0.83832509  0.18332509  1
  O2-  O442  1  0.18057717  0.84863856  0.50901745  1
  O2-  O443  1  0.15674285  0.84571746  0.86856929  1
  O2-  O444  1  0.42496775  0.10414628  0.17457761  1
  O2-  O445  1  0.42716068  0.10060551  0.50527996  1
  O2-  O446  1  0.41022087  0.07219317  0.85319317  1
  O2-  O447  1  0.41891016  0.34129428  0.16217430  1
  O2-  O448  1  0.41943957  0.34267929  0.52300687  1
  O2-  O449  1  0.37167199  0.29933243  0.86082632  1
  O2-  O450  1  0.41051392  0.57882128  0.19010846  1
  O2-  O451  1  0.40722448  0.57123977  0.51298429  1
  O2-  O452  1  0.40990086  0.58580925  0.85216727  1
  O2-  O453  1  0.46903464  0.82046205  0.20079447  1
  O2-  O454  1  0.41824443  0.83249207  0.53179460  1
  O2-  O455  1  0.43150596  0.81479032  0.86256870  1
  O2-  O456  1  0.61891849  0.06993316  0.21006709  1
  O2-  O457  1  0.67895281  0.09328011  0.51428993  1
  O2-  O458  1  0.65079443  0.07824442  0.85661279  1
  O2-  O459  1  0.68434225  0.32969389  0.18455431  1
  O2-  O460  1  0.66615022  0.33439956  0.51093407  1
  O2-  O461  1  0.65145202  0.32121246  0.84450326  1
  O2-  O462  1  0.67588430  0.62655299  0.18371960  1
  O2-  O463  1  0.59351845  0.54121270  0.53271361  1
  O2-  O464  1  0.66182914  0.59279152  0.85704898  1
  O2-  O465  1  0.66279980  0.83589737  0.19748829  1
  O2-  O466  1  0.66883466  0.83045049  0.52026499  1
  O2-  O467  1  0.67291667  0.85064457  0.81036416  1
  O2-  O468  1  0.93188582  0.08172053  0.18274726  1
  O2-  O469  1  0.91111539  0.07878802  0.52082111  1
  O2-  O470  1  0.96722987  0.11929008  0.86233365  1
  O2-  O471  1  0.93251997  0.32995715  0.16483704  1
  O2-  O472  1  0.90429612  0.32502113  0.52711675  1
  O2-  O473  1  0.96254178  0.27086688  0.86634933  1
  O2-  O474  1  0.85526474  0.56816140  0.20549452  1
  O2-  O475  1  0.93597114  0.57165878  0.50808958  1
  O2-  O476  1  0.90841159  0.58644202  0.84641264  1
  O2-  O477  1  0.89493143  0.82933595  0.17457183  1
  O2-  O478  1  0.93001402  0.84145549  0.53248334  1
  O2-  O479  1  0.91878097  0.85069134  0.86500093  1
  O2-  O480  1  0.16053141  0.08796613  0.30626857  1
  O2-  O481  1  0.17274693  0.10529421  0.64064995  1
  O2-  O482  1  0.17739291  0.05469701  0.98484003  1
  O2-  O483  1  0.17404544  0.32227112  0.31404755  1
  O2-  O484  1  0.16015640  0.33645621  0.64764799  1
  O2-  O485  1  0.16955315  0.33168672  0.97024362  1
  O2-  O486  1  0.14044999  0.55554513  0.31714553  1
  O2-  O487  1  0.10646102  0.56822025  0.64106497  1
  O2-  O488  1  0.17071776  0.57848766  0.97823448  1
  O2-  O489  1  0.17035422  0.83226829  0.30667120  1
  O2-  O490  1  0.18169522  0.85399609  0.62141040  1
  O2-  O491  1  0.16421299  0.83447495  0.98637727  1
  O2-  O492  1  0.41843686  0.08279316  0.29585841  1
  O2-  O493  1  0.41821248  0.10269667  0.63239549  1
  O2-  O494  1  0.42113847  0.07976773  0.97761608  1
  O2-  O495  1  0.42592377  0.33706854  0.28653479  1
  O2-  O496  1  0.41351016  0.35310727  0.64633661  1
  O2-  O497  1  0.42290492  0.33271117  0.98076475  1
  O2-  O498  1  0.41433826  0.58077158  0.31456935  1
  O2-  O499  1  0.40455818  0.56745544  0.63515705  1
  O2-  O500  1  0.41485568  0.58489889  0.97871737  1
  O2-  O501  1  0.42971179  0.84531748  0.30992353  1
  O2-  O502  1  0.41171118  0.82725008  0.64818983  1
  O2-  O503  1  0.46348245  0.79445275  0.98467682  1
  O2-  O504  1  0.61346852  0.09552479  0.32214979  1
  O2-  O505  1  0.66602636  0.08819742  0.63891558  1
  O2-  O506  1  0.66927750  0.08964896  0.97926769  1
  O2-  O507  1  0.66266060  0.31817147  0.30450035  1
  O2-  O508  1  0.66754652  0.33831622  0.63971718  1
  O2-  O509  1  0.66099683  0.32325904  0.96815845  1
  O2-  O510  1  0.65140721  0.57478346  0.30320100  1
  O2-  O511  1  0.64573952  0.57920162  0.65367933  1
  O2-  O512  1  0.66381888  0.57248045  0.97814195  1
  O2-  O513  1  0.66544155  0.83799983  0.31426301  1
  O2-  O514  1  0.65673180  0.83517174  0.64504663  1
  O2-  O515  1  0.58819397  0.79313251  1.04879839  1
  O2-  O516  1  0.93488375  0.10083675  0.29830919  1
  O2-  O517  1  0.91698620  0.09493813  0.64708633  1
  O2-  O518  1  0.92265746  0.08514559  0.98338055  1
  O2-  O519  1  0.88964469  0.30897622  0.30776037  1
  O2-  O520  1  0.90322299  0.33795733  0.65302951  1
  O2-  O521  1  0.91874813  0.33816515  1.04108855  1
  O2-  O522  1  0.91732620  0.59705453  0.32447487  1
  O2-  O523  1  0.95328489  0.56369538  0.62831350  1
  O2-  O524  1  0.90411085  0.57399678  0.97424282  1
  O2-  O525  1  0.91400497  0.82920805  0.29195729  1
  O2-  O526  1  0.87457907  0.82872516  0.65182075  1
  O2-  O527  1  0.91609831  0.83686935  0.98730879  1
  O2-  O528  1  0.08530010  0.17393013  0.03263929  1
  O2-  O529  1  0.08933096  0.16893254  0.35196253  1
  O2-  O530  1  0.08617908  0.17398617  0.68796395  1
  O2-  O531  1  0.09562775  0.41758040  0.02054303  1
  O2-  O532  1  0.02783476  0.41236468  0.39011970  1
  O2-  O533  1  0.06700926  0.41230420  0.68457233  1
  O2-  O534  1  0.07966147  0.65911747  -0.03190276  1
  O2-  O535  1  0.09143306  0.67718673  0.35354845  1
  O2-  O536  1  0.14574600  0.69767664  0.72798387  1
  O2-  O537  1  0.08183985  0.90737135  0.03829803  1
  O2-  O538  1  0.05403836  0.85706910  0.35478872  1
  O2-  O539  1  0.18374308  0.97685491  0.68921305  1
  O2-  O540  1  0.34107054  0.16585577  0.01526231  1
  O2-  O541  1  0.34044251  0.16686283  0.32466421  1
  O2-  O542  1  0.34528700  0.19448303  0.67092814  1
  O2-  O543  1  0.33608123  0.41588462  0.01579166  1
  O2-  O544  1  0.34678180  0.41164811  0.34601149  1
  O2-  O545  1  0.31798650  0.41274756  0.70079254  1
  O2-  O546  1  0.32682021  0.64741712  0.02251904  1
  O2-  O547  1  0.36486601  0.69556204  0.35968286  1
  O2-  O548  1  0.32024676  0.65209645  0.67941445  1
  O2-  O549  1  0.34028678  0.92531803  0.02102251  1
  O2-  O550  1  0.33725173  0.92331275  0.33555277  1
  O2-  O551  1  0.28038664  0.83597516  0.69449967  1
  O2-  O552  1  0.58028881  0.16271711  0.01902182  1
  O2-  O553  1  0.57775148  0.15057846  0.34159051  1
  O2-  O554  1  0.58721699  0.17262411  0.67634719  1
  O2-  O555  1  0.58848768  0.40518666  0.01533779  1
  O2-  O556  1  0.58016384  0.40738821  0.34030207  1
  O2-  O557  1  0.58029258  0.41457990  0.68178318  1
  O2-  O558  1  0.52937282  0.56433505  0.04682804  1
  O2-  O559  1  0.58200418  0.66845299  0.35223591  1
  O2-  O560  1  0.56275982  0.66444346  0.68496969  1
  O2-  O561  1  0.55243683  0.94445288  0.04213743  1
  O2-  O562  1  0.58415412  0.93158102  0.36257267  1
  O2-  O563  1  0.57699829  0.92283715  0.68617389  1
  O2-  O564  1  0.83429847  0.16364056  0.01415985  1
  O2-  O565  1  0.77682628  0.15343938  0.36009830  1
  O2-  O566  1  0.82502445  0.16868949  0.68375922  1
  O2-  O567  1  0.82182870  0.42799951  0.03401577  1
  O2-  O568  1  0.81257311  0.44632950  0.36124778  1
  O2-  O569  1  0.81717012  0.41157049  0.68671608  1
  O2-  O570  1  0.82879872  0.66532497  0.01292181  1
  O2-  O571  1  0.82254237  0.66723663  0.33641054  1
  O2-  O572  1  0.76769659  0.69211098  0.71480338  1
  O2-  O573  1  0.83213154  0.92462720  0.02364502  1
  O2-  O574  1  0.90876536  0.95268195  0.36583942  1
  O2-  O575  1  0.81918741  0.93519826  0.69153264  1
