# generated using pymatgen
data_H2O
_symmetry_space_group_name_H-M   'P 1'
_cell_length_a   17.98618819
_cell_length_b   17.98832022
_cell_length_c   21.98502346
_cell_angle_alpha   89.98853812
_cell_angle_beta   90.00675309
_cell_angle_gamma   120.00533067
_symmetry_Int_Tables_number   1
_chemical_formula_structural   H2O
_chemical_formula_sum   'H384 O192'
_cell_volume   6159.76251646
_cell_formula_units_Z   192
loop_
 _symmetry_equiv_pos_site_id
 _symmetry_equiv_pos_as_xyz
  1  'x, y, z'
loop_
 _atom_type_symbol
 _atom_type_oxidation_number
  H+  1.0
  O2-  -2.0
loop_
 _atom_site_type_symbol
 _atom_site_label
 _atom_site_symmetry_multiplicity
 _atom_site_fract_x
 _atom_site_fract_y
 _atom_site_fract_z
 _atom_site_occupancy
  H+  H0  1  0.63434883  0.52384257  0.83543825  1
  H+  H1  1  0.86556290  0.88935844  -0.00667789  1
  H+  H2  1  0.27751280  0.63765277  0.00184772  1
  H+  H3  1  0.63021875  0.86180373  0.82490687  1
  H+  H4  1  0.40020927  0.37245233  0.33404522  1
  H+  H5  1  0.87057552  0.89098479  0.82901997  1
  H+  H6  1  1.03416668  0.39352102  0.49406706  1
  H+  H7  1  0.23244895  0.63463268  0.65679975  1
  H+  H8  1  0.59659536  0.60651559  0.34613932  1
  H+  H9  1  0.75824729  0.78379184  0.20837404  1
  H+  H10  1  0.42144082  0.42634178  0.66755303  1
  H+  H11  1  0.85350466  0.84900437  0.34076439  1
  H+  H12  1  0.35710940  0.60938731  0.15188935  1
  H+  H13  1  0.87882269  0.10566373  0.65066022  1
  H+  H14  1  0.63161530  0.84062239  0.32382937  1
  H+  H15  1  0.36033983  0.96863121  0.34034624  1
  H+  H16  1  0.62591458  0.64566716  0.80543936  1
  H+  H17  1  0.63350625  0.05759647  0.60395605  1
  H+  H18  1  0.87460564  0.39676696  0.67484401  1
  H+  H19  1  0.89025376  0.27763705  0.83623825  1
  H+  H20  1  0.05753318  0.11252413  0.40995565  1
  H+  H21  1  0.56305868  0.84449497  0.65056851  1
  H+  H22  1  0.63749663  0.09515637  0.30733926  1
  H+  H23  1  0.78444653  0.89649767  0.82250679  1
  H+  H24  1  0.63133743  0.47623695  0.01297865  1
  H+  H25  1  0.36486807  0.88413589  0.49799079  1
  H+  H26  1  0.13912230  1.01834453  0.84524974  1
  H+  H27  1  0.77361950  0.38830577  0.82995404  1
  H+  H28  1  0.09696464  0.71602917  0.00496915  1
  H+  H29  1  0.27473442  0.13942980  0.34463800  1
  H+  H30  1  0.66729581  0.33294957  0.90205572  1
  H+  H31  1  0.13339757  0.76787971  0.17390145  1
  H+  H32  1  0.10577289  0.88386181  0.33539424  1
  H+  H33  1  0.36158133  0.88020681  0.16403374  1
  H+  H34  1  0.99533808  0.85413890  0.98951673  1
  H+  H35  1  0.88755035  0.77249889  0.83018305  1
  H+  H36  1  0.02241889  0.14400643  0.65804517  1
  H+  H37  1  0.98758242  0.11721424  0.32908863  1
  H+  H38  1  0.73361858  0.10060918  0.67304446  1
  H+  H39  1  0.46654491  0.09934230  0.31893288  1
  H+  H40  1  0.50978822  0.11894949  0.17048762  1
  H+  H41  1  0.36217185  0.89290867  0.84453532  1
  H+  H42  1  0.22167389  0.11178839  0.84713379  1
  H+  H43  1  0.55409811  0.43992744  0.33588114  1
  H+  H44  1  0.60505922  0.39081809  0.16637830  1
  H+  H45  1  0.26889316  0.40339390  0.49915037  1
  H+  H46  1  0.07559631  0.29513470  0.30937170  1
  H+  H47  1  0.48019896  0.85864489  0.32218392  1
  H+  H48  1  0.07584598  0.90828888  0.42877072  1
  H+  H49  1  0.89112208  0.86911865  0.65882776  1
  H+  H50  1  0.62873493  0.76937112  0.49961678  1
  H+  H51  1  0.39264415  0.76899229  0.32478489  1
  H+  H52  1  0.73646070  0.36773205  0.66888679  1
  H+  H53  1  0.01710523  0.65532998  0.50819885  1
  H+  H54  1  0.47334250  0.37494837  0.17716571  1
  H+  H55  1  0.91497616  0.58890203  0.57086401  1
  H+  H56  1  0.77516224  0.64602109  0.16659095  1
  H+  H57  1  0.23024143  0.87075012  0.50690477  1
  H+  H58  1  0.94392320  0.59976810  0.33246887  1
  H+  H59  1  0.36861567  0.63117755  0.33267600  1
  H+  H60  1  0.13142595  0.02299683  0.64152274  1
  H+  H61  1  0.51105490  0.61867830  1.00008343  1
  H+  H62  1  0.44570141  0.59263606  0.66837993  1
  H+  H63  1  0.39421745  0.02055388  0.66587142  1
  H+  H64  1  0.63723495  0.41166175  0.67609520  1
  H+  H65  1  0.89015227  0.89416312  1.02216219  1
  H+  H66  1  0.38230780  0.41887708  0.16665440  1
  H+  H67  1  0.43955909  0.25499693  0.63338418  1
  H+  H68  1  0.95853767  0.37595593  0.34574052  1
  H+  H69  1  0.39337724  0.77256347  0.50995342  1
  H+  H70  1  0.27507231  0.13860951  0.50890981  1
  H+  H71  1  0.27416829  0.61955890  0.15314485  1
  H+  H72  1  0.76991146  0.63935456  0.65984962  1
  H+  H73  1  0.01370397  0.87805026  0.33433728  1
  H+  H74  1  0.09647145  0.40453757  0.34283121  1
  H+  H75  1  0.15411710  0.53362628  0.50190403  1
  H+  H76  1  0.14462353  0.54626105  0.65355378  1
  H+  H77  1  0.84305190  0.11683739  0.53031949  1
  H+  H78  1  1.02085722  0.87865913  0.48963263  1
  H+  H79  1  0.81786432  0.15796919  0.58411560  1
  H+  H80  1  0.77146478  0.63645339  0.81805079  1
  H+  H81  1  0.61876656  0.40343291  0.49679893  1
  H+  H82  1  0.47303442  0.59861310  0.31841214  1
  H+  H83  1  0.36082150  0.39812604  0.49543027  1
  H+  H84  1  0.11963995  0.89721806  0.66686587  1
  H+  H85  1  0.15257370  0.83526009  0.89488440  1
  H+  H86  1  0.12272205  0.74478204  0.35926273  1
  H+  H87  1  0.60855331  0.63319613  0.49998565  1
  H+  H88  1  0.97819736  0.62127494  0.66044994  1
  H+  H89  1  0.86767585  0.73737761  0.16857368  1
  H+  H90  1  0.40805766  0.28891943  0.33253556  1
  H+  H91  1  0.37848460  0.41180845  -0.00347283  1
  H+  H92  1  0.38683128  0.60382871  -0.00638418  1
  H+  H93  1  0.71262047  0.82806602  0.33504512  1
  H+  H94  1  0.59127427  0.62753655  0.64787643  1
  H+  H95  1  0.11250730  0.14810258  0.65490432  1
  H+  H96  1  0.60844959  0.20826088  0.32021886  1
  H+  H97  1  0.63781197  0.74300509  0.98152244  1
  H+  H98  1  0.85623707  0.96975474  0.49527071  1
  H+  H99  1  0.13341619  0.01769974  0.32423754  1
  H+  H100  1  0.60953548  0.88559471  0.48710870  1
  H+  H101  1  -0.02552999  0.60531651  -0.00598622  1
  H+  H102  1  0.73169149  0.36003452  -0.00441158  1
  H+  H103  1  0.47534601  0.37245901  0.49470657  1
  H+  H104  1  0.54072290  0.39310685  0.00455068  1
  H+  H105  1  0.17629229  0.84873840  0.60323783  1
  H+  H106  1  0.29805252  0.15486918  0.00335614  1
  H+  H107  1  -0.01239965  0.37108993  -0.01454940  1
  H+  H108  1  0.63626053  0.52385943  0.63304177  1
  H+  H109  1  0.70214271  0.81702265  0.24033360  1
  H+  H110  1  0.10325832  0.11421405  0.34738856  1
  H+  H111  1  0.08923154  0.43538754  0.72621494  1
  H+  H112  1  0.22408325  0.85562977  0.17384743  1
  H+  H113  1  0.90303509  0.58184921  0.23139845  1
  H+  H114  1  0.11874300  0.85368962  0.99659259  1
  H+  H115  1  0.84674163  0.48119292  0.15792806  1
  H+  H116  1  0.62923527  0.28515376  0.16139177  1
  H+  H117  1  0.47944336  0.86264207  0.50425017  1
  H+  H118  1  0.76487324  0.63571184  0.51260765  1
  H+  H119  1  0.25557379  0.10473036  0.67804054  1
  H+  H120  1  0.11629006  0.65058587  0.66625678  1
  H+  H121  1  0.62935281  0.08693212  0.16879404  1
  H+  H122  1  0.01354140  0.63293202  0.16217533  1
  H+  H123  1  0.13497013  0.53925611  0.34491928  1
  H+  H124  1  0.91516592  0.58418949  0.93442231  1
  H+  H125  1  0.73166208  0.10632341  0.31514705  1
  H+  H126  1  0.59368009  -0.00954077  0.65823872  1
  H+  H127  1  0.38123272  0.51503209  0.49904944  1
  H+  H128  1  0.35984023  0.13496119  0.34673862  1
  H+  H129  1  0.86323337  0.47387956  1.00343387  1
  H+  H130  1  0.15782471  0.30909702  0.50448371  1
  H+  H131  1  0.09400403  0.16542614  0.07641655  1
  H+  H132  1  0.38806712  0.75655225  0.17314290  1
  H+  H133  1  0.25216089  0.03261510  0.96983996  1
  H+  H134  1  0.62858714  0.73509295  0.80004305  1
  H+  H135  1  0.34442229  0.18725989  0.10288292  1
  H+  H136  1  0.38897315  0.61746184  0.49964321  1
  H+  H137  1  0.60462830  0.45333500  0.44043029  1
  H+  H138  1  0.02747826  0.89106082  0.66343403  1
  H+  H139  1  0.59850397  0.17785129  0.20230233  1
  H+  H140  1  0.12738562  0.28554569  0.64564293  1
  H+  H141  1  0.36865931  0.99547252  0.84608625  1
  H+  H142  1  0.97433999  0.61754205  0.83742775  1
  H+  H143  1  0.32206881  0.25414148  0.66745163  1
  H+  H144  1  0.91259910  0.76013418  0.98818904  1
  H+  H145  1  0.64318748  0.36096358  1.00094421  1
  H+  H146  1  0.59485866  0.61416725  0.16274016  1
  H+  H147  1  0.72158820  0.53783304  0.94671771  1
  H+  H148  1  0.53632612  0.87742115  0.74467705  1
  H+  H149  1  0.59515771  0.60962347  1.00251536  1
  H+  H150  1  0.50645385  0.86651308  0.16091688  1
  H+  H151  1  0.22070424  0.61781669  0.83574210  1
  H+  H152  1  0.77907696  0.14118385  0.83457430  1
  H+  H153  1  0.76993987  0.39610509  0.50304759  1
  H+  H154  1  0.86848709  0.15557350  0.33279918  1
  H+  H155  1  0.89792549  1.02920724  0.84508161  1
  H+  H156  1  0.88673917  0.36548518  0.83824507  1
  H+  H157  1  0.11065055  0.88406673  0.16927787  1
  H+  H158  1  0.36707235  0.47575404  0.33870371  1
  H+  H159  1  0.11379630  0.22964106  0.00090106  1
  H+  H160  1  0.64315282  0.28197584  0.66932884  1
  H+  H161  1  0.84872228  0.23036928  0.34388280  1
  H+  H162  1  0.88569118  0.61616223  0.65988644  1
  H+  H163  1  0.71848710  0.85668323  0.50559674  1
  H+  H164  1  0.14193064  0.78576694  0.66043680  1
  H+  H165  1  0.27482341  0.38377190  1.01052041  1
  H+  H166  1  0.65027381  0.92556261  0.02620367  1
  H+  H167  1  0.45751448  0.85545903  0.83431943  1
  H+  H168  1  0.54716966  0.39451780  0.66158020  1
  H+  H169  1  0.48010097  0.61209983  0.50050781  1
  H+  H170  1  0.62167478  0.10925243  0.51479059  1
  H+  H171  1  0.15541279  0.37877502  0.98467106  1
  H+  H172  1  0.38296370  0.02061261  0.51003425  1
  H+  H173  1  0.65267495  0.31732733  0.26423896  1
  H+  H174  1  0.28409897  0.63891168  0.34296868  1
  H+  H175  1  0.80670005  0.98974157  0.01055124  1
  H+  H176  1  0.14099201  0.87528189  0.50421146  1
  H+  H177  1  0.61257288  0.13903876  0.83270568  1
  H+  H178  1  0.39564432  0.53395446  0.83008581  1
  H+  H179  1  0.10350056  0.36821733  0.14033485  1
  H+  H180  1  0.88821413  0.53417323  0.50884161  1
  H+  H181  1  0.60514424  0.97278168  0.48851562  1
  H+  H182  1  0.87738163  0.75581140  0.32252178  1
  H+  H183  1  0.61422711  0.39126592  0.82905353  1
  H+  H184  1  0.39020921  0.38592210  0.90312209  1
  H+  H185  1  0.99495993  0.07492029  0.50903087  1
  H+  H186  1  0.19557224  0.06325001  0.93285469  1
  H+  H187  1  0.82943260  0.46522960  0.34284862  1
  H+  H188  1  0.63389693  0.52370689  0.18080593  1
  H+  H189  1  1.02012415  0.14217752  1.00517061  1
  H+  H190  1  0.57416638  0.95480935  0.78824773  1
  H+  H191  1  0.13204613  0.97853701  0.01854051  1
  H+  H192  1  0.66841399  0.59247973  0.88943801  1
  H+  H193  1  0.04736792  0.78887809  0.95709787  1
  H+  H194  1  0.79867768  0.19759009  0.68406174  1
  H+  H195  1  0.59978370  0.69911911  0.34103440  1
  H+  H196  1  0.37611408  0.88987681  0.67109576  1
  H+  H197  1  0.35063549  0.72345493  0.82938837  1
  H+  H198  1  0.51029452  0.13829913  0.51197049  1
  H+  H199  1  0.02939409  0.27267068  0.31944802  1
  H+  H200  1  0.88540177  0.27801927  0.51241082  1
  H+  H201  1  0.13982491  0.61626402  0.99130774  1
  H+  H202  1  0.56632519  0.63610949  0.09817630  1
  H+  H203  1  0.92080676  0.29725193  0.65307804  1
  H+  H204  1  0.09983351  0.62697073  0.15972523  1
  H+  H205  1  0.27812719  0.32983242  0.84670909  1
  H+  H206  1  0.39706174  0.41625918  0.63807332  1
  H+  H207  1  0.83941131  0.92896793  0.34100469  1
  H+  H208  1  0.39738686  0.76552927  -0.00725215  1
  H+  H209  1  0.61604836  0.98876813  0.01622946  1
  H+  H210  1  0.86402997  0.36646748  0.34243300  1
  H+  H211  1  0.63215174  0.52289020  0.53379168  1
  H+  H212  1  0.61953650  -0.03590487  0.33008175  1
  H+  H213  1  0.74250884  0.61256340  0.34573020  1
  H+  H214  1  0.48468579  0.34956766  0.91173139  1
  H+  H215  1  0.38738549  0.28115499  0.49821906  1
  H+  H216  1  0.86993232  0.48311017  0.67621979  1
  H+  H217  1  0.37989403  0.25044033  -0.00291502  1
  H+  H218  1  0.08763203  0.15465656  0.50835296  1
  H+  H219  1  0.23050069  0.38803434  0.69148864  1
  H+  H220  1  0.12448692  0.50758415  0.15149778  1
  H+  H221  1  0.22748021  0.86579846  0.32817735  1
  H+  H222  1  0.88263824  0.62150920  0.17319898  1
  H+  H223  1  0.28451909  0.63802863  0.49151869  1
  H+  H224  1  0.85767013  0.22404953  0.17378865  1
  H+  H225  1  0.33952267  0.09813256  0.68849291  1
  H+  H226  1  0.88730411  0.05359847  0.31917968  1
  H+  H227  1  0.87014967  0.24005855  1.00847777  1
  H+  H228  1  0.13153571  0.22732169  0.14132003  1
  H+  H229  1  0.12993429  0.66111467  0.37170873  1
  H+  H230  1  0.86963596  0.86087826  0.50913063  1
  H+  H231  1  0.73258949  0.12471505  1.00370376  1
  H+  H232  1  0.27745463  0.86468797  0.00887109  1
  H+  H233  1  0.26163097  0.36424033  0.29790334  1
  H+  H234  1  0.28749687  0.89045114  0.67234832  1
  H+  H235  1  0.91128640  0.09542270  0.47738194  1
  H+  H236  1  0.85744668  0.39346149  0.49479570  1
  H+  H237  1  0.70146045  0.33925210  0.32834645  1
  H+  H238  1  0.48673907  0.85595879  0.99286562  1
  H+  H239  1  0.82037439  0.41880380  0.10025571  1
  H+  H240  1  0.11427677  0.39760404  0.82110746  1
  H+  H241  1  0.36346173  0.23521192  0.16621096  1
  H+  H242  1  0.36079214  0.15867626  0.83463493  1
  H+  H243  1  0.52017715  0.14026246  0.67908412  1
  H+  H244  1  0.58240563  0.13403254  0.37136072  1
  H+  H245  1  0.63600777  0.27522247  0.84221714  1
  H+  H246  1  0.22872865  0.37144840  0.13674484  1
  H+  H247  1  0.35305384  0.51759684  0.69091870  1
  H+  H248  1  0.88677545  0.52686188  0.83987668  1
  H+  H249  1  0.48348400  1.12408635  -0.00487085  1
  H+  H250  1  0.88429750  0.77409971  0.65499774  1
  H+  H251  1  0.29277785  0.25606620  0.69108509  1
  H+  H252  1  0.88510316  1.02756262  0.16516770  1
  H+  H253  1  0.44271648  0.83926531  0.60140052  1
  H+  H254  1  0.86824653  0.38754997  1.00508643  1
  H+  H255  1  0.12584801  0.06947427  0.54042001  1
  H+  H256  1  0.62002282  0.23156832  0.01515745  1
  H+  H257  1  0.65370269  0.03326101  0.86172484  1
  H+  H258  1  0.70852362  0.10492407  0.52410231  1
  H+  H259  1  0.12649254  0.48812689  0.99167345  1
  H+  H260  1  0.36222803  0.88036817  0.33892291  1
  H+  H261  1  0.87878238  -0.02059038  0.66996869  1
  H+  H262  1  0.42010083  0.09462325  0.90555413  1
  H+  H263  1  0.99696524  0.39203260  0.65544757  1
  H+  H264  1  0.87025492  0.63500195  0.01747004  1
  H+  H265  1  0.13722209  1.02092973  0.17253566  1
  H+  H266  1  0.35304059  0.63474486  0.68037913  1
  H+  H267  1  0.71987302  0.37213923  0.16876933  1
  H+  H268  1  0.36747624  0.86949025  1.00930703  1
  H+  H269  1  0.89117040  0.12752836  0.99727091  1
  H+  H270  1  0.97074728  0.35579677  0.20562379  1
  H+  H271  1  0.57387772  0.18678103  0.45796476  1
  H+  H272  1  0.12773323  0.13185558  0.14631677  1
  H+  H273  1  1.01915976  0.88024682  0.17326351  1
  H+  H274  1  0.47287290  0.11404353  0.84241518  1
  H+  H275  1  0.88870177  0.12684816  0.17216899  1
  H+  H276  1  0.37258373  0.60739596  0.83935891  1
  H+  H277  1  0.11043026  0.64325130  0.82333453  1
  H+  H278  1  0.40606955  0.14202362  0.99408442  1
  H+  H279  1  0.02875266  0.15233511  0.82174924  1
  H+  H280  1  0.73913907  0.88945241  1.00826681  1
  H+  H281  1  0.11673141  0.40583231  0.66458800  1
  H+  H282  1  0.26924237  0.89669689  0.84166468  1
  H+  H283  1  0.85528083  0.59927892  0.33016788  1
  H+  H284  1  0.37595969  0.01743504  0.16981481  1
  H+  H285  1  0.75006216  0.60987203  -0.00437414  1
  H+  H286  1  0.32258455  0.16073628  0.44266169  1
  H+  H287  1  0.14107627  0.28587171  0.82487139  1
  H+  H288  1  0.91667044  0.08827342  0.94035726  1
  H+  H289  1  0.07920973  0.18110471  0.75809777  1
  H+  H290  1  0.81592220  0.94894434  0.10140527  1
  H+  H291  1  0.13909650  0.87209435  0.83164624  1
  H+  H292  1  0.59143901  0.75094646  0.64571584  1
  H+  H293  1  0.60235334  0.13043865  0.67849709  1
  H+  H294  1  0.01148345  0.35663519  0.12145296  1
  H+  H295  1  0.66075159  0.82822166  0.88217253  1
  H+  H296  1  0.45028537  0.32170441  0.58207134  1
  H+  H297  1  0.85487579  0.63899826  0.50351699  1
  H+  H298  1  0.16500336  0.82884787  0.27018705  1
  H+  H299  1  0.58175283  0.42160846  0.77225091  1
  H+  H300  1  0.82338088  0.66484580  0.72306369  1
  H+  H301  1  0.86849308  0.76411277  0.51196139  1
  H+  H302  1  0.08354011  0.67521155  0.72720785  1
  H+  H303  1  0.93044616  0.82447337  0.89100637  1
  H+  H304  1  0.67726316  0.09852995  0.91487405  1
  H+  H305  1  0.85576835  0.92538086  0.73181267  1
  H+  H306  1  0.33535238  0.65959427  0.06221124  1
  H+  H307  1  0.77300631  0.13119738  0.16030833  1
  H+  H308  1  0.37238786  0.73262400  0.67692370  1
  H+  H309  1  0.92510900  0.35025927  0.56118378  1
  H+  H310  1  0.90966325  0.07856044  0.59002097  1
  H+  H311  1  0.22837061  0.11173432  0.16988283  1
  H+  H312  1  0.58491318  0.90998557  0.39173024  1
  H+  H313  1  0.80700990  0.41364787  0.40575029  1
  H+  H314  1  0.09608893  0.42370989  0.04880221  1
  H+  H315  1  0.46589560  0.57321852  0.15592745  1
  H+  H316  1  0.57787557  0.65086651  0.43407957  1
  H+  H317  1  0.33148186  0.28120698  0.83678360  1
  H+  H318  1  0.86046838  0.63633658  0.81880566  1
  H+  H319  1  0.83516198  0.41955970  0.77090542  1
  H+  H320  1  0.34917238  0.67008667  0.43306456  1
  H+  H321  1  0.35089888  0.43183760  0.06860453  1
  H+  H322  1  0.90015874  0.32241675  0.25582127  1
  H+  H323  1  0.57802787  0.66017424  0.71274099  1
  H+  H324  1  0.84083579  0.18211383  0.06976820  1
  H+  H325  1  0.38124072  0.11073291  0.17015522  1
  H+  H326  1  0.57928037  0.42123739  0.10618775  1
  H+  H327  1  0.80942812  0.65157091  0.40199048  1
  H+  H328  1  0.57367781  0.90856481  0.09658251  1
  H+  H329  1  0.66837842  0.35030388  0.57729170  1
  H+  H330  1  0.11473240  0.75323046  0.51097782  1
  H+  H331  1  0.63019447  0.82046675  0.59048752  1
  H+  H332  1  0.82619560  0.15480641  0.77107598  1
  H+  H333  1  0.41492735  0.83145627  0.90146196  1
  H+  H334  1  0.12990839  0.39996454  0.49457877  1
  H+  H335  1  0.16612305  0.08289022  0.26787080  1
  H+  H336  1  0.17116146  0.35671799  0.59092876  1
  H+  H337  1  0.15993806  0.54736558  0.21439065  1
  H+  H338  1  0.60516778  0.96210090  0.16191371  1
  H+  H339  1  0.41782892  0.81889168  0.23274792  1
  H+  H340  1  0.37893380  0.10868667  0.51164769  1
  H+  H341  1  0.08525543  0.92080531  0.07914755  1
  H+  H342  1  0.82628368  0.89603815  0.43940436  1
  H+  H343  1  0.80104651  0.90496417  0.16749388  1
  H+  H344  1  0.65572805  0.57344167  0.24356021  1
  H+  H345  1  0.08699328  0.92436980  0.75909159  1
  H+  H346  1  0.89298628  0.11515212  0.84506856  1
  H+  H347  1  0.11195221  0.73279117  0.82215898  1
  H+  H348  1  0.92121417  0.33710322  0.93048635  1
  H+  H349  1  0.41432033  0.08261013  0.60865190  1
  H+  H350  1  0.39751510  0.07132336  0.26703791  1
  H+  H351  1  0.64176350  0.12296112  1.00476456  1
  H+  H352  1  0.63173571  0.28626080  0.52212773  1
  H+  H353  1  0.19316700  0.26964309  0.27922055  1
  H+  H354  1  0.90592947  0.83022341  0.57584370  1
  H+  H355  1  0.66789277  0.06127499  0.22592626  1
  H+  H356  1  0.90034281  0.86326978  0.18186672  1
  H+  H357  1  0.18427421  0.59967133  0.55715583  1
  H+  H358  1  0.91112294  0.82021831  0.26029072  1
  H+  H359  1  0.16925458  0.59246592  0.92840677  1
  H+  H360  1  0.41122388  0.57249865  0.93386703  1
  H+  H361  1  0.30413937  0.38202751  0.72585013  1
  H+  H362  1  1.02451290  0.88683023  0.81702944  1
  H+  H363  1  0.33286030  0.90460562  0.10253463  1
  H+  H364  1  0.72679285  0.78552665  0.94829455  1
  H+  H365  1  0.31480485  0.15751843  0.77361747  1
  H+  H366  1  0.07785924  0.66055924  0.06661250  1
  H+  H367  1  0.33140136  0.41862161  0.39928238  1
  H+  H368  1  0.41821988  0.34810008  0.23784000  1
  H+  H369  1  0.33597752  0.91181216  0.43695163  1
  H+  H370  1  0.58696292  0.17079490  0.07464528  1
  H+  H371  1  0.19324966  0.34916543  0.93041941  1
  H+  H372  1  0.21498614  0.37664834  0.80009056  1
  H+  H373  1  0.58181369  0.16561883  0.77175275  1
  H+  H374  1  0.13064419  0.53017600  0.83602798  1
  H+  H375  1  0.92983209  0.09937301  0.22993962  1
  H+  H376  1  0.83969583  0.67236115  0.07419089  1
  H+  H377  1  0.08733207  0.68907433  0.44848095  1
  H+  H378  1  0.02291698  0.39259012  0.82161557  1
  H+  H379  1  0.15710880  0.61307420  0.29544388  1
  H+  H380  1  0.08376562  0.43197621  0.40965112  1
  H+  H381  1  0.41277386  0.56174531  0.25797214  1
  H+  H382  1  0.32591865  0.66973293  0.76731348  1
  H+  H383  1  0.18912537  0.33640373  0.20022848  1
  O2-  O384  1  0.10139841  0.16585548  0.12703845  1
  O2-  O385  1  0.05709487  0.09398013  0.49759129  1
  O2-  O386  1  0.08497092  0.19073704  0.80244289  1
  O2-  O387  1  0.07191868  0.39907554  0.12782633  1
  O2-  O388  1  0.09312676  0.42621139  0.47752804  1
  O2-  O389  1  0.08311971  0.42637475  0.80570169  1
  O2-  O390  1  0.07410964  0.66124896  0.14582085  1
  O2-  O391  1  0.08034225  0.68925960  0.49607566  1
  O2-  O392  1  0.07930519  0.67256017  0.80737271  1
  O2-  O393  1  0.08059474  0.91542394  0.15662669  1
  O2-  O394  1  0.07975126  0.90723462  0.47404300  1
  O2-  O395  1  0.08613145  0.91816370  0.80425379  1
  O2-  O396  1  0.33745515  0.17693348  0.14762681  1
  O2-  O397  1  0.33125618  0.16665983  0.48784061  1
  O2-  O398  1  0.32517424  0.18042936  0.81665441  1
  O2-  O399  1  0.35745313  0.45108759  0.14357881  1
  O2-  O400  1  0.33421843  0.43189518  0.48051637  1
  O2-  O401  1  0.33617651  0.33694961  0.84817175  1
  O2-  O402  1  0.33581602  0.64981526  0.14221699  1
  O2-  O403  1  0.34841592  0.66936427  0.47842344  1
  O2-  O404  1  0.32209876  0.66407230  0.81312655  1
  O2-  O405  1  0.33202733  0.91007557  0.14820725  1
  O2-  O406  1  0.33496817  0.91452764  0.48235234  1
  O2-  O407  1  0.33431956  0.92888406  0.83356860  1
  O2-  O408  1  0.57444744  0.14759723  0.16399163  1
  O2-  O409  1  0.57400820  0.17394506  0.50093670  1
  O2-  O410  1  0.58029262  0.16646270  0.81753187  1
  O2-  O411  1  0.57533577  0.42191146  0.15145727  1
  O2-  O412  1  0.59205712  0.43830229  0.48416954  1
  O2-  O413  1  0.58314618  0.42182586  0.81719302  1
  O2-  O414  1  0.55359371  0.62819496  0.14239154  1
  O2-  O415  1  0.57863731  0.65993363  0.47978676  1
  O2-  O416  1  0.60197883  0.67667150  0.78305263  1
  O2-  O417  1  0.56937333  0.90129776  0.14358829  1
  O2-  O418  1  0.57812389  0.91411323  0.47042685  1
  O2-  O419  1  0.54993945  0.89273314  0.78938048  1
  O2-  O420  1  0.83479360  0.16893826  0.14985585  1
  O2-  O421  1  0.81900763  0.15559421  0.53955806  1
  O2-  O422  1  0.83675894  0.16746035  0.81482915  1
  O2-  O423  1  0.81187873  0.42035410  0.14466603  1
  O2-  O424  1  0.82823010  0.42627135  0.48374342  1
  O2-  O425  1  0.83506765  0.41906511  0.81641397  1
  O2-  O426  1  0.83420719  0.67545916  0.14969103  1
  O2-  O427  1  0.82127310  0.66739587  0.49130223  1
  O2-  O428  1  0.83137904  0.66652607  0.80132660  1
  O2-  O429  1  0.84575844  0.95251258  0.14057975  1
  O2-  O430  1  0.82704615  0.90280747  0.48453065  1
  O2-  O431  1  0.84687721  0.92713380  0.81332659  1
  O2-  O432  1  0.16685359  0.08431614  0.18271473  1
  O2-  O433  1  0.17739182  0.07324022  0.56079221  1
  O2-  O434  1  0.16858790  0.07169338  0.86979968  1
  O2-  O435  1  0.17252368  0.33298208  0.15552526  1
  O2-  O436  1  0.18484209  0.36736618  0.52040471  1
  O2-  O437  1  0.18242459  0.34807975  0.83790641  1
  O2-  O438  1  0.15842375  0.56385846  0.17233303  1
  O2-  O439  1  0.19029600  0.59530874  0.51256971  1
  O2-  O440  1  0.16006969  0.59027600  0.85190934  1
  O2-  O441  1  0.16460467  0.82728671  0.19076320  1
  O2-  O442  1  0.17067929  0.84581217  0.52395827  1
  O2-  O443  1  0.16937432  0.84324947  0.85097612  1
  O2-  O444  1  0.40763594  0.07732568  0.18639022  1
  O2-  O445  1  0.41082661  0.08009315  0.52716829  1
  O2-  O446  1  0.41331230  0.08555331  0.85936235  1
  O2-  O447  1  0.41267474  0.34915379  0.19246573  1
  O2-  O448  1  0.41636253  0.34210047  0.51191693  1
  O2-  O449  1  0.45820972  0.34959509  0.95111540  1
  O2-  O450  1  0.39862615  0.53896029  0.17072773  1
  O2-  O451  1  0.41749466  0.58243923  0.51381135  1
  O2-  O452  1  0.40179775  0.57840613  0.85806876  1
  O2-  O453  1  0.41811778  0.81783320  0.18654466  1
  O2-  O454  1  0.42242363  0.83294856  0.52560577  1
  O2-  O455  1  0.40241857  0.83345700  0.85707097  1
  O2-  O456  1  0.66260211  0.05804266  0.17933715  1
  O2-  O457  1  0.64460144  0.07126997  0.52709619  1
  O2-  O458  1  0.67782770  0.09458537  0.86868057  1
  O2-  O459  1  0.65754840  0.33787565  0.18541626  1
  O2-  O460  1  0.66548652  0.34843808  0.53163063  1
  O2-  O461  1  0.66818621  0.33592715  0.85668195  1
  O2-  O462  1  0.66214290  0.58282604  0.19860726  1
  O2-  O463  1  0.66278562  0.58496789  0.54878680  1
  O2-  O464  1  0.66800024  0.58768717  0.84493296  1
  O2-  O465  1  0.73330122  0.82044454  0.20186670  1
  O2-  O466  1  0.65590323  0.82954388  0.51495300  1
  O2-  O467  1  0.66994165  0.84215874  0.83835288  1
  O2-  O468  1  0.92143358  0.09596680  0.18412334  1
  O2-  O469  1  0.89728294  0.05985756  0.51376340  1
  O2-  O470  1  0.92576639  0.08896355  0.86189337  1
  O2-  O471  1  0.90995874  0.31544957  0.21167411  1
  O2-  O472  1  0.91751866  0.34115331  0.51638028  1
  O2-  O473  1  0.92043169  0.33762994  0.85184396  1
  O2-  O474  1  0.91053903  0.58743707  0.18654879  1
  O2-  O475  1  0.91671200  0.59436762  0.52495726  1
  O2-  O476  1  0.91452370  0.58779667  0.85413980  1
  O2-  O477  1  0.92012049  0.82541588  0.19731160  1
  O2-  O478  1  0.90101540  0.82724617  0.52604948  1
  O2-  O479  1  0.92033197  0.83185493  0.84725141  1
  O2-  O480  1  0.16613473  0.08021990  0.31293130  1
  O2-  O481  1  0.16341319  0.08443003  0.62558234  1
  O2-  O482  1  0.21762561  0.05992019  0.97629525  1
  O2-  O483  1  0.21766998  0.32919386  0.26662722  1
  O2-  O484  1  0.15769857  0.34835946  0.63699502  1
  O2-  O485  1  0.18786545  0.34761700  0.97522708  1
  O2-  O486  1  0.17344510  0.60273824  0.33543589  1
  O2-  O487  1  0.17350123  0.60643146  0.63831765  1
  O2-  O488  1  0.17267280  0.58976368  0.97407168  1
  O2-  O489  1  0.16576658  0.83480317  0.31551585  1
  O2-  O490  1  0.17556155  0.84773279  0.64855959  1
  O2-  O491  1  0.10816667  0.80624148  0.96760615  1
  O2-  O492  1  0.40342087  0.07197381  0.31219449  1
  O2-  O493  1  0.41899145  0.08321833  0.65370090  1
  O2-  O494  1  0.42635907  0.10439160  0.97673080  1
  O2-  O495  1  0.43478651  0.34803641  0.31631448  1
  O2-  O496  1  0.47973184  0.31091270  0.61643602  1
  O2-  O497  1  0.43105203  0.41370976  0.94034692  1
  O2-  O498  1  0.41251619  0.57171655  0.30222504  1
  O2-  O499  1  0.38270752  0.56899229  0.66503865  1
  O2-  O500  1  0.41567093  0.57222584  0.97926015  1
  O2-  O501  1  0.41907284  0.82865177  0.30765599  1
  O2-  O502  1  0.44068461  0.83746505  0.64771135  1
  O2-  O503  1  0.42716548  0.82672566  0.97755276  1
  O2-  O504  1  0.67217711  0.06744075  0.29705692  1
  O2-  O505  1  0.63338513  0.05273847  0.64949083  1
  O2-  O506  1  0.67152913  0.09197836  0.98886590  1
  O2-  O507  1  0.64611457  0.29984066  0.30771075  1
  O2-  O508  1  0.67581509  0.34224985  0.65458530  1
  O2-  O509  1  0.66946152  0.32853242  0.98277277  1
  O2-  O510  1  0.64515768  0.56166457  0.32618225  1
  O2-  O511  1  0.66274536  0.58574070  0.61660553  1
  O2-  O512  1  0.69810140  0.56667000  0.97111733  1
  O2-  O513  1  0.65739429  0.80463184  0.31233711  1
  O2-  O514  1  0.61271549  0.81282552  0.63423914  1
  O2-  O515  1  0.68189723  0.79771421  0.96064874  1
  O2-  O516  1  0.93437229  0.10713198  0.30381241  1
  O2-  O517  1  0.91609558  0.08435878  0.63551241  1
  O2-  O518  1  0.91438261  0.08927053  0.98599463  1
  O2-  O519  1  0.89930830  0.33940653  0.33027761  1
  O2-  O520  1  0.93469756  0.35471398  0.64051564  1
  O2-  O521  1  0.92495508  0.33947328  0.97603021  1
  O2-  O522  1  0.88700884  0.56977843  0.31371053  1
  O2-  O523  1  0.91678995  0.58601359  0.64628225  1
  O2-  O524  1  0.91352520  0.57946631  0.97987201  1
  O2-  O525  1  0.90715285  0.81706603  0.31041535  1
  O2-  O526  1  0.91609695  0.83388996  0.63803832  1
  O2-  O527  1  0.95840371  0.80529269  0.96207553  1
  O2-  O528  1  0.08269968  0.17049013  0.01724229  1
  O2-  O529  1  0.06455249  0.13203111  0.36730251  1
  O2-  O530  1  0.08354703  0.17823196  0.67127335  1
  O2-  O531  1  0.09859172  0.42525191  0.00379402  1
  O2-  O532  1  0.07526693  0.43835267  0.36349352  1
  O2-  O533  1  0.08995308  0.43963819  0.68082069  1
  O2-  O534  1  0.07857510  0.65738562  0.02115540  1
  O2-  O535  1  0.09598485  0.68897255  0.38241051  1
  O2-  O536  1  0.08259162  0.67766516  0.68181469  1
  O2-  O537  1  0.08827837  0.92076826  0.03353947  1
  O2-  O538  1  0.07429812  0.91331175  0.34943330  1
  O2-  O539  1  0.08732885  0.92775568  0.67791740  1
  O2-  O540  1  0.35396138  0.19829010  0.02235455  1
  O2-  O541  1  0.33319610  0.16785326  0.36290299  1
  O2-  O542  1  0.29326134  0.10290263  0.70966632  1
  O2-  O543  1  0.33220530  0.39584139  0.03013187  1
  O2-  O544  1  0.33818617  0.41544033  0.35446473  1
  O2-  O545  1  0.27068213  0.41110809  0.72769396  1
  O2-  O546  1  0.33793179  0.66414224  0.01700421  1
  O2-  O547  1  0.34638217  0.66647364  0.35221856  1
  O2-  O548  1  0.33005524  0.67469239  0.69209880  1
  O2-  O549  1  0.33397828  0.89443610  0.02755970  1
  O2-  O550  1  0.33143910  0.90849445  0.35657433  1
  O2-  O551  1  0.34810522  0.92127178  0.68621298  1
  O2-  O552  1  0.58891168  0.17014220  0.03000344  1
  O2-  O553  1  0.57751173  0.14111378  0.32791384  1
  O2-  O554  1  0.58152355  0.16852734  0.69404070  1
  O2-  O555  1  0.59426869  0.41700118  0.02914710  1
  O2-  O556  1  0.61004269  0.47635311  0.35616955  1
  O2-  O557  1  0.60161273  0.43955036  0.68113234  1
  O2-  O558  1  0.57391937  0.64758456  0.01538688  1
  O2-  O559  1  0.56580189  0.64042980  0.35890418  1
  O2-  O560  1  0.55979603  0.65233804  0.66827714  1
  O2-  O561  1  0.59617157  0.92808289  0.02946886  1
  O2-  O562  1  0.58565258  0.90446541  0.34639442  1
  O2-  O563  1  0.53067495  0.88017511  0.66891915  1
  O2-  O564  1  0.83786552  0.17971239  0.02452160  1
  O2-  O565  1  0.82332210  0.16695791  0.34723043  1
  O2-  O566  1  0.79663526  0.14235584  0.68209710  1
  O2-  O567  1  0.83347602  0.41352305  0.01906479  1
  O2-  O568  1  0.80221311  0.40622539  0.36055927  1
  O2-  O569  1  0.84195388  0.42289930  0.69226108  1
  O2-  O570  1  0.84176199  0.66879240  0.02827798  1
  O2-  O571  1  0.80681681  0.64685881  0.35730420  1
  O2-  O572  1  0.82838745  0.66840097  0.67747987  1
  O2-  O573  1  0.75789604  0.94248484  0.03290228  1
  O2-  O574  1  0.81822727  0.87422515  0.36149921  1
  O2-  O575  1  0.85575202  0.92085954  0.68672940  1
