# generated using pymatgen
data_H2O
_symmetry_space_group_name_H-M   'P 1'
_cell_length_a   17.99174732
_cell_length_b   17.98727154
_cell_length_c   22.00379193
_cell_angle_alpha   89.98914017
_cell_angle_beta   90.00751566
_cell_angle_gamma   119.98888725
_symmetry_Int_Tables_number   1
_chemical_formula_structural   H2O
_chemical_formula_sum   'H384 O192'
_cell_volume   6167.58875853
_cell_formula_units_Z   192
loop_
 _symmetry_equiv_pos_site_id
 _symmetry_equiv_pos_as_xyz
  1  'x, y, z'
loop_
 _atom_type_symbol
 _atom_type_oxidation_number
  H+  1.0
  O2-  -2.0
loop_
 _atom_site_type_symbol
 _atom_site_label
 _atom_site_symmetry_multiplicity
 _atom_site_fract_x
 _atom_site_fract_y
 _atom_site_fract_z
 _atom_site_occupancy
  H+  H0  1  0.11029476  0.97062301  0.16257017  1
  H+  H1  1  0.47577196  0.02962540  0.54317903  1
  H+  H2  1  0.09069428  0.93429153  0.74576272  1
  H+  H3  1  0.86228662  0.88252643  0.32419562  1
  H+  H4  1  1.02370909  0.63282426  0.16158708  1
  H+  H5  1  0.34511403  0.09939675  0.98419072  1
  H+  H6  1  0.36338656  0.89466681  0.83160538  1
  H+  H7  1  0.72866695  0.62361146  0.83614262  1
  H+  H8  1  0.52674936  0.88172323  0.33619538  1
  H+  H9  1  0.34349917  0.21805404  0.15505334  1
  H+  H10  1  0.63387800  0.48533917  0.34798014  1
  H+  H11  1  0.27846318  0.38746517  0.34904016  1
  H+  H12  1  0.61413598  0.97146177  0.33107434  1
  H+  H13  1  0.89125500  0.84765506  1.00133843  1
  H+  H14  1  0.13263402  0.50631514  0.15788645  1
  H+  H15  1  0.90789985  0.83630367  0.26672572  1
  H+  H16  1  0.27595544  0.12674035  0.81368430  1
  H+  H17  1  0.24904942  0.18786643  0.29906760  1
  H+  H18  1  0.47816475  0.57331008  0.86031988  1
  H+  H19  1  0.10929573  0.48750951  0.64546337  1
  H+  H20  1  0.86823916  0.72033737  0.01039180  1
  H+  H21  1  0.63300989  0.86440154  0.32733449  1
  H+  H22  1  0.85520643  0.63842822  0.82853828  1
  H+  H23  1  0.82188282  0.17362780  0.61646330  1
  H+  H24  1  0.85850389  0.38752228  0.01524974  1
  H+  H25  1  0.77482390  0.39606108  1.01295337  1
  H+  H26  1  0.10969054  0.88450601  0.69293721  1
  H+  H27  1  0.09067589  0.66927564  0.06866111  1
  H+  H28  1  0.61343585  0.39000605  0.67807147  1
  H+  H29  1  0.14066601  0.77284531  0.16870154  1
  H+  H30  1  0.38428227  0.86600136  0.99461448  1
  H+  H31  1  0.72953059  0.87474409  0.84221842  1
  H+  H32  1  0.11063378  0.63047324  0.67139664  1
  H+  H33  1  0.36224133  0.13704612  0.15436705  1
  H+  H34  1  0.33090891  0.91413853  0.06928184  1
  H+  H35  1  0.12213974  0.64066413  0.35267052  1
  H+  H36  1  0.27157158  0.88519429  0.15803590  1
  H+  H37  1  0.37935301  0.60041266  0.51185229  1
  H+  H38  1  0.13934617  0.10590109  0.66242331  1
  H+  H39  1  0.22822809  0.88718806  0.84053398  1
  H+  H40  1  0.10934845  0.62547191  0.16043144  1
  H+  H41  1  0.86631913  0.21219382  0.35365995  1
  H+  H42  1  0.57891289  0.91725963  0.73882495  1
  H+  H43  1  0.23353785  0.37074024  -0.01057033  1
  H+  H44  1  0.37230589  0.50716434  0.51276504  1
  H+  H45  1  0.62121048  0.14644098  0.49310975  1
  H+  H46  1  0.38241995  0.76758255  0.17844086  1
  H+  H47  1  0.36706450  0.23459373  0.66657982  1
  H+  H48  1  -0.08025074  0.59026416  0.89131803  1
  H+  H49  1  0.16385009  0.27292396  0.98312706  1
  H+  H50  1  1.09962212  0.94570424  0.32988062  1
  H+  H51  1  0.37424492  0.64138237  0.82207436  1
  H+  H52  1  0.33512936  0.15520310  0.50461708  1
  H+  H53  1  -0.03109362  0.60809177  0.66059200  1
  H+  H54  1  0.76474359  0.39751095  0.82642623  1
  H+  H55  1  0.03660492  0.42974151  0.47964851  1
  H+  H56  1  0.76796862  0.13108019  0.81999673  1
  H+  H57  1  0.38908482  0.77674698  0.66012651  1
  H+  H58  1  0.61705808  0.39253983  0.49410016  1
  H+  H59  1  0.11047720  0.71576152  0.50098083  1
  H+  H60  1  0.73837514  0.12226208  0.50592325  1
  H+  H61  1  0.38684240  0.85643414  0.33031306  1
  H+  H62  1  0.13815228  0.60739653  1.00262382  1
  H+  H63  1  0.08043111  0.40953780  0.09167111  1
  H+  H64  1  0.78404975  0.37693021  0.33009765  1
  H+  H65  1  0.96138481  0.32470147  0.52282960  1
  H+  H66  1  0.64192037  0.28513265  0.50482001  1
  H+  H67  1  0.17253387  0.57435338  0.69925124  1
  H+  H68  1  0.85041882  0.94960332  0.03324843  1
  H+  H69  1  0.64042594  0.49172298  0.16288886  1
  H+  H70  1  0.06290753  0.13594726  0.87078754  1
  H+  H71  1  0.89409692  0.28542203  0.66398537  1
  H+  H72  1  0.12995724  0.49119411  0.50117267  1
  H+  H73  1  0.66331033  0.07958496  0.26194750  1
  H+  H74  1  0.37939585  0.33327062  0.97888608  1
  H+  H75  1  -0.00863459  0.11663002  0.32097871  1
  H+  H76  1  0.84813765  0.11660852  0.36787453  1
  H+  H77  1  0.97429305  0.11210589  0.80212437  1
  H+  H78  1  0.60642853  0.14024825  1.01218060  1
  H+  H79  1  0.38090028  0.77523419  0.99873809  1
  H+  H80  1  0.08540329  0.16132295  0.39501843  1
  H+  H81  1  0.12053592  0.89847601  1.00457598  1
  H+  H82  1  0.08517188  0.66170364  0.41318031  1
  H+  H83  1  0.88645068  0.76311828  0.17694709  1
  H+  H84  1  0.38967681  0.02532693  0.16816513  1
  H+  H85  1  0.85487355  0.62973570  0.16213855  1
  H+  H86  1  0.53575288  0.06370648  0.78019974  1
  H+  H87  1  0.28089312  0.64078596  0.50201617  1
  H+  H88  1  0.88135547  0.35865659  0.17587745  1
  H+  H89  1  0.89704586  0.07287945  1.08919432  1
  H+  H90  1  0.24120575  0.86278079  0.33982349  1
  H+  H91  1  0.48064212  0.36783767  0.66467662  1
  H+  H92  1  0.36567866  0.48076355  0.67272948  1
  H+  H93  1  0.39433853  0.78193666  0.84045016  1
  H+  H94  1  0.63377483  0.36400356  -0.00114365  1
  H+  H95  1  0.14494287  0.76614423  0.34618171  1
  H+  H96  1  0.72066378  0.85491892  0.17970683  1
  H+  H97  1  0.10935649  0.38073125  0.15271781  1
  H+  H98  1  0.36256791  0.22477025  -0.00421356  1
  H+  H99  1  0.52038200  0.89148229  0.83357341  1
  H+  H100  1  0.61045760  0.89153798  0.83086267  1
  H+  H101  1  0.36577704  0.63578020  0.34476317  1
  H+  H102  1  0.98650317  0.62228852  0.33409401  1
  H+  H103  1  0.88339515  0.66106533  0.34642006  1
  H+  H104  1  0.90790141  0.51837631  -0.01614816  1
  H+  H105  1  0.36476630  0.41083093  0.03261271  1
  H+  H106  1  0.88433495  0.02630295  0.64192284  1
  H+  H107  1  0.32697662  0.16352088  0.06014719  1
  H+  H108  1  0.85798807  0.39024425  0.67483863  1
  H+  H109  1  0.12071152  0.01796520  0.50686508  1
  H+  H110  1  0.62906657  0.11654148  0.66025745  1
  H+  H111  1  1.02985697  0.88083545  0.48966689  1
  H+  H112  1  0.63288210  0.28454092  0.84371135  1
  H+  H113  1  0.13517630  0.35471489  0.50980224  1
  H+  H114  1  0.50849687  0.11727622  0.82051955  1
  H+  H115  1  0.61783911  0.23372263  0.01364223  1
  H+  H116  1  0.38573036  0.11976392  0.65782216  1
  H+  H117  1  0.29704747  0.01791486  0.94259734  1
  H+  H118  1  0.00007391  0.36709246  0.85255452  1
  H+  H119  1  0.12084754  0.72949892  0.00894627  1
  H+  H120  1  0.66836321  0.33537462  0.27456434  1
  H+  H121  1  0.61703676  0.73441100  1.01025841  1
  H+  H122  1  0.63796726  0.02307337  0.84222334  1
  H+  H123  1  0.62073838  0.74634173  0.82161464  1
  H+  H124  1  0.58270733  0.12774132  0.32480011  1
  H+  H125  1  0.51985851  0.38918138  0.83387331  1
  H+  H126  1  0.51186293  0.88182789  0.00686961  1
  H+  H127  1  0.47389869  0.61144496  0.65665823  1
  H+  H128  1  0.87136137  0.73996208  0.50077391  1
  H+  H129  1  0.27744088  0.14241880  0.66744664  1
  H+  H130  1  0.13800536  0.06579220  0.56964217  1
  H+  H131  1  0.12416154  0.14382248  0.33318554  1
  H+  H132  1  0.58021715  0.68010976  0.40895206  1
  H+  H133  1  0.13390563  0.08209391  0.83092294  1
  H+  H134  1  0.89036774  0.87449938  0.65871416  1
  H+  H135  1  0.84817955  0.22758757  1.00614718  1
  H+  H136  1  0.41758021  0.58098191  0.93789170  1
  H+  H137  1  0.14388035  0.10498395  0.16916828  1
  H+  H138  1  0.39334661  0.37072195  0.66028133  1
  H+  H139  1  0.18063210  0.33068023  0.88841987  1
  H+  H140  1  0.29121817  0.11850628  0.34087290  1
  H+  H141  1  0.83729359  0.22549122  0.50496314  1
  H+  H142  1  0.82515044  0.65899926  0.74013705  1
  H+  H143  1  0.84443722  0.26202205  0.84788402  1
  H+  H144  1  0.34573688  0.67350785  0.76301668  1
  H+  H145  1  0.63579857  0.28229393  0.65491332  1
  H+  H146  1  0.76382196  0.89039128  0.32909335  1
  H+  H147  1  0.56174267  0.39870358  0.16773258  1
  H+  H148  1  0.48286038  0.61362360  -0.00609346  1
  H+  H149  1  0.80306508  0.86350714  0.49705687  1
  H+  H150  1  0.24495388  0.35256521  0.83193139  1
  H+  H151  1  0.89645549  0.34157935  0.32712041  1
  H+  H152  1  0.13706435  0.35293026  0.78726853  1
  H+  H153  1  0.97603389  0.11091523  0.65034210  1
  H+  H154  1  0.62469697  0.39158443  0.34777677  1
  H+  H155  1  0.12081482  0.48367078  0.33525498  1
  H+  H156  1  0.52921248  0.66572544  0.80951582  1
  H+  H157  1  0.27367895  0.64321671  0.01716137  1
  H+  H158  1  0.84626535  0.21603653  0.16146162  1
  H+  H159  1  0.14248146  0.61338696  0.52074276  1
  H+  H160  1  0.22763945  0.84962293  0.50226014  1
  H+  H161  1  0.85252569  0.62328201  0.67775144  1
  H+  H162  1  0.14109432  0.50956450  0.84874683  1
  H+  H163  1  0.34191947  0.37148336  0.16847172  1
  H+  H164  1  0.07377474  0.13125643  -0.01048023  1
  H+  H165  1  0.22971685  0.10066492  0.16723628  1
  H+  H166  1  0.88093553  0.52471938  0.50287645  1
  H+  H167  1  0.64599002  0.27511068  0.17868417  1
  H+  H168  1  0.72231039  0.10922583  0.17001695  1
  H+  H169  1  0.40083215  0.37398718  0.50673556  1
  H+  H170  1  0.10116465  0.71503217  0.66545496  1
  H+  H171  1  0.64122153  0.61403374  0.66313959  1
  H+  H172  1  0.67275246  0.63727657  0.32222432  1
  H+  H173  1  0.64730092  0.84422002  0.59454563  1
  H+  H174  1  0.57240065  0.60517404  0.36559213  1
  H+  H175  1  0.26187089  0.66691023  0.85008676  1
  H+  H176  1  0.39066776  0.12309421  0.82991087  1
  H+  H177  1  0.13085949  0.92926013  0.83730948  1
  H+  H178  1  0.87397435  0.53157590  0.83473666  1
  H+  H179  1  0.13729379  0.80402269  0.83493154  1
  H+  H180  1  0.57944131  0.16984428  0.72387910  1
  H+  H181  1  0.85870910  0.73064823  0.82562137  1
  H+  H182  1  -0.01450091  0.34414911  0.33006015  1
  H+  H183  1  0.76870054  0.86042890  0.01824681  1
  H+  H184  1  0.84060932  0.34883381  0.85045222  1
  H+  H185  1  0.63482928  0.52034849  0.67202621  1
  H+  H186  1  0.72511676  0.63193026  0.50130565  1
  H+  H187  1  0.11582247  0.21370270  0.67194141  1
  H+  H188  1  0.62935397  0.87822143  -0.00350499  1
  H+  H189  1  0.14477725  1.02119345  0.66685895  1
  H+  H190  1  0.89359726  0.86591863  0.85366760  1
  H+  H191  1  0.52120818  0.14506080  0.66501024  1
  H+  H192  1  0.24379256  0.87817946  0.66200762  1
  H+  H193  1  0.61300388  0.13924743  0.16387580  1
  H+  H194  1  0.85855586  0.86559902  0.17373253  1
  H+  H195  1  0.60227908  0.75427754  0.48949160  1
  H+  H196  1  0.28132847  0.38565229  0.67175804  1
  H+  H197  1  0.60642189  0.97581065  0.67874189  1
  H+  H198  1  0.10474894  0.37449800  -0.00561205  1
  H+  H199  1  0.51129113  0.36310789  1.00384168  1
  H+  H200  1  0.14495175  0.27741587  0.33462968  1
  H+  H201  1  0.36250590  0.49377265  0.01287100  1
  H+  H202  1  0.72388795  0.92515231  0.97330095  1
  H+  H203  1  0.98798919  0.38364116  0.82485558  1
  H+  H204  1  0.62862272  0.86272456  0.66218926  1
  H+  H205  1  0.27241080  0.62617909  0.16522638  1
  H+  H206  1  1.03655840  0.12168339  0.14575645  1
  H+  H207  1  0.14803949  0.36779268  0.33355060  1
  H+  H208  1  0.74866173  0.61652733  0.67770466  1
  H+  H209  1  0.39163228  0.27325805  0.83631543  1
  H+  H210  1  -0.00032291  0.60274031  -0.01757295  1
  H+  H211  1  0.11558925  0.87558343  0.48620880  1
  H+  H212  1  0.35109580  0.33033710  0.31926491  1
  H+  H213  1  0.13142501  0.26856428  0.16596346  1
  H+  H214  1  0.88552577  0.61671169  0.50739006  1
  H+  H215  1  0.35074934  0.97091549  0.00773946  1
  H+  H216  1  0.75626179  0.63557898  0.99852819  1
  H+  H217  1  0.88229429  0.78753572  0.33219566  1
  H+  H218  1  0.39469995  0.77135008  0.50952548  1
  H+  H219  1  0.47784996  0.86567934  0.66298758  1
  H+  H220  1  0.10426944  0.51777746  0.85281900  1
  H+  H221  1  0.61402817  0.72791439  0.65917041  1
  H+  H222  1  0.91441948  0.32132025  0.22860678  1
  H+  H223  1  0.47073758  0.85739403  0.17678336  1
  H+  H224  1  1.01939136  0.62739534  0.50169464  1
  H+  H225  1  0.61485282  0.67004547  0.49221707  1
  H+  H226  1  0.10649909  0.46409269  -0.00139687  1
  H+  H227  1  0.22574474  0.86508304  0.99454113  1
  H+  H228  1  0.89627022  0.99971969  0.16713771  1
  H+  H229  1  -0.01870155  0.37692754  0.65064121  1
  H+  H230  1  0.61421873  0.72505743  0.16121937  1
  H+  H231  1  0.97849131  0.87480311  0.66730732  1
  H+  H232  1  0.75941262  0.89055389  0.65574185  1
  H+  H233  1  0.47467041  0.61873568  0.33248903  1
  H+  H234  1  0.86714144  -0.01744300  0.80907826  1
  H+  H235  1  0.53670172  0.14925507  0.48948358  1
  H+  H236  1  0.63899505  0.77630503  0.33097984  1
  H+  H237  1  0.76581383  0.63028107  0.16402536  1
  H+  H238  1  0.12875891  0.21742758  0.83418764  1
  H+  H239  1  0.63592900  0.54654992  0.49930411  1
  H+  H240  1  0.71481656  0.10874010  0.32504982  1
  H+  H241  1  0.36011688  0.88380714  0.16068827  1
  H+  H242  1  0.89854563  0.53456106  0.32869546  1
  H+  H243  1  0.98399719  0.85664947  0.99812007  1
  H+  H244  1  0.71040605  0.10878297  0.99634565  1
  H+  H245  1  0.24471783  0.62760503  0.33642569  1
  H+  H246  1  0.22694431  0.13368396  0.99980183  1
  H+  H247  1  0.36914376  0.47407135  0.34661979  1
  H+  H248  1  0.88550889  0.11239218  0.79663103  1
  H+  H249  1  0.36451338  0.63164901  0.16765597  1
  H+  H250  1  0.13750155  0.85951800  0.16742690  1
  H+  H251  1  0.14281688  0.34051612  0.66547261  1
  H+  H252  1  0.37228301  0.89287619  0.67566926  1
  H+  H253  1  0.11258595  0.98454054  0.00625625  1
  H+  H254  1  0.47805474  0.60685200  0.17503205  1
  H+  H255  1  0.63927632  0.00544795  0.51651110  1
  H+  H256  1  0.60673814  0.88110180  0.16220705  1
  H+  H257  1  0.60879082  0.48174752  0.83243525  1
  H+  H258  1  0.63878998  0.11105412  0.84007268  1
  H+  H259  1  0.85964550  0.38691272  0.49061639  1
  H+  H260  1  0.13895544  0.85751257  0.33663569  1
  H+  H261  1  0.93686809  0.09107728  1.02370615  1
  H+  H262  1  0.40435113  0.09908765  0.32675656  1
  H+  H263  1  0.36683843  0.98600929  0.82720843  1
  H+  H264  1  0.36333258  0.87338508  0.49225320  1
  H+  H265  1  0.65283783  0.63464508  0.99181070  1
  H+  H266  1  0.27240507  0.37159156  0.49576814  1
  H+  H267  1  0.36135992  0.95986719  0.49572028  1
  H+  H268  1  0.85851006  0.98217736  0.32353419  1
  H+  H269  1  0.60004129  0.97354999  0.00850867  1
  H+  H270  1  0.36863747  0.20766081  0.33827636  1
  H+  H271  1  0.64059745  0.62572942  0.83712661  1
  H+  H272  1  0.09536240  0.41158074  0.68903456  1
  H+  H273  1  0.71474337  0.10823658  0.66216001  1
  H+  H274  1  0.47819906  0.11547846  0.17142205  1
  H+  H275  1  0.37490889  0.38057575  0.82640189  1
  H+  H276  1  0.09983124  0.12881009  0.49344358  1
  H+  H277  1  0.53575859  0.86955331  0.50875228  1
  H+  H278  1  0.42898506  0.33832592  0.17661919  1
  H+  H279  1  0.85670019  0.47834998  0.67326778  1
  H+  H280  1  0.63052654  0.02092787  0.17231692  1
  H+  H281  1  0.78152561  0.39166981  0.16707362  1
  H+  H282  1  0.92435094  0.14027050  0.29227054  1
  H+  H283  1  0.38770112  0.50870210  0.83505449  1
  H+  H284  1  0.97641735  0.85459782  0.17541939  1
  H+  H285  1  0.13801197  0.68571768  0.82682025  1
  H+  H286  1  0.84094227  0.13446400  0.01651611  1
  H+  H287  1  0.38879504  0.03103161  0.66528154  1
  H+  H288  1  0.31802203  0.14591047  0.43516502  1
  H+  H289  1  0.62959506  0.27043086  0.32996666  1
  H+  H290  1  0.68578451  0.59245813  0.26364205  1
  H+  H291  1  0.88491513  0.32189360  0.94116460  1
  H+  H292  1  0.27890390  0.64584136  0.66814912  1
  H+  H293  1  0.96359348  0.35344813  0.99054135  1
  H+  H294  1  0.66616480  0.84350820  0.89975126  1
  H+  H295  1  0.65513331  0.07762869  0.93611163  1
  H+  H296  1  0.42466148  0.06953911  0.57161841  1
  H+  H297  1  0.57449851  0.40585885  0.06161386  1
  H+  H298  1  0.12930187  0.26286212  0.50485648  1
  H+  H299  1  0.09227514  0.68804102  0.76537982  1
  H+  H300  1  0.93292586  0.85228987  0.57375616  1
  H+  H301  1  0.38716655  0.51804283  0.18156199  1
  H+  H302  1  0.08214450  0.89933430  0.39486905  1
  H+  H303  1  0.16792889  0.31850322  0.60122881  1
  H+  H304  1  0.33529337  0.67844098  0.07478890  1
  H+  H305  1  0.91816507  0.08964633  0.54634072  1
  H+  H306  1  0.77310446  0.38978155  0.48584674  1
  H+  H307  1  0.24681652  0.72206664  0.89847957  1
  H+  H308  1  0.34503335  0.41146198  0.76458937  1
  H+  H309  1  0.67185728  0.34057332  0.94133563  1
  H+  H310  1  0.86609393  0.13331499  0.65365784  1
  H+  H311  1  0.81584152  0.94514877  0.71123249  1
  H+  H312  1  0.07864327  0.91551504  0.10154798  1
  H+  H313  1  0.97239110  0.08288360  0.93044505  1
  H+  H314  1  0.58945271  0.42256065  0.42886978  1
  H+  H315  1  0.04943677  0.34769274  0.77339317  1
  H+  H316  1  0.35743961  0.29372815  0.25200765  1
  H+  H317  1  0.84314420  0.40880773  0.38732721  1
  H+  H318  1  0.65724633  0.36927478  0.17540189  1
  H+  H319  1  0.01831181  0.13680348  0.48093252  1
  H+  H320  1  0.90580822  0.32957687  0.57663946  1
  H+  H321  1  0.42172495  0.06886267  0.26320168  1
  H+  H322  1  0.87717937  1.02354261  0.49359000  1
  H+  H323  1  0.51697011  0.39121995  0.49765435  1
  H+  H324  1  0.93806958  0.09198309  0.91887704  1
  H+  H325  1  0.62933849  0.37142439  0.84408719  1
  H+  H326  1  0.41761789  0.31889127  0.90427391  1
  H+  H327  1  0.19612810  0.63835427  0.28018051  1
  H+  H328  1  0.81154612  0.16196333  0.44226442  1
  H+  H329  1  0.90751195  0.58005405  0.60186590  1
  H+  H330  1  0.33786613  0.17058565  0.75676139  1
  H+  H331  1  0.41496679  0.83578326  0.90343183  1
  H+  H332  1  0.83814777  0.42619761  0.10596526  1
  H+  H333  1  0.19818158  0.91780624  0.62564621  1
  H+  H334  1  0.34112843  0.92233349  0.73588031  1
  H+  H335  1  0.40684715  0.08834850  0.89336012  1
  H+  H336  1  0.33787297  0.66721101  0.44091074  1
  H+  H337  1  0.72506207  0.37058121  0.65874993  1
  H+  H338  1  0.93059375  0.08057891  0.20997919  1
  H+  H339  1  0.33676663  0.91253615  0.40013087  1
  H+  H340  1  0.82407748  0.41967040  0.76727391  1
  H+  H341  1  0.21231604  0.35878732  0.17955773  1
  H+  H342  1  0.36586934  0.96895687  0.33632023  1
  H+  H343  1  0.17733839  0.59176266  0.94400064  1
  H+  H344  1  0.43893308  0.35345767  0.56754500  1
  H+  H345  1  0.40642990  0.57365512  0.60072872  1
  H+  H346  1  0.88728782  0.52681992  0.17632291  1
  H+  H347  1  0.65592680  0.07084403  0.57296871  1
  H+  H348  1  0.09987433  0.43300810  0.39748045  1
  H+  H349  1  0.82330323  0.88532323  0.11358441  1
  H+  H350  1  0.33440424  0.40824898  0.43683737  1
  H+  H351  1  0.36934078  0.72759959  0.34563968  1
  H+  H352  1  0.93215397  0.90490711  0.51602701  1
  H+  H353  1  0.62185597  0.63950597  0.16003885  1
  H+  H354  1  0.41796293  0.58512168  0.27185342  1
  H+  H355  1  0.73766214  0.89698537  0.50115702  1
  H+  H356  1  0.59100456  0.67771283  0.72149661  1
  H+  H357  1  0.67110155  0.34786136  0.56250978  1
  H+  H358  1  0.58242795  0.41652752  0.73995483  1
  H+  H359  1  0.31824006  0.42206081  0.11647567  1
  H+  H360  1  0.17766596  0.58838422  0.57953347  1
  H+  H361  1  0.59358317  0.67270151  0.06814699  1
  H+  H362  1  0.91989786  0.59193355  0.23338851  1
  H+  H363  1  0.10806427  0.15831878  0.09287639  1
  H+  H364  1  0.58682938  0.17464322  0.10531540  1
  H+  H365  1  0.17107778  0.82682439  0.56229624  1
  H+  H366  1  0.18727310  0.10434381  0.26062940  1
  H+  H367  1  0.79179816  0.65270101  0.34210651  1
  H+  H368  1  0.65721430  0.82697984  0.23599728  1
  H+  H369  1  0.83760614  0.88933714  0.78214882  1
  H+  H370  1  0.07521352  0.15035260  0.72852794  1
  H+  H371  1  0.36557207  0.63915272  0.66795082  1
  H+  H372  1  0.84522744  0.68545378  0.43984727  1
  H+  H373  1  0.41364106  0.82562086  0.27016698  1
  H+  H374  1  0.15306020  0.54899456  0.22323094  1
  H+  H375  1  0.81780874  0.17430910  0.75862007  1
  H+  H376  1  0.59637390  0.54537107  0.21047597  1
  H+  H377  1  0.68332741  0.60633765  0.92932785  1
  H+  H378  1  0.57422841  0.90909268  0.10320324  1
  H+  H379  1  0.42150614  0.83392527  0.56747590  1
  H+  H380  1  0.82242926  0.65775024  0.06924497  1
  H+  H381  1  0.91984791  0.82220446  0.90445668  1
  H+  H382  1  0.16693361  0.84400112  0.93424232  1
  H+  H383  1  0.81113730  0.16367015  0.10057590  1
  O2-  O384  1  0.09917476  0.15891608  0.13699100  1
  O2-  O385  1  0.08194089  0.16725962  0.47222736  1
  O2-  O386  1  0.08888970  0.15271632  0.83044178  1
  O2-  O387  1  0.08844012  0.41942428  0.13590871  1
  O2-  O388  1  0.09303609  0.43453719  0.47954901  1
  O2-  O389  1  0.10326155  0.36021347  0.75412935  1
  O2-  O390  1  0.08401099  0.66072181  0.14643221  1
  O2-  O391  1  0.08069205  0.65384701  0.48812536  1
  O2-  O392  1  0.10547501  0.71001091  0.80750838  1
  O2-  O393  1  0.07518615  0.91008162  0.14658773  1
  O2-  O394  1  0.08588497  0.90425485  0.46809201  1
  O2-  O395  1  0.10444542  0.96322391  0.82015496  1
  O2-  O396  1  0.32517340  0.15814384  0.13656280  1
  O2-  O397  1  0.28891744  0.13505435  0.47508875  1
  O2-  O398  1  0.33654691  0.16629130  0.80252383  1
  O2-  O399  1  0.32409545  0.41840644  0.16069115  1
  O2-  O400  1  0.33333318  0.40503840  0.48287131  1
  O2-  O401  1  0.34382795  0.41093396  0.81030932  1
  O2-  O402  1  0.33427259  0.66275120  0.15432663  1
  O2-  O403  1  0.34080462  0.66954517  0.48625649  1
  O2-  O404  1  0.35110035  0.67787464  0.80853041  1
  O2-  O405  1  0.33340452  0.91594939  0.14310906  1
  O2-  O406  1  0.32971322  0.90099935  0.47777171  1
  O2-  O407  1  0.33490488  0.92481257  0.81327606  1
  O2-  O408  1  0.58562034  0.17349530  0.15140351  1
  O2-  O409  1  0.59909538  0.18520332  0.48435137  1
  O2-  O410  1  0.55956194  0.12152118  0.79684551  1
  O2-  O411  1  0.61553237  0.43054871  0.14574386  1
  O2-  O412  1  0.58538809  0.42222580  0.47772840  1
  O2-  O413  1  0.58097031  0.42147087  0.81766954  1
  O2-  O414  1  0.58908083  0.66657194  0.14232058  1
  O2-  O415  1  0.58292869  0.69566241  0.47279670  1
  O2-  O416  1  0.59054489  0.68730665  0.80296326  1
  O2-  O417  1  0.57458961  0.90994728  0.14843606  1
  O2-  O418  1  0.59868453  0.90458377  0.49992160  1
  O2-  O419  1  0.58037193  0.92232826  0.81640848  1
  O2-  O420  1  0.81610551  0.15581645  0.14463234  1
  O2-  O421  1  0.80306420  0.16518799  0.48828313  1
  O2-  O422  1  0.82660046  0.16451843  0.80099323  1
  O2-  O423  1  0.84184900  0.42777350  0.15169766  1
  O2-  O424  1  0.83411362  0.41815007  0.47119609  1
  O2-  O425  1  0.82527903  0.42319547  0.81246950  1
  O2-  O426  1  0.82409949  0.65986233  0.14631448  1
  O2-  O427  1  0.84188811  0.68034891  0.48510866  1
  O2-  O428  1  0.82500246  0.66991474  0.80996431  1
  O2-  O429  1  0.82693244  0.89502177  0.15828910  1
  O2-  O430  1  0.79944349  0.91511792  0.49087219  1
  O2-  O431  1  0.83322777  0.91816552  0.81836140  1
  O2-  O432  1  0.17035027  0.07199433  0.18621384  1
  O2-  O433  1  0.10284317  0.05112983  0.53233373  1
  O2-  O434  1  0.16741385  0.05214095  0.83636180  1
  O2-  O435  1  0.14867528  0.32587109  0.18232714  1
  O2-  O436  1  0.16147384  0.32167314  0.52474690  1
  O2-  O437  1  0.18218618  0.32058830  0.84384962  1
  O2-  O438  1  0.16207283  0.56693155  0.18078085  1
  O2-  O439  1  0.17725242  0.58698071  0.53412044  1
  O2-  O440  1  0.21689797  0.66921266  0.87510091  1
  O2-  O441  1  0.17275200  0.83417520  0.18049386  1
  O2-  O442  1  0.16662989  0.82079344  0.51752560  1
  O2-  O443  1  0.16818100  0.86281112  0.85525041  1
  O2-  O444  1  0.41685877  0.08446149  0.18531311  1
  O2-  O445  1  0.43825672  0.05192424  0.53168745  1
  O2-  O446  1  0.41979291  0.09286183  0.84866364  1
  O2-  O447  1  0.36754469  0.30627186  0.18318839  1
  O2-  O448  1  0.44215942  0.35551995  0.52201452  1
  O2-  O449  1  0.42045767  0.33068293  0.85571575  1
  O2-  O450  1  0.42021537  0.58090049  0.19372533  1
  O2-  O451  1  0.39895511  0.56439973  0.53261510  1
  O2-  O452  1  0.42326211  0.56977356  0.85145813  1
  O2-  O453  1  0.41072659  0.82847151  0.19303413  1
  O2-  O454  1  0.42547365  0.83362625  0.52212523  1
  O2-  O455  1  0.41772009  0.84082663  0.85745723  1
  O2-  O456  1  0.66111051  0.08104266  0.18719075  1
  O2-  O457  1  0.65923497  0.06777953  0.52741482  1
  O2-  O458  1  0.67171213  0.08449769  0.85609000  1
  O2-  O459  1  0.68065241  0.33541107  0.19496032  1
  O2-  O460  1  0.67103838  0.34774572  0.51702398  1
  O2-  O461  1  0.66310137  0.34347414  0.85822668  1
  O2-  O462  1  0.65627033  0.57804796  0.19752446  1
  O2-  O463  1  0.66299053  0.60800747  0.50833002  1
  O2-  O464  1  0.66830394  0.59488921  0.85443840  1
  O2-  O465  1  0.65847836  0.82680922  0.19033096  1
  O2-  O466  1  0.63632707  0.85283217  0.52280255  1
  O2-  O467  1  0.66747832  0.84335885  0.85446102  1
  O2-  O468  1  0.93301776  0.06400631  0.16771726  1
  O2-  O469  1  0.91575114  0.08581268  0.50158290  1
  O2-  O470  1  0.91490726  0.07915053  0.78703574  1
  O2-  O471  1  0.89729737  0.31459857  0.18583413  1
  O2-  O472  1  0.90570411  0.32011096  0.53048254  1
  O2-  O473  1  0.83762772  0.30110803  0.87541729  1
  O2-  O474  1  0.91666024  0.58976401  0.18835848  1
  O2-  O475  1  0.91227576  0.58262301  0.52209927  1
  O2-  O476  1  0.89891146  0.59151637  0.84937134  1
  O2-  O477  1  0.91669562  0.82298621  0.19337986  1
  O2-  O478  1  0.93397963  0.85327643  0.52703241  1
  O2-  O479  1  0.91531361  0.82612122  0.85973612  1
  O2-  O480  1  0.19957401  0.12717321  0.30322780  1
  O2-  O481  1  0.17407751  0.07982788  0.64860386  1
  O2-  O482  1  0.16240652  0.10385497  0.98611549  1
  O2-  O483  1  0.18240246  0.33964605  0.32730514  1
  O2-  O484  1  0.17416872  0.31503684  0.64655768  1
  O2-  O485  1  0.17823272  0.33055608  0.96858512  1
  O2-  O486  1  0.18443740  0.60509731  0.31759740  1
  O2-  O487  1  0.16639325  0.59048010  0.65796670  1
  O2-  O488  1  0.16645155  0.57495799  0.98718349  1
  O2-  O489  1  0.17531204  0.82665329  0.32833096  1
  O2-  O490  1  0.18709100  0.86275556  0.64203882  1
  O2-  O491  1  0.16516444  0.83984131  0.97961117  1
  O2-  O492  1  0.42091787  0.05882075  0.30809196  1
  O2-  O493  1  0.41769408  0.08905689  0.64585439  1
  O2-  O494  1  0.35351336  0.05466839  0.96044689  1
  O2-  O495  1  0.34612255  0.27966590  0.29800044  1
  O2-  O496  1  0.42279454  0.33953643  0.64472508  1
  O2-  O497  1  0.41292295  0.30634467  0.96852365  1
  O2-  O498  1  0.41437876  0.58557973  0.31736199  1
  O2-  O499  1  0.41142863  0.58088702  0.64758581  1
  O2-  O500  1  0.42149956  0.58240677  0.98244797  1
  O2-  O501  1  0.41560945  0.82452578  0.31585866  1
  O2-  O502  1  0.41806860  0.83833418  0.64634854  1
  O2-  O503  1  0.41350629  0.83479537  0.97874021  1
  O2-  O504  1  0.65723928  0.07472114  0.30763810  1
  O2-  O505  1  0.65411787  0.07930696  0.64851246  1
  O2-  O506  1  0.64976422  0.07311361  0.98108841  1
  O2-  O507  1  0.66842461  0.33402521  0.31992534  1
  O2-  O508  1  0.66506511  0.34359997  0.64192680  1
  O2-  O509  1  0.67234525  0.33997707  0.98620934  1
  O2-  O510  1  0.69454069  0.59895901  0.31117090  1
  O2-  O511  1  0.67202889  0.58099529  0.65736246  1
  O2-  O512  1  0.68715414  0.60902531  0.97515390  1
  O2-  O513  1  0.66679073  0.83395481  0.31261631  1
  O2-  O514  1  0.65802360  0.83691953  0.63922876  1
  O2-  O515  1  0.67623949  0.86659476  0.97859518  1
  O2-  O516  1  0.93088544  0.09095677  0.30184884  1
  O2-  O517  1  0.91815761  0.08876873  0.63175551  1
  O2-  O518  1  0.88290545  0.05815214  1.04552866  1
  O2-  O519  1  0.92411984  0.30627898  0.31907835  1
  O2-  O520  1  0.91495758  0.34325197  0.64689294  1
  O2-  O521  1  0.90012549  0.32510292  0.98566933  1
  O2-  O522  1  0.92690210  0.59618697  0.31783117  1
  O2-  O523  1  0.90704615  0.57942928  0.64732241  1
  O2-  O524  1  0.95068699  0.56323318  0.95669042  1
  O2-  O525  1  0.90079310  0.84408200  0.31130879  1
  O2-  O526  1  0.92355123  0.84775890  0.64478566  1
  O2-  O527  1  0.92257987  0.81948846  0.98521619  1
  O2-  O528  1  0.13009260  0.15972864  0.00941633  1
  O2-  O529  1  0.08336082  0.16233589  0.34940396  1
  O2-  O530  1  0.07829841  0.15173368  0.68416463  1
  O2-  O531  1  0.07226263  0.40174017  0.00920957  1
  O2-  O532  1  0.09255541  0.42545899  0.35276936  1
  O2-  O533  1  0.07896165  0.42185803  0.64826096  1
  O2-  O534  1  0.09655497  0.66957567  0.02340354  1
  O2-  O535  1  0.09004668  0.66920544  0.36747773  1
  O2-  O536  1  0.07285393  0.65783037  0.68342227  1
  O2-  O537  1  0.08619694  0.92450564  0.02056623  1
  O2-  O538  1  0.08354329  0.89103789  0.34930644  1
  O2-  O539  1  0.08437082  0.92092501  0.70113469  1
  O2-  O540  1  0.31995933  0.16179861  0.01463322  1
  O2-  O541  1  0.35103926  0.15006300  0.35594365  1
  O2-  O542  1  0.33889590  0.17371626  0.68163127  1
  O2-  O543  1  0.32549490  0.43326685  0.03058782  1
  O2-  O544  1  0.34089164  0.41454909  0.36244549  1
  O2-  O545  1  0.34064936  0.41974291  0.68818473  1
  O2-  O546  1  0.33233581  0.68625260  0.03034673  1
  O2-  O547  1  0.33667367  0.66688245  0.36201373  1
  O2-  O548  1  0.33938994  0.67347279  0.68410701  1
  O2-  O549  1  0.32850394  0.91161287  0.02305762  1
  O2-  O550  1  0.33167940  0.90807771  0.35480640  1
  O2-  O551  1  0.34281052  0.92468715  0.69030266  1
  O2-  O552  1  0.58392676  0.17484366  0.03096850  1
  O2-  O553  1  0.56516754  0.16769560  0.34153446  1
  O2-  O554  1  0.58303600  0.17497039  0.67879779  1
  O2-  O555  1  0.57240770  0.39992783  0.01721620  1
  O2-  O556  1  0.60003443  0.42687057  0.36486473  1
  O2-  O557  1  0.58153980  0.41815072  0.69441302  1
  O2-  O558  1  0.59484124  0.67451688  0.02180811  1
  O2-  O559  1  0.57794314  0.66183199  0.36229122  1
  O2-  O560  1  0.58776209  0.66885472  0.67687461  1
  O2-  O561  1  0.57296033  0.91190142  0.02264404  1
  O2-  O562  1  0.58864523  0.91125268  0.34666534  1
  O2-  O563  1  0.57871327  0.91540352  0.69334721  1
  O2-  O564  1  0.80968324  0.16584906  0.02020113  1
  O2-  O565  1  0.82532455  0.15534805  0.37388748  1
  O2-  O566  1  0.83100508  0.16381117  0.65875327  1
  O2-  O567  1  0.83512489  0.42463934  0.02903343  1
  O2-  O568  1  0.84583955  0.40578462  0.34249047  1
  O2-  O569  1  0.82428331  0.41739459  0.68832189  1
  O2-  O570  1  0.82529416  0.65975821  0.02347234  1
  O2-  O571  1  0.85075628  0.68934191  0.36014501  1
  O2-  O572  1  0.81883488  0.65017100  0.69368190  1
  O2-  O573  1  0.82727651  0.88624138  0.03486095  1
  O2-  O574  1  0.82847712  0.92222737  0.33902702  1
  O2-  O575  1  0.82098514  0.92475119  0.67131734  1
