# generated using pymatgen
data_H2O
_symmetry_space_group_name_H-M   'P 1'
_cell_length_a   17.97626984
_cell_length_b   17.98432259
_cell_length_c   22.01305948
_cell_angle_alpha   89.99600711
_cell_angle_beta   90.01036770
_cell_angle_gamma   119.98243097
_symmetry_Int_Tables_number   1
_chemical_formula_structural   H2O
_chemical_formula_sum   'H384 O192'
_cell_volume   6164.26858412
_cell_formula_units_Z   192
loop_
 _symmetry_equiv_pos_site_id
 _symmetry_equiv_pos_as_xyz
  1  'x, y, z'
loop_
 _atom_type_symbol
 _atom_type_oxidation_number
  H+  1.0
  O2-  -2.0
loop_
 _atom_site_type_symbol
 _atom_site_label
 _atom_site_symmetry_multiplicity
 _atom_site_fract_x
 _atom_site_fract_y
 _atom_site_fract_z
 _atom_site_occupancy
  H+  H0  1  0.86284475  0.23348511  0.67583958  1
  H+  H1  1  0.47658732  0.32719851  0.30734142  1
  H+  H2  1  0.76902705  0.14284713  0.34274536  1
  H+  H3  1  0.04113227  0.28389124  0.51147247  1
  H+  H4  1  0.14390040  0.63273014  0.50124683  1
  H+  H5  1  0.12110446  0.42399742  0.48429328  1
  H+  H6  1  0.76466122  0.35446306  0.18963005  1
  H+  H7  1  0.76350728  0.88059427  0.98230717  1
  H+  H8  1  0.39283256  0.61873034  0.17864380  1
  H+  H9  1  0.33794597  0.17930785  0.18336980  1
  H+  H10  1  0.13093340  0.52916132  0.65951046  1
  H+  H11  1  0.12792707  0.11591095  0.32313731  1
  H+  H12  1  0.61028154  0.12689292  0.64927136  1
  H+  H13  1  0.86317894  0.89393129  0.67570663  1
  H+  H14  1  0.03056089  0.64568219  0.01349966  1
  H+  H15  1  0.87034382  0.73960931  0.34867909  1
  H+  H16  1  0.73854956  0.10869364  0.49875723  1
  H+  H17  1  0.10130169  0.96202020  0.16284798  1
  H+  H18  1  0.13351809  0.24791505  0.99108953  1
  H+  H19  1  0.11172160  0.73486727  0.49004511  1
  H+  H20  1  0.86121324  0.06590159  0.17896786  1
  H+  H21  1  0.77512411  0.62998556  1.01028075  1
  H+  H22  1  0.46867189  0.84953894  0.66767101  1
  H+  H23  1  0.37579667  0.97996397  0.00650521  1
  H+  H24  1  0.14202944  0.32133010  0.50670543  1
  H+  H25  1  0.13328503  0.85524024  0.31903865  1
  H+  H26  1  0.40258739  0.01806711  0.17556463  1
  H+  H27  1  0.86677128  0.88681642  0.34920219  1
  H+  H28  1  0.64370025  0.52407790  0.17607024  1
  H+  H29  1  0.60809946  0.24914397  0.64297732  1
  H+  H30  1  0.42614761  0.32892938  0.60506764  1
  H+  H31  1  0.72705844  0.12655872  0.65153728  1
  H+  H32  1  0.13185508  0.76556590  0.32203664  1
  H+  H33  1  0.19632411  0.37673729  0.63712406  1
  H+  H34  1  0.13633141  0.51093505  0.18232831  1
  H+  H35  1  0.36712880  0.73587066  0.18054165  1
  H+  H36  1  0.47926933  0.36509663  0.84641822  1
  H+  H37  1  0.22740616  0.11474460  0.66467320  1
  H+  H38  1  0.49256852  0.36243106  0.66237524  1
  H+  H39  1  0.88296158  1.02209248  -0.02073710  1
  H+  H40  1  0.73283288  0.61385233  0.66394278  1
  H+  H41  1  0.62512002  0.03466830  0.33745146  1
  H+  H42  1  0.31699816  0.29887106  0.54359091  1
  H+  H43  1  0.87606254  0.85758361  0.50856617  1
  H+  H44  1  0.10658108  0.37992192  0.17068173  1
  H+  H45  1  0.28890084  0.36138070  0.68228681  1
  H+  H46  1  0.58371188  0.40830239  0.77312955  1
  H+  H47  1  0.87156805  0.64687817  0.67038466  1
  H+  H48  1  0.38797353  0.09700590  0.17750578  1
  H+  H49  1  0.27389545  0.38288999  0.82855788  1
  H+  H50  1  1.01485357  0.60675316  0.16141393  1
  H+  H51  1  0.85650268  0.13914369  0.33642209  1
  H+  H52  1  0.38209940  0.59977365  0.65595239  1
  H+  H53  1  0.12829082  0.60107307  0.85099412  1
  H+  H54  1  0.22296279  0.86092963  0.65695877  1
  H+  H55  1  0.90515201  0.50115735  0.17370538  1
  H+  H56  1  0.22576980  0.60411162  0.18787277  1
  H+  H57  1  0.28704340  0.38127154  0.34386777  1
  H+  H58  1  0.69745686  0.32830037  0.62620468  1
  H+  H59  1  0.47963022  0.11280815  0.46388636  1
  H+  H60  1  0.10865022  0.46880372  0.84102364  1
  H+  H61  1  0.73084525  0.87119560  0.35410346  1
  H+  H62  1  0.27757688  0.63142646  0.33874123  1
  H+  H63  1  0.64372546  0.38369534  0.45111949  1
  H+  H64  1  1.02023895  0.62972009  0.83184603  1
  H+  H65  1  0.88825333  0.77822854  0.66303308  1
  H+  H66  1  0.37880220  0.51338408  0.98462729  1
  H+  H67  1  0.27779345  0.64497072  0.00089106  1
  H+  H68  1  0.28304206  0.89255833  0.16107351  1
  H+  H69  1  0.11287571  0.90397311  0.00933064  1
  H+  H70  1  0.87380932  0.29104275  0.16896014  1
  H+  H71  1  0.73463500  0.61545374  0.51077333  1
  H+  H72  1  0.35977442  0.25665996  0.50442977  1
  H+  H73  1  0.37518207  0.36524730  0.99263490  1
  H+  H74  1  0.47564094  0.60649581  0.17014610  1
  H+  H75  1  0.22678952  0.10156684  0.84322326  1
  H+  H76  1  0.01000433  0.13764533  0.82594466  1
  H+  H77  1  0.38384739  0.38127346  0.67746826  1
  H+  H78  1  0.90279507  0.47315343  1.02445417  1
  H+  H79  1  0.37811700  0.37910380  0.16315433  1
  H+  H80  1  0.63792206  0.61608402  0.99110449  1
  H+  H81  1  0.38733469  0.59447664  0.50180311  1
  H+  H82  1  0.86236769  0.35906478  0.31959053  1
  H+  H83  1  0.52779888  0.63847915  0.82397826  1
  H+  H84  1  0.91185175  0.83416464  0.60272846  1
  H+  H85  1  0.88265954  0.50949191  0.85125569  1
  H+  H86  1  0.96826727  0.09122259  0.50362393  1
  H+  H87  1  0.12583458  0.10028680  0.17076673  1
  H+  H88  1  0.52708736  0.63022926  0.67173909  1
  H+  H89  1  0.63939563  0.29457906  0.52610710  1
  H+  H90  1  0.63452583  0.51968339  0.84173988  1
  H+  H91  1  0.45063561  0.10057320  0.64115097  1
  H+  H92  1  0.13565020  0.26999604  0.17506700  1
  H+  H93  1  0.72546161  0.86337447  0.66101310  1
  H+  H94  1  0.80663876  0.46073738  0.71278106  1
  H+  H95  1  0.75883059  0.37978650  0.28949459  1
  H+  H96  1  0.64043786  0.60864682  0.66314144  1
  H+  H97  1  0.72406565  0.11435609  0.84547510  1
  H+  H98  1  1.02009328  0.13092023  0.15896422  1
  H+  H99  1  0.61473215  1.00833249  0.16731681  1
  H+  H100  1  0.89089328  0.19009674  0.16396029  1
  H+  H101  1  0.89048977  0.11077349  0.50271051  1
  H+  H102  1  0.35549284  0.21830600  0.32938201  1
  H+  H103  1  1.01235754  0.39891899  0.67980823  1
  H+  H104  1  0.14477548  0.63335080  1.00913537  1
  H+  H105  1  0.63797392  0.61066754  0.83979656  1
  H+  H106  1  0.61508426  0.37916496  0.66942911  1
  H+  H107  1  0.88137296  0.36247167  0.50711769  1
  H+  H108  1  0.10949253  0.50309608  0.48683266  1
  H+  H109  1  0.88846169  0.85505767  0.83643747  1
  H+  H110  1  0.38203680  0.60356145  0.97941119  1
  H+  H111  1  0.40207241  0.39110075  0.48538397  1
  H+  H112  1  0.36814338  0.63173982  0.33604978  1
  H+  H113  1  0.33574530  0.16455410  0.77335443  1
  H+  H114  1  0.59164430  0.38043701  0.14830374  1
  H+  H115  1  0.61144230  0.70247167  0.14762181  1
  H+  H116  1  0.89063041  0.02452872  0.83755466  1
  H+  H117  1  0.36532452  0.22265161  0.68039584  1
  H+  H118  1  0.63792728  0.12040563  0.84877975  1
  H+  H119  1  0.88333777  0.52080178  0.31316838  1
  H+  H120  1  0.07273990  0.41598224  0.97589304  1
  H+  H121  1  0.62855985  0.24939338  0.46031701  1
  H+  H122  1  0.85914139  0.72784972  0.49574797  1
  H+  H123  1  0.35491070  0.48229985  0.15780440  1
  H+  H124  1  0.79106789  0.15643053  0.01148400  1
  H+  H125  1  0.93601631  0.37099492  1.01318648  1
  H+  H126  1  0.37266939  0.63668408  0.81596312  1
  H+  H127  1  0.02458537  0.89003481  0.67167199  1
  H+  H128  1  0.60203765  0.87153179  0.67377604  1
  H+  H129  1  0.61479195  0.73094912  0.35653543  1
  H+  H130  1  0.38310114  0.01569620  0.33021460  1
  H+  H131  1  0.77293703  0.62660305  0.82723258  1
  H+  H132  1  0.41429838  0.33950068  0.92756720  1
  H+  H133  1  0.91817317  0.82186291  0.89366388  1
  H+  H134  1  0.38480322  0.29769136  0.14580316  1
  H+  H135  1  0.61392241  0.23579015  0.84659765  1
  H+  H136  1  0.22969219  0.62343590  0.50047467  1
  H+  H137  1  0.11483800  0.32523148  0.99253157  1
  H+  H138  1  0.40079033  0.77305212  0.97568370  1
  H+  H139  1  1.01457227  0.13394305  0.33977334  1
  H+  H140  1  0.41356735  0.49180819  0.48432536  1
  H+  H141  1  0.37461336  0.87766668  0.50976870  1
  H+  H142  1  0.13435256  1.01403253  0.51173034  1
  H+  H143  1  0.62373209  0.36731965  0.99968720  1
  H+  H144  1  0.53322130  0.91151968  0.01126727  1
  H+  H145  1  0.36752985  0.72951611  0.81128915  1
  H+  H146  1  0.13742349  0.85620281  0.84086614  1
  H+  H147  1  0.57105539  0.27274234  0.34008173  1
  H+  H148  1  0.08053634  0.41777351  0.77794492  1
  H+  H149  1  0.76837330  0.64815552  0.33954931  1
  H+  H150  1  0.73310161  0.13337914  0.18561351  1
  H+  H151  1  0.80003739  0.86097783  0.16417837  1
  H+  H152  1  0.87513515  0.23439651  0.49206818  1
  H+  H153  1  0.53002954  0.62095874  0.49910149  1
  H+  H154  1  0.11503241  0.63681395  0.33992791  1
  H+  H155  1  0.88093818  0.01843552  0.33821927  1
  H+  H156  1  0.60999697  0.61591039  0.15412505  1
  H+  H157  1  0.63469074  0.86354917  0.83819920  1
  H+  H158  1  0.02403295  0.64263807  0.48759658  1
  H+  H159  1  0.35433049  0.12855433  0.67714976  1
  H+  H160  1  0.66270655  0.83855920  0.17063373  1
  H+  H161  1  0.35202475  0.12840832  0.33624138  1
  H+  H162  1  0.73567651  0.60906836  0.17406308  1
  H+  H163  1  0.85961911  0.98112653  0.67499051  1
  H+  H164  1  0.63327385  0.86669549  0.99788546  1
  H+  H165  1  0.35015493  0.78251826  0.52224448  1
  H+  H166  1  0.51890980  0.63081100  0.99837098  1
  H+  H167  1  0.70169554  0.38942339  0.19849222  1
  H+  H168  1  0.76415770  0.88260249  0.49499473  1
  H+  H169  1  0.13829209  0.27050424  0.33174375  1
  H+  H170  1  0.90170455  0.83476144  0.19614457  1
  H+  H171  1  0.86320220  0.71397846  0.82694033  1
  H+  H172  1  0.35271396  0.20636608  0.01574503  1
  H+  H173  1  0.86727403  0.61480853  0.15941264  1
  H+  H174  1  0.97419991  0.11344648  0.65937828  1
  H+  H175  1  0.62511038  0.13510033  1.00558461  1
  H+  H176  1  0.63547150  0.60922639  0.50939703  1
  H+  H177  1  0.88168392  0.84852848  0.98132488  1
  H+  H178  1  0.39767923  0.11189682  1.00066776  1
  H+  H179  1  0.12519549  -0.00674885  0.33975728  1
  H+  H180  1  0.14625214  0.54791755  1.02433700  1
  H+  H181  1  0.81505726  0.38337303  0.78844256  1
  H+  H182  1  0.08752841  0.18855548  0.49398507  1
  H+  H183  1  0.88151047  0.26432576  0.84272412  1
  H+  H184  1  0.62456163  0.77209960  0.99480153  1
  H+  H185  1  0.26571971  0.39059695  0.15961188  1
  H+  H186  1  0.89286213  0.60485095  1.00272533  1
  H+  H187  1  0.47507936  0.37542064  -0.00631334  1
  H+  H188  1  0.88228501  0.52415096  0.49762913  1
  H+  H189  1  0.13826646  0.52364120  0.33132427  1
  H+  H190  1  0.24015088  0.40042793  0.47894121  1
  H+  H191  1  0.13811316  0.02521210  0.66228708  1
  H+  H192  1  0.63389802  0.28475185  1.00511371  1
  H+  H193  1  0.36379281  0.22179082  0.83395419  1
  H+  H194  1  0.26085843  0.37314918  0.00347841  1
  H+  H195  1  0.98961455  0.83870462  0.18590966  1
  H+  H196  1  0.10897068  0.23400423  0.82675061  1
  H+  H197  1  0.21881128  0.11666545  0.32082190  1
  H+  H198  1  0.61585033  0.92294854  0.16737842  1
  H+  H199  1  0.10728674  0.11145278  0.49258725  1
  H+  H200  1  0.60298085  0.48366048  0.00028305  1
  H+  H201  1  0.63624171  0.86895367  0.50559658  1
  H+  H202  1  0.51433193  0.39782364  0.15467737  1
  H+  H203  1  0.64542548  1.04356176  -0.00186713  1
  H+  H204  1  0.62356496  0.47271736  0.67546002  1
  H+  H205  1  0.47604289  0.87117049  0.17880479  1
  H+  H206  1  0.52006278  0.89008111  0.82388608  1
  H+  H207  1  0.61101092  0.90483717  0.35785685  1
  H+  H208  1  0.13759017  0.76762672  0.84518711  1
  H+  H209  1  0.76466679  0.36977360  0.48084072  1
  H+  H210  1  0.38848771  0.36547898  0.84467190  1
  H+  H211  1  0.97092110  0.35301753  0.84673269  1
  H+  H212  1  0.53013819  0.14489574  0.16524207  1
  H+  H213  1  0.85449421  0.13104143  0.82548334  1
  H+  H214  1  0.39683296  0.11850843  0.48540760  1
  H+  H215  1  0.36591247  0.01487406  0.65836845  1
  H+  H216  1  0.25012121  0.10029814  0.16570875  1
  H+  H217  1  0.51214281  0.88950184  0.50240399  1
  H+  H218  1  0.98917869  0.63355612  0.64976274  1
  H+  H219  1  0.52167813  0.13170545  0.00891409  1
  H+  H220  1  0.38583294  0.52369151  0.83140763  1
  H+  H221  1  0.11286433  0.22212101  0.67668275  1
  H+  H222  1  0.61125631  0.38244359  0.83568406  1
  H+  H223  1  0.85644748  0.96978170  0.49691068  1
  H+  H224  1  0.10538555  0.88262542  0.49594095  1
  H+  H225  1  0.86087159  0.63795002  0.48951079  1
  H+  H226  1  0.50397019  0.12375242  0.34816658  1
  H+  H227  1  0.25716530  0.37905855  0.50020506  1
  H+  H228  1  0.26831961  0.12907789  0.48955421  1
  H+  H229  1  0.36094677  0.72048737  0.66777880  1
  H+  H230  1  0.38960664  0.77092063  0.32960032  1
  H+  H231  1  0.60554659  0.13910212  0.34682911  1
  H+  H232  1  0.88011120  0.37271358  0.66208104  1
  H+  H233  1  0.62128691  0.23563714  0.16505110  1
  H+  H234  1  0.13586643  0.36036401  0.84124025  1
  H+  H235  1  0.26887597  0.88323197  0.82930379  1
  H+  H236  1  0.35615017  0.87907626  0.67554747  1
  H+  H237  1  0.16914620  0.07948501  0.56877192  1
  H+  H238  1  0.47522066  0.11151368  0.84630702  1
  H+  H239  1  0.86035252  0.36715273  0.84496154  1
  H+  H240  1  0.22775694  0.87157209  0.99723583  1
  H+  H241  1  0.02684122  0.87785134  0.82259459  1
  H+  H242  1  0.11669565  0.61481302  0.16267450  1
  H+  H243  1  0.15129168  0.86947545  0.16862905  1
  H+  H244  1  0.87154908  0.27443638  0.31739418  1
  H+  H245  1  0.87561766  0.70565530  0.17150629  1
  H+  H246  1  0.89257092  0.11409659  0.99341863  1
  H+  H247  1  0.38573444  0.51237438  0.66007770  1
  H+  H248  1  0.36812139  0.88872737  0.00138049  1
  H+  H249  1  0.61709224  0.72696470  0.82534555  1
  H+  H250  1  0.88266216  0.59853961  0.84631771  1
  H+  H251  1  0.90049474  0.49141749  0.73392599  1
  H+  H252  1  0.58646284  0.66309055  0.73115839  1
  H+  H253  1  0.89560766  1.00218896  0.18390423  1
  H+  H254  1  0.77800479  0.89146268  0.82957739  1
  H+  H255  1  0.66587551  0.46846410  0.35225201  1
  H+  H256  1  0.09574530  0.39137772  0.67958073  1
  H+  H257  1  0.83655463  0.91441330  0.41072803  1
  H+  H258  1  0.32227018  0.41313818  0.06198346  1
  H+  H259  1  0.14214379  0.36057128  0.33017666  1
  H+  H260  1  0.88991641  0.23291189  0.01580515  1
  H+  H261  1  0.02423088  0.39309054  0.16665375  1
  H+  H262  1  0.64112107  0.77112058  0.65735999  1
  H+  H263  1  -0.01002105  0.86365275  0.34439535  1
  H+  H264  1  0.93044224  0.57197126  0.22779393  1
  H+  H265  1  0.11785103  0.73987117  1.01603307  1
  H+  H266  1  1.01768441  0.88629527  1.00701528  1
  H+  H267  1  0.11335727  0.73206555  0.67228370  1
  H+  H268  1  0.37430132  0.85705537  0.82308333  1
  H+  H269  1  0.39856310  0.52215142  0.32619495  1
  H+  H270  1  1.02181595  0.11432920  1.00034523  1
  H+  H271  1  0.22557260  0.87220158  0.50188807  1
  H+  H272  1  0.11628734  0.96648100  0.82598949  1
  H+  H273  1  0.93924744  0.82753920  0.28179243  1
  H+  H274  1  0.37499439  0.37960003  0.33190296  1
  H+  H275  1  0.60855994  -0.02101596  0.83321863  1
  H+  H276  1  0.97611544  0.37795155  0.50832644  1
  H+  H277  1  0.48695043  0.83110235  0.94090216  1
  H+  H278  1  0.67577539  0.58570694  0.57558987  1
  H+  H279  1  0.35905723  0.97267383  0.82897968  1
  H+  H280  1  0.36672396  0.98875089  0.48269589  1
  H+  H281  1  0.26931280  0.88016682  0.33478567  1
  H+  H282  1  0.51834559  0.89468724  0.34472780  1
  H+  H283  1  0.53051281  0.63960413  0.34407327  1
  H+  H284  1  0.26959648  0.63103131  0.66917092  1
  H+  H285  1  0.35946875  0.88172654  0.33911995  1
  H+  H286  1  -0.03368337  0.85871932  0.50836589  1
  H+  H287  1  0.39258291  0.71352050  0.48237748  1
  H+  H288  1  0.67142985  0.10208140  0.93670115  1
  H+  H289  1  0.36103373  0.67655227  0.04277045  1
  H+  H290  1  0.17071479  0.95259892  0.37647501  1
  H+  H291  1  0.07669566  0.15379807  0.39671147  1
  H+  H292  1  0.40922554  0.83272715  0.60820370  1
  H+  H293  1  0.66839767  0.58330178  0.93372661  1
  H+  H294  1  0.31741065  0.67567989  0.12638138  1
  H+  H295  1  0.54559823  0.11818425  0.70343661  1
  H+  H296  1  0.16510651  0.58826039  0.59893196  1
  H+  H297  1  0.56594676  0.92037836  0.44106303  1
  H+  H298  1  0.57468221  0.65370029  0.05942113  1
  H+  H299  1  0.88329497  0.89710386  0.12179081  1
  H+  H300  1  0.33855417  0.41000038  0.77158804  1
  H+  H301  1  0.66004689  0.33622019  0.91555948  1
  H+  H302  1  0.59217955  0.18750472  0.78376277  1
  H+  H303  1  0.15267074  0.57446446  0.91323860  1
  H+  H304  1  0.87920713  0.41168125  0.08335611  1
  H+  H305  1  0.91139564  0.34404986  0.60277550  1
  H+  H306  1  0.16310897  0.32112317  0.89756155  1
  H+  H307  1  0.90661966  0.07183961  0.27651614  1
  H+  H308  1  0.32795505  0.91536101  0.43161079  1
  H+  H309  1  0.86353048  0.14477855  0.67259772  1
  H+  H310  1  0.41267672  0.56421661  0.56465447  1
  H+  H311  1  0.16685358  0.83692171  0.93933180  1
  H+  H312  1  0.34167438  0.65625453  0.42633918  1
  H+  H313  1  0.91913552  0.59030383  0.55365413  1
  H+  H314  1  0.83534972  0.65849027  0.06947175  1
  H+  H315  1  0.90138907  0.54669222  0.64643520  1
  H+  H316  1  0.92075464  0.08946562  0.89508936  1
  H+  H317  1  0.88713169  0.76318615  0.99301745  1
  H+  H318  1  0.42210793  0.07809289  0.27207919  1
  H+  H319  1  0.32985520  0.14573961  0.07348623  1
  H+  H320  1  0.68136694  0.59881164  0.26828554  1
  H+  H321  1  0.65771163  0.09630697  0.27842101  1
  H+  H322  1  0.58584775  0.16585184  0.07163630  1
  H+  H323  1  0.97684633  0.60515553  0.31929297  1
  H+  H324  1  0.64514574  0.13526391  0.18100295  1
  H+  H325  1  0.07194725  0.90569900  0.10247760  1
  H+  H326  1  0.08183899  0.66916027  0.39576673  1
  H+  H327  1  0.18112491  0.83989312  0.22737185  1
  H+  H328  1  0.01681806  0.38853022  0.33179126  1
  H+  H329  1  0.66132617  0.83197305  0.89713739  1
  H+  H330  1  0.82361505  0.16259163  0.76765765  1
  H+  H331  1  0.84971400  0.18055933  0.42988311  1
  H+  H332  1  0.75450371  0.41739752  0.35309036  1
  H+  H333  1  0.07966754  0.66175056  0.77244198  1
  H+  H334  1  0.16694703  0.32667338  0.23616276  1
  H+  H335  1  0.40187843  0.82312253  0.88061689  1
  H+  H336  1  0.10078522  0.04129623  1.00982945  1
  H+  H337  1  0.08005871  0.15455219  0.10038206  1
  H+  H338  1  0.07619058  0.91834013  0.43966516  1
  H+  H339  1  0.13522687  0.86395335  0.65654753  1
  H+  H340  1  0.08907461  0.65747755  0.10204233  1
  H+  H341  1  0.34530260  0.91740570  0.10183601  1
  H+  H342  1  0.11655598  0.13405903  0.67658727  1
  H+  H343  1  0.38620312  0.43014894  0.41850456  1
  H+  H344  1  0.33859677  0.66228836  0.74858195  1
  H+  H345  1  0.84210599  0.18631027  0.10282082  1
  H+  H346  1  0.58947324  0.65004815  0.43914663  1
  H+  H347  1  0.89598142  0.34607426  0.23621545  1
  H+  H348  1  0.08606285  0.91442304  0.72999820  1
  H+  H349  1  0.16614356  0.83700171  0.56188464  1
  H+  H350  1  0.66747937  0.83854432  0.56294350  1
  H+  H351  1  0.92525600  0.57664252  0.94492973  1
  H+  H352  1  0.67920072  0.78832081  0.22131374  1
  H+  H353  1  0.83585347  0.92174321  0.77009918  1
  H+  H354  1  0.42612405  0.58274234  0.26796264  1
  H+  H355  1  0.66726174  0.85666459  0.30107517  1
  H+  H356  1  0.59614175  0.31347828  0.27599065  1
  H+  H357  1  0.38566868  0.10959612  0.84654624  1
  H+  H358  1  0.57749108  0.90606745  0.73291183  1
  H+  H359  1  0.64794041  0.62671792  0.32823663  1
  H+  H360  1  0.64488900  1.02583053  0.50406194  1
  H+  H361  1  0.11358373  0.30876733  0.60452640  1
  H+  H362  1  0.38541034  0.86659685  0.17656871  1
  H+  H363  1  0.42685234  0.08553239  0.93791720  1
  H+  H364  1  0.32454372  0.91239448  0.73171325  1
  H+  H365  1  0.11260579  0.64281650  0.67096844  1
  H+  H366  1  0.56873563  0.42601391  0.06130628  1
  H+  H367  1  0.07917366  0.16742017  0.76429252  1
  H+  H368  1  0.15709539  0.07743708  0.89483939  1
  H+  H369  1  0.41794330  0.83408292  0.27204533  1
  H+  H370  1  0.72284339  0.35763403  0.85768782  1
  H+  H371  1  0.41476800  0.32643255  0.25536324  1
  H+  H372  1  0.06944113  0.41854235  0.39365238  1
  H+  H373  1  0.83662805  0.41031840  0.43120026  1
  H+  H374  1  0.82598700  0.67170191  0.40788906  1
  H+  H375  1  0.16790779  0.58217917  0.27299206  1
  H+  H376  1  0.91404282  0.08408698  0.60021304  1
  H+  H377  1  0.67785659  0.09716758  0.58638584  1
  H+  H378  1  0.32294813  0.16683536  0.42766035  1
  H+  H379  1  0.59043340  0.94379560  0.07114732  1
  H+  H380  1  0.15051892  0.07124127  0.23279435  1
  H+  H381  1  0.83814185  0.66532467  0.73378608  1
  H+  H382  1  0.82681615  0.91518032  0.03632967  1
  H+  H383  1  0.41391662  0.58208085  0.89024244  1
  O2-  O384  1  0.08059757  0.16060445  0.14535342  1
  O2-  O385  1  0.07095263  0.13372958  0.47348736  1
  O2-  O386  1  0.07366371  0.17182357  0.81040197  1
  O2-  O387  1  0.08555616  0.41920593  0.15747019  1
  O2-  O388  1  0.07892164  0.44066847  0.47329740  1
  O2-  O389  1  0.08241519  0.40938562  0.82233957  1
  O2-  O390  1  0.08215009  0.64231103  0.14700545  1
  O2-  O391  1  0.08562771  0.67422668  0.47476873  1
  O2-  O392  1  0.08110103  0.66110209  0.81746718  1
  O2-  O393  1  0.07608512  0.90176875  0.14775641  1
  O2-  O394  1  0.07271644  0.91288888  0.48442900  1
  O2-  O395  1  0.08765002  0.90654422  0.80861644  1
  O2-  O396  1  0.31394530  0.13053129  0.15567248  1
  O2-  O397  1  0.32714067  0.16820500  0.47286759  1
  O2-  O398  1  0.33650906  0.16209538  0.81909312  1
  O2-  O399  1  0.32473972  0.42228815  0.14099789  1
  O2-  O400  1  0.41855201  0.44496474  0.45942489  1
  O2-  O401  1  0.33603554  0.41400391  0.81670249  1
  O2-  O402  1  0.33484983  0.67290516  0.16778151  1
  O2-  O403  1  0.34472633  0.65646669  0.47265434  1
  O2-  O404  1  0.34339580  0.66742933  0.79657731  1
  O2-  O405  1  0.34631909  0.91924308  0.14708078  1
  O2-  O406  1  0.32885326  0.92292476  0.47646534  1
  O2-  O407  1  0.32840471  0.91377560  0.81122625  1
  O2-  O408  1  0.59004736  0.17692130  0.14743580  1
  O2-  O409  1  0.57282871  0.16060061  0.42890392  1
  O2-  O410  1  0.58568936  0.17581603  0.82732450  1
  O2-  O411  1  0.57549317  0.42382995  0.14004977  1
  O2-  O412  1  0.63704667  0.43223627  0.43483530  1
  O2-  O413  1  0.57953098  0.41031905  0.81819281  1
  O2-  O414  1  0.57561532  0.64127922  0.13697946  1
  O2-  O415  1  0.58911337  0.64253619  0.48409755  1
  O2-  O416  1  0.58865122  0.66617696  0.81050504  1
  O2-  O417  1  0.58418682  0.94836884  0.14936061  1
  O2-  O418  1  0.57068640  0.91460277  0.48560832  1
  O2-  O419  1  0.58306351  0.91935158  0.81757839  1
  O2-  O420  1  0.84279706  0.19575575  0.14888393  1
  O2-  O421  1  0.85548721  0.17659080  0.47448956  1
  O2-  O422  1  0.82156203  0.15954349  0.81329523  1
  O2-  O423  1  0.85734158  0.39458931  0.16174321  1
  O2-  O424  1  0.82895540  0.40911343  0.47518458  1
  O2-  O425  1  0.82527701  0.39664586  0.83161130  1
  O2-  O426  1  0.83964329  0.64963625  0.15022229  1
  O2-  O427  1  0.82734114  0.66725167  0.47850512  1
  O2-  O428  1  0.83337031  0.65306702  0.81221361  1
  O2-  O429  1  0.86381530  0.89836793  0.16301199  1
  O2-  O430  1  0.82751572  0.90959853  0.48101334  1
  O2-  O431  1  0.83891337  0.92127457  0.81571860  1
  O2-  O432  1  0.15093217  0.06584363  0.18735386  1
  O2-  O433  1  0.16788764  0.07638771  0.52318891  1
  O2-  O434  1  0.16444527  0.06710169  0.85227830  1
  O2-  O435  1  0.16513111  0.32978983  0.19088996  1
  O2-  O436  1  0.08964605  0.28108917  0.52920256  1
  O2-  O437  1  0.16531436  0.32630418  0.85221746  1
  O2-  O438  1  0.16336020  0.57374241  0.19685218  1
  O2-  O439  1  0.17046887  0.59806805  0.51646211  1
  O2-  O440  1  0.15193388  0.56662439  0.86904310  1
  O2-  O441  1  0.18967889  0.84814280  0.18285141  1
  O2-  O442  1  0.16423804  0.83856833  0.51633439  1
  O2-  O443  1  0.16886175  0.82858164  0.85943679  1
  O2-  O444  1  0.42907034  0.07884567  0.19171208  1
  O2-  O445  1  0.42596045  0.08481768  0.48950716  1
  O2-  O446  1  0.41552560  0.07862935  0.86227364  1
  O2-  O447  1  0.41059107  0.34710812  0.17309626  1
  O2-  O448  1  0.37303728  0.31191251  0.52777015  1
  O2-  O449  1  0.41890352  0.33679922  0.86355124  1
  O2-  O450  1  0.41747809  0.58157646  0.18915743  1
  O2-  O451  1  0.41721689  0.56487419  0.51895162  1
  O2-  O452  1  0.41508206  0.58522602  0.84471996  1
  O2-  O453  1  0.41672940  0.83704656  0.19440563  1
  O2-  O454  1  0.39751573  0.84072451  0.52852658  1
  O2-  O455  1  0.40428017  0.82400696  0.83572731  1
  O2-  O456  1  0.67238973  0.10314323  0.19901939  1
  O2-  O457  1  0.68014961  0.08744987  0.51443928  1
  O2-  O458  1  0.66563323  0.08843403  0.86542295  1
  O2-  O459  1  0.70514778  0.33822537  0.20821911  1
  O2-  O460  1  0.66068312  0.30673694  0.48417822  1
  O2-  O461  1  0.66087930  0.33215446  0.86931013  1
  O2-  O462  1  0.67498492  0.58513628  0.18894595  1
  O2-  O463  1  0.67449774  0.58429248  0.52902774  1
  O2-  O464  1  0.66729610  0.58017773  0.85649960  1
  O2-  O465  1  0.69053709  0.80475811  0.17858217  1
  O2-  O466  1  0.67095392  0.84263109  0.51790413  1
  O2-  O467  1  0.66540636  0.83305790  0.85220021  1
  O2-  O468  1  0.91033867  0.06221709  0.19404450  1
  O2-  O469  1  0.91110295  0.07379986  0.52188141  1
  O2-  O470  1  0.92016268  0.08738904  0.84949439  1
  O2-  O471  1  0.90401469  0.35210295  0.18739769  1
  O2-  O472  1  0.91763528  0.33949476  0.52462435  1
  O2-  O473  1  0.91009567  0.32318981  0.86018008  1
  O2-  O474  1  0.93160405  0.56522425  0.18104402  1
  O2-  O475  1  0.91441288  0.58618141  0.50830218  1
  O2-  O476  1  0.91530991  0.57132703  0.86258497  1
  O2-  O477  1  0.93298109  0.80485285  0.20851507  1
  O2-  O478  1  0.90572616  0.82573656  0.52307671  1
  O2-  O479  1  0.91658740  0.82158563  0.84834766  1
  O2-  O480  1  0.15704975  0.08390975  0.30789490  1
  O2-  O481  1  0.16749623  0.08636873  0.64753000  1
  O2-  O482  1  0.12230690  0.09733226  0.98859494  1
  O2-  O483  1  0.17406907  0.33136479  0.31754451  1
  O2-  O484  1  0.13942242  0.32810314  0.64571214  1
  O2-  O485  1  0.15678093  0.30864997  0.97759458  1
  O2-  O486  1  0.17212629  0.58495381  0.31849461  1
  O2-  O487  1  0.16653489  0.58930929  0.64409850  1
  O2-  O488  1  0.17465709  0.59933842  0.99909639  1
  O2-  O489  1  0.16528752  0.82654220  0.30669655  1
  O2-  O490  1  0.16268308  0.83117370  0.64054350  1
  O2-  O491  1  0.16660770  0.84114075  0.98475027  1
  O2-  O492  1  0.41671839  0.07817097  0.31740082  1
  O2-  O493  1  0.38763905  0.07425199  0.64315143  1
  O2-  O494  1  0.43239755  0.08597958  0.98379165  1
  O2-  O495  1  0.41883375  0.32101990  0.29983857  1
  O2-  O496  1  0.43013948  0.33232711  0.64983294  1
  O2-  O497  1  0.41215593  0.34008043  0.97671760  1
  O2-  O498  1  0.42652667  0.58327092  0.31341935  1
  O2-  O499  1  0.41324050  0.57027367  0.64126329  1
  O2-  O500  1  0.41299794  0.57271340  0.96794247  1
  O2-  O501  1  0.41734314  0.83262522  0.31748461  1
  O2-  O502  1  0.40612354  0.82110219  0.65257228  1
  O2-  O503  1  0.43890885  0.83307972  0.96013543  1
  O2-  O504  1  0.65563829  0.09660839  0.32366873  1
  O2-  O505  1  0.67029855  0.10041601  0.63175433  1
  O2-  O506  1  0.67141384  0.10473911  0.98363077  1
  O2-  O507  1  0.56782240  0.31494109  0.31336865  1
  O2-  O508  1  0.63627592  0.30905085  0.62557463  1
  O2-  O509  1  0.65963369  0.34234280  0.98744145  1
  O2-  O510  1  0.68518776  0.60374589  0.31344612  1
  O2-  O511  1  0.67244317  0.57964098  0.64789685  1
  O2-  O512  1  0.66580677  0.58208477  0.97944830  1
  O2-  O513  1  0.66751393  0.84525719  0.34421421  1
  O2-  O514  1  0.66632692  0.83148987  0.64370687  1
  O2-  O515  1  0.65588262  0.83234360  0.97846871  1
  O2-  O516  1  0.90673146  0.07830042  0.32115356  1
  O2-  O517  1  0.91389092  0.08790633  0.64564065  1
  O2-  O518  1  0.92038424  0.08501980  0.97264377  1
  O2-  O519  1  0.89675808  0.33521947  0.30151294  1
  O2-  O520  1  0.91136280  0.34398237  0.64838682  1
  O2-  O521  1  0.95742669  0.33153342  0.99499017  1
  O2-  O522  1  0.92187215  0.57818484  0.29619252  1
  O2-  O523  1  0.92947814  0.60596434  0.63107579  1
  O2-  O524  1  0.93023009  0.58126290  0.99003618  1
  O2-  O525  1  0.93217368  0.83545570  0.32654646  1
  O2-  O526  1  0.91604172  0.83856640  0.64799174  1
  O2-  O527  1  0.91721519  0.82161113  0.97388811  1
  O2-  O528  1  0.08060540  0.14016351  0.01960110  1
  O2-  O529  1  0.07666232  0.16350064  0.35193413  1
  O2-  O530  1  0.08417308  0.16290306  0.69267118  1
  O2-  O531  1  0.05048891  0.37588414  0.01027589  1
  O2-  O532  1  0.07513055  0.41356545  0.34911904  1
  O2-  O533  1  0.07325546  0.42816790  0.69456009  1
  O2-  O534  1  0.09104017  0.67858094  0.03045597  1
  O2-  O535  1  0.08152530  0.66568865  0.35041726  1
  O2-  O536  1  0.08036279  0.67060879  0.68665788  1
  O2-  O537  1  0.07498191  0.92458706  0.02594400  1
  O2-  O538  1  0.11403385  0.93781518  0.36072817  1
  O2-  O539  1  0.08618841  0.91928294  0.68455395  1
  O2-  O540  1  0.34025006  0.14953958  0.02915562  1
  O2-  O541  1  0.32113719  0.15953793  0.34729117  1
  O2-  O542  1  0.32925837  0.16359916  0.69609526  1
  O2-  O543  1  0.32266432  0.40753483  0.01663157  1
  O2-  O544  1  0.35010178  0.41195968  0.35245255  1
  O2-  O545  1  0.34702113  0.40601356  0.69279101  1
  O2-  O546  1  0.34306452  0.67167606  0.00049971  1
  O2-  O547  1  0.33904270  0.66237450  0.35290142  1
  O2-  O548  1  0.33138979  0.65801351  0.68246476  1
  O2-  O549  1  0.34262843  0.91920522  0.02136828  1
  O2-  O550  1  0.32914658  0.91335669  0.35126432  1
  O2-  O551  1  0.32395465  0.90916319  0.68651585  1
  O2-  O552  1  0.58505369  0.16274173  0.02559546  1
  O2-  O553  1  0.56809957  0.16544516  0.36147817  1
  O2-  O554  1  0.56638937  0.14675701  0.66457272  1
  O2-  O555  1  0.56513779  0.42254070  0.01605456  1
  O2-  O556  1  0.70099756  0.46512296  0.38510904  1
  O2-  O557  1  0.59179650  0.41226258  0.69081633  1
  O2-  O558  1  0.57846421  0.66507051  0.01471336  1
  O2-  O559  1  0.58962180  0.66799740  0.36179715  1
  O2-  O560  1  0.58750486  0.66012219  0.68575920  1
  O2-  O561  1  0.59323793  0.94165780  0.02579535  1
  O2-  O562  1  0.57673640  0.93374790  0.36256512  1
  O2-  O563  1  0.56337336  0.89168709  0.68977055  1
  O2-  O564  1  0.84690714  0.17270813  0.03057011  1
  O2-  O565  1  0.83230502  0.17621248  0.34912267  1
  O2-  O566  1  0.83294867  0.17322120  0.69025797  1
  O2-  O567  1  0.89024572  0.41599836  0.03873033  1
  O2-  O568  1  0.79199772  0.40359469  0.32722936  1
  O2-  O569  1  0.85740033  0.45609199  0.70359048  1
  O2-  O570  1  0.83594724  0.65991424  0.02417421  1
  O2-  O571  1  0.82997192  0.67749818  0.36133367  1
  O2-  O572  1  0.83662443  0.67029516  0.68844148  1
  O2-  O573  1  0.82676437  0.91143879  -0.00782463  1
  O2-  O574  1  0.83599080  0.91609062  0.36390638  1
  O2-  O575  1  0.83112260  0.92171644  0.69196758  1
