# generated using pymatgen
data_H2O
_symmetry_space_group_name_H-M   'P 1'
_cell_length_a   17.99687986
_cell_length_b   17.99475950
_cell_length_c   22.00717935
_cell_angle_alpha   90.00288834
_cell_angle_beta   90.01330453
_cell_angle_gamma   120.01566071
_symmetry_Int_Tables_number   1
_chemical_formula_structural   H2O
_chemical_formula_sum   'H384 O192'
_cell_volume   6171.20114472
_cell_formula_units_Z   192
loop_
 _symmetry_equiv_pos_site_id
 _symmetry_equiv_pos_as_xyz
  1  'x, y, z'
loop_
 _atom_type_symbol
 _atom_type_oxidation_number
  H+  1.0
  O2-  -2.0
loop_
 _atom_site_type_symbol
 _atom_site_label
 _atom_site_symmetry_multiplicity
 _atom_site_fract_x
 _atom_site_fract_y
 _atom_site_fract_z
 _atom_site_occupancy
  H+  H0  1  0.89023855  1.02497466  0.50672381  1
  H+  H1  1  0.17082669  0.63125781  1.00035585  1
  H+  H2  1  0.85029141  0.47964736  0.33819689  1
  H+  H3  1  0.75838183  0.91622509  0.11704468  1
  H+  H4  1  0.12072630  0.27259655  0.50033587  1
  H+  H5  1  0.33189198  0.95653576  0.81236641  1
  H+  H6  1  0.01172175  0.12980682  0.33965057  1
  H+  H7  1  0.11038430  -0.01692855  0.49185755  1
  H+  H8  1  0.33433303  0.42602381  0.06275239  1
  H+  H9  1  0.21966309  0.35382905  0.84530335  1
  H+  H10  1  0.62954500  0.15035869  0.67294163  1
  H+  H11  1  0.65747177  0.29734294  0.84169353  1
  H+  H12  1  0.83232579  0.66736480  0.42871599  1
  H+  H13  1  0.38155618  0.28040950  0.32718392  1
  H+  H14  1  0.33570132  0.13498848  0.48044913  1
  H+  H15  1  0.55071691  0.67382154  0.03017807  1
  H+  H16  1  -0.09124247  0.82129394  -0.06149315  1
  H+  H17  1  0.85461681  0.96574138  0.34146984  1
  H+  H18  1  0.31210948  0.68069683  0.34761206  1
  H+  H19  1  0.64530048  0.62232871  0.51465546  1
  H+  H20  1  0.10299449  0.13325546  0.33814924  1
  H+  H21  1  0.88021600  0.27835125  0.97460441  1
  H+  H22  1  0.22333843  0.84800242  0.17535905  1
  H+  H23  1  0.86020833  0.22107766  0.33793039  1
  H+  H24  1  0.86593983  0.96064930  0.82098595  1
  H+  H25  1  0.12852284  0.25418629  0.12426321  1
  H+  H26  1  0.21594047  0.58858733  0.51274589  1
  H+  H27  1  0.11763614  0.47942416  0.15799326  1
  H+  H28  1  0.89912520  0.25020912  0.49238281  1
  H+  H29  1  0.26138034  0.63474695  0.84803249  1
  H+  H30  1  0.62443003  0.62557454  0.00102732  1
  H+  H31  1  0.63858481  0.27969763  0.66448476  1
  H+  H32  1  0.40006162  0.77762006  0.66753936  1
  H+  H33  1  0.58983061  0.43120358  0.07302600  1
  H+  H34  1  0.13575847  0.40602843  0.83531029  1
  H+  H35  1  0.53494299  0.39061256  0.83208728  1
  H+  H36  1  1.00174331  0.61390857  0.98713145  1
  H+  H37  1  0.64906973  0.04503590  0.66483191  1
  H+  H38  1  0.06966864  -0.07203784  0.68160146  1
  H+  H39  1  0.40262152  0.25404592  0.02918269  1
  H+  H40  1  0.11082533  0.87220584  0.15793354  1
  H+  H41  1  0.11763214  0.71665024  0.15629163  1
  H+  H42  1  0.10409411  0.88201142  0.84141786  1
  H+  H43  1  0.09644472  0.85868462  0.66339366  1
  H+  H44  1  0.85458182  0.15240783  0.99362074  1
  H+  H45  1  0.34834550  0.13575448  0.81398111  1
  H+  H46  1  0.53393407  0.91364201  0.67702263  1
  H+  H47  1  0.62492116  0.97233121  -0.00190831  1
  H+  H48  1  0.54515349  0.61553987  0.16042547  1
  H+  H49  1  0.89366296  0.52609508  0.84008054  1
  H+  H50  1  0.54495688  0.89184376  0.33707263  1
  H+  H51  1  0.65305802  0.52667178  0.67357834  1
  H+  H52  1  0.07980654  0.37096757  0.49943595  1
  H+  H53  1  0.89021627  0.53785065  0.66187490  1
  H+  H54  1  0.07070948  0.12022434  0.00346544  1
  H+  H55  1  0.72470446  0.27064601  0.55862719  1
  H+  H56  1  0.21627491  0.11324697  0.32549898  1
  H+  H57  1  0.01514259  0.88543870  0.34316707  1
  H+  H58  1  0.96988757  0.08439925  0.85495218  1
  H+  H59  1  0.36657507  0.43019351  0.78870920  1
  H+  H60  1  0.10005196  0.22394795  0.83086732  1
  H+  H61  1  0.14756929  0.52692160  0.66613907  1
  H+  H62  1  0.72856289  0.85300630  0.65385770  1
  H+  H63  1  0.73635905  0.10963267  0.84887617  1
  H+  H64  1  0.78749077  0.39757125  0.83471430  1
  H+  H65  1  0.43410961  0.33483726  0.56662952  1
  H+  H66  1  0.36703940  0.86012253  0.84352013  1
  H+  H67  1  0.29654342  0.12010860  0.95063979  1
  H+  H68  1  0.28600807  0.41143441  0.16660273  1
  H+  H69  1  0.63321989  0.59120409  0.23108949  1
  H+  H70  1  0.14142583  0.60885834  0.17015697  1
  H+  H71  1  0.39884509  0.26902661  0.84826888  1
  H+  H72  1  0.10354699  0.97035417  0.83762427  1
  H+  H73  1  0.35174314  0.38061013  0.35044419  1
  H+  H74  1  0.64014305  0.41019474  0.49011085  1
  H+  H75  1  0.39642115  0.62096414  0.15485770  1
  H+  H76  1  0.54213784  0.14497764  0.11854272  1
  H+  H77  1  0.35074798  0.46647997  0.49609178  1
  H+  H78  1  0.64094731  0.32254562  0.23394562  1
  H+  H79  1  0.89017981  0.38794075  0.48402630  1
  H+  H80  1  0.12266480  0.35421094  0.34436996  1
  H+  H81  1  0.65206322  0.29413613  -0.00601249  1
  H+  H82  1  0.67812981  0.33826972  0.60621554  1
  H+  H83  1  0.37194251  0.61629948  0.99666908  1
  H+  H84  1  0.36018153  0.87181422  0.67075466  1
  H+  H85  1  0.36291126  0.88541656  0.50571921  1
  H+  H86  1  0.59546719  0.15088964  0.83369672  1
  H+  H87  1  0.11833048  0.72613587  0.00694384  1
  H+  H88  1  0.35830433  0.71706294  0.14340029  1
  H+  H89  1  0.88770991  0.39643498  0.31729551  1
  H+  H90  1  0.63696183  0.10590013  0.32521285  1
  H+  H91  1  0.62610585  0.27061683  0.33077253  1
  H+  H92  1  0.12647474  0.26742708  0.33592825  1
  H+  H93  1  0.93691596  0.60988402  0.56901502  1
  H+  H94  1  0.22541735  0.85626470  0.65464779  1
  H+  H95  1  0.16567249  0.53125280  0.84712619  1
  H+  H96  1  0.62553119  0.36022822  0.33094305  1
  H+  H97  1  0.48194077  0.85026096  0.50745837  1
  H+  H98  1  0.89562908  0.52841129  0.16284818  1
  H+  H99  1  0.32149467  0.90745084  0.10476620  1
  H+  H100  1  0.12665618  0.12345893  0.50250143  1
  H+  H101  1  0.38538596  0.85154507  0.16345810  1
  H+  H102  1  0.88735064  0.14815960  0.08573397  1
  H+  H103  1  0.74569899  0.85535969  0.83333403  1
  H+  H104  1  0.63230835  0.73321674  0.82967822  1
  H+  H105  1  0.12287766  0.72370845  0.66703388  1
  H+  H106  1  0.53401611  0.13493858  0.67433191  1
  H+  H107  1  0.62778231  0.40816028  1.01288577  1
  H+  H108  1  0.73852652  0.11084258  0.81478111  1
  H+  H109  1  0.59533507  0.92558272  0.43442073  1
  H+  H110  1  0.11909484  0.39605070  0.67889749  1
  H+  H111  1  0.94970778  0.82296788  0.64460477  1
  H+  H112  1  0.52664409  0.62887640  0.48624344  1
  H+  H113  1  0.20970538  0.84852986  0.84413571  1
  H+  H114  1  0.85588684  0.63003864  0.33322589  1
  H+  H115  1  0.53666513  0.12467570  0.49799414  1
  H+  H116  1  0.39561846  0.03409687  1.04658667  1
  H+  H117  1  0.80498733  0.91938093  0.96992294  1
  H+  H118  1  0.54920440  0.01243529  0.83530065  1
  H+  H119  1  0.86747079  -0.03537018  0.66730648  1
  H+  H120  1  0.00152425  0.08868872  0.15901209  1
  H+  H121  1  0.27129416  0.62737477  0.15170578  1
  H+  H122  1  0.98251238  0.61794947  0.66244746  1
  H+  H123  1  0.85903091  0.85080747  0.12470396  1
  H+  H124  1  0.48988078  0.62180965  0.65992960  1
  H+  H125  1  0.87709932  0.39565589  0.82922055  1
  H+  H126  1  0.87815940  0.10185925  0.33264231  1
  H+  H127  1  0.42233612  0.10673479  0.52404703  1
  H+  H128  1  0.37682190  0.49241667  0.15327965  1
  H+  H129  1  0.61570986  0.52401946  0.00004448  1
  H+  H130  1  0.63888367  0.52884094  0.84930573  1
  H+  H131  1  0.77685042  0.39547870  0.67967628  1
  H+  H132  1  0.36831768  0.50426867  0.65474739  1
  H+  H133  1  0.64565393  0.01995967  0.17157624  1
  H+  H134  1  0.76271111  0.38682994  0.33708002  1
  H+  H135  1  0.63807684  0.62761197  0.32947933  1
  H+  H136  1  0.39134688  0.98738842  0.50479093  1
  H+  H137  1  0.49495708  0.35307358  0.50964680  1
  H+  H138  1  0.87266684  0.39516066  -0.00583805  1
  H+  H139  1  0.02961706  0.62836642  0.15557507  1
  H+  H140  1  -0.08316849  0.83258466  0.55713085  1
  H+  H141  1  0.92450029  0.29452896  0.83716445  1
  H+  H142  1  0.12338971  0.48918879  0.32322692  1
  H+  H143  1  0.04296687  0.65213407  0.49073358  1
  H+  H144  1  0.64088058  0.75247078  0.00547217  1
  H+  H145  1  0.51802615  0.39541520  0.34430096  1
  H+  H146  1  1.00124072  0.39009884  0.83969995  1
  H+  H147  1  0.78707972  0.60206589  0.18132576  1
  H+  H148  1  0.25257404  0.38297138  0.49405184  1
  H+  H149  1  0.88892304  0.61298017  0.83720658  1
  H+  H150  1  0.17222128  0.04977730  0.64459380  1
  H+  H151  1  0.61622789  0.39127661  0.67505285  1
  H+  H152  1  0.26289147  0.13826649  0.17394492  1
  H+  H153  1  0.39792691  0.35421151  0.85049315  1
  H+  H154  1  0.39585098  0.08695139  0.65174508  1
  H+  H155  1  0.90307270  0.15134596  0.83240489  1
  H+  H156  1  0.25735771  0.89655561  1.01988331  1
  H+  H157  1  0.35561847  0.14787455  0.18280246  1
  H+  H158  1  0.11912633  0.14630818  0.67213001  1
  H+  H159  1  0.77141108  0.87102175  0.34999769  1
  H+  H160  1  0.64127277  0.61921690  0.84683573  1
  H+  H161  1  0.37077799  0.19098865  0.67545488  1
  H+  H162  1  0.12081986  0.08202323  0.16652505  1
  H+  H163  1  0.51868947  0.12749295  0.34079872  1
  H+  H164  1  0.40518372  0.86301002  0.32874818  1
  H+  H165  1  0.14775045  0.33040894  0.56093627  1
  H+  H166  1  0.12011298  0.39433069  0.16898799  1
  H+  H167  1  0.90077451  0.51917791  -0.01420969  1
  H+  H168  1  -0.02617129  0.85497105  0.83890483  1
  H+  H169  1  0.92476292  0.07904604  0.59963057  1
  H+  H170  1  0.54677444  0.14985078  1.02021986  1
  H+  H171  1  0.77127461  0.62926158  0.83253768  1
  H+  H172  1  0.67207185  0.08003206  0.26633211  1
  H+  H173  1  0.78851515  0.14317067  0.16279128  1
  H+  H174  1  0.89888769  0.12529547  0.18802112  1
  H+  H175  1  0.12241163  0.76211490  0.84712035  1
  H+  H176  1  0.02109632  0.37987942  0.00842077  1
  H+  H177  1  0.11452599  0.50046387  0.51751572  1
  H+  H178  1  0.39137134  0.31245738  0.66223377  1
  H+  H179  1  0.46555522  0.89565810  0.86549595  1
  H+  H180  1  0.68539219  0.62389967  0.17034787  1
  H+  H181  1  0.36474275  0.62985820  0.34512699  1
  H+  H182  1  0.41978268  0.13540519  1.05316710  1
  H+  H183  1  0.29150755  0.64837461  0.05415139  1
  H+  H184  1  0.11915584  0.05966407  0.93625229  1
  H+  H185  1  0.59653997  0.48550750  0.16292291  1
  H+  H186  1  0.87648764  0.40274714  0.14787258  1
  H+  H187  1  0.30595276  0.33418393  0.77154266  1
  H+  H188  1  0.08376069  -0.00402596  0.99285714  1
  H+  H189  1  0.34252297  0.77074333  0.99530052  1
  H+  H190  1  0.25697893  0.37623757  0.35302537  1
  H+  H191  1  0.41578043  0.08236693  0.13756282  1
  H+  H192  1  0.21890374  0.12993020  0.49835568  1
  H+  H193  1  0.86679433  0.02939384  0.17698735  1
  H+  H194  1  0.89363291  0.11819867  0.50968629  1
  H+  H195  1  0.42522975  0.78695530  0.31950317  1
  H+  H196  1  0.51350592  0.39394746  0.16285507  1
  H+  H197  1  0.87532161  0.89935186  0.49590837  1
  H+  H198  1  0.60728240  0.22653108  0.16056838  1
  H+  H199  1  0.35685226  -0.04168009  0.16767689  1
  H+  H200  1  -0.01730940  0.36956522  0.16653261  1
  H+  H201  1  -0.02854712  0.61582413  0.32729828  1
  H+  H202  1  0.59673849  0.72254874  0.50334397  1
  H+  H203  1  0.88340852  0.88624172  0.14725339  1
  H+  H204  1  0.52753857  0.88003315  0.15255953  1
  H+  H205  1  0.89767168  0.02210007  0.90344013  1
  H+  H206  1  0.44416331  0.09079319  0.78660759  1
  H+  H207  1  0.16721322  0.30807926  0.19547041  1
  H+  H208  1  0.02674585  0.13753389  0.67101234  1
  H+  H209  1  0.75947365  0.34464815  0.51007073  1
  H+  H210  1  0.50098839  0.65441840  0.32922976  1
  H+  H211  1  0.31684747  0.40611680  0.42249966  1
  H+  H212  1  0.38054080  0.59655617  0.50425061  1
  H+  H213  1  0.08570452  0.24668974  0.13544704  1
  H+  H214  1  0.38141997  0.66241075  0.84048722  1
  H+  H215  1  0.27577613  0.17198339  0.66551224  1
  H+  H216  1  0.64433031  0.10793686  0.17181390  1
  H+  H217  1  0.42525233  0.08195086  0.85651853  1
  H+  H218  1  0.21551035  0.11409930  0.84485924  1
  H+  H219  1  0.35372081  0.13723450  0.33802162  1
  H+  H220  1  0.11058605  0.84818628  0.00143848  1
  H+  H221  1  0.09810300  0.72936810  0.33672970  1
  H+  H222  1  0.37585845  1.00885606  0.33551560  1
  H+  H223  1  0.78664008  0.40572311  -0.00325043  1
  H+  H224  1  0.36810561  0.23377368  0.49262976  1
  H+  H225  1  0.90554855  0.29968611  0.68693851  1
  H+  H226  1  0.62639464  0.53277163  0.32660596  1
  H+  H227  1  0.63526950  0.10373161  0.97529934  1
  H+  H228  1  0.84702456  0.70402200  0.17695544  1
  H+  H229  1  0.88411349  0.85675836  0.33120804  1
  H+  H230  1  0.12722993  0.02320119  0.32915475  1
  H+  H231  1  0.58178000  0.93058172  0.83193164  1
  H+  H232  1  0.89555093  0.78441876  0.49316059  1
  H+  H233  1  0.87257341  0.84180979  0.64450841  1
  H+  H234  1  0.21631411  0.56750759  0.32247957  1
  H+  H235  1  0.12372858  0.87308530  0.32559826  1
  H+  H236  1  0.14489050  0.87761643  0.50293235  1
  H+  H237  1  0.43523352  0.59002056  0.27987385  1
  H+  H238  1  0.61809590  0.03623796  0.92166317  1
  H+  H239  1  1.02323483  0.63076303  0.82340373  1
  H+  H240  1  0.48917254  0.38117436  1.00115694  1
  H+  H241  1  0.90080099  0.38544431  0.68031135  1
  H+  H242  1  0.83724180  0.73252407  0.00443952  1
  H+  H243  1  0.54313384  0.83836187  0.79739609  1
  H+  H244  1  0.62445881  0.98616031  0.49390014  1
  H+  H245  1  0.87307854  0.20226837  0.62852955  1
  H+  H246  1  0.63605769  0.97300764  0.33932159  1
  H+  H247  1  0.65424849  0.38449810  0.84204828  1
  H+  H248  1  0.38693079  0.53640053  0.99880148  1
  H+  H249  1  0.09737694  0.21971846  1.00986547  1
  H+  H250  1  0.78323912  0.64674367  0.49230144  1
  H+  H251  1  0.64619421  0.76514115  0.10055560  1
  H+  H252  1  0.12950157  0.73825763  0.48317896  1
  H+  H253  1  0.64059663  0.76621474  0.66497447  1
  H+  H254  1  0.36957067  0.39974761  1.00544744  1
  H+  H255  1  0.65680539  0.85765896  0.83235293  1
  H+  H256  1  0.38429435  0.37634550  0.17673173  1
  H+  H257  1  0.88565907  0.76395377  0.83230529  1
  H+  H258  1  0.61460763  0.87776662  0.14605838  1
  H+  H259  1  0.65234269  0.11762783  0.50276103  1
  H+  H260  1  0.21744510  0.89095178  0.31414789  1
  H+  H261  1  0.22409522  0.36520684  0.99238413  1
  H+  H262  1  0.27662552  0.08194606  -0.02857791  1
  H+  H263  1  0.88371374  0.76708664  0.33371600  1
  H+  H264  1  0.13279700  0.27612011  0.65704810  1
  H+  H265  1  0.39973156  0.55340887  0.85758048  1
  H+  H266  1  0.60878974  0.84964912  0.51888442  1
  H+  H267  1  0.90948458  0.62508620  0.16662931  1
  H+  H268  1  0.10738650  -0.04139735  0.16272620  1
  H+  H269  1  0.40536984  0.63174800  0.65782081  1
  H+  H270  1  0.98046839  0.82259220  0.18238241  1
  H+  H271  1  0.28394633  0.64103926  0.67801231  1
  H+  H272  1  0.23719147  0.88283044  0.50469253  1
  H+  H273  1  0.37862246  0.28468504  0.18564405  1
  H+  H274  1  0.89404591  0.10419872  0.65981665  1
  H+  H275  1  0.53815853  0.65055967  0.83747212  1
  H+  H276  1  0.37200305  0.74829762  0.83806622  1
  H+  H277  1  0.36633042  0.96216604  0.67137094  1
  H+  H278  1  0.61396678  0.35621002  0.17551249  1
  H+  H279  1  0.00730544  0.38212955  0.34347345  1
  H+  H280  1  0.76763465  0.63373338  0.33290580  1
  H+  H281  1  0.40189310  0.40329946  0.65085526  1
  H+  H282  1  0.32182198  0.18642255  0.76828886  1
  H+  H283  1  0.28528708  0.85379983  0.36385014  1
  H+  H284  1  0.34203683  0.88981565  0.01415989  1
  H+  H285  1  0.35521664  0.70169658  0.50161082  1
  H+  H286  1  0.86757197  0.87149499  0.81940063  1
  H+  H287  1  0.21908508  0.36720557  0.64526896  1
  H+  H288  1  0.15465742  0.82578781  0.94530265  1
  H+  H289  1  0.01611961  0.13746956  0.49348430  1
  H+  H290  1  0.59911289  0.91764797  0.05917962  1
  H+  H291  1  0.31641727  0.64186738  0.44212150  1
  H+  H292  1  0.62460646  0.82262671  0.34892843  1
  H+  H293  1  0.93545629  0.59005277  0.92456127  1
  H+  H294  1  0.92068601  0.35380441  0.22247348  1
  H+  H295  1  0.59209440  0.42719728  0.77144463  1
  H+  H296  1  0.65253796  0.86934334  0.98802673  1
  H+  H297  1  0.34243153  0.67291721  0.73825870  1
  H+  H298  1  0.14686656  0.61701757  0.65933469  1
  H+  H299  1  0.16204396  0.33458900  0.90566810  1
  H+  H300  1  0.58476972  0.42864515  0.39992558  1
  H+  H301  1  0.88740551  0.91052906  -0.02793905  1
  H+  H302  1  0.62588975  0.21590095  0.49305032  1
  H+  H303  1  0.18314553  0.36005139  0.25549568  1
  H+  H304  1  0.05133022  0.39764359  0.40978004  1
  H+  H305  1  0.07959462  0.92007681  0.40113613  1
  H+  H306  1  0.05470554  0.11780977  0.09653998  1
  H+  H307  1  0.19981134  0.59579200  0.91267350  1
  H+  H308  1  0.36533305  0.20289832  0.09294839  1
  H+  H309  1  0.61813929  0.63388409  0.68310631  1
  H+  H310  1  0.68067069  0.09830940  0.60151751  1
  H+  H311  1  0.47559162  0.10784966  0.19339739  1
  H+  H312  1  0.83785169  0.40453271  0.43073311  1
  H+  H313  1  0.15644142  0.07261272  0.23192498  1
  H+  H314  1  0.42092982  0.82393630  0.21939506  1
  H+  H315  1  0.77255496  0.14239241  -0.04121060  1
  H+  H316  1  0.30944131  0.89048072  0.75932822  1
  H+  H317  1  0.85154256  0.43755061  0.08942031  1
  H+  H318  1  0.02355032  0.89058416  0.49229317  1
  H+  H319  1  -0.01278643  0.85997910  0.00237955  1
  H+  H320  1  0.80608013  0.64276344  0.76536673  1
  H+  H321  1  0.67941832  0.83307374  0.92839453  1
  H+  H322  1  0.11324728  0.63376052  0.82883950  1
  H+  H323  1  0.17610562  0.10522011  0.58693760  1
  H+  H324  1  0.15614228  0.82164310  0.23036262  1
  H+  H325  1  0.44120999  0.06492240  0.59570960  1
  H+  H326  1  0.09627222  0.66673458  0.72843250  1
  H+  H327  1  0.05734036  0.89270695  0.06255770  1
  H+  H328  1  0.68150304  0.59644410  0.57273679  1
  H+  H329  1  -0.04790640  0.13562505  0.04113078  1
  H+  H330  1  0.91673782  0.58318769  0.26517245  1
  H+  H331  1  0.13249578  0.36138545  0.99487247  1
  H+  H332  1  0.74537567  0.12649789  0.50904115  1
  H+  H333  1  0.16392601  0.56816897  0.58231392  1
  H+  H334  1  0.42901245  0.33743478  0.94377846  1
  H+  H335  1  0.32621255  0.17652087  0.39264960  1
  H+  H336  1  0.53301504  0.40403651  0.67468235  1
  H+  H337  1  0.58387874  0.66199178  0.74046837  1
  H+  H338  1  0.43562562  0.06220951  0.93629033  1
  H+  H339  1  0.62549269  0.81080055  0.58161264  1
  H+  H340  1  0.77019929  0.13511484  0.34130468  1
  H+  H341  1  0.84961104  0.18178975  0.43890093  1
  H+  H342  1  0.67251035  0.78499273  0.16970115  1
  H+  H343  1  0.80281078  0.66853557  0.05932048  1
  H+  H344  1  0.64333700  0.58347765  0.93425471  1
  H+  H345  1  0.60470289  0.70139205  0.40661426  1
  H+  H346  1  0.07310311  0.16660309  0.43131788  1
  H+  H347  1  0.07824824  0.67211052  0.39604807  1
  H+  H348  1  0.09057107  0.65832883  0.06191311  1
  H+  H349  1  0.39491962  0.06232871  0.27503264  1
  H+  H350  1  0.11577096  0.44522752  0.77441655  1
  H+  H351  1  0.82363014  1.00932535  0.08644077  1
  H+  H352  1  0.87283975  0.23788319  0.16280682  1
  H+  H353  1  0.97757468  0.45459179  0.28681896  1
  H+  H354  1  0.62687507  0.48992843  0.49964501  1
  H+  H355  1  0.31045382  0.44846181  0.70872040  1
  H+  H356  1  0.46189811  0.11045837  0.93207954  1
  H+  H357  1  0.03665039  0.40633457  0.69131146  1
  H+  H358  1  0.83980113  0.92516354  0.43939914  1
  H+  H359  1  0.93080664  0.35512044  0.92995797  1
  H+  H360  1  0.41118154  0.34875110  0.27323925  1
  H+  H361  1  0.60780551  0.18599176  0.76434037  1
  H+  H362  1  0.78548184  0.14713850  0.66279641  1
  H+  H363  1  0.35168558  0.91278079  0.41335805  1
  H+  H364  1  0.88732997  0.18295991  0.76980114  1
  H+  H365  1  0.42355056  0.58005161  0.56111106  1
  H+  H366  1  0.60050219  0.93581925  0.73161400  1
  H+  H367  1  0.58207326  0.15795928  0.39784262  1
  H+  H368  1  0.90709261  0.07196937  0.27248902  1
  H+  H369  1  0.91128113  0.63795252  0.50776249  1
  H+  H370  1  0.16825703  0.83087303  0.59408613  1
  H+  H371  1  0.43037514  0.82773560  0.60532490  1
  H+  H372  1  0.92643649  0.79997149  0.24401589  1
  H+  H373  1  0.42850989  0.60955873  0.91752984  1
  H+  H374  1  0.07663933  0.16826242  0.77029125  1
  H+  H375  1  0.16842219  0.56954547  0.22767417  1
  H+  H376  1  0.83642564  0.90287539  0.72503663  1
  H+  H377  1  0.67750236  0.35487624  0.93603219  1
  H+  H378  1  0.38591119  0.83716501  0.94187479  1
  H+  H379  1  0.12652333  0.11214288  0.83987884  1
  H+  H380  1  0.08135604  0.40600028  0.06712880  1
  H+  H381  1  0.63077133  0.18628044  0.05686434  1
  H+  H382  1  0.83685314  0.42857736  0.73869891  1
  H+  H383  1  0.48841742  0.78237507  0.54289587  1
  O2-  O384  1  0.04743069  0.08680460  0.13539730  1
  O2-  O385  1  0.07706250  0.17106336  0.47684471  1
  O2-  O386  1  0.07665774  0.16472170  0.81525746  1
  O2-  O387  1  0.08643505  0.41621831  0.14770436  1
  O2-  O388  1  0.05209423  0.40519275  0.48618550  1
  O2-  O389  1  0.11818105  0.44863887  0.82040999  1
  O2-  O390  1  0.08983058  0.65679672  0.13934107  1
  O2-  O391  1  0.09943438  0.67852841  0.46856359  1
  O2-  O392  1  0.08462118  0.66144917  0.80915534  1
  O2-  O393  1  0.07504213  0.89834480  0.14783728  1
  O2-  O394  1  0.08611754  0.92338476  0.47719847  1
  O2-  O395  1  0.07416459  0.91009618  0.82326007  1
  O2-  O396  1  0.32712358  0.17884225  0.16805424  1
  O2-  O397  1  0.32220674  0.17959952  0.47035784  1
  O2-  O398  1  0.32607436  0.17626173  0.81218986  1
  O2-  O399  1  0.33971947  0.42999195  0.14315022  1
  O2-  O400  1  0.31342585  0.40672525  0.47939574  1
  O2-  O401  1  0.32316975  0.37503194  0.80514627  1
  O2-  O402  1  0.32692392  0.65650930  0.12826532  1
  O2-  O403  1  0.31576736  0.64164508  0.48773467  1
  O2-  O404  1  0.34515414  0.68557006  0.82339498  1
  O2-  O405  1  0.32679384  0.89989672  0.15052996  1
  O2-  O406  1  0.35017369  0.92559313  0.48490665  1
  O2-  O407  1  0.30548131  0.89444125  0.80475538  1
  O2-  O408  1  0.59323867  0.16720373  0.14451713  1
  O2-  O409  1  0.59277063  0.15781498  0.47444387  1
  O2-  O410  1  0.61750440  0.20191757  0.80860022  1
  O2-  O411  1  0.57417716  0.42560906  0.14797609  1
  O2-  O412  1  0.60066729  0.43096093  0.48075469  1
  O2-  O413  1  0.59457785  0.42798554  0.81691856  1
  O2-  O414  1  0.50950279  0.63675397  0.14004121  1
  O2-  O415  1  0.58824038  0.67070972  0.47891082  1
  O2-  O416  1  0.59406651  0.66956468  0.81747732  1
  O2-  O417  1  0.58951922  0.91550753  0.14219470  1
  O2-  O418  1  0.58683666  0.92641836  0.47903345  1
  O2-  O419  1  0.59736971  0.89187841  0.80172129  1
  O2-  O420  1  0.85077626  0.17585809  0.15361198  1
  O2-  O421  1  0.85671779  0.18735144  0.48366455  1
  O2-  O422  1  0.91699262  0.20333339  0.80852859  1
  O2-  O423  1  0.85171902  0.43863496  0.13436943  1
  O2-  O424  1  0.84056499  0.39662465  0.47496555  1
  O2-  O425  1  0.84676036  0.42725936  0.81698237  1
  O2-  O426  1  0.79429203  0.65167131  0.15866559  1
  O2-  O427  1  0.84068010  0.67738719  0.47331828  1
  O2-  O428  1  0.82482026  0.64964347  0.80851975  1
  O2-  O429  1  0.79917269  0.97725550  0.12450573  1
  O2-  O430  1  0.84534126  0.93150406  0.48416870  1
  O2-  O431  1  0.83724375  0.90207587  0.80193960  1
  O2-  O432  1  0.16456443  0.06956855  0.18750986  1
  O2-  O433  1  0.16140903  0.09685515  0.51792552  1
  O2-  O434  1  0.15459045  0.08050316  0.85645275  1
  O2-  O435  1  0.19177203  0.36694117  0.21018397  1
  O2-  O436  1  0.14829946  0.33371623  0.51547604  1
  O2-  O437  1  0.16113056  0.33617581  0.85883048  1
  O2-  O438  1  0.17336108  0.57874357  0.18245913  1
  O2-  O439  1  0.15782969  0.55981618  0.53367570  1
  O2-  O440  1  0.19747842  0.59520047  0.86599019  1
  O2-  O441  1  0.16083627  0.81621347  0.18575861  1
  O2-  O442  1  0.17674077  0.84894917  0.51813170  1
  O2-  O443  1  0.15339214  0.82024492  0.86545855  1
  O2-  O444  1  0.41391126  0.07866007  0.18370554  1
  O2-  O445  1  0.44603163  0.06984935  0.53301002  1
  O2-  O446  1  0.39809051  0.07325652  0.81637066  1
  O2-  O447  1  0.41287275  0.34699496  0.19676323  1
  O2-  O448  1  0.43958608  0.31018864  0.52787243  1
  O2-  O449  1  0.43274259  0.32911098  0.86426027  1
  O2-  O450  1  0.42897903  0.59535213  0.17494100  1
  O2-  O451  1  0.41448192  0.56894221  0.51656552  1
  O2-  O452  1  0.43214728  0.61303550  0.87053991  1
  O2-  O453  1  0.41714275  0.82084926  0.17468572  1
  O2-  O454  1  0.44372779  0.79836853  0.53217838  1
  O2-  O455  1  0.40368221  0.84069930  0.86412216  1
  O2-  O456  1  0.67492100  0.07957152  0.18863291  1
  O2-  O457  1  0.68476302  0.09219012  0.52288952  1
  O2-  O458  1  0.55173894  -0.02505329  0.86595536  1
  O2-  O459  1  0.63068594  0.31441871  0.18958036  1
  O2-  O460  1  0.70533580  0.30485246  0.53647442  1
  O2-  O461  1  0.68523297  0.35627425  0.85983192  1
  O2-  O462  1  0.62542725  0.59103730  0.18611877  1
  O2-  O463  1  0.67453429  0.59052925  0.52806913  1
  O2-  O464  1  0.66784705  0.58778306  0.86737644  1
  O2-  O465  1  0.66636527  0.81040055  0.13241700  1
  O2-  O466  1  0.59106477  0.79571372  0.54159130  1
  O2-  O467  1  0.68501483  0.82665035  0.85086072  1
  O2-  O468  1  0.91248575  0.08002304  0.20095573  1
  O2-  O469  1  0.92279507  0.08672332  0.52404686  1
  O2-  O470  1  0.90773874  0.05291773  0.86305071  1
  O2-  O471  1  0.92040265  0.34347045  0.17807019  1
  O2-  O472  1  0.96320429  0.35567751  0.51009859  1
  O2-  O473  1  0.94012931  0.35396338  0.85080080  1
  O2-  O474  1  0.92930859  0.58790610  0.18363916  1
  O2-  O475  1  0.94701880  0.61540369  0.52423250  1
  O2-  O476  1  0.92406036  0.58821717  0.85391376  1
  O2-  O477  1  0.93275491  0.77489795  0.20555545  1
  O2-  O478  1  0.92708453  0.84364392  0.51069316  1
  O2-  O479  1  0.91021897  0.82253120  0.84886678  1
  O2-  O480  1  0.15515623  0.08307169  0.31232538  1
  O2-  O481  1  0.18538359  0.10751481  0.63352877  1
  O2-  O482  1  0.10243216  0.05566111  0.97921618  1
  O2-  O483  1  0.15986588  0.33143829  0.32861013  1
  O2-  O484  1  0.15620890  0.33490248  0.63872388  1
  O2-  O485  1  0.16424440  0.33262627  0.97692570  1
  O2-  O486  1  0.16120722  0.54286635  0.30088909  1
  O2-  O487  1  0.17773140  0.58498196  0.64505341  1
  O2-  O488  1  0.20344762  0.60177100  0.98630529  1
  O2-  O489  1  0.15795057  0.84660236  0.30819756  1
  O2-  O490  1  0.16518893  0.82446009  0.63946376  1
  O2-  O491  1  0.15145575  0.82445838  0.99053177  1
  O2-  O492  1  0.39966601  0.06800019  0.31939526  1
  O2-  O493  1  0.43411264  0.06399470  0.64577250  1
  O2-  O494  1  0.43888180  0.09164072  1.06302378  1
  O2-  O495  1  0.40931882  0.34337779  0.31898742  1
  O2-  O496  1  0.43078937  0.36944560  0.64407738  1
  O2-  O497  1  0.42780341  0.34763099  0.98808094  1
  O2-  O498  1  0.44105645  0.62775216  0.31359058  1
  O2-  O499  1  0.43190512  0.59978913  0.63959898  1
  O2-  O500  1  0.41453481  0.59861058  0.98713167  1
  O2-  O501  1  0.44021418  0.84400981  0.30505471  1
  O2-  O502  1  0.42534649  0.83611928  0.64964314  1
  O2-  O503  1  0.37605784  0.83261158  0.98657994  1
  O2-  O504  1  0.67197507  0.07987535  0.31211490  1
  O2-  O505  1  0.68464241  0.10569267  0.64667386  1
  O2-  O506  1  0.65640400  0.06762993  0.95744531  1
  O2-  O507  1  0.65611455  0.33078345  0.31543073  1
  O2-  O508  1  0.66784760  0.34081085  0.65041134  1
  O2-  O509  1  0.67926096  0.35548931  0.98174643  1
  O2-  O510  1  0.65780129  0.59173296  0.30874447  1
  O2-  O511  1  0.68022526  0.58837187  0.65909244  1
  O2-  O512  1  0.61304884  0.57182435  0.97624999  1
  O2-  O513  1  0.65640749  0.79160451  0.33990191  1
  O2-  O514  1  0.66588139  0.82263029  0.64459145  1
  O2-  O515  1  0.68252431  0.83703054  0.97363384  1
  O2-  O516  1  0.90716705  0.07025961  0.31890267  1
  O2-  O517  1  0.92703520  0.07698525  0.64542752  1
  O2-  O518  1  0.89077237  0.11727022  1.04954321  1
  O2-  O519  1  0.93765090  0.39436086  0.29630086  1
  O2-  O520  1  0.93949908  0.36055232  0.67611710  1
  O2-  O521  1  0.91716219  0.34444360  0.97412682  1
  O2-  O522  1  0.91032334  0.58142673  0.31009304  1
  O2-  O523  1  0.92377671  0.59787248  0.64782984  1
  O2-  O524  1  0.93985001  0.58443100  0.97079932  1
  O2-  O525  1  0.91710492  0.82789356  0.31892025  1
  O2-  O526  1  0.89592354  0.80944335  0.62294825  1
  O2-  O527  1  0.90802262  0.83176621  0.98239408  1
  O2-  O528  1  0.05671325  0.16156926  0.02493982  1
  O2-  O529  1  0.07293906  0.16362801  0.35416039  1
  O2-  O530  1  0.08725352  0.17423385  0.68700976  1
  O2-  O531  1  0.08146248  0.40467875  0.02206821  1
  O2-  O532  1  0.06056911  0.39372564  0.36527133  1
  O2-  O533  1  0.10136641  0.43404583  0.69961896  1
  O2-  O534  1  0.09575618  0.66234181  0.01626091  1
  O2-  O535  1  0.06729837  0.66966395  0.35064103  1
  O2-  O536  1  0.09898375  0.66380380  0.68343789  1
  O2-  O537  1  0.05713481  0.88978320  0.01778184  1
  O2-  O538  1  0.07778235  0.92030491  0.35533376  1
  O2-  O539  1  0.04828317  0.86716861  0.67708599  1
  O2-  O540  1  0.39847968  0.20754093  0.05579503  1
  O2-  O541  1  0.32633446  0.17197752  0.34738709  1
  O2-  O542  1  0.33061215  0.20879531  0.68940885  1
  O2-  O543  1  0.33649137  0.42849157  0.01744198  1
  O2-  O544  1  0.31822356  0.40662701  0.36917501  1
  O2-  O545  1  0.32885915  0.44176775  0.66848122  1
  O2-  O546  1  0.29281289  0.65590114  0.00817292  1
  O2-  O547  1  0.31590316  0.63349901  0.36595034  1
  O2-  O548  1  0.34425730  0.67115385  0.69327302  1
  O2-  O549  1  0.31796591  0.92433155  0.03489284  1
  O2-  O550  1  0.34425833  0.90135145  0.36743330  1
  O2-  O551  1  0.32803894  0.90130088  0.68446737  1
  O2-  O552  1  0.60990449  0.18294042  0.01494347  1
  O2-  O553  1  0.58002439  0.15909318  0.35221156  1
  O2-  O554  1  0.59356427  0.17451891  0.68951164  1
  O2-  O555  1  0.59446150  0.43557965  0.02730432  1
  O2-  O556  1  0.58036718  0.42615045  0.35481610  1
  O2-  O557  1  0.59067926  0.42484088  0.69313072  1
  O2-  O558  1  0.61288041  0.69695702  0.03236132  1
  O2-  O559  1  0.60181223  0.70245094  0.36003518  1
  O2-  O560  1  0.58149311  0.65841971  0.69496603  1
  O2-  O561  1  0.60277919  0.91358067  0.01464989  1
  O2-  O562  1  0.60244436  0.91329847  0.35544574  1
  O2-  O563  1  0.59048962  0.95754465  0.69258600  1
  O2-  O564  1  0.83525032  0.18039425  -0.03715926  1
  O2-  O565  1  0.83094805  0.16509589  0.35764593  1
  O2-  O566  1  0.85042991  0.17577778  0.66797020  1
  O2-  O567  1  0.84930939  0.43457568  0.00745986  1
  O2-  O568  1  0.82402381  0.41784402  0.35072688  1
  O2-  O569  1  0.83747531  0.42728135  0.69340142  1
  O2-  O570  1  0.79414859  0.67092720  0.01579592  1
  O2-  O571  1  0.82662289  0.66087703  0.34992869  1
  O2-  O572  1  0.75732430  0.63457619  0.69112856  1
  O2-  O573  1  0.86727161  0.95344572  -0.03668245  1
  O2-  O574  1  0.83297617  0.90707800  0.35916019  1
  O2-  O575  1  0.83365115  0.90354203  0.67946783  1
