# generated using pymatgen
data_H2O
_symmetry_space_group_name_H-M   'P 1'
_cell_length_a   17.98249868
_cell_length_b   17.99198423
_cell_length_c   22.00387344
_cell_angle_alpha   90.06182578
_cell_angle_beta   89.93454717
_cell_angle_gamma   120.00432384
_symmetry_Int_Tables_number   1
_chemical_formula_structural   H2O
_chemical_formula_sum   'H384 O192'
_cell_volume   6165.09235638
_cell_formula_units_Z   192
loop_
 _symmetry_equiv_pos_site_id
 _symmetry_equiv_pos_as_xyz
  1  'x, y, z'
loop_
 _atom_type_symbol
 _atom_type_oxidation_number
  H+  1.0
  O2-  -2.0
loop_
 _atom_site_type_symbol
 _atom_site_label
 _atom_site_symmetry_multiplicity
 _atom_site_fract_x
 _atom_site_fract_y
 _atom_site_fract_z
 _atom_site_occupancy
  H+  H0  1  0.64220609  0.09677297  0.66142943  1
  H+  H1  1  0.14893050  0.37444130  0.00073063  1
  H+  H2  1  0.57896475  0.63244507  0.52229063  1
  H+  H3  1  0.72868586  0.62016153  0.84258259  1
  H+  H4  1  0.85212220  0.08552586  1.00084583  1
  H+  H5  1  0.09829702  0.10140243  0.67468901  1
  H+  H6  1  0.76794701  0.36923286  0.49666317  1
  H+  H7  1  0.73603208  0.37113568  0.32931717  1
  H+  H8  1  0.78676016  0.87421909  0.03498475  1
  H+  H9  1  0.36161532  0.88616866  0.15838586  1
  H+  H10  1  0.75480214  0.88064332  0.49674773  1
  H+  H11  1  0.58761384  0.66169549  1.05612680  1
  H+  H12  1  0.62322362  0.73953883  0.32148051  1
  H+  H13  1  0.58553562  0.72485057  0.52030799  1
  H+  H14  1  0.25830301  0.89816291  0.49390169  1
  H+  H15  1  0.86203050  0.97972768  0.33707688  1
  H+  H16  1  0.12664332  0.46118566  0.67418618  1
  H+  H17  1  0.12039529  0.62653570  0.83883517  1
  H+  H18  1  0.75373015  0.62914680  0.16253416  1
  H+  H19  1  0.14251799  0.02367268  0.99367488  1
  H+  H20  1  0.33900617  0.15869862  0.08627899  1
  H+  H21  1  0.90786495  0.63409771  0.32402881  1
  H+  H22  1  0.33074233  0.77497703  0.87693864  1
  H+  H23  1  0.47188172  0.26269240  0.62415060  1
  H+  H24  1  0.17363514  0.56227429  0.57759772  1
  H+  H25  1  0.62125814  0.86022193  0.50781963  1
  H+  H26  1  0.86647810  0.63437458  0.83383255  1
  H+  H27  1  0.13045331  0.26157571  0.85464059  1
  H+  H28  1  0.97849469  0.86717098  0.84155145  1
  H+  H29  1  0.62253357  0.60581620  0.99078046  1
  H+  H30  1  0.13354692  0.74693738  1.01065186  1
  H+  H31  1  0.84489326  0.72783527  0.50024502  1
  H+  H32  1  0.69256943  0.60108105  0.22118013  1
  H+  H33  1  0.87300258  0.87462128  1.01341730  1
  H+  H34  1  0.50548812  0.87975676  0.48833797  1
  H+  H35  1  0.36993176  0.63320785  0.82197257  1
  H+  H36  1  0.23894282  0.60894313  0.83267790  1
  H+  H37  1  0.44403127  0.28259453  0.62933189  1
  H+  H38  1  0.46908538  0.62612682  0.47119388  1
  H+  H39  1  0.55548631  0.89532813  0.73812714  1
  H+  H40  1  0.38377770  0.40531328  0.00814688  1
  H+  H41  1  0.12073939  0.46849924  0.82749647  1
  H+  H42  1  0.05087956  0.17175247  1.07267321  1
  H+  H43  1  0.41706118  0.24035364  0.31066417  1
  H+  H44  1  1.02425383  0.88796686  1.01179676  1
  H+  H45  1  0.45810198  0.35517136  0.93677198  1
  H+  H46  1  1.04517037  0.95085757  0.16239024  1
  H+  H47  1  0.89697035  0.87357704  0.32389435  1
  H+  H48  1  0.14045953  0.35451205  0.84829250  1
  H+  H49  1  0.39463204  0.35643403  0.84888260  1
  H+  H50  1  0.85469667  0.12964251  0.83913785  1
  H+  H51  1  0.38533756  0.63419958  0.66548514  1
  H+  H52  1  0.63762451  0.77541525  0.66512182  1
  H+  H53  1  0.63592144  0.52483070  0.66429793  1
  H+  H54  1  0.47486003  0.86502657  0.99198833  1
  H+  H55  1  0.64681688  0.38569407  0.32434796  1
  H+  H56  1  0.15394516  0.24221438  0.60804229  1
  H+  H57  1  0.28699392  0.39158071  1.00661224  1
  H+  H58  1  0.48035986  0.03071009  0.72501682  1
  H+  H59  1  0.73630977  0.36420988  0.66715423  1
  H+  H60  1  0.43323440  0.60717496  0.40297217  1
  H+  H61  1  0.37911960  0.23546798  0.29314391  1
  H+  H62  1  0.40098372  0.10573500  1.00563649  1
  H+  H63  1  0.24427729  0.11683862  0.66943858  1
  H+  H64  1  0.39604996  0.38380698  0.16822830  1
  H+  H65  1  0.65596680  0.54291632  0.31630574  1
  H+  H66  1  0.47876524  0.44352139  0.65584553  1
  H+  H67  1  0.63662593  0.49354654  0.15503870  1
  H+  H68  1  0.75802903  0.88508316  0.67972886  1
  H+  H69  1  0.85591704  0.21425170  0.50304321  1
  H+  H70  1  0.91634523  0.32375769  0.94145012  1
  H+  H71  1  0.22283173  0.60069449  0.50874506  1
  H+  H72  1  0.13676628  0.74020757  0.33816923  1
  H+  H73  1  0.89565581  0.11954172  0.33128251  1
  H+  H74  1  0.61227769  0.00337614  0.31605724  1
  H+  H75  1  0.65651823  0.83013537  0.90901690  1
  H+  H76  1  0.05287071  0.66719370  0.04287001  1
  H+  H77  1  0.86249828  0.49006576  -0.00287803  1
  H+  H78  1  0.10790999  0.01892588  0.66831148  1
  H+  H79  1  0.72133780  0.87187920  0.31171849  1
  H+  H80  1  0.85180723  -0.00413563  0.99613833  1
  H+  H81  1  0.58453290  0.46890409  0.98978776  1
  H+  H82  1  0.64581645  0.35263433  0.84289392  1
  H+  H83  1  1.00270733  0.12869093  0.85233982  1
  H+  H84  1  0.85784123  0.23153729  0.68285613  1
  H+  H85  1  0.90027788  0.26984963  1.00407982  1
  H+  H86  1  0.52551688  0.63451247  -0.00178510  1
  H+  H87  1  0.62360443  0.15386175  0.17582143  1
  H+  H88  1  0.97880216  0.35651675  0.84384677  1
  H+  H89  1  0.00969149  0.88838392  0.68523340  1
  H+  H90  1  0.97733094  0.10701972  0.33111713  1
  H+  H91  1  0.76494723  0.87820135  0.83498511  1
  H+  H92  1  0.12692007  0.88811087  0.66073717  1
  H+  H93  1  0.12670531  0.50179551  0.51076308  1
  H+  H94  1  0.58750828  0.95383989  0.67767787  1
  H+  H95  1  0.62716409  0.86053062  0.31088561  1
  H+  H96  1  0.52465549  0.39241214  0.49130005  1
  H+  H97  1  0.24970769  0.10031837  0.36719106  1
  H+  H98  1  0.88119866  0.76063130  -0.00999784  1
  H+  H99  1  0.89603516  0.50885188  0.85601470  1
  H+  H100  1  0.87283861  0.77999258  0.67059423  1
  H+  H101  1  0.51317349  0.12925845  0.49727732  1
  H+  H102  1  0.91340920  0.87199431  0.17520888  1
  H+  H103  1  0.84579582  0.36310197  1.00675256  1
  H+  H104  1  0.14570008  0.28883117  0.48687738  1
  H+  H105  1  0.59605948  -0.03368234  0.48527664  1
  H+  H106  1  0.89098446  0.77698786  0.84238176  1
  H+  H107  1  0.92957397  0.58045529  1.02460028  1
  H+  H108  1  0.99377226  0.63235318  0.32396621  1
  H+  H109  1  0.14339051  0.90002606  0.49988566  1
  H+  H110  1  0.75997873  0.12669826  0.49535236  1
  H+  H111  1  0.20018481  0.53466956  0.34509902  1
  H+  H112  1  0.98432308  0.38674338  0.31922467  1
  H+  H113  1  0.13469196  0.34887007  0.16554155  1
  H+  H114  1  0.16173882  0.59929096  0.67111553  1
  H+  H115  1  0.87597345  0.47119967  0.68328481  1
  H+  H116  1  0.96979368  0.80382461  0.53816402  1
  H+  H117  1  0.76322406  0.89586128  0.16916344  1
  H+  H118  1  0.11241822  0.88850910  0.83039541  1
  H+  H119  1  0.63800865  0.49204586  0.82239056  1
  H+  H120  1  0.86444798  0.65165314  0.67303155  1
  H+  H121  1  0.38126006  0.22299520  0.80850217  1
  H+  H122  1  0.31210015  0.40713001  0.38600923  1
  H+  H123  1  0.42054618  0.07991935  0.89385292  1
  H+  H124  1  0.59044694  -0.04414182  0.83506234  1
  H+  H125  1  0.23749154  0.09948480  0.98772353  1
  H+  H126  1  0.06830080  0.23535144  0.58990255  1
  H+  H127  1  0.85398556  0.37571361  0.33509524  1
  H+  H128  1  0.76644937  0.63527310  0.67843156  1
  H+  H129  1  0.10934263  0.36486855  0.66962197  1
  H+  H130  1  0.60853504  0.72336382  0.83620339  1
  H+  H131  1  0.60783479  0.21694551  -0.00039974  1
  H+  H132  1  0.35705232  0.08450355  0.33310287  1
  H+  H133  1  0.09403660  0.67304590  0.68205243  1
  H+  H134  1  0.02178102  0.38290442  0.01060991  1
  H+  H135  1  0.36218251  0.24388023  0.53365038  1
  H+  H136  1  0.38849117  0.61842679  -0.01031733  1
  H+  H137  1  0.52378183  0.12391215  -0.00758630  1
  H+  H138  1  0.88788223  0.11632200  0.18118448  1
  H+  H139  1  0.87064358  0.74451926  0.33562661  1
  H+  H140  1  0.53945701  0.42623435  0.33512887  1
  H+  H141  1  0.50431810  0.03851918  0.69540054  1
  H+  H142  1  0.65303810  0.38871093  0.17524855  1
  H+  H143  1  0.36948580  0.73477342  0.00189392  1
  H+  H144  1  0.63465109  0.04280313  0.17254773  1
  H+  H145  1  0.60095238  0.98120668  0.00676066  1
  H+  H146  1  0.13818394  0.26059863  0.16632227  1
  H+  H147  1  0.22502875  0.13244208  0.53059868  1
  H+  H148  1  0.11859687  0.00867279  0.49568331  1
  H+  H149  1  0.85189032  1.01451332  0.67300078  1
  H+  H150  1  0.33649291  0.06307836  0.64892215  1
  H+  H151  1  0.11768028  0.68870976  0.39896216  1
  H+  H152  1  0.98343984  0.35725813  0.66471888  1
  H+  H153  1  0.08699695  0.10449949  0.14321808  1
  H+  H154  1  0.24028661  0.33792696  0.70238880  1
  H+  H155  1  0.35757644  0.77040484  0.49618979  1
  H+  H156  1  0.71819223  0.09497765  0.84414852  1
  H+  H157  1  0.10922473  0.97792833  0.83149221  1
  H+  H158  1  0.11735833  0.09792322  0.84811829  1
  H+  H159  1  0.90696805  0.62751273  0.64740976  1
  H+  H160  1  0.54303265  0.64826042  0.67647551  1
  H+  H161  1  0.89654296  0.37328058  0.17046595  1
  H+  H162  1  0.14192353  0.77624597  0.85136186  1
  H+  H163  1  0.53298075  0.63258474  0.14779584  1
  H+  H164  1  0.37668887  0.11073746  0.51419050  1
  H+  H165  1  0.86537229  0.44732549  0.48514370  1
  H+  H166  1  0.18703601  0.09194010  0.27663140  1
  H+  H167  1  0.89116145  0.98953156  0.16963119  1
  H+  H168  1  0.08940661  0.65895226  0.78444950  1
  H+  H169  1  0.92384916  0.63820992  0.11705712  1
  H+  H170  1  0.23315974  0.59868367  0.17561768  1
  H+  H171  1  0.52140772  0.63231268  0.83075197  1
  H+  H172  1  0.75456832  0.36450291  0.00883892  1
  H+  H173  1  0.48679653  0.11901718  0.17535737  1
  H+  H174  1  0.88662334  0.26875216  0.84639226  1
  H+  H175  1  0.75257044  0.62380370  1.00044270  1
  H+  H176  1  0.45262125  0.52747355  0.29906740  1
  H+  H177  1  0.39670721  0.40435139  0.31588195  1
  H+  H178  1  0.38796675  0.52855799  0.99170798  1
  H+  H179  1  0.32574382  0.46223359  0.32723579  1
  H+  H180  1  0.95026441  0.59156177  0.46439531  1
  H+  H181  1  0.53285503  0.13269737  0.82832882  1
  H+  H182  1  0.94805923  0.18991157  0.03865071  1
  H+  H183  1  0.63665291  0.11563426  0.98928148  1
  H+  H184  1  0.84978895  0.10435227  0.67305871  1
  H+  H185  1  0.34358677  0.74138680  0.31436580  1
  H+  H186  1  0.36598730  0.49033899  0.45818830  1
  H+  H187  1  0.38946340  0.01565371  0.99019358  1
  H+  H188  1  0.63569112  0.36279706  0.50744562  1
  H+  H189  1  0.72445926  0.10914411  -0.00515227  1
  H+  H190  1  0.13799362  0.75512060  0.49324645  1
  H+  H191  1  0.64196501  0.61732748  0.67065200  1
  H+  H192  1  0.37647223  0.75326151  0.65091322  1
  H+  H193  1  0.50591189  0.62515791  0.31715567  1
  H+  H194  1  0.23485137  0.87315652  1.00094173  1
  H+  H195  1  0.87846585  0.34107268  0.50934420  1
  H+  H196  1  0.78197730  0.38408845  0.83959380  1
  H+  H197  1  0.38822044  0.37915900  0.49265205  1
  H+  H198  1  0.34812186  0.63901643  0.46853141  1
  H+  H199  1  0.12035279  0.61625314  0.98751151  1
  H+  H200  1  0.11353767  0.80022324  0.63733096  1
  H+  H201  1  0.34810655  0.88569893  0.49182976  1
  H+  H202  1  0.62499104  0.63952704  0.14707046  1
  H+  H203  1  0.74365977  0.63229836  0.31661209  1
  H+  H204  1  0.88905300  0.24543787  0.33953769  1
  H+  H205  1  0.98483543  0.86896500  0.32810942  1
  H+  H206  1  0.62044075  0.85461403  0.66666629  1
  H+  H207  1  0.12178695  0.46881810  0.16516955  1
  H+  H208  1  0.10234794  0.21995203  0.33351760  1
  H+  H209  1  0.39477794  1.01836860  0.83614793  1
  H+  H210  1  0.52167304  0.35504620  0.67643655  1
  H+  H211  1  0.65883586  0.22824857  0.68587640  1
  H+  H212  1  0.01766413  0.38314047  0.49355934  1
  H+  H213  1  0.10538497  0.47497338  0.00885256  1
  H+  H214  1  0.70953978  0.07009415  0.64776378  1
  H+  H215  1  0.38067613  0.76942056  0.17170768  1
  H+  H216  1  0.61148997  0.09031222  0.32287535  1
  H+  H217  1  0.11244791  0.13559742  0.34000056  1
  H+  H218  1  0.33528003  0.82572048  0.32154377  1
  H+  H219  1  0.89312764  0.74237423  0.14843528  1
  H+  H220  1  0.38638067  0.52343542  0.16752957  1
  H+  H221  1  0.11522247  0.89435498  0.01742690  1
  H+  H222  1  0.59123083  0.43254280  0.39636409  1
  H+  H223  1  0.13360120  0.72602548  0.17464280  1
  H+  H224  1  0.55667657  0.89143622  0.38940102  1
  H+  H225  1  0.63103072  0.65487380  0.32515689  1
  H+  H226  1  0.38818361  0.51703716  0.84444835  1
  H+  H227  1  0.10871162  0.39166928  0.33049357  1
  H+  H228  1  0.01912720  0.13065454  0.16535865  1
  H+  H229  1  0.27254545  0.43612740  0.70432437  1
  H+  H230  1  0.84610722  0.88574044  0.49477396  1
  H+  H231  1  0.48341147  0.36014518  0.83821575  1
  H+  H232  1  0.83713043  0.61616531  -0.00048374  1
  H+  H233  1  0.91574900  0.53919456  0.66131573  1
  H+  H234  1  0.49346169  0.10557491  0.33644482  1
  H+  H235  1  0.36239111  0.88098132  0.00566789  1
  H+  H236  1  0.19848566  0.34815640  0.31727329  1
  H+  H237  1  0.00734063  0.62738904  0.12886801  1
  H+  H238  1  -0.00542706  0.60338524  0.85607843  1
  H+  H239  1  0.64533140  0.35767884  0.66788380  1
  H+  H240  1  0.23091575  0.85913127  0.17508720  1
  H+  H241  1  1.08732073  0.65401944  0.49336504  1
  H+  H242  1  0.60236540  0.21726006  0.49354855  1
  H+  H243  1  0.33226756  0.17685388  0.58854898  1
  H+  H244  1  0.27467125  0.37245764  0.84737148  1
  H+  H245  1  0.31835366  0.82889756  0.67505221  1
  H+  H246  1  0.65605596  0.83922829  0.56994747  1
  H+  H247  1  0.27149620  0.38218475  0.15698220  1
  H+  H248  1  0.74326975  0.38730744  0.17799767  1
  H+  H249  1  0.61059254  0.47975880  0.49667472  1
  H+  H250  1  0.18912661  0.73097793  0.70651091  1
  H+  H251  1  0.85657257  0.88187394  0.83156131  1
  H+  H252  1  0.12724794  0.88843719  0.34174626  1
  H+  H253  1  0.12276728  0.16163508  0.49251454  1
  H+  H254  1  0.69738111  0.62126749  0.50942203  1
  H+  H255  1  0.61663178  0.35094387  0.99345018  1
  H+  H256  1  0.38051929  0.41658691  0.65814120  1
  H+  H257  1  0.39356166  0.12138643  0.11382323  1
  H+  H258  1  0.87330211  0.86933493  0.66702209  1
  H+  H259  1  0.54643091  0.40688756  0.15822043  1
  H+  H260  1  0.45294047  0.84774318  0.65602275  1
  H+  H261  1  0.49254591  0.85852708  0.33341602  1
  H+  H262  1  0.35853481  0.87226172  0.82970515  1
  H+  H263  1  0.27982142  0.64717503  0.00499891  1
  H+  H264  1  0.24578196  0.85699230  0.67504234  1
  H+  H265  1  0.27770894  0.40350754  0.47602972  1
  H+  H266  1  0.50570939  0.90585566  0.16566688  1
  H+  H267  1  0.06602856  0.19933075  0.68982739  1
  H+  H268  1  0.82043593  0.63266553  0.48435947  1
  H+  H269  1  0.44331317  0.54763515  0.62902922  1
  H+  H270  1  0.37188412  0.63922600  0.15674468  1
  H+  H271  1  0.36908759  0.97918817  0.15522516  1
  H+  H272  1  0.87176265  0.38333966  0.83803403  1
  H+  H273  1  0.68500274  0.88136824  1.09525947  1
  H+  H274  1  0.03014817  0.92030478  0.49208115  1
  H+  H275  1  0.60236744  0.89824339  0.03089262  1
  H+  H276  1  0.08640461  0.23837149  1.01846898  1
  H+  H277  1  0.62612205  0.10506165  0.50105282  1
  H+  H278  1  0.86888856  0.01435190  0.84542178  1
  H+  H279  1  0.85222752  0.10775707  0.51313446  1
  H+  H280  1  0.59380934  0.67262899  0.74116318  1
  H+  H281  1  0.35743250  -0.01413579  0.49049928  1
  H+  H282  1  0.24648771  0.59375927  0.66175344  1
  H+  H283  1  0.48547056  0.63330130  0.59046193  1
  H+  H284  1  0.64553111  0.26324247  0.84610341  1
  H+  H285  1  0.50053767  0.86654747  0.83646441  1
  H+  H286  1  0.86539098  0.22932786  0.16822517  1
  H+  H287  1  0.97730061  0.11503009  0.69313547  1
  H+  H288  1  0.65545629  0.57515091  0.93195827  1
  H+  H289  1  0.91663298  0.32133819  0.56951543  1
  H+  H290  1  0.18369015  0.83172003  0.23959533  1
  H+  H291  1  0.08836946  0.40249939  0.77218856  1
  H+  H292  1  0.17270400  0.84523268  0.94284315  1
  H+  H293  1  0.34863019  0.65627323  0.72738880  1
  H+  H294  1  0.55554049  0.94045397  0.10325500  1
  H+  H295  1  0.77531644  0.14026586  0.16651168  1
  H+  H296  1  0.81424861  0.38171555  0.39925916  1
  H+  H297  1  0.38997774  0.14063319  0.80403257  1
  H+  H298  1  0.94945778  0.58886293  0.58599549  1
  H+  H299  1  0.87150549  0.05758812  0.90931219  1
  H+  H300  1  0.67565845  0.86081870  0.20536926  1
  H+  H301  1  0.86652902  0.17608181  0.07978026  1
  H+  H302  1  0.39173939  0.05795318  0.56498670  1
  H+  H303  1  0.08580917  0.41273929  0.10376437  1
  H+  H304  1  0.42836425  0.58567894  0.22428258  1
  H+  H305  1  0.13297076  0.01619315  0.32397199  1
  H+  H306  1  0.35350219  0.61011042  0.30581420  1
  H+  H307  1  0.41709091  0.58351857  0.89931062  1
  H+  H308  1  0.61806077  0.12639727  0.83721701  1
  H+  H309  1  0.85329125  0.18384030  0.39770692  1
  H+  H310  1  0.68677171  0.45698010  0.78383293  1
  H+  H311  1  0.33514207  0.42092193  0.09888884  1
  H+  H312  1  0.39000568  0.82292905  0.55864556  1
  H+  H313  1  0.41560805  0.82900969  0.93014914  1
  H+  H314  1  0.40538953  0.03410964  0.65946849  1
  H+  H315  1  0.83161255  0.41083524  0.09870991  1
  H+  H316  1  0.98265352  0.36640819  0.17256048  1
  H+  H317  1  0.65087902  0.06697447  0.55841417  1
  H+  H318  1  0.55493125  0.13933556  0.39410094  1
  H+  H319  1  0.72818015  0.94361964  1.03863392  1
  H+  H320  1  0.33143983  0.15627064  0.70879239  1
  H+  H321  1  0.82286789  0.91455411  0.39232490  1
  H+  H322  1  0.17646993  0.57913591  0.89257488  1
  H+  H323  1  0.91890668  0.08688151  0.24101926  1
  H+  H324  1  0.13288375  0.67771145  0.11433945  1
  H+  H325  1  0.14329581  0.31744455  0.25748239  1
  H+  H326  1  0.05242055  0.15349241  0.78998491  1
  H+  H327  1  0.17256710  0.33456103  0.94414225  1
  H+  H328  1  0.34818339  -0.00171928  0.31049378  1
  H+  H329  1  0.85595872  1.00933096  0.51722154  1
  H+  H330  1  0.84471382  0.68430566  0.08887797  1
  H+  H331  1  0.17205863  0.87362416  0.56227994  1
  H+  H332  1  0.66139133  0.06806152  0.90402427  1
  H+  H333  1  0.61881694  0.24005312  0.17620596  1
  H+  H334  1  0.66396842  0.32956384  0.56597892  1
  H+  H335  1  0.81828527  0.91242887  0.74011075  1
  H+  H336  1  0.07563547  0.91799950  0.74306366  1
  H+  H337  1  0.88305474  0.49135248  0.13946935  1
  H+  H338  1  0.14428964  0.09101119  0.57477196  1
  H+  H339  1  0.95330586  0.57395818  0.53708556  1
  H+  H340  1  0.65848722  0.32743807  0.93822428  1
  H+  H341  1  0.66924790  0.08847538  0.23618071  1
  H+  H342  1  0.84401470  0.41688294  0.74726703  1
  H+  H343  1  0.87638255  0.06770355  0.58135777  1
  H+  H344  1  0.31699625  0.89146272  0.77183696  1
  H+  H345  1  0.82783388  0.16536991  0.78030680  1
  H+  H346  1  0.23070349  0.86447564  0.84545841  1
  H+  H347  1  0.76079229  0.18161939  0.70463225  1
  H+  H348  1  0.92178857  0.34421131  0.26268067  1
  H+  H349  1  0.14612131  0.59753568  0.18455972  1
  H+  H350  1  0.11085046  0.39075970  0.48449931  1
  H+  H351  1  0.42384709  0.38728230  0.55872360  1
  H+  H352  1  0.36482791  0.72194140  0.82040257  1
  H+  H353  1  0.28236055  0.64524275  0.42777099  1
  H+  H354  1  0.09077741  0.18208194  0.42991420  1
  H+  H355  1  0.32806731  0.39990220  0.78693827  1
  H+  H356  1  0.63611797  0.61516800  0.83822347  1
  H+  H357  1  0.09244635  0.98229514  0.10129217  1
  H+  H358  1  0.27468931  0.89068543  0.38195119  1
  H+  H359  1  0.44863812  0.40628419  0.25689509  1
  H+  H360  1  0.82542826  0.68670461  0.39417320  1
  H+  H361  1  0.63356512  0.17226203  0.74716716  1
  H+  H362  1  0.92510339  0.56890178  0.92199103  1
  H+  H363  1  0.33861192  0.66888752  0.09947485  1
  H+  H364  1  0.89672405  0.36149246  0.66785782  1
  H+  H365  1  0.33797124  0.91607632  0.06655835  1
  H+  H366  1  0.57692756  0.41430543  0.73291124  1
  H+  H367  1  0.16519130  0.07421083  0.89803381  1
  H+  H368  1  0.94315089  0.83630057  0.22902213  1
  H+  H369  1  0.91645405  0.83107626  0.57951323  1
  H+  H370  1  0.33490890  0.17090755  0.39630382  1
  H+  H371  1  0.91817554  0.82908411  0.93571190  1
  H+  H372  1  0.17643015  0.35132276  0.54475149  1
  H+  H373  1  0.83777491  0.66374629  0.77371600  1
  H+  H374  1  0.86940338  0.92872695  0.11047633  1
  H+  H375  1  0.09291981  0.92457302  0.39642655  1
  H+  H376  1  0.39730917  0.30023268  0.18686649  1
  H+  H377  1  0.39472505  0.82213791  0.23323143  1
  H+  H378  1  0.40647156  0.08332367  0.22106364  1
  H+  H379  1  0.08567464  0.42754177  0.38976519  1
  H+  H380  1  0.06262321  0.53529259  0.94754252  1
  H+  H381  1  0.62049053  0.85448725  0.85066144  1
  H+  H382  1  0.65242091  0.58333591  0.57288211  1
  H+  H383  1  0.68072180  0.35917323  0.25943651  1
  O2-  O384  1  0.07527656  0.15318019  0.14333568  1
  O2-  O385  1  0.09753433  0.19495571  0.47483183  1
  O2-  O386  1  0.06188836  0.15846451  0.83451112  1
  O2-  O387  1  0.08604224  0.40747659  0.14873231  1
  O2-  O388  1  0.07748576  0.42170704  0.47830913  1
  O2-  O389  1  0.08665750  0.40612070  0.81706210  1
  O2-  O390  1  0.10738338  0.66577359  0.15518948  1
  O2-  O391  1  0.14135596  0.70427186  0.48114259  1
  O2-  O392  1  0.08270652  0.65220528  0.82938334  1
  O2-  O393  1  0.08765252  1.00380890  0.14150155  1
  O2-  O394  1  0.09011947  0.94833343  0.47844410  1
  O2-  O395  1  0.07921289  0.91502576  0.81471197  1
  O2-  O396  1  0.27858648  0.18945976  0.17306995  1
  O2-  O397  1  0.33135350  0.18137447  0.54359559  1
  O2-  O398  1  0.37716619  0.17930430  0.77968497  1
  O2-  O399  1  0.33301952  0.41922610  0.14430362  1
  O2-  O400  1  0.33619294  0.42601294  0.45790976  1
  O2-  O401  1  0.33536157  0.40395627  0.83137862  1
  O2-  O402  1  0.33822532  0.66756743  0.14451467  1
  O2-  O403  1  0.30469478  0.65840748  0.47018173  1
  O2-  O404  1  0.33898226  0.66035830  0.80254433  1
  O2-  O405  1  0.33482353  0.91832492  0.14018504  1
  O2-  O406  1  0.32170927  0.92179636  0.47651052  1
  O2-  O407  1  0.33113738  0.90790974  0.81492829  1
  O2-  O408  1  0.58719681  0.17926426  0.16438329  1
  O2-  O409  1  0.57277534  0.15588962  0.48146819  1
  O2-  O410  1  0.59641660  0.16365925  0.81926519  1
  O2-  O411  1  0.60661223  0.43083638  0.14525545  1
  O2-  O412  1  0.58652737  0.42082052  0.47963673  1
  O2-  O413  1  0.62996258  0.43761496  0.80120746  1
  O2-  O414  1  0.59053262  0.66294585  0.12905069  1
  O2-  O415  1  0.54404143  0.66167028  0.52382126  1
  O2-  O416  1  0.58329216  0.66544882  0.81705607  1
  O2-  O417  1  0.56089888  0.94948597  0.14758731  1
  O2-  O418  1  0.56555404  0.90409110  0.47437978  1
  O2-  O419  1  0.56021327  0.89472519  0.82071598  1
  O2-  O420  1  0.83809247  0.16887459  0.15358730  1
  O2-  O421  1  0.82404787  0.15292451  0.48766723  1
  O2-  O422  1  0.82772587  0.16472982  0.82538889  1
  O2-  O423  1  0.84573906  0.42842035  0.14209688  1
  O2-  O424  1  0.82594560  0.38499600  0.48003207  1
  O2-  O425  1  0.84369507  0.41831348  0.82534363  1
  O2-  O426  1  0.86128317  0.68233963  0.13161158  1
  O2-  O427  1  0.80155035  0.67450391  0.47913772  1
  O2-  O428  1  0.83748273  0.66467240  0.81903935  1
  O2-  O429  1  0.86848911  0.92876586  0.15578637  1
  O2-  O430  1  0.81656991  0.91654183  0.48285868  1
  O2-  O431  1  0.82301457  0.90889381  0.81620456  1
  O2-  O432  1  0.25625074  0.12341150  0.20426412  1
  O2-  O433  1  0.16033626  0.10147139  0.53076944  1
  O2-  O434  1  0.15138824  0.06897962  0.85353590  1
  O2-  O435  1  0.16709180  0.32101996  0.18168888  1
  O2-  O436  1  0.17519687  0.35355526  0.50032753  1
  O2-  O437  1  0.16911203  0.32390222  0.86512435  1
  O2-  O438  1  0.17417772  0.56291885  0.19200923  1
  O2-  O439  1  0.16576019  0.56277323  0.53168496  1
  O2-  O440  1  0.17727753  0.57769486  0.84752796  1
  O2-  O441  1  0.17476433  0.82103322  0.19481296  1
  O2-  O442  1  0.17408168  0.87037067  0.51677246  1
  O2-  O443  1  0.17008994  0.83762776  0.86162079  1
  O2-  O444  1  0.42154823  0.08270598  0.17795608  1
  O2-  O445  1  0.40186709  0.07309974  0.51981508  1
  O2-  O446  1  0.42750076  0.07979617  0.84880005  1
  O2-  O447  1  0.43304831  0.36286919  0.18779335  1
  O2-  O448  1  0.41840333  0.35776053  0.51962742  1
  O2-  O449  1  0.42906140  0.32842398  0.85979657  1
  O2-  O450  1  0.42154922  0.58526306  0.17953029  1
  O2-  O451  1  0.41517470  0.59866363  0.44577121  1
  O2-  O452  1  0.41839724  0.57967262  0.85327306  1
  O2-  O453  1  0.40282673  0.82858052  0.18851638  1
  O2-  O454  1  0.38849006  0.82955740  0.51342285  1
  O2-  O455  1  0.38525536  0.80715646  0.85521802  1
  O2-  O456  1  0.67726241  0.09997063  0.19078554  1
  O2-  O457  1  0.65700471  0.07354352  0.51345612  1
  O2-  O458  1  0.65723681  0.06309335  0.85813718  1
  O2-  O459  1  0.68420380  0.35973157  0.19511093  1
  O2-  O460  1  0.66348224  0.32931997  0.52100553  1
  O2-  O461  1  0.67700955  0.32543834  0.86004617  1
  O2-  O462  1  0.69263871  0.59885428  0.17572330  1
  O2-  O463  1  0.64061020  0.58315217  0.52861515  1
  O2-  O464  1  0.66641781  0.58342032  0.85142389  1
  O2-  O465  1  0.70448099  0.88792091  0.16698017  1
  O2-  O466  1  0.65450871  0.83361474  0.52463463  1
  O2-  O467  1  0.65645225  0.82900700  0.86465028  1
  O2-  O468  1  0.92097699  0.08830311  0.19533648  1
  O2-  O469  1  0.87997832  0.06913140  0.53530008  1
  O2-  O470  1  0.89294212  0.07134877  0.86570635  1
  O2-  O471  1  0.92170108  0.33936493  0.18741676  1
  O2-  O472  1  0.91436392  0.31588242  0.52438481  1
  O2-  O473  1  0.91876511  0.33089144  0.85940682  1
  O2-  O474  1  0.95437895  0.60716265  0.10256350  1
  O2-  O475  1  0.95958678  0.55631981  0.49407858  1
  O2-  O476  1  0.93130484  0.57049190  0.87382676  1
  O2-  O477  1  0.94595159  0.84123975  0.18411945  1
  O2-  O478  1  0.92696332  0.82197106  0.53547684  1
  O2-  O479  1  0.91702763  0.83719289  0.85631576  1
  O2-  O480  1  0.16459377  0.08015707  0.31850944  1
  O2-  O481  1  0.13170454  0.07916006  0.65291214  1
  O2-  O482  1  0.17929096  0.08074516  0.97397700  1
  O2-  O483  1  0.13762742  0.31886688  0.30292612  1
  O2-  O484  1  0.11806825  0.26788283  0.61642023  1
  O2-  O485  1  0.17889808  0.34255962  0.98905268  1
  O2-  O486  1  0.25807096  0.57925486  0.36083392  1
  O2-  O487  1  0.18278181  0.56365087  0.65060800  1
  O2-  O488  1  0.12081192  0.56776051  0.96360746  1
  O2-  O489  1  0.18757473  0.84629420  0.31755268  1
  O2-  O490  1  0.15654533  0.86099798  0.63726355  1
  O2-  O491  1  0.17230498  0.84333122  0.98806103  1
  O2-  O492  1  0.38471509  0.06110992  0.30595984  1
  O2-  O493  1  0.35860574  0.02550678  0.63248682  1
  O2-  O494  1  0.41741966  0.07599262  0.97456225  1
  O2-  O495  1  0.45582425  0.43166047  0.29881217  1
  O2-  O496  1  0.43280590  0.44473492  0.63242217  1
  O2-  O497  1  0.46314839  0.37371335  0.98015991  1
  O2-  O498  1  0.44375791  0.57780956  0.30490233  1
  O2-  O499  1  0.45763700  0.60867342  0.63071145  1
  O2-  O500  1  0.41635243  0.58695963  0.97265293  1
  O2-  O501  1  0.37550162  0.80476238  0.31202409  1
  O2-  O502  1  0.39460124  0.81320583  0.63765331  1
  O2-  O503  1  0.41389615  0.82888868  0.97593937  1
  O2-  O504  1  0.64666477  0.06525553  0.30769435  1
  O2-  O505  1  0.64979948  0.05266647  0.63842475  1
  O2-  O506  1  0.66708318  0.08062087  0.97723276  1
  O2-  O507  1  0.67528771  0.35394740  0.30781372  1
  O2-  O508  1  0.67672756  0.33039995  0.65146177  1
  O2-  O509  1  0.65384426  0.32655759  0.98331027  1
  O2-  O510  1  0.68421057  0.60116271  0.29836527  1
  O2-  O511  1  0.67031760  0.58567191  0.65216752  1
  O2-  O512  1  0.65120594  0.56992305  0.97680932  1
  O2-  O513  1  0.66356136  0.83875547  0.29318431  1
  O2-  O514  1  0.65927181  0.83489548  0.64918287  1
  O2-  O515  1  0.68580558  0.88413945  1.04891782  1
  O2-  O516  1  0.91666282  0.07987626  0.31633810  1
  O2-  O517  1  0.87953678  0.07518042  0.65590869  1
  O2-  O518  1  0.82957590  0.03111786  0.97699902  1
  O2-  O519  1  0.92346882  0.34717305  0.30845416  1
  O2-  O520  1  0.92279334  0.32909708  0.65005333  1
  O2-  O521  1  0.91585445  0.32811853  0.98645041  1
  O2-  O522  1  0.93542629  0.60401226  0.30621699  1
  O2-  O523  1  0.94680042  0.60070979  0.63993298  1
  O2-  O524  1  0.89752336  0.55402539  0.98609268  1
  O2-  O525  1  0.92579628  0.84119773  0.31066069  1
  O2-  O526  1  0.90482577  0.83895020  0.65350820  1
  O2-  O527  1  0.91740111  0.82316052  0.98078531  1
  O2-  O528  1  0.03414067  0.18723577  0.03332170  1
  O2-  O529  1  0.08036477  0.16379758  0.35539306  1
  O2-  O530  1  0.03722271  0.14283531  0.70944550  1
  O2-  O531  1  0.08315201  0.41605589  0.02428236  1
  O2-  O532  1  0.09812622  0.43807164  0.34602369  1
  O2-  O533  1  0.08942111  0.40053899  0.68932626  1
  O2-  O534  1  0.11017047  0.68573054  0.02601892  1
  O2-  O535  1  0.10459537  0.68068075  0.35519970  1
  O2-  O536  1  0.13581704  0.67114146  0.70915251  1
  O2-  O537  1  0.08365873  0.92516918  0.02682235  1
  O2-  O538  1  0.09040748  0.91491049  0.35215516  1
  O2-  O539  1  0.07158219  0.92014905  0.69658024  1
  O2-  O540  1  0.38058581  0.14143656  0.07514750  1
  O2-  O541  1  0.30042208  0.10897636  0.39141633  1
  O2-  O542  1  0.30621325  0.13547184  0.66726351  1
  O2-  O543  1  0.34724419  0.42873362  0.02183048  1
  O2-  O544  1  0.30203200  0.40271141  0.34063175  1
  O2-  O545  1  0.29171596  0.39410777  0.70647662  1
  O2-  O546  1  0.33936196  0.67308372  0.01803043  1
  O2-  O547  1  0.30734635  0.62504512  0.30674915  1
  O2-  O548  1  0.34503425  0.65253187  0.68139317  1
  O2-  O549  1  0.33521175  0.91432749  0.02039637  1
  O2-  O550  1  0.27863388  0.88663757  0.33769716  1
  O2-  O551  1  0.27058254  0.82812150  0.69908766  1
  O2-  O552  1  0.58552918  0.15467660  0.00483029  1
  O2-  O553  1  0.55425283  0.13553748  0.34960382  1
  O2-  O554  1  0.66315156  0.18178218  0.70661158  1
  O2-  O555  1  0.55278783  0.40403960  -0.00345337  1
  O2-  O556  1  0.59577514  0.43636790  0.35135447  1
  O2-  O557  1  0.56692659  0.41316929  0.68798749  1
  O2-  O558  1  0.58654408  0.65971746  0.00997454  1
  O2-  O559  1  0.59678039  0.68083285  0.34030349  1
  O2-  O560  1  0.60162436  0.67453119  0.69567886  1
  O2-  O561  1  0.56350044  0.92250253  0.02386412  1
  O2-  O562  1  0.55398524  0.88780490  0.34456875  1
  O2-  O563  1  0.55561265  0.89363384  0.69272617  1
  O2-  O564  1  0.88775834  0.18265963  0.03659417  1
  O2-  O565  1  0.86815954  0.18620006  0.35483007  1
  O2-  O566  1  0.81312544  0.17561545  0.70086741  1
  O2-  O567  1  0.81678935  0.39527323  0.02091063  1
  O2-  O568  1  0.81406951  0.39214541  0.35519039  1
  O2-  O569  1  0.84207892  0.41258196  0.70117885  1
  O2-  O570  1  0.81587453  0.65514078  0.01088530  1
  O2-  O571  1  0.83641567  0.68336581  0.35087120  1
  O2-  O572  1  0.82826671  0.67088811  0.69464831  1
  O2-  O573  1  0.85001294  0.90917588  0.03365119  1
  O2-  O574  1  0.83032058  0.91653636  0.34799740  1
  O2-  O575  1  0.81930629  0.91702399  0.69437558  1
