# generated using pymatgen
data_H2O
_symmetry_space_group_name_H-M   'P 1'
_cell_length_a   18.00369440
_cell_length_b   18.00183479
_cell_length_c   22.00722914
_cell_angle_alpha   89.99713398
_cell_angle_beta   89.99993363
_cell_angle_gamma   120.03224081
_symmetry_Int_Tables_number   1
_chemical_formula_structural   H2O
_chemical_formula_sum   'H384 O192'
_cell_volume   6174.94673027
_cell_formula_units_Z   192
loop_
 _symmetry_equiv_pos_site_id
 _symmetry_equiv_pos_as_xyz
  1  'x, y, z'
loop_
 _atom_type_symbol
 _atom_type_oxidation_number
  H+  1.0
  O2-  -2.0
loop_
 _atom_site_type_symbol
 _atom_site_label
 _atom_site_symmetry_multiplicity
 _atom_site_fract_x
 _atom_site_fract_y
 _atom_site_fract_z
 _atom_site_occupancy
  H+  H0  1  0.87064833  0.65414036  0.49502427  1
  H+  H1  1  0.35986459  0.64408812  0.14662117  1
  H+  H2  1  0.12753959  0.23490143  0.48320425  1
  H+  H3  1  0.31871632  0.66242682  0.67349046  1
  H+  H4  1  0.13704471  0.53049334  0.51690363  1
  H+  H5  1  0.08150350  0.90173528  0.22903709  1
  H+  H6  1  0.90205427  0.87910656  0.49926964  1
  H+  H7  1  0.37083914  0.97255593  -0.00377048  1
  H+  H8  1  0.73164406  0.62530353  0.84509077  1
  H+  H9  1  0.35140941  0.60480521  0.48826197  1
  H+  H10  1  0.90077591  0.12471336  0.16915339  1
  H+  H11  1  0.62893548  0.76430488  0.31446235  1
  H+  H12  1  0.14031451  0.74247828  0.48053283  1
  H+  H13  1  0.36616478  1.00673700  0.50105228  1
  H+  H14  1  0.63836166  0.52115681  0.15899068  1
  H+  H15  1  0.27174825  0.38376627  -0.00014866  1
  H+  H16  1  0.87345825  0.86789838  0.00214761  1
  H+  H17  1  0.48015432  0.09913783  0.17703691  1
  H+  H18  1  0.71826441  0.85882871  0.84324194  1
  H+  H19  1  0.51801400  0.88302113  -0.00297928  1
  H+  H20  1  0.88882463  0.26272082  0.34075346  1
  H+  H21  1  0.85293602  0.96117902  0.82913497  1
  H+  H22  1  0.07434023  0.41813260  0.06468146  1
  H+  H23  1  0.62533455  1.01146546  0.52489598  1
  H+  H24  1  0.40827712  0.38241526  0.17190714  1
  H+  H25  1  0.96675046  0.85035562  0.17603599  1
  H+  H26  1  0.01319172  0.61650006  0.34306053  1
  H+  H27  1  0.84606151  0.12369699  0.67190122  1
  H+  H28  1  0.29013960  0.39981013  0.65984406  1
  H+  H29  1  0.11614881  0.91186030  0.32999353  1
  H+  H30  1  0.62294574  0.47899007  0.66668781  1
  H+  H31  1  0.84376554  0.82853347  0.31182251  1
  H+  H32  1  0.36074371  0.14122159  0.83411699  1
  H+  H33  1  0.60609613  0.87807913  0.83780793  1
  H+  H34  1  0.37670551  0.73614517  0.83617563  1
  H+  H35  1  0.65864871  0.81174936  0.24945310  1
  H+  H36  1  0.21580004  0.60277117  0.16188790  1
  H+  H37  1  -0.02327978  0.87108835  0.65499225  1
  H+  H38  1  0.21560319  0.63533461  0.29787352  1
  H+  H39  1  0.85237196  0.01323310  1.00251234  1
  H+  H40  1  0.85154248  0.39710096  -0.00018033  1
  H+  H41  1  0.38982306  0.01141263  0.17408279  1
  H+  H42  1  0.72732257  0.36209928  0.65274007  1
  H+  H43  1  0.36843457  0.74054374  -0.01554783  1
  H+  H44  1  0.63477730  0.49456332  0.33583177  1
  H+  H45  1  0.52752579  0.39245792  -0.00271148  1
  H+  H46  1  0.14170818  1.03715047  0.84617384  1
  H+  H47  1  0.89250731  0.35640489  0.19153553  1
  H+  H48  1  0.84581188  0.14500542  0.00881190  1
  H+  H49  1  0.60294826  0.62569966  0.48738953  1
  H+  H50  1  0.63135122  0.76693126  1.00132234  1
  H+  H51  1  0.46121193  0.89041038  0.67211756  1
  H+  H52  1  0.90316911  0.38540369  0.64795555  1
  H+  H53  1  1.03672881  0.14798043  0.48659841  1
  H+  H54  1  0.62735597  0.20893203  0.82522529  1
  H+  H55  1  0.61275428  0.71979967  0.12694397  1
  H+  H56  1  0.24810790  0.90734750  0.88419970  1
  H+  H57  1  0.88747461  1.02593699  0.66143732  1
  H+  H58  1  0.82016774  0.90484874  0.38351036  1
  H+  H59  1  0.52459072  0.88329142  0.16274129  1
  H+  H60  1  0.63591010  0.10895727  0.32406466  1
  H+  H61  1  0.13642188  0.10038329  0.17088754  1
  H+  H62  1  0.36674637  0.75156035  0.34347264  1
  H+  H63  1  0.41215413  0.37805555  0.82893322  1
  H+  H64  1  0.16717945  0.08978227  0.93795914  1
  H+  H65  1  0.60068523  0.87558712  0.00745365  1
  H+  H66  1  -0.03141798  0.36513282  0.80793253  1
  H+  H67  1  0.58261898  0.28951142  0.84328177  1
  H+  H68  1  0.77704460  0.13261712  0.16104167  1
  H+  H69  1  0.85574474  0.48437529  0.66421508  1
  H+  H70  1  0.10994326  0.72683970  0.63873628  1
  H+  H71  1  0.63163932  0.76953611  0.84174745  1
  H+  H72  1  0.52343660  0.87952888  0.30550997  1
  H+  H73  1  0.38097213  0.77064334  0.17486529  1
  H+  H74  1  0.74904747  0.87901612  0.48770501  1
  H+  H75  1  0.13567663  0.25945547  0.01755300  1
  H+  H76  1  0.63333585  0.10337171  0.51062669  1
  H+  H77  1  0.11533009  0.89442810  0.63836815  1
  H+  H78  1  0.86042570  0.63883156  0.82199334  1
  H+  H79  1  0.40409548  0.27817231  0.49924876  1
  H+  H80  1  0.81318514  0.14896023  0.73106090  1
  H+  H81  1  0.39738724  0.53456428  0.30991197  1
  H+  H82  1  0.53660598  0.39145174  0.49209578  1
  H+  H83  1  0.53121362  0.64089634  0.82655862  1
  H+  H84  1  0.24682015  0.37373561  0.50784451  1
  H+  H85  1  0.18400959  0.80867535  0.87684104  1
  H+  H86  1  0.02491487  0.14337106  0.67049440  1
  H+  H87  1  0.63848960  0.52652118  -0.00410701  1
  H+  H88  1  0.27236350  0.62114781  0.49891834  1
  H+  H89  1  0.63635151  0.60827243  0.14886697  1
  H+  H90  1  0.28697627  0.13220546  -0.01272107  1
  H+  H91  1  0.28561967  0.14976844  0.65549447  1
  H+  H92  1  0.49828488  0.61999995  0.66058310  1
  H+  H93  1  0.57018747  0.14780299  0.40396888  1
  H+  H94  1  0.28653485  0.14526199  0.48771744  1
  H+  H95  1  0.65654221  0.81561888  0.56534908  1
  H+  H96  1  0.36299955  0.68686483  0.77196524  1
  H+  H97  1  0.33114000  0.68383745  0.09281377  1
  H+  H98  1  0.84773549  0.87244762  0.82639026  1
  H+  H99  1  0.33703117  0.87374775  0.34736384  1
  H+  H100  1  0.22630943  0.85298073  0.15628961  1
  H+  H101  1  0.10128874  0.69090485  0.80103539  1
  H+  H102  1  0.36019516  0.47708478  0.15114769  1
  H+  H103  1  0.51917338  0.63681773  0.32639636  1
  H+  H104  1  0.27283803  0.16190625  0.14010615  1
  H+  H105  1  0.37079981  0.76777717  0.50981344  1
  H+  H106  1  0.11022647  0.87188853  0.17247615  1
  H+  H107  1  0.62151251  0.64342974  0.82819054  1
  H+  H108  1  0.61389961  0.63410171  0.03012645  1
  H+  H109  1  0.64019925  0.01705990  0.16889194  1
  H+  H110  1  0.24006392  0.45351919  0.82892146  1
  H+  H111  1  0.88843166  0.35160363  0.34453592  1
  H+  H112  1  0.39984728  0.52687917  0.65101516  1
  H+  H113  1  0.86015602  0.71985470  0.15254297  1
  H+  H114  1  0.36464981  0.23059907  0.83211327  1
  H+  H115  1  0.82664274  0.17712963  0.07126584  1
  H+  H116  1  0.97590796  0.60823604  0.17151495  1
  H+  H117  1  0.43062155  0.83806493  0.37490127  1
  H+  H118  1  0.37761258  0.89039314  0.83331351  1
  H+  H119  1  0.34688076  0.17552054  0.42903217  1
  H+  H120  1  0.87658802  0.48123505  0.16050960  1
  H+  H121  1  0.06841898  0.16049417  0.01703590  1
  H+  H122  1  0.35637669  0.84820936  0.50865091  1
  H+  H123  1  0.11064389  0.14535854  0.32781854  1
  H+  H124  1  0.73988465  0.36085942  0.14971730  1
  H+  H125  1  0.12016238  0.37168094  0.99870325  1
  H+  H126  1  0.97765967  0.11229913  0.31966402  1
  H+  H127  1  0.93338189  0.10353554  1.01261160  1
  H+  H128  1  0.10918776  0.48259226  0.33892953  1
  H+  H129  1  0.45991163  0.56873758  0.47634053  1
  H+  H130  1  0.75914340  0.64077337  0.00691071  1
  H+  H131  1  0.02799310  0.38896215  0.34769669  1
  H+  H132  1  0.64295045  0.36495467  0.50095834  1
  H+  H133  1  0.61644708  0.72747019  0.67289118  1
  H+  H134  1  0.86028323  0.14375984  0.82901955  1
  H+  H135  1  0.35671704  0.25038826  0.14089248  1
  H+  H136  1  0.24441331  0.26931243  0.23067560  1
  H+  H137  1  0.76438608  0.87876608  0.32294867  1
  H+  H138  1  0.59995375  0.21434637  0.35052641  1
  H+  H139  1  0.41552441  0.74561417  0.68003025  1
  H+  H140  1  0.39200360  0.57496057  1.05494689  1
  H+  H141  1  0.64393619  0.53760585  0.84248070  1
  H+  H142  1  0.86533426  0.46575343  0.35188293  1
  H+  H143  1  0.12171812  0.60983981  0.31932566  1
  H+  H144  1  0.63154027  0.41066941  0.82045719  1
  H+  H145  1  0.09137225  0.25018307  0.84236071  1
  H+  H146  1  0.73302650  0.36104815  0.35923437  1
  H+  H147  1  0.86321674  0.26978728  0.82223292  1
  H+  H148  1  0.37753814  0.00326468  0.32951217  1
  H+  H149  1  0.57086847  0.90863456  0.78194375  1
  H+  H150  1  0.86424365  0.22352090  0.16811257  1
  H+  H151  1  0.18643404  0.89465198  0.48035708  1
  H+  H152  1  0.72975072  0.13135594  -0.00026460  1
  H+  H153  1  0.37066438  0.14325187  0.65637929  1
  H+  H154  1  0.06494161  0.36046938  0.81602500  1
  H+  H155  1  0.85966868  0.88909794  0.66984806  1
  H+  H156  1  0.61230052  0.88210552  0.29890827  1
  H+  H157  1  0.14095857  0.23007927  0.18052738  1
  H+  H158  1  0.23745941  0.61830029  0.83735383  1
  H+  H159  1  0.82604820  0.91275313  0.73016293  1
  H+  H160  1  0.96361846  0.86828837  1.00409300  1
  H+  H161  1  0.59859172  0.96547967  0.67683597  1
  H+  H162  1  0.10667439  0.72754606  1.01272421  1
  H+  H163  1  0.10719041  0.48504416  1.00710140  1
  H+  H164  1  0.18684287  0.63548644  0.66767578  1
  H+  H165  1  0.87679161  0.29203953  -0.00003916  1
  H+  H166  1  0.86219563  0.72893164  0.83035958  1
  H+  H167  1  0.72304773  0.86148771  0.65980024  1
  H+  H168  1  0.18476108  0.34204014  0.29107836  1
  H+  H169  1  0.71640225  0.85099368  0.15973152  1
  H+  H170  1  0.76437442  0.12623142  0.83448862  1
  H+  H171  1  0.61584954  0.21472413  0.14860952  1
  H+  H172  1  0.29328550  0.87604697  0.80044621  1
  H+  H173  1  0.77217587  0.64635548  0.67112424  1
  H+  H174  1  0.90051406  0.55165418  0.50752124  1
  H+  H175  1  0.26330753  0.59478026  0.35298834  1
  H+  H176  1  0.92852987  0.09258137  0.22953561  1
  H+  H177  1  0.11566752  0.14141682  0.82787317  1
  H+  H178  1  0.61737690  0.12894517  0.66083683  1
  H+  H179  1  0.78721420  0.96513932  0.45293249  1
  H+  H180  1  0.13325995  0.87018110  1.02318455  1
  H+  H181  1  0.11115782  0.64146462  0.00047375  1
  H+  H182  1  0.38887860  0.61713901  0.31060971  1
  H+  H183  1  0.89134524  0.10989939  0.50824575  1
  H+  H184  1  0.13183030  0.99268187  0.48970002  1
  H+  H185  1  1.02630255  0.39451624  0.49794494  1
  H+  H186  1  0.37648928  0.21999040  -0.01890596  1
  H+  H187  1  0.76610344  0.11749586  0.49724397  1
  H+  H188  1  0.14260793  1.04191060  0.64086822  1
  H+  H189  1  0.62161421  0.22971832  0.65712905  1
  H+  H190  1  0.85961929  0.88432398  0.15803267  1
  H+  H191  1  0.22652826  0.62570895  0.98813867  1
  H+  H192  1  0.07312912  0.90440415  0.79011951  1
  H+  H193  1  0.23238470  0.12635514  0.84678052  1
  H+  H194  1  0.87841997  0.62638281  0.66148843  1
  H+  H195  1  -0.03464098  0.38038511  -0.00210685  1
  H+  H196  1  0.96840809  0.86217658  0.85415274  1
  H+  H197  1  0.88825261  0.01991044  0.31459057  1
  H+  H198  1  0.39824137  0.62502068  0.84151539  1
  H+  H199  1  0.16392740  0.12967977  0.00238752  1
  H+  H200  1  0.36826121  0.65436634  0.99989465  1
  H+  H201  1  0.40427952  0.36760038  0.64831879  1
  H+  H202  1  0.38753574  0.86872938  0.96080133  1
  H+  H203  1  0.77961666  0.62607594  0.34282162  1
  H+  H204  1  0.06994454  0.93313499  0.07460032  1
  H+  H205  1  0.63189419  0.85627925  0.66147411  1
  H+  H206  1  0.07337121  0.79649405  0.57406172  1
  H+  H207  1  -0.03384728  0.62372669  0.66080679  1
  H+  H208  1  0.61931895  0.38843120  0.14396601  1
  H+  H209  1  0.13632569  0.76175934  0.15939441  1
  H+  H210  1  0.96149115  0.59632092  0.81861153  1
  H+  H211  1  0.07786440  0.62940378  0.62475481  1
  H+  H212  1  0.49174816  0.38423455  0.32705147  1
  H+  H213  1  0.75425573  0.38445552  0.81454839  1
  H+  H214  1  0.63982226  0.61375146  0.65781731  1
  H+  H215  1  0.88221062  0.59530980  0.33045700  1
  H+  H216  1  0.63089210  0.40453163  0.34540695  1
  H+  H217  1  0.28495829  0.15948048  0.34074402  1
  H+  H218  1  0.39816756  0.49947321  0.81228091  1
  H+  H219  1  1.07858751  0.17309532  0.38546894  1
  H+  H220  1  0.86021644  0.12592730  0.33787851  1
  H+  H221  1  0.28020105  0.88680323  1.00916037  1
  H+  H222  1  0.47423258  0.61538300  0.15158080  1
  H+  H223  1  0.50243644  0.88067568  0.53007833  1
  H+  H224  1  0.82680278  0.66833315  0.06963771  1
  H+  H225  1  0.53375213  0.12730285  0.82735343  1
  H+  H226  1  0.36406061  0.88166477  0.15674401  1
  H+  H227  1  0.13503515  0.48601538  0.67230148  1
  H+  H228  1  0.61015107  0.64034858  0.32769503  1
  H+  H229  1  0.77034808  0.62982050  0.15081102  1
  H+  H230  1  0.29926877  0.42335470  0.34485987  1
  H+  H231  1  0.86623808  0.73977883  0.48891210  1
  H+  H232  1  0.63677609  0.10172031  0.84747702  1
  H+  H233  1  0.60873644  0.22811737  0.00245517  1
  H+  H234  1  0.77439989  0.39547368  0.50668085  1
  H+  H235  1  0.21431099  0.87450540  0.31682143  1
  H+  H236  1  0.77194477  0.12803006  0.33867839  1
  H+  H237  1  0.40641738  0.38969037  0.32829704  1
  H+  H238  1  0.87847246  0.33372689  0.48861968  1
  H+  H239  1  0.86262819  0.74941274  0.31713473  1
  H+  H240  1  0.62679844  0.36150509  0.98649919  1
  H+  H241  1  0.73870225  0.68481705  0.28764460  1
  H+  H242  1  0.86655514  0.42116695  0.53333851  1
  H+  H243  1  0.75761960  0.88122495  0.01031649  1
  H+  H244  1  0.33791675  0.88919068  0.66363380  1
  H+  H245  1  0.84431442  0.47425834  0.81663649  1
  H+  H246  1  0.40043182  0.27575698  0.65191247  1
  H+  H247  1  0.71283470  0.09866821  0.66531376  1
  H+  H248  1  0.37308083  0.47320367  0.39566000  1
  H+  H249  1  0.15250694  0.62618282  0.51507879  1
  H+  H250  1  0.38124940  0.10397482  0.49816374  1
  H+  H251  1  0.49768292  0.37587313  0.83230056  1
  H+  H252  1  0.01894334  0.11882090  0.82767955  1
  H+  H253  1  0.52501010  0.13649599  0.65107455  1
  H+  H254  1  0.42118145  0.58294387  0.89735753  1
  H+  H255  1  0.15881514  0.39635189  0.33533262  1
  H+  H256  1  0.15005418  0.28154175  0.66045026  1
  H+  H257  1  0.63658939  0.01206966  0.85424885  1
  H+  H258  1  0.14687397  0.12546266  0.48993950  1
  H+  H259  1  0.39789737  0.03286030  0.83007940  1
  H+  H260  1  0.41083056  0.03095149  0.65005843  1
  H+  H261  1  0.62587218  0.84716979  0.15849278  1
  H+  H262  1  0.58813150  0.87441684  0.52353600  1
  H+  H263  1  0.61570466  0.12577327  0.15195560  1
  H+  H264  1  0.16811617  0.59067490  0.92933915  1
  H+  H265  1  0.97661432  0.61541874  0.97586031  1
  H+  H266  1  0.14058541  0.59307481  0.82655782  1
  H+  H267  1  0.60387322  0.21473344  0.49353348  1
  H+  H268  1  0.63721364  0.35980986  0.65675978  1
  H+  H269  1  0.88532519  0.60523531  0.17103151  1
  H+  H270  1  0.86293895  0.36178847  0.81656897  1
  H+  H271  1  1.04045849  0.40570613  0.65807620  1
  H+  H272  1  0.89855948  0.02665669  0.50944685  1
  H+  H273  1  0.47379595  0.09650440  0.32887633  1
  H+  H274  1  0.86363914  0.97551480  0.16194046  1
  H+  H275  1  0.47944697  0.10283510  0.98625023  1
  H+  H276  1  0.63324020  0.12687051  0.99298620  1
  H+  H277  1  0.17170647  0.84035411  0.56579620  1
  H+  H278  1  0.36416750  0.46556051  0.00573349  1
  H+  H279  1  0.14807280  0.04649678  0.32730375  1
  H+  H280  1  1.04549414  0.66273085  0.49470924  1
  H+  H281  1  0.14252927  0.12960985  0.65101086  1
  H+  H282  1  0.40891034  0.62603941  0.66108145  1
  H+  H283  1  0.48076422  0.86899816  0.86585206  1
  H+  H284  1  0.47947437  0.61220123  1.02236256  1
  H+  H285  1  0.64373915  0.52843746  0.50559098  1
  H+  H286  1  0.25513176  0.45018989  0.86051397  1
  H+  H287  1  0.63635029  0.02204799  0.30816782  1
  H+  H288  1  0.67129899  0.58860669  0.59707463  1
  H+  H289  1  0.13543671  0.32796142  0.94074580  1
  H+  H290  1  1.02393659  0.36668647  0.16154459  1
  H+  H291  1  0.06128390  0.40429614  0.75064815  1
  H+  H292  1  0.91482082  0.58145780  0.88406785  1
  H+  H293  1  0.57374603  0.65528165  0.42725941  1
  H+  H294  1  0.36039410  0.43496025  0.71384164  1
  H+  H295  1  0.88096756  0.24967050  0.50301927  1
  H+  H296  1  0.96110442  0.01379638  0.89332826  1
  H+  H297  1  0.81194252  0.43433692  0.04941384  1
  H+  H298  1  0.41820825  0.59189684  0.21264724  1
  H+  H299  1  0.10620753  0.98423888  0.01297118  1
  H+  H300  1  0.16281305  0.34754730  0.84860315  1
  H+  H301  1  0.40798628  0.82719626  0.23552402  1
  H+  H302  1  0.68251515  0.33034385  0.29912090  1
  H+  H303  1  0.43631289  0.33530615  0.55939988  1
  H+  H304  1  0.66625766  0.59328725  0.94022047  1
  H+  H305  1  0.09664910  0.94029875  0.39260984  1
  H+  H306  1  0.90167792  0.83029871  0.90872671  1
  H+  H307  1  0.66931908  0.08711253  0.93450353  1
  H+  H308  1  0.41914503  0.06148552  0.25952391  1
  H+  H309  1  0.65783031  0.82082307  0.93819463  1
  H+  H310  1  0.81970340  0.91638131  0.07010588  1
  H+  H311  1  0.58187653  0.93790303  0.41482258  1
  H+  H312  1  0.83038919  0.67777610  0.73215393  1
  H+  H313  1  0.14203516  1.01605310  0.17978848  1
  H+  H314  1  0.88766988  0.78169734  0.65726385  1
  H+  H315  1  0.20152319  0.60074873  0.60548383  1
  H+  H316  1  0.43768107  0.35538561  0.23276588  1
  H+  H317  1  0.67330643  0.33268114  0.20208565  1
  H+  H318  1  0.04712639  0.90016516  0.49062929  1
  H+  H319  1  0.71587272  0.36292421  0.98239552  1
  H+  H320  1  0.39120532  0.10411340  0.97587351  1
  H+  H321  1  0.89013139  0.42070055  0.11338789  1
  H+  H322  1  0.11384556  0.89346459  0.85003599  1
  H+  H323  1  0.59894887  0.43105939  0.43453799  1
  H+  H324  1  0.58576593  0.42038352  0.05800612  1
  H+  H325  1  0.91895519  0.32186574  0.24954263  1
  H+  H326  1  0.18196857  0.09882890  0.26589576  1
  H+  H327  1  0.66940186  0.08218216  0.22580254  1
  H+  H328  1  0.55595176  0.95993709  0.41132584  1
  H+  H329  1  0.16631326  0.84199033  0.25378535  1
  H+  H330  1  0.88355245  0.53310299  0.97373982  1
  H+  H331  1  0.32607276  0.64364444  0.40754286  1
  H+  H332  1  0.43157896  0.34137821  0.92529541  1
  H+  H333  1  0.90950370  0.56463949  0.27024306  1
  H+  H334  1  0.02545796  0.14836682  0.16765502  1
  H+  H335  1  0.13298813  0.94373375  0.69989631  1
  H+  H336  1  0.82586272  0.42023733  0.72051022  1
  H+  H337  1  0.92194168  0.84622010  0.56070258  1
  H+  H338  1  0.33087430  0.40621758  0.09799629  1
  H+  H339  1  0.58748850  0.66660641  0.73269936  1
  H+  H340  1  0.42723062  0.08179197  0.89328462  1
  H+  H341  1  0.57319250  0.90757329  0.09867444  1
  H+  H342  1  0.15359908  0.57078298  0.21974460  1
  H+  H343  1  0.65632665  0.07192767  0.60390182  1
  H+  H344  1  0.51432738  0.12405655  0.49404171  1
  H+  H345  1  0.31594662  0.41076792  0.80472482  1
  H+  H346  1  0.85281260  0.73879178  1.00987595  1
  H+  H347  1  0.39744113  0.42522659  0.50193524  1
  H+  H348  1  0.16285175  0.84989117  0.96223919  1
  H+  H349  1  0.10297268  0.62104762  0.15165734  1
  H+  H350  1  0.91382760  0.06173381  0.91461426  1
  H+  H351  1  0.25684606  0.34228333  0.18480785  1
  H+  H352  1  0.60033703  0.43520969  0.75960401  1
  H+  H353  1  0.92740240  0.34404548  0.59218859  1
  H+  H354  1  0.88601801  0.80815157  0.22136469  1
  H+  H355  1  0.30819527  0.90929640  0.40484510  1
  H+  H356  1  0.61956075  0.75701952  0.50535326  1
  H+  H357  1  0.53396773  0.38933954  0.66878241  1
  H+  H358  1  0.07540992  0.64120801  0.74011200  1
  H+  H359  1  0.64842614  0.32484785  0.89851050  1
  H+  H360  1  0.39134394  0.35608997  0.98601299  1
  H+  H361  1  0.92038683  0.08634422  0.60285006  1
  H+  H362  1  0.37391644  0.24649482  0.34271806  1
  H+  H363  1  0.92353110  0.60789546  0.56671515  1
  H+  H364  1  0.53160410  0.39164207  0.15572049  1
  H+  H365  1  0.72794937  0.62182904  0.50393588  1
  H+  H366  1  0.84712455  0.42136548  0.41774612  1
  H+  H367  1  0.15134165  0.37058478  0.65693057  1
  H+  H368  1  0.10959107  0.45466769  0.15557564  1
  H+  H369  1  0.17588598  0.10324978  0.55297084  1
  H+  H370  1  0.07102117  0.65313722  0.09430232  1
  H+  H371  1  0.08303607  0.65375024  0.39716359  1
  H+  H372  1  0.08719098  0.43714129  0.44118209  1
  H+  H373  1  0.66481886  0.32997614  0.56119105  1
  H+  H374  1  0.82393965  0.14486276  0.43580011  1
  H+  H375  1  0.38051370  0.92936896  0.72683510  1
  H+  H376  1  0.10219945  0.19099049  0.10876523  1
  H+  H377  1  0.34563433  0.91403043  0.09378465  1
  H+  H378  1  0.42175268  0.07964068  0.58634708  1
  H+  H379  1  0.83710584  0.66158960  0.40287477  1
  H+  H380  1  0.08367286  0.16846190  0.72935967  1
  H+  H381  1  0.18265625  0.33225148  0.56178531  1
  H+  H382  1  0.58154022  0.16343395  0.06142702  1
  H+  H383  1  0.67678053  0.60412347  0.24856299  1
  O2-  O384  1  0.09166746  0.17828261  0.15420715  1
  O2-  O385  1  0.09305897  0.17524577  0.46592412  1
  O2-  O386  1  0.07596618  0.16104552  0.81135487  1
  O2-  O387  1  0.07799576  0.39598371  0.13821406  1
  O2-  O388  1  0.08353103  0.44088613  0.48599833  1
  O2-  O389  1  0.04320289  0.39517370  0.79507329  1
  O2-  O390  1  0.07334327  0.65364061  0.14004166  1
  O2-  O391  1  0.10328890  0.67900749  0.47889149  1
  O2-  O392  1  0.06972325  0.63291680  0.78462514  1
  O2-  O393  1  0.07826154  0.90289877  0.18452956  1
  O2-  O394  1  0.10755661  0.93081714  0.47730224  1
  O2-  O395  1  0.07815660  0.91661112  0.83358197  1
  O2-  O396  1  0.30583600  0.21433593  0.11609236  1
  O2-  O397  1  0.34783047  0.17060719  0.47529814  1
  O2-  O398  1  0.32637054  0.16864095  0.82470937  1
  O2-  O399  1  0.33608417  0.41481489  0.14284161  1
  O2-  O400  1  0.36879580  0.45833491  0.51368130  1
  O2-  O401  1  0.37583378  0.44236002  0.79186993  1
  O2-  O402  1  0.32764886  0.67456395  0.13749998  1
  O2-  O403  1  0.33046123  0.64506983  0.47950709  1
  O2-  O404  1  0.35311954  0.67913624  0.81673359  1
  O2-  O405  1  0.33607701  0.91227614  0.13840409  1
  O2-  O406  1  0.30239778  0.90236483  0.47671337  1
  O2-  O407  1  0.35413061  0.91767248  0.80527503  1
  O2-  O408  1  0.58215876  0.15335356  0.13720182  1
  O2-  O409  1  0.57561181  0.15401436  0.47997113  1
  O2-  O410  1  0.59495393  0.14726043  0.81621629  1
  O2-  O411  1  0.59001060  0.42104044  0.13451279  1
  O2-  O412  1  0.59925855  0.42532763  0.47946137  1
  O2-  O413  1  0.60126348  0.44010344  0.80544187  1
  O2-  O414  1  0.58237067  0.65769413  0.11209044  1
  O2-  O415  1  0.56510673  0.64769652  0.47217667  1
  O2-  O416  1  0.59038827  0.67131033  0.80943392  1
  O2-  O417  1  0.58242426  0.90993072  0.14401970  1
  O2-  O418  1  0.56587469  0.91227990  0.53551039  1
  O2-  O419  1  0.57476138  0.90964997  0.82698598  1
  O2-  O420  1  0.83811576  0.16691229  0.14636431  1
  O2-  O421  1  0.82652093  0.14554100  0.48132898  1
  O2-  O422  1  0.82177678  0.16295979  0.81405143  1
  O2-  O423  1  0.85062637  0.41975901  0.14415983  1
  O2-  O424  1  0.83889815  0.43236454  0.49913365  1
  O2-  O425  1  0.81340574  0.41427992  0.79883721  1
  O2-  O426  1  0.83187585  0.65915160  0.13634757  1
  O2-  O427  1  0.83555316  0.67785380  0.47737143  1
  O2-  O428  1  0.83028061  0.67121606  0.81098035  1
  O2-  O429  1  0.82949858  0.91632037  0.14610386  1
  O2-  O430  1  0.80342035  0.92353146  0.46656187  1
  O2-  O431  1  0.81921758  0.90380987  0.81024570  1
  O2-  O432  1  0.17371750  0.07923998  0.18590253  1
  O2-  O433  1  0.17717084  0.09642342  0.50799669  1
  O2-  O434  1  0.16882950  0.09703336  0.86043019  1
  O2-  O435  1  0.21308398  0.29459022  0.21175445  1
  O2-  O436  1  0.18709298  0.33038421  0.51701382  1
  O2-  O437  1  0.10309830  0.30734563  0.85967997  1
  O2-  O438  1  0.15484224  0.56732581  0.17447318  1
  O2-  O439  1  0.17622517  0.59148280  0.53280404  1
  O2-  O440  1  0.17870278  0.58429400  0.85372348  1
  O2-  O441  1  0.16601780  0.82352790  0.17143676  1
  O2-  O442  1  0.20941106  0.85778027  0.49563562  1
  O2-  O443  1  0.18713775  0.86417526  0.88146442  1
  O2-  O444  1  0.42275117  0.06691429  0.19651412  1
  O2-  O445  1  0.40634842  0.06823767  0.51364271  1
  O2-  O446  1  0.42932057  0.09074731  0.84777177  1
  O2-  O447  1  0.44009924  0.35435416  0.18726530  1
  O2-  O448  1  0.43618895  0.33914607  0.51402890  1
  O2-  O449  1  0.43738750  0.34567996  0.84767895  1
  O2-  O450  1  0.41461385  0.58920631  0.16686068  1
  O2-  O451  1  0.39635330  0.52785851  0.46844245  1
  O2-  O452  1  0.42713289  0.59109407  0.85336819  1
  O2-  O453  1  0.41342782  0.83081963  0.19124390  1
  O2-  O454  1  0.39007653  0.82425655  0.52804935  1
  O2-  O455  1  0.41779418  0.84028737  0.87833832  1
  O2-  O456  1  0.67101018  0.07939606  0.18036671  1
  O2-  O457  1  0.66496794  0.07637462  0.52823382  1
  O2-  O458  1  0.66896688  0.07379338  0.86726506  1
  O2-  O459  1  0.67683406  0.32993976  0.15810101  1
  O2-  O460  1  0.67102392  0.33201031  0.51594208  1
  O2-  O461  1  0.64408742  0.32190709  0.85199172  1
  O2-  O462  1  0.66762130  0.58385361  0.17059543  1
  O2-  O463  1  0.66793792  0.58944917  0.51958056  1
  O2-  O464  1  0.67147115  0.59588890  0.86156487  1
  O2-  O465  1  0.65428539  0.81214434  0.16768613  1
  O2-  O466  1  0.65350736  0.81716206  0.52019525  1
  O2-  O467  1  0.65890988  0.82826441  0.86061449  1
  O2-  O468  1  0.93555632  0.09817021  0.18325820  1
  O2-  O469  1  0.92794987  0.08638645  0.52382396  1
  O2-  O470  1  0.93347409  0.04458913  0.87728892  1
  O2-  O471  1  0.91735045  0.32085835  0.20382897  1
  O2-  O472  1  0.90930371  0.31262412  0.51298243  1
  O2-  O473  1  0.89685252  0.33338033  0.82883798  1
  O2-  O474  1  0.91502424  0.57561742  0.18755689  1
  O2-  O475  1  0.93207261  0.61203228  0.52157203  1
  O2-  O476  1  0.90489295  0.57577834  0.83779098  1
  O2-  O477  1  0.90270684  0.82033442  0.17710062  1
  O2-  O478  1  0.92771949  0.84647092  0.51538846  1
  O2-  O479  1  0.90603951  0.83116381  0.86347191  1
  O2-  O480  1  0.17928475  0.10703336  0.31025328  1
  O2-  O481  1  0.17420082  0.10363385  0.63099962  1
  O2-  O482  1  0.16893076  0.08289076  0.98324689  1
  O2-  O483  1  0.20785322  0.39275958  0.31746047  1
  O2-  O484  1  0.18403903  0.34162720  0.64505114  1
  O2-  O485  1  0.15246798  0.34179482  0.98383032  1
  O2-  O486  1  0.15750953  0.58608260  0.29773312  1
  O2-  O487  1  0.21288454  0.60347434  0.65089893  1
  O2-  O488  1  0.16560632  0.59331940  0.97496824  1
  O2-  O489  1  0.15930492  0.85641787  0.29588963  1
  O2-  O490  1  0.12559562  0.81803637  0.59850528  1
  O2-  O491  1  0.16393330  0.84168858  1.00642991  1
  O2-  O492  1  0.41548959  0.06191000  0.30886763  1
  O2-  O493  1  0.43294010  0.08871809  0.63186182  1
  O2-  O494  1  0.42129083  0.06885018  0.96816592  1
  O2-  O495  1  0.43244744  0.35658025  0.31096368  1
  O2-  O496  1  0.43678480  0.33838841  0.63818442  1
  O2-  O497  1  0.42971531  0.33551579  0.97062769  1
  O2-  O498  1  0.42112682  0.59310988  0.28995671  1
  O2-  O499  1  0.43627063  0.59298142  0.64254854  1
  O2-  O500  1  0.41606946  0.58251199  1.01409782  1
  O2-  O501  1  0.39915818  0.81513117  0.33687034  1
  O2-  O502  1  0.48928532  0.85478397  0.66838854  1
  O2-  O503  1  0.42004866  0.83959606  0.94545515  1
  O2-  O504  1  0.67075711  0.08647784  0.30514379  1
  O2-  O505  1  0.65037754  0.07078941  0.64968240  1
  O2-  O506  1  0.66909401  0.09809109  0.98107574  1
  O2-  O507  1  0.67274483  0.33467934  0.34212014  1
  O2-  O508  1  0.66540245  0.32804195  0.63981556  1
  O2-  O509  1  0.65339571  0.32743099  0.97076514  1
  O2-  O510  1  0.69001064  0.62455047  0.29160298  1
  O2-  O511  1  0.67258195  0.58630193  0.64273987  1
  O2-  O512  1  0.66686538  0.59013663  0.98587048  1
  O2-  O513  1  0.66298163  0.82176644  0.29420365  1
  O2-  O514  1  0.66177085  0.82631186  0.64614719  1
  O2-  O515  1  0.66037302  0.82523727  0.98373906  1
  O2-  O516  1  0.91600436  0.08106662  0.30215766  1
  O2-  O517  1  0.91842079  0.08715108  0.64821778  1
  O2-  O518  1  0.88275470  0.07527983  0.98674408  1
  O2-  O519  1  0.91965999  0.32409228  0.32697213  1
  O2-  O520  1  0.94472965  0.36889572  0.63327321  1
  O2-  O521  1  0.90353333  0.35242451  0.98674788  1
  O2-  O522  1  0.90779421  0.56047431  0.31529175  1
  O2-  O523  1  0.90753842  0.59511457  0.64422370  1
  O2-  O524  1  0.92038530  0.58972010  0.95467364  1
  O2-  O525  1  0.84295100  0.77959430  0.28930563  1
  O2-  O526  1  0.91697891  0.84147138  0.64003782  1
  O2-  O527  1  0.90341882  0.83617332  0.98833338  1
  O2-  O528  1  0.12166186  0.20145548  0.03693099  1
  O2-  O529  1  0.07221486  0.16779450  0.34050532  1
  O2-  O530  1  0.08626853  0.17334833  0.68441238  1
  O2-  O531  1  0.07420413  0.42335948  0.01895512  1
  O2-  O532  1  0.08844784  0.42780857  0.36090903  1
  O2-  O533  1  0.09612645  0.42449930  0.68109447  1
  O2-  O534  1  0.07474425  0.66417242  0.01790474  1
  O2-  O535  1  0.07541841  0.64645013  0.35265021  1
  O2-  O536  1  0.08973247  0.66946511  0.65830630  1
  O2-  O537  1  0.07093315  0.92477809  0.03082306  1
  O2-  O538  1  0.09231822  0.94614601  0.34832140  1
  O2-  O539  1  0.09718569  0.92885669  0.66369060  1
  O2-  O540  1  0.34814540  0.15682731  -0.02264996  1
  O2-  O541  1  0.34422259  0.18661984  0.35744729  1
  O2-  O542  1  0.34560344  0.17800780  0.67022200  1
  O2-  O543  1  0.33037807  0.40347054  0.01525586  1
  O2-  O544  1  0.36322118  0.45087270  0.35348790  1
  O2-  O545  1  0.35378788  0.43397395  0.66883160  1
  O2-  O546  1  0.33854702  0.68667939  0.00870972  1
  O2-  O547  1  0.32124721  0.64231046  0.36103512  1
  O2-  O548  1  0.37699650  0.68435552  0.69207033  1
  O2-  O549  1  0.34315531  0.91038867  0.00981413  1
  O2-  O550  1  0.31621234  0.91344325  0.35797408  1
  O2-  O551  1  0.39163621  0.93220187  0.68227610  1
  O2-  O552  1  0.58325409  0.16663393  0.01566288  1
  O2-  O553  1  0.57062880  0.15187508  0.35812657  1
  O2-  O554  1  0.58724962  0.16597883  0.66863850  1
  O2-  O555  1  0.58895576  0.42384507  0.01243852  1
  O2-  O556  1  0.60154832  0.43782900  0.35447146  1
  O2-  O557  1  0.59507093  0.41993063  0.68445365  1
  O2-  O558  1  0.58367841  0.66493578  0.04501269  1
  O2-  O559  1  0.57667531  0.66440330  0.34687310  1
  O2-  O560  1  0.58634783  0.66555036  0.68692371  1
  O2-  O561  1  0.56903937  0.90350052  0.02287593  1
  O2-  O562  1  0.58345060  0.91673896  0.29421376  1
  O2-  O563  1  0.57398927  0.90726446  0.69742211  1
  O2-  O564  1  0.82104689  0.17915353  0.02565956  1
  O2-  O565  1  0.83033896  0.15403844  0.35753071  1
  O2-  O566  1  0.80702500  0.14399938  0.68652179  1
  O2-  O567  1  0.81521981  0.42646500  0.00578359  1
  O2-  O568  1  0.83769451  0.40881200  0.37367983  1
  O2-  O569  1  0.83000094  0.42266363  0.67520171  1
  O2-  O570  1  0.82208072  0.67562913  0.02270239  1
  O2-  O571  1  0.83912213  0.65298954  0.35774844  1
  O2-  O572  1  0.83304887  0.67969967  0.68661753  1
  O2-  O573  1  0.81923692  0.91762864  0.02432862  1
  O2-  O574  1  0.82489385  0.90595670  0.33871882  1
  O2-  O575  1  0.82731142  0.91701691  0.68494728  1
