# generated using pymatgen
data_H2O
_symmetry_space_group_name_H-M   'P 1'
_cell_length_a   17.98994742
_cell_length_b   18.00075752
_cell_length_c   22.00443670
_cell_angle_alpha   89.96144834
_cell_angle_beta   90.01100014
_cell_angle_gamma   120.00514419
_symmetry_Int_Tables_number   1
_chemical_formula_structural   H2O
_chemical_formula_sum   'H384 O192'
_cell_volume   6170.76409527
_cell_formula_units_Z   192
loop_
 _symmetry_equiv_pos_site_id
 _symmetry_equiv_pos_as_xyz
  1  'x, y, z'
loop_
 _atom_type_symbol
 _atom_type_oxidation_number
  H+  1.0
  O2-  -2.0
loop_
 _atom_site_type_symbol
 _atom_site_label
 _atom_site_symmetry_multiplicity
 _atom_site_fract_x
 _atom_site_fract_y
 _atom_site_fract_z
 _atom_site_occupancy
  H+  H0  1  0.37370473  0.64416155  0.50586726  1
  H+  H1  1  0.72117401  0.11689542  0.50436893  1
  H+  H2  1  0.10558286  0.83767841  0.33102372  1
  H+  H3  1  0.51450132  0.36793623  0.16132167  1
  H+  H4  1  0.12757110  0.36016224  0.99155374  1
  H+  H5  1  0.36795027  0.74573421  0.83642485  1
  H+  H6  1  0.38764044  0.51377729  0.16954950  1
  H+  H7  1  0.37914309  0.78441021  0.64662767  1
  H+  H8  1  0.62786525  0.87296067  0.99701208  1
  H+  H9  1  0.35802777  0.13379896  0.34261979  1
  H+  H10  1  0.89366642  0.65599977  0.29308470  1
  H+  H11  1  0.14397393  0.77800191  0.96348526  1
  H+  H12  1  0.64795763  0.59078681  0.72571608  1
  H+  H13  1  0.40227104  0.35170750  0.82621561  1
  H+  H14  1  0.56142584  0.02708833  0.14121240  1
  H+  H15  1  0.10803309  0.37976530  0.49567120  1
  H+  H16  1  0.87748133  0.77569077  0.65551196  1
  H+  H17  1  0.38808414  0.79465057  0.33642628  1
  H+  H18  1  0.02179843  0.63695544  0.49055226  1
  H+  H19  1  0.02570857  0.87922813  0.81410960  1
  H+  H20  1  0.10681342  0.13740858  0.33857964  1
  H+  H21  1  0.09553201  0.72660531  0.15910679  1
  H+  H22  1  0.81605291  0.41650780  0.67174878  1
  H+  H23  1  0.11543891  0.64077312  -0.00517727  1
  H+  H24  1  0.33456952  0.41156697  0.05041351  1
  H+  H25  1  0.90467004  0.62789506  0.83731098  1
  H+  H26  1  0.72379865  0.88373751  0.32327606  1
  H+  H27  1  0.99801609  0.58908527  0.32159976  1
  H+  H28  1  0.12252697  0.48079384  0.34066922  1
  H+  H29  1  0.97831892  0.12694904  0.32493495  1
  H+  H30  1  0.27998671  0.03337003  0.44864965  1
  H+  H31  1  0.38057375  0.26217438  0.17176666  1
  H+  H32  1  0.83555799  0.41168998  0.06474004  1
  H+  H33  1  0.64571447  0.35489819  0.84790537  1
  H+  H34  1  -0.10198800  0.76274078  0.16743591  1
  H+  H35  1  0.89685584  0.62930140  0.48915577  1
  H+  H36  1  0.48857723  0.60836296  -0.00949682  1
  H+  H37  1  0.61559521  0.98488701  0.00540624  1
  H+  H38  1  0.84672100  0.78375715  0.31809648  1
  H+  H39  1  0.87452067  0.88038104  0.32594031  1
  H+  H40  1  0.16726390  0.57837032  0.93597853  1
  H+  H41  1  0.35860151  0.64309545  0.63984437  1
  H+  H42  1  0.65963336  0.55957885  0.24297514  1
  H+  H43  1  1.02070195  0.38371578  0.49238226  1
  H+  H44  1  0.12006735  0.47764247  0.66329263  1
  H+  H45  1  0.61542057  0.45402692  0.69002627  1
  H+  H46  1  0.30825518  0.54714003  0.30789488  1
  H+  H47  1  0.84951376  -0.02564208  0.66600612  1
  H+  H48  1  0.85935691  0.99499565  0.33930370  1
  H+  H49  1  0.64134506  0.10866969  -0.00529166  1
  H+  H50  1  0.72930423  0.63337107  0.33296872  1
  H+  H51  1  0.60868572  0.20902828  0.01864149  1
  H+  H52  1  0.62943361  0.38638570  0.49556111  1
  H+  H53  1  0.39523050  0.39337953  0.15014774  1
  H+  H54  1  0.88439407  0.10461957  0.99248099  1
  H+  H55  1  0.13617664  0.72268148  0.81321141  1
  H+  H56  1  0.90104653  0.50238466  0.16511449  1
  H+  H57  1  0.15719392  0.88929761  0.67073058  1
  H+  H58  1  0.22727739  0.85992325  0.50659306  1
  H+  H59  1  0.61428730  0.33714592  0.65469045  1
  H+  H60  1  0.60618898  0.09086844  0.82377289  1
  H+  H61  1  0.90385262  0.63145901  0.65333129  1
  H+  H62  1  0.63563216  0.25686146  0.32392237  1
  H+  H63  1  0.88209221  0.10781256  0.65604174  1
  H+  H64  1  0.60842020  0.45279084  0.32158350  1
  H+  H65  1  0.01141795  0.13949588  0.15484996  1
  H+  H66  1  0.82183090  0.68543763  1.04167789  1
  H+  H67  1  0.11619395  0.10806878  0.50717990  1
  H+  H68  1  0.48446555  0.88914231  -0.01429745  1
  H+  H69  1  0.13837044  0.61987012  0.33241469  1
  H+  H70  1  0.10753366  0.72641070  0.33663737  1
  H+  H71  1  0.36351419  0.96790711  0.49993150  1
  H+  H72  1  0.64023451  0.70207109  0.79416436  1
  H+  H73  1  0.51139002  0.64629624  0.16799909  1
  H+  H74  1  0.10973828  0.63468351  0.49038462  1
  H+  H75  1  0.47491931  0.88215958  0.32381503  1
  H+  H76  1  0.08624105  0.13853967  0.81960760  1
  H+  H77  1  0.10194253  0.22624168  1.00279963  1
  H+  H78  1  0.20126424  0.85747331  0.17119753  1
  H+  H79  1  0.50727202  0.88687015  0.15827460  1
  H+  H80  1  0.38288894  0.11378149  0.84920297  1
  H+  H81  1  0.91522160  0.54934115  0.65117879  1
  H+  H82  1  0.04352977  0.87359449  0.40675262  1
  H+  H83  1  0.23846227  0.61690148  0.84012615  1
  H+  H84  1  0.88375294  0.35254699  1.00210424  1
  H+  H85  1  0.61576280  0.45954052  0.82447420  1
  H+  H86  1  0.13038091  0.12517197  -0.00614002  1
  H+  H87  1  0.65390967  0.90779110  0.51463641  1
  H+  H88  1  0.63180235  0.11826753  0.50630394  1
  H+  H89  1  0.25218664  0.61396852  0.01137275  1
  H+  H90  1  0.61837968  0.99010878  0.32160248  1
  H+  H91  1  0.13977521  0.35647875  0.65843851  1
  H+  H92  1  0.31528704  0.86756422  0.66920175  1
  H+  H93  1  0.32224300  0.65917267  0.09723845  1
  H+  H94  1  0.37594928  0.77268244  0.17140445  1
  H+  H95  1  0.85953571  0.89439787  0.49130779  1
  H+  H96  1  0.60788469  0.73540651  0.54342499  1
  H+  H97  1  0.89394493  -0.00333253  0.81974939  1
  H+  H98  1  0.78517845  0.64027600  0.82292224  1
  H+  H99  1  0.88292273  0.86484969  0.98888672  1
  H+  H100  1  0.20772547  0.83116688  0.88426259  1
  H+  H101  1  0.19050871  0.34517553  0.81364954  1
  H+  H102  1  0.60150137  -0.01637975  0.66886639  1
  H+  H103  1  0.50368520  0.89038206  0.48173242  1
  H+  H104  1  0.35944074  0.13109824  0.16109531  1
  H+  H105  1  0.87831237  0.63339741  0.32307672  1
  H+  H106  1  0.38604804  0.66846370  0.83427117  1
  H+  H107  1  0.64175564  0.27459076  0.17031740  1
  H+  H108  1  0.46472971  0.58868837  0.49587267  1
  H+  H109  1  0.61984373  0.78579525  0.66693091  1
  H+  H110  1  0.35288270  0.58512711  0.31211995  1
  H+  H111  1  0.39966611  0.47598640  0.34099725  1
  H+  H112  1  0.20884443  0.34794954  0.99035864  1
  H+  H113  1  -0.02638604  0.10690725  -0.01106118  1
  H+  H114  1  0.26880506  0.64269361  0.63736621  1
  H+  H115  1  0.76339318  0.36640114  0.34857852  1
  H+  H116  1  -0.01049080  0.38376243  0.32500635  1
  H+  H117  1  0.11044089  0.99313539  0.01612047  1
  H+  H118  1  0.73862418  0.57243140  0.51814434  1
  H+  H119  1  0.90950171  0.87352259  0.83440867  1
  H+  H120  1  0.38820754  0.35692112  0.32630913  1
  H+  H121  1  0.37562182  0.02128356  0.32862150  1
  H+  H122  1  0.22554796  0.35243353  0.66008085  1
  H+  H123  1  0.11374312  0.86060956  0.17402419  1
  H+  H124  1  0.77991256  0.38282242  0.15996269  1
  H+  H125  1  0.37947228  0.08893630  0.52535577  1
  H+  H126  1  0.74084634  0.10944517  0.21857741  1
  H+  H127  1  0.57627827  0.48832960  0.46014928  1
  H+  H128  1  0.86120645  0.36802696  0.15885084  1
  H+  H129  1  0.50503025  0.89143643  0.67029677  1
  H+  H130  1  0.88582884  1.03161660  0.49960571  1
  H+  H131  1  0.75572141  0.40057040  0.49309494  1
  H+  H132  1  0.47175100  0.11593754  0.85340926  1
  H+  H133  1  0.12688937  1.02551116  0.17556805  1
  H+  H134  1  0.59477305  0.44316569  0.00266648  1
  H+  H135  1  0.34898278  0.89098875  0.33988292  1
  H+  H136  1  0.14740073  0.61015524  0.83271282  1
  H+  H137  1  0.47006172  0.36932367  0.50112493  1
  H+  H138  1  0.61215552  -0.00431975  0.48164271  1
  H+  H139  1  0.90003018  0.51139158  0.32414483  1
  H+  H140  1  0.57080772  0.16513681  0.77593241  1
  H+  H141  1  0.35793951  0.22331509  1.00852948  1
  H+  H142  1  0.91462393  0.59603257  0.55471707  1
  H+  H143  1  0.60103651  0.88880517  0.67521762  1
  H+  H144  1  0.62110838  0.75184350  0.51147796  1
  H+  H145  1  0.16196527  0.32505561  0.56544248  1
  H+  H146  1  0.63073972  0.79220149  0.17659157  1
  H+  H147  1  1.00412846  0.40556650  0.84534208  1
  H+  H148  1  0.62656101  0.33880602  -0.00147888  1
  H+  H149  1  0.73646948  0.35997230  0.84838847  1
  H+  H150  1  0.91418508  1.10036288  0.26722729  1
  H+  H151  1  -0.03241809  0.11909345  0.83088556  1
  H+  H152  1  0.53750656  0.85666654  0.84749848  1
  H+  H153  1  0.57479867  0.19502678  0.67144600  1
  H+  H154  1  0.16434155  0.78103561  0.66111764  1
  H+  H155  1  0.46940360  0.10436792  0.32452524  1
  H+  H156  1  0.87186854  0.73332771  0.82803518  1
  H+  H157  1  0.32872033  0.43110337  0.76902849  1
  H+  H158  1  1.01537635  0.14030840  0.48840881  1
  H+  H159  1  0.60376152  0.90400659  0.15976301  1
  H+  H160  1  0.52849461  0.36766319  0.83037090  1
  H+  H161  1  0.13244405  0.51674629  0.49885058  1
  H+  H162  1  0.35403909  -0.02174424  1.00568925  1
  H+  H163  1  0.85583775  0.21439374  0.68169689  1
  H+  H164  1  0.62800435  0.67118328  0.03103810  1
  H+  H165  1  0.25897889  0.23279003  0.44511291  1
  H+  H166  1  0.36962121  0.51450826  0.50271741  1
  H+  H167  1  0.88695181  0.25618024  0.18259261  1
  H+  H168  1  0.20755845  0.11969984  0.50433814  1
  H+  H169  1  0.47362955  0.34949948  0.32124390  1
  H+  H170  1  0.12516558  0.48376655  0.81756295  1
  H+  H171  1  0.12808538  0.26790260  0.50407020  1
  H+  H172  1  0.89951735  0.53758811  0.83894503  1
  H+  H173  1  0.54166477  0.75159845  0.86859762  1
  H+  H174  1  0.19975751  0.01329387  0.88437979  1
  H+  H175  1  0.15583552  0.08679689  0.26889658  1
  H+  H176  1  0.35348387  0.21729287  0.67446885  1
  H+  H177  1  0.81195906  0.90647335  0.06286214  1
  H+  H178  1  0.71667233  0.10592418  0.65990553  1
  H+  H179  1  0.46715939  0.08133067  0.17398176  1
  H+  H180  1  0.26855952  0.12707651  0.83270787  1
  H+  H181  1  0.86559466  0.21750629  0.01952368  1
  H+  H182  1  0.35926836  0.64018987  0.15771284  1
  H+  H183  1  0.61718495  0.12895472  0.32880593  1
  H+  H184  1  0.33900434  0.87650540  0.15750679  1
  H+  H185  1  0.87675426  0.36707197  0.51002954  1
  H+  H186  1  0.22104328  0.12364026  0.99883229  1
  H+  H187  1  0.86227876  0.14697780  0.33572248  1
  H+  H188  1  0.11405300  0.23054961  0.33989895  1
  H+  H189  1  0.04214530  0.39609784  0.02014612  1
  H+  H190  1  0.87606191  0.65067571  0.00884609  1
  H+  H191  1  0.93205531  0.32904516  0.73602814  1
  H+  H192  1  0.50773150  0.62240730  0.81970779  1
  H+  H193  1  0.34412383  0.42153497  0.39916020  1
  H+  H194  1  0.97138231  0.87053290  0.50787602  1
  H+  H195  1  0.95416520  0.43824503  0.29492769  1
  H+  H196  1  0.36661036  0.09274578  0.66780168  1
  H+  H197  1  0.62574481  0.75324336  0.34457767  1
  H+  H198  1  0.11090397  0.88950265  0.49982750  1
  H+  H199  1  0.41054916  0.08628462  0.94249381  1
  H+  H200  1  0.28188036  0.05960650  0.47576971  1
  H+  H201  1  0.59730301  0.66256351  0.64648123  1
  H+  H202  1  0.89663094  0.40628735  0.68569281  1
  H+  H203  1  0.85359981  0.22399519  0.48861784  1
  H+  H204  1  0.98760397  0.45189935  0.89964879  1
  H+  H205  1  0.22106071  0.60730268  0.50361324  1
  H+  H206  1  0.34677684  0.54454592  0.22101085  1
  H+  H207  1  0.39003037  0.88373703  -0.01665586  1
  H+  H208  1  0.61281843  0.89921043  0.32894841  1
  H+  H209  1  0.76938948  0.37361115  0.00998553  1
  H+  H210  1  0.10108118  0.38179205  0.81185659  1
  H+  H211  1  0.59684332  0.62533353  0.49223624  1
  H+  H212  1  0.40765232  0.55892346  0.82849371  1
  H+  H213  1  0.81456641  0.14228202  0.73257931  1
  H+  H214  1  0.83842805  0.92553157  0.72815516  1
  H+  H215  1  0.60924526  0.36537632  0.33465496  1
  H+  H216  1  0.88659671  0.74835519  0.47659287  1
  H+  H217  1  0.34106897  -0.03480743  0.15754285  1
  H+  H218  1  1.03805724  0.64410372  0.82094776  1
  H+  H219  1  0.21562902  0.11358538  0.32698329  1
  H+  H220  1  0.36014047  0.47259356  0.67315984  1
  H+  H221  1  0.13147480  0.50908208  -0.00541921  1
  H+  H222  1  0.10436683  0.20635482  0.67047978  1
  H+  H223  1  0.32558281  0.41473292  0.84153156  1
  H+  H224  1  0.55307407  0.95842515  0.82518330  1
  H+  H225  1  0.97034439  0.10484229  0.65541889  1
  H+  H226  1  0.50263733  0.35996662  0.00122197  1
  H+  H227  1  0.72356421  0.58492597  0.48989170  1
  H+  H228  1  0.02424932  0.90460986  0.01213081  1
  H+  H229  1  0.68334015  0.30794681  0.64087005  1
  H+  H230  1  0.71485949  0.86699978  0.98884131  1
  H+  H231  1  0.46409096  0.61553223  0.65727888  1
  H+  H232  1  0.61283416  0.60136182  0.16110088  1
  H+  H233  1  0.40826937  0.78778929  0.50151378  1
  H+  H234  1  0.85096699  0.96614918  0.00245297  1
  H+  H235  1  0.36558938  0.38628390  0.67812793  1
  H+  H236  1  0.33836366  0.88551773  0.81773519  1
  H+  H237  1  0.21620232  0.11360895  0.17486286  1
  H+  H238  1  0.46767316  0.10667885  0.00342212  1
  H+  H239  1  0.35590401  0.13358252  0.01215208  1
  H+  H240  1  0.22907781  0.62722166  0.33733838  1
  H+  H241  1  0.36822129  0.46642280  -0.00968636  1
  H+  H242  1  0.35478933  0.38902518  0.49795816  1
  H+  H243  1  0.37519531  0.28761429  0.50246356  1
  H+  H244  1  0.04168110  0.65578149  0.66306858  1
  H+  H245  1  0.26258433  0.12967128  0.67327549  1
  H+  H246  1  0.86611080  0.88210793  0.16258215  1
  H+  H247  1  0.32049158  0.15698183  0.76820027  1
  H+  H248  1  0.36097730  0.66234766  0.36987147  1
  H+  H249  1  0.37987391  0.35629215  -0.01389877  1
  H+  H250  1  0.63765653  0.59832795  0.81705686  1
  H+  H251  1  0.83447103  0.97095378  0.14185097  1
  H+  H252  1  0.13768388  0.97564782  0.66767419  1
  H+  H253  1  0.12330795  0.09453361  0.66325947  1
  H+  H254  1  0.97987491  0.84447902  0.34856063  1
  H+  H255  1  0.68981202  0.61219498  1.08979621  1
  H+  H256  1  0.39449196  0.87331517  0.49120089  1
  H+  H257  1  0.51218408  0.12585890  0.50108179  1
  H+  H258  1  0.40239984  0.83360810  0.23069111  1
  H+  H259  1  0.11196683  0.96973420  0.81746122  1
  H+  H260  1  0.22924032  0.62840456  0.17396904  1
  H+  H261  1  0.95949656  0.99051985  0.77761564  1
  H+  H262  1  0.61386977  0.51079277  0.15369648  1
  H+  H263  1  0.65799827  0.08043599  0.59955059  1
  H+  H264  1  0.85413978  0.49274478  0.49063534  1
  H+  H265  1  0.55452280  0.52011583  0.57547307  1
  H+  H266  1  0.10795609  0.97692420  0.49470377  1
  H+  H267  1  0.78531790  0.63268090  0.68459390  1
  H+  H268  1  0.09706752  0.42672214  0.72711548  1
  H+  H269  1  0.26125174  0.38082117  0.49239101  1
  H+  H270  1  0.11357935  0.48332155  0.19242586  1
  H+  H271  1  0.14664299  0.82968190  0.26743198  1
  H+  H272  1  0.53362709  0.61479609  0.32083008  1
  H+  H273  1  0.59033531  0.55176713  0.28951095  1
  H+  H274  1  0.66900152  0.69773585  0.36129172  1
  H+  H275  1  0.78085275  0.91351076  0.49991192  1
  H+  H276  1  0.25705854  0.88658956  0.34166852  1
  H+  H277  1  0.59301489  0.11883044  0.68023175  1
  H+  H278  1  0.47302852  0.56968781  0.26245662  1
  H+  H279  1  0.85420785  0.51353100  0.98823401  1
  H+  H280  1  0.88189287  0.41152668  0.83718067  1
  H+  H281  1  0.85514016  0.13601567  0.48958042  1
  H+  H282  1  0.14596020  0.36487395  0.32518348  1
  H+  H283  1  0.89094995  0.57785626  0.93253635  1
  H+  H284  1  0.61351504  0.10780884  0.17986314  1
  H+  H285  1  0.84047484  0.10845603  0.82708395  1
  H+  H286  1  0.74623345  0.12980551  0.31988785  1
  H+  H287  1  0.23361044  0.36403192  0.32646746  1
  H+  H288  1  0.41696989  0.33140976  0.60443690  1
  H+  H289  1  0.10491973  0.91345018  0.73156660  1
  H+  H290  1  0.38270285  0.25583030  0.83474269  1
  H+  H291  1  0.44763938  0.08090896  0.67483484  1
  H+  H292  1  0.90440158  0.70522438  0.11808783  1
  H+  H293  1  0.61625030  0.22317034  0.83536800  1
  H+  H294  1  0.94014037  0.55591848  0.22945707  1
  H+  H295  1  0.45100053  0.47280016  0.10793016  1
  H+  H296  1  0.67116586  0.32343222  0.26798890  1
  H+  H297  1  0.08884761  0.41791209  0.39813779  1
  H+  H298  1  0.06333687  0.14986720  0.73228256  1
  H+  H299  1  0.91106328  0.08374177  0.89594553  1
  H+  H300  1  0.44576322  0.58420149  0.92489780  1
  H+  H301  1  0.81315991  0.18018814  0.82928990  1
  H+  H302  1  0.47437433  0.35098751  0.66457665  1
  H+  H303  1  0.82022331  0.41471363  0.42904808  1
  H+  H304  1  0.92719191  0.83986568  0.89758192  1
  H+  H305  1  0.57960229  0.38273256  0.73916844  1
  H+  H306  1  0.92710217  0.32878885  0.94972226  1
  H+  H307  1  0.69510259  0.59094534  1.02020438  1
  H+  H308  1  0.64606790  0.57353066  0.65486979  1
  H+  H309  1  0.32990635  0.69411311  0.42477433  1
  H+  H310  1  0.08604790  0.68161899  0.04584059  1
  H+  H311  1  0.15568264  0.07455644  0.60078848  1
  H+  H312  1  0.01264884  0.90227198  0.16303111  1
  H+  H313  1  0.72444281  0.87788311  0.16405927  1
  H+  H314  1  0.07696156  0.16760336  0.42909022  1
  H+  H315  1  0.31619098  0.90777613  0.05842372  1
  H+  H316  1  0.58799426  0.93955109  0.41699302  1
  H+  H317  1  0.57317488  0.63197749  0.42477497  1
  H+  H318  1  0.65233827  0.57056217  0.55865652  1
  H+  H319  1  0.13708947  0.61437656  0.65405176  1
  H+  H320  1  0.90257561  0.83280730  0.56218372  1
  H+  H321  1  0.33750332  0.68219349  0.55427173  1
  H+  H322  1  0.11589984  0.64841524  0.15920407  1
  H+  H323  1  0.90770078  0.79042818  0.99242765  1
  H+  H324  1  0.13696584  0.77383066  0.50918243  1
  H+  H325  1  0.90095061  0.86157191  0.22602946  1
  H+  H326  1  0.16868096  0.07304108  0.91202014  1
  H+  H327  1  0.09676113  0.13397926  0.15849890  1
  H+  H328  1  0.63524539  0.35887364  0.17122648  1
  H+  H329  1  0.71169898  0.87480711  0.67399575  1
  H+  H330  1  0.19071953  0.83883706  0.60145858  1
  H+  H331  1  0.16334042  0.41279155  0.14342876  1
  H+  H332  1  0.99387161  0.36543114  0.68077323  1
  H+  H333  1  0.67839086  0.88455715  0.57854706  1
  H+  H334  1  0.79165947  0.68066362  0.39053955  1
  H+  H335  1  0.07150763  0.16226699  0.06180855  1
  H+  H336  1  0.32892716  0.16319818  0.10333229  1
  H+  H337  1  0.86400664  0.85684752  0.65339743  1
  H+  H338  1  0.58115305  0.66212364  0.72016435  1
  H+  H339  1  0.56959600  0.67962735  0.10843574  1
  H+  H340  1  0.64650073  0.34009292  0.55275990  1
  H+  H341  1  0.82127620  0.16590000  0.39445501  1
  H+  H342  1  0.91251251  0.08830135  0.56002322  1
  H+  H343  1  0.60637542  0.74424930  0.01296700  1
  H+  H344  1  0.72933574  0.10776420  1.00031667  1
  H+  H345  1  0.66321931  0.57704294  0.88256155  1
  H+  H346  1  0.82717105  0.93312621  0.39825157  1
  H+  H347  1  0.59114861  0.21968377  0.48897101  1
  H+  H348  1  0.36018745  0.22313335  0.33420515  1
  H+  H349  1  0.43216314  0.86975683  0.90476497  1
  H+  H350  1  0.40983255  0.07301491  0.23180511  1
  H+  H351  1  0.58110484  0.14860243  0.39066550  1
  H+  H352  1  0.41102712  0.32096280  0.92897236  1
  H+  H353  1  0.08148161  0.67055252  0.39911679  1
  H+  H354  1  0.84731549  0.42921062  0.77444025  1
  H+  H355  1  0.91001924  0.32627315  0.23507423  1
  H+  H356  1  0.86090420  0.37969966  0.35297204  1
  H+  H357  1  0.93368316  0.73889170  0.42019414  1
  H+  H358  1  0.57852171  0.13612715  0.07153215  1
  H+  H359  1  0.66630031  0.31492105  0.94232612  1
  H+  H360  1  0.61220232  0.82709696  0.90909571  1
  H+  H361  1  0.17630252  0.60796313  0.23634062  1
  H+  H362  1  0.57113895  0.41499105  0.41791858  1
  H+  H363  1  0.03208051  0.39139391  0.18798396  1
  H+  H364  1  0.07576785  0.92743710  0.10555064  1
  H+  H365  1  0.90722528  0.33143980  0.56418230  1
  H+  H366  1  0.85565503  0.67741746  0.73398939  1
  H+  H367  1  0.22949583  0.86680594  0.97086980  1
  H+  H368  1  0.83920976  0.15117057  0.07502458  1
  H+  H369  1  0.32946658  0.91810560  0.43467263  1
  H+  H370  1  0.41121421  0.32465667  0.23069817  1
  H+  H371  1  0.99663520  0.60922580  0.16370901  1
  H+  H372  1  0.66559356  0.85074207  0.26228131  1
  H+  H373  1  0.56812998  0.39069905  0.09912707  1
  H+  H374  1  0.40997669  0.57397588  0.59678665  1
  H+  H375  1  0.16191338  0.42954918  0.07440182  1
  H+  H376  1  0.40625155  0.06017984  0.58593925  1
  H+  H377  1  0.67997321  0.06378673  0.81937725  1
  H+  H378  1  0.30967524  0.18834346  0.42196846  1
  H+  H379  1  0.09421540  0.66989879  0.72581791  1
  H+  H380  1  0.15351084  0.57695334  0.59195976  1
  H+  H381  1  0.57241289  0.92264617  0.06429657  1
  H+  H382  1  0.09929948  0.25516252  0.81169762  1
  H+  H383  1  0.32873945  0.59450269  0.01951163  1
  O2-  O384  1  0.06919823  0.16316950  0.13799067  1
  O2-  O385  1  0.07707883  0.16779358  0.47539448  1
  O2-  O386  1  0.05070303  0.15622004  0.79758159  1
  O2-  O387  1  0.09110633  0.42272622  0.20346934  1
  O2-  O388  1  0.08116172  0.41304059  0.47894059  1
  O2-  O389  1  0.08243971  0.42582175  0.79982666  1
  O2-  O390  1  0.07530005  0.66705547  0.14277308  1
  O2-  O391  1  0.08282499  0.66915800  0.47747639  1
  O2-  O392  1  0.09387768  0.66328525  0.79951038  1
  O2-  O393  1  0.07437557  0.92421003  0.15183521  1
  O2-  O394  1  0.07772608  0.91515881  0.48284754  1
  O2-  O395  1  0.08271769  0.91551766  0.79424079  1
  O2-  O396  1  0.33035979  0.16344245  0.14905106  1
  O2-  O397  1  0.29311956  0.20834395  0.46034822  1
  O2-  O398  1  0.32647470  0.16284004  0.81352065  1
  O2-  O399  1  0.39476514  0.44188763  0.12714074  1
  O2-  O400  1  0.32266390  0.41438697  0.47807123  1
  O2-  O401  1  0.32213531  0.45097322  0.81014540  1
  O2-  O402  1  0.33051959  0.67120103  0.14361933  1
  O2-  O403  1  0.34582442  0.68085132  0.50822991  1
  O2-  O404  1  0.34354627  0.68531277  0.82369280  1
  O2-  O405  1  0.30763613  0.90529587  0.14189725  1
  O2-  O406  1  0.33512746  0.91024588  0.47944491  1
  O2-  O407  1  0.28610000  0.88948454  0.80947259  1
  O2-  O408  1  0.56791259  0.08448859  0.14848505  1
  O2-  O409  1  0.56859130  0.15879493  0.47936248  1
  O2-  O410  1  0.57591048  0.16361448  0.82084188  1
  O2-  O411  1  0.57473827  0.39968917  0.14395641  1
  O2-  O412  1  0.56902457  0.43028863  0.46191700  1
  O2-  O413  1  0.58865516  0.39693502  0.81459199  1
  O2-  O414  1  0.57068128  0.67105632  0.15361312  1
  O2-  O415  1  0.55583180  0.59178501  0.46034283  1
  O2-  O416  1  0.60160819  0.64332516  0.78054376  1
  O2-  O417  1  0.56610701  0.92458911  0.14173340  1
  O2-  O418  1  0.58235503  0.93591122  0.46311052  1
  O2-  O419  1  0.50845920  0.88888493  0.82483770  1
  O2-  O420  1  0.84589193  0.13881426  0.16567410  1
  O2-  O421  1  0.82144376  0.16378492  0.47485012  1
  O2-  O422  1  0.79862684  0.12656708  0.80888194  1
  O2-  O423  1  0.83912087  0.40672490  0.14399862  1
  O2-  O424  1  0.81936619  0.42737029  0.47947130  1
  O2-  O425  1  0.83949824  0.42622994  0.81889929  1
  O2-  O426  1  0.89932278  0.70867549  0.16229501  1
  O2-  O427  1  0.88481662  0.70352016  0.44800174  1
  O2-  O428  1  0.84616978  0.67378196  0.81033839  1
  O2-  O429  1  0.80480211  0.90956095  0.13311582  1
  O2-  O430  1  0.83431731  0.92952011  0.47606319  1
  O2-  O431  1  0.90161954  0.95405447  0.79373450  1
  O2-  O432  1  0.15663168  0.08693766  0.19021922  1
  O2-  O433  1  0.15037830  0.08147513  0.52252167  1
  O2-  O434  1  0.18053606  0.05274348  0.87112062  1
  O2-  O435  1  0.20035819  0.42793648  0.10728335  1
  O2-  O436  1  0.16004005  0.32861511  0.51987468  1
  O2-  O437  1  0.12992909  0.31861189  0.82398209  1
  O2-  O438  1  0.17039102  0.60611972  0.19143292  1
  O2-  O439  1  0.15912038  0.57818683  0.51280836  1
  O2-  O440  1  0.17567712  0.57897515  0.84896968  1
  O2-  O441  1  0.14191595  0.82716716  0.18839611  1
  O2-  O442  1  0.16903651  0.83367696  0.52509146  1
  O2-  O443  1  0.22126000  0.81338724  0.84093144  1
  O2-  O444  1  0.40955591  0.07051238  0.18644002  1
  O2-  O445  1  0.41366235  0.06351723  0.53854739  1
  O2-  O446  1  0.41289456  0.08813757  0.87054600  1
  O2-  O447  1  0.41479041  0.32446705  0.18516350  1
  O2-  O448  1  0.41485915  0.34242147  0.52401768  1
  O2-  O449  1  0.42158207  0.31826220  0.84922105  1
  O2-  O450  1  0.39799395  0.56414649  0.19588703  1
  O2-  O451  1  0.41001701  0.57531483  0.51628371  1
  O2-  O452  1  0.45644982  0.61353584  0.84388581  1
  O2-  O453  1  0.40195350  0.83364850  0.18563170  1
  O2-  O454  1  0.43691101  0.85229078  0.50154653  1
  O2-  O455  1  0.42564760  0.86558701  0.85206772  1
  O2-  O456  1  0.69910035  0.12601570  0.23357134  1
  O2-  O457  1  0.66036089  0.08570213  0.52009418  1
  O2-  O458  1  0.61761252  0.04227180  0.81665306  1
  O2-  O459  1  0.66956090  0.33248823  0.18714692  1
  O2-  O460  1  0.65909995  0.35475935  0.50872989  1
  O2-  O461  1  0.67649206  0.32568768  0.86403441  1
  O2-  O462  1  0.64925953  0.57382726  0.16054465  1
  O2-  O463  1  0.60757741  0.57454456  0.58168667  1
  O2-  O464  1  0.66816229  0.56901180  0.83929459  1
  O2-  O465  1  0.66317195  0.85349218  0.18751687  1
  O2-  O466  1  0.70208306  0.91554848  0.53997835  1
  O2-  O467  1  0.58178658  0.81338239  0.86830117  1
  O2-  O468  1  0.88982100  0.10267629  0.18412411  1
  O2-  O469  1  0.91297003  0.09264757  0.51458054  1
  O2-  O470  1  0.90581097  0.08396324  0.85035564  1
  O2-  O471  1  0.90572076  0.31719753  0.19034734  1
  O2-  O472  1  0.90698398  0.33556808  0.51994388  1
  O2-  O473  1  0.95753387  0.40090355  0.87412286  1
  O2-  O474  1  0.93437323  0.56201166  0.18412566  1
  O2-  O475  1  0.90925437  0.58614382  0.50944296  1
  O2-  O476  1  0.93522779  0.59804973  0.85248764  1
  O2-  O477  1  0.90818679  0.86493594  0.18150154  1
  O2-  O478  1  0.90843416  0.83756323  0.51620496  1
  O2-  O479  1  0.92762760  0.83395833  0.85171544  1
  O2-  O480  1  0.15510666  0.08789281  0.31432962  1
  O2-  O481  1  0.15887178  0.07025179  0.64600988  1
  O2-  O482  1  0.16313351  0.09508464  0.97975239  1
  O2-  O483  1  0.17279612  0.32995681  0.31518024  1
  O2-  O484  1  0.16626595  0.32276732  0.64320394  1
  O2-  O485  1  0.14817029  0.31832102  0.97848099  1
  O2-  O486  1  0.17251625  0.59301081  0.31801435  1
  O2-  O487  1  0.16228853  0.57974664  0.63683781  1
  O2-  O488  1  0.15961974  0.57721882  0.98036181  1
  O2-  O489  1  0.15070491  0.82724607  0.31288642  1
  O2-  O490  1  0.19956704  0.84208808  0.64662623  1
  O2-  O491  1  0.17824126  0.83614857  0.94421511  1
  O2-  O492  1  0.40878122  0.08065955  0.31150428  1
  O2-  O493  1  0.39154551  0.05728783  0.65387627  1
  O2-  O494  1  0.40759851  0.08322982  0.98884186  1
  O2-  O495  1  0.41285024  0.32331656  0.30707620  1
  O2-  O496  1  0.41443536  0.32734856  0.64965520  1
  O2-  O497  1  0.41080247  0.32348655  0.97409844  1
  O2-  O498  1  0.49686133  0.55861430  0.29960450  1
  O2-  O499  1  0.40426521  0.57719789  0.64165551  1
  O2-  O500  1  0.43560687  0.56757279  0.96829731  1
  O2-  O501  1  0.41214896  0.84968870  0.31415765  1
  O2-  O502  1  0.40992230  0.84905527  0.64648413  1
  O2-  O503  1  0.42813413  0.86493289  0.96317144  1
  O2-  O504  1  0.68285902  0.09715366  0.29761789  1
  O2-  O505  1  0.65577327  0.07726084  0.64504136  1
  O2-  O506  1  0.67193833  0.07887890  0.98057174  1
  O2-  O507  1  0.66915581  0.31969005  0.31325108  1
  O2-  O508  1  0.62851676  0.30046517  0.62715592  1
  O2-  O509  1  0.66193675  0.31255182  0.98777599  1
  O2-  O510  1  0.64465193  0.54945403  0.28684765  1
  O2-  O511  1  0.66844064  0.56577320  0.69411049  1
  O2-  O512  1  0.70432858  0.63716555  1.04758408  1
  O2-  O513  1  0.66286946  0.84971098  0.30864919  1
  O2-  O514  1  0.65069414  0.84932447  0.65856483  1
  O2-  O515  1  0.65175677  0.83822634  0.97798081  1
  O2-  O516  1  0.91615786  0.09895040  0.31214172  1
  O2-  O517  1  0.91041337  0.07767140  0.63802745  1
  O2-  O518  1  0.91293800  0.07576315  0.97257661  1
  O2-  O519  1  0.93512797  0.37852856  0.30765372  1
  O2-  O520  1  0.92950865  0.33396665  0.69186523  1
  O2-  O521  1  0.91350832  0.31949365  0.99325157  1
  O2-  O522  1  0.95157407  0.53827486  0.29865671  1
  O2-  O523  1  0.93525792  0.60583000  0.63164864  1
  O2-  O524  1  0.85363311  0.56286302  0.96875272  1
  O2-  O525  1  0.89529290  0.84192203  0.30982328  1
  O2-  O526  1  0.89749554  0.83200384  0.63589040  1
  O2-  O527  1  0.92325598  0.84674794  0.97233893  1
  O2-  O528  1  0.07362657  0.16263614  0.01609884  1
  O2-  O529  1  0.07753126  0.16943240  0.35472287  1
  O2-  O530  1  0.07062076  0.14613358  0.68459319  1
  O2-  O531  1  0.10411579  0.42772707  0.01405496  1
  O2-  O532  1  0.08948573  0.41941771  0.35301753  1
  O2-  O533  1  0.09448664  0.41860462  0.68120763  1
  O2-  O534  1  0.09205978  0.68037173  0.00170930  1
  O2-  O535  1  0.08218433  0.66641845  0.35382463  1
  O2-  O536  1  0.10010942  0.67656388  0.67995771  1
  O2-  O537  1  0.08052091  0.93422018  0.03313128  1
  O2-  O538  1  0.01995051  0.83212011  0.37263563  1
  O2-  O539  1  0.11998953  0.91639183  0.68473414  1
  O2-  O540  1  0.32617468  0.16504090  0.02700962  1
  O2-  O541  1  0.32846987  0.16584888  0.35487180  1
  O2-  O542  1  0.32186257  0.15771928  0.69073132  1
  O2-  O543  1  0.33317631  0.40597884  0.00576440  1
  O2-  O544  1  0.35170491  0.41972931  0.35444303  1
  O2-  O545  1  0.33294605  0.41436863  0.69215728  1
  O2-  O546  1  0.31204707  0.63688381  0.02957932  1
  O2-  O547  1  0.33331947  0.69563880  0.38001765  1
  O2-  O548  1  0.33189219  0.67815041  0.62749966  1
  O2-  O549  1  0.32501494  0.91483955  0.01374620  1
  O2-  O550  1  0.31719354  0.91819015  0.35782983  1
  O2-  O551  1  0.36357271  0.86931983  0.69237712  1
  O2-  O552  1  0.57472146  0.14639924  0.02778385  1
  O2-  O553  1  0.58131597  0.15290712  0.34594366  1
  O2-  O554  1  0.55868359  0.14378640  0.69652912  1
  O2-  O555  1  0.56320225  0.38542791  0.01941330  1
  O2-  O556  1  0.57865352  0.39745604  0.34488064  1
  O2-  O557  1  0.58038736  0.39019380  0.69367079  1
  O2-  O558  1  0.58131024  0.68531014  0.03207844  1
  O2-  O559  1  0.61258923  0.69608894  0.36188161  1
  O2-  O560  1  0.56848204  0.67930620  0.67654131  1
  O2-  O561  1  0.57665935  0.92265404  0.01891617  1
  O2-  O562  1  0.58485449  0.93376976  0.34258136  1
  O2-  O563  1  0.56768715  0.92199700  0.68545100  1
  O2-  O564  1  0.83466179  0.15503773  0.03068389  1
  O2-  O565  1  0.82466128  0.17044691  0.34938322  1
  O2-  O566  1  0.82026718  0.15166755  0.68725695  1
  O2-  O567  1  0.83171102  0.40967321  0.01959985  1
  O2-  O568  1  0.82039592  0.39808682  0.37078489  1
  O2-  O569  1  0.87302338  0.44645715  0.68981435  1
  O2-  O570  1  0.88139851  0.70184309  0.03124577  1
  O2-  O571  1  0.75898113  0.68732036  0.35684208  1
  O2-  O572  1  0.84816729  0.67106759  0.68858615  1
  O2-  O573  1  0.81588370  0.90524767  0.01545873  1
  O2-  O574  1  0.82529696  0.93384235  0.35281238  1
  O2-  O575  1  0.81580240  0.91656499  0.68573682  1
