# generated using pymatgen
data_H2O
_symmetry_space_group_name_H-M   'P 1'
_cell_length_a   17.99154204
_cell_length_b   17.99322565
_cell_length_c   22.00348811
_cell_angle_alpha   89.99222757
_cell_angle_beta   90.01366610
_cell_angle_gamma   119.99488248
_symmetry_Int_Tables_number   1
_chemical_formula_structural   H2O
_chemical_formula_sum   'H384 O192'
_cell_volume   6169.10212196
_cell_formula_units_Z   192
loop_
 _symmetry_equiv_pos_site_id
 _symmetry_equiv_pos_as_xyz
  1  'x, y, z'
loop_
 _atom_type_symbol
 _atom_type_oxidation_number
  H+  1.0
  O2-  -2.0
loop_
 _atom_site_type_symbol
 _atom_site_label
 _atom_site_symmetry_multiplicity
 _atom_site_fract_x
 _atom_site_fract_y
 _atom_site_fract_z
 _atom_site_occupancy
  H+  H0  1  0.12159416  0.27885357  0.15325953  1
  H+  H1  1  0.39034052  0.63165425  0.99711188  1
  H+  H2  1  0.22406852  0.11127781  0.82712085  1
  H+  H3  1  0.89007772  0.87307836  0.00488702  1
  H+  H4  1  0.23193172  1.03021441  -0.05506093  1
  H+  H5  1  0.77461216  0.64033515  0.83638848  1
  H+  H6  1  0.44843282  0.10936467  0.85232030  1
  H+  H7  1  0.15928237  0.65519340  0.67811683  1
  H+  H8  1  0.78805011  0.66409336  0.16794892  1
  H+  H9  1  0.35338221  0.60890025  0.66856974  1
  H+  H10  1  0.28107134  0.13287557  0.49359005  1
  H+  H11  1  0.85974278  0.47509454  0.83222250  1
  H+  H12  1  0.86570318  1.02014023  0.32810182  1
  H+  H13  1  0.38422401  0.78481843  0.17453676  1
  H+  H14  1  0.39469110  0.32465696  0.24626166  1
  H+  H15  1  0.17621576  0.10073548  0.57468074  1
  H+  H16  1  0.64229930  0.54661884  0.99552710  1
  H+  H17  1  0.11186825  0.99972490  0.49240754  1
  H+  H18  1  0.62905405  0.50461440  0.14554893  1
  H+  H19  1  0.88716765  0.27403815  0.66228349  1
  H+  H20  1  0.66234590  0.65895893  0.18247335  1
  H+  H21  1  0.86143021  0.13633808  0.83322486  1
  H+  H22  1  1.02572325  0.16007866  1.05697177  1
  H+  H23  1  0.38815106  0.12533245  0.17057818  1
  H+  H24  1  0.38096912  0.25116787  0.65310285  1
  H+  H25  1  0.84016453  0.38328515  0.49416679  1
  H+  H26  1  0.35767075  0.23155279  0.16312511  1
  H+  H27  1  0.33430696  0.43921817  0.34598311  1
  H+  H28  1  0.50808794  0.64353323  0.68105953  1
  H+  H29  1  0.82653919  0.66870997  0.74206369  1
  H+  H30  1  0.33289403  0.92119152  0.40166784  1
  H+  H31  1  0.36290390  0.13222979  0.33596597  1
  H+  H32  1  0.89030374  0.78315003  1.00670647  1
  H+  H33  1  0.75129825  0.92116193  0.85561305  1
  H+  H34  1  0.87968441  0.11197431  0.16949576  1
  H+  H35  1  0.27209045  0.14119341  0.15646365  1
  H+  H36  1  0.26836764  0.88528599  1.00984501  1
  H+  H37  1  -0.02082168  0.61965640  0.83900564  1
  H+  H38  1  0.85585149  0.88467034  0.34128588  1
  H+  H39  1  0.60917648  0.37048833  0.21025600  1
  H+  H40  1  0.64877187  0.26779853  0.33339633  1
  H+  H41  1  0.63387017  0.76451626  0.82434221  1
  H+  H42  1  0.65968253  0.51973268  0.49533275  1
  H+  H43  1  0.87345052  0.90044750  0.68030173  1
  H+  H44  1  0.36123628  0.12139212  0.66920098  1
  H+  H45  1  0.64439564  0.88105962  1.00320025  1
  H+  H46  1  0.85290717  0.14235377  0.49028841  1
  H+  H47  1  0.71306858  0.09739975  0.82295971  1
  H+  H48  1  0.52638735  0.64653042  0.14781625  1
  H+  H49  1  0.98538363  0.87145297  0.17587081  1
  H+  H50  1  0.98213955  0.12459277  0.84687102  1
  H+  H51  1  0.11815912  0.73286902  0.83524201  1
  H+  H52  1  0.12870485  0.37233569  -0.00878359  1
  H+  H53  1  0.11353788  0.97386476  0.82413766  1
  H+  H54  1  0.92892277  0.85457218  0.56519626  1
  H+  H55  1  0.87284299  0.38687133  0.68117453  1
  H+  H56  1  0.38774310  0.75508074  0.64993100  1
  H+  H57  1  0.13645253  0.02685038  0.32382160  1
  H+  H58  1  0.21371510  0.62421313  0.32801306  1
  H+  H59  1  0.02576392  0.89141896  0.01497401  1
  H+  H60  1  0.23247762  0.86772674  0.85104617  1
  H+  H61  1  0.64587933  0.53139073  0.11727954  1
  H+  H62  1  0.66241903  0.83281731  0.60737885  1
  H+  H63  1  0.12570457  0.49327039  0.82339097  1
  H+  H64  1  0.15732065  0.33267337  0.89062013  1
  H+  H65  1  0.78207347  0.90586738  0.01200667  1
  H+  H66  1  0.33367953  0.15244135  0.43120144  1
  H+  H67  1  0.40279673  0.56212617  0.55518393  1
  H+  H68  1  -0.02717504  0.86970179  0.32843705  1
  H+  H69  1  0.36281333  0.23770739  0.99843666  1
  H+  H70  1  0.30762830  0.47546796  0.63476280  1
  H+  H71  1  0.41135386  0.32603331  0.90812144  1
  H+  H72  1  0.12491644  0.77374828  0.32952967  1
  H+  H73  1  0.32297476  0.14632839  0.72608552  1
  H+  H74  1  -0.05684231  0.58911072  0.52921768  1
  H+  H75  1  0.61159697  0.11824323  0.78343255  1
  H+  H76  1  0.71987558  0.11403843  0.32857269  1
  H+  H77  1  0.61590681  0.47947705  0.34295276  1
  H+  H78  1  0.61563488  0.58439259  0.67730740  1
  H+  H79  1  0.77876556  0.64615575  0.01535147  1
  H+  H80  1  0.38354096  0.36256453  0.68967509  1
  H+  H81  1  0.37364987  0.52398533  0.15895928  1
  H+  H82  1  0.66616746  0.08818513  0.23330257  1
  H+  H83  1  -0.02931965  0.12061376  0.49600432  1
  H+  H84  1  0.36116043  0.73746914  0.00306430  1
  H+  H85  1  0.37469899  0.65969279  0.82462693  1
  H+  H86  1  0.37798019  0.11393661  -0.00483303  1
  H+  H87  1  0.77814273  0.13648460  0.99838217  1
  H+  H88  1  0.79250485  0.64085946  0.48762499  1
  H+  H89  1  0.77171123  0.14003325  0.15960278  1
  H+  H90  1  0.60345696  0.23110398  0.81617768  1
  H+  H91  1  0.24331855  0.10521800  -0.01402312  1
  H+  H92  1  0.34280400  0.67449025  0.76067743  1
  H+  H93  1  0.02018281  0.39215919  0.00734405  1
  H+  H94  1  0.76470814  0.88044048  0.34330417  1
  H+  H95  1  0.02583241  0.90817613  0.49518848  1
  H+  H96  1  0.84534760  0.13384803  0.33928019  1
  H+  H97  1  0.84791420  0.21736793  0.82943692  1
  H+  H98  1  0.64775575  1.02436900  -0.01592653  1
  H+  H99  1  0.63313600  0.58680855  0.84742893  1
  H+  H100  1  0.12226383  0.88510268  0.16394046  1
  H+  H101  1  0.63480535  0.78179453  0.17409134  1
  H+  H102  1  0.96802331  0.61187830  1.00122246  1
  H+  H103  1  0.10522920  0.38400253  0.49716038  1
  H+  H104  1  0.70052992  0.38051943  0.48632726  1
  H+  H105  1  0.16849481  0.39313256  0.66135309  1
  H+  H106  1  0.89051830  0.77561540  0.85206349  1
  H+  H107  1  0.91090906  0.63251826  0.48163260  1
  H+  H108  1  0.33977301  0.43732675  -0.08587753  1
  H+  H109  1  0.87251554  0.27604841  0.50731363  1
  H+  H110  1  0.38998236  0.34359432  0.79310359  1
  H+  H111  1  0.52353304  0.13734858  0.33897694  1
  H+  H112  1  0.89083747  0.52668783  0.32036909  1
  H+  H113  1  0.63986397  0.77520483  0.51591044  1
  H+  H114  1  0.85119502  0.47427663  0.48110648  1
  H+  H115  1  0.32159798  0.40524000  0.10493240  1
  H+  H116  1  0.61287008  0.14034844  0.15960730  1
  H+  H117  1  0.63797196  0.03002507  0.17360842  1
  H+  H118  1  0.52551796  0.88465377  0.49563013  1
  H+  H119  1  0.77307106  0.88872064  0.49818114  1
  H+  H120  1  0.58716608  0.33658764  0.79770485  1
  H+  H121  1  0.60145115  0.72307387  0.67653760  1
  H+  H122  1  0.86453699  0.64385917  0.82935070  1
  H+  H123  1  0.62419920  1.00932523  0.82264545  1
  H+  H124  1  0.37176659  0.90285960  0.15826990  1
  H+  H125  1  0.57991948  0.40158742  0.29968156  1
  H+  H126  1  0.62200241  0.73399825  0.34881729  1
  H+  H127  1  0.23567290  0.62276173  0.82411096  1
  H+  H128  1  0.82904065  0.16725346  0.09850685  1
  H+  H129  1  0.64607474  0.63824168  1.00545188  1
  H+  H130  1  0.14397293  0.31895141  0.22185110  1
  H+  H131  1  0.38632331  0.36876567  -0.03923859  1
  H+  H132  1  0.64101136  0.36377668  0.96598155  1
  H+  H133  1  0.88356150  0.36990042  -0.01025995  1
  H+  H134  1  0.88880386  0.61128015  0.69549902  1
  H+  H135  1  0.35438986  0.43229268  0.79614690  1
  H+  H136  1  0.36353850  0.37558595  0.48897821  1
  H+  H137  1  0.88297745  0.27336532  0.16641883  1
  H+  H138  1  0.52502407  0.89478560  0.16397482  1
  H+  H139  1  0.61371751  0.89382997  0.16405147  1
  H+  H140  1  0.11723868  0.13787786  0.34373391  1
  H+  H141  1  0.52945521  0.40127169  -0.03944545  1
  H+  H142  1  0.88751324  0.40317956  0.33659375  1
  H+  H143  1  0.00096338  0.62547222  0.32586395  1
  H+  H144  1  0.87393362  1.01938654  0.17412833  1
  H+  H145  1  0.35245228  0.64472328  0.15344183  1
  H+  H146  1  0.85007008  0.96768327  0.70729502  1
  H+  H147  1  0.86326325  0.88972044  0.16463987  1
  H+  H148  1  0.13793034  0.28887270  0.99173446  1
  H+  H149  1  0.46416960  0.85207363  0.65411921  1
  H+  H150  1  0.34843886  0.11854373  0.82989872  1
  H+  H151  1  0.14605600  0.80409704  0.51221784  1
  H+  H152  1  0.92288589  0.83416412  0.91317624  1
  H+  H153  1  0.22160839  0.61564684  0.99838712  1
  H+  H154  1  0.35379811  0.97940902  0.00586947  1
  H+  H155  1  0.48257075  0.87351340  0.83851080  1
  H+  H156  1  0.88817633  0.87042570  0.50585602  1
  H+  H157  1  0.38882580  0.79070972  0.83933870  1
  H+  H158  1  0.15079334  0.62416952  0.50657462  1
  H+  H159  1  0.13207113  0.27620486  0.50914239  1
  H+  H160  1  0.51345106  0.14333916  1.00314807  1
  H+  H161  1  0.87766261  0.73531113  0.49229442  1
  H+  H162  1  0.86651332  0.36111861  0.84209841  1
  H+  H163  1  0.26971339  0.89220250  0.34409481  1
  H+  H164  1  0.66359857  0.36160340  0.33178844  1
  H+  H165  1  0.63475700  0.27456383  0.98436824  1
  H+  H166  1  0.24827604  0.87775503  0.17578166  1
  H+  H167  1  1.11050446  0.13716755  0.82120778  1
  H+  H168  1  0.73587436  0.61558574  0.33242075  1
  H+  H169  1  0.08024700  0.42707106  0.10105576  1
  H+  H170  1  0.76260964  0.13943332  0.49557671  1
  H+  H171  1  0.14400942  0.61891522  0.83170649  1
  H+  H172  1  0.97592523  0.61731121  0.67514552  1
  H+  H173  1  0.87461898  0.61744162  1.00523185  1
  H+  H174  1  0.27803800  0.88999501  0.49445220  1
  H+  H175  1  0.22422679  0.36055928  0.50625385  1
  H+  H176  1  0.97016167  0.36526951  0.16887686  1
  H+  H177  1  0.33202529  0.35167796  0.34411370  1
  H+  H178  1  0.35695966  0.21146817  0.81444329  1
  H+  H179  1  0.56130719  0.84093930  0.80203943  1
  H+  H180  1  0.19033376  0.78176432  0.19382110  1
  H+  H181  1  0.11058158  0.34361981  0.31676250  1
  H+  H182  1  0.47811298  0.34915390  0.80597812  1
  H+  H183  1  0.52124384  0.89066456  0.34462505  1
  H+  H184  1  0.87392624  0.51149909  0.16326455  1
  H+  H185  1  0.47638117  0.10278433  0.50723656  1
  H+  H186  1  0.51919473  0.37026179  0.21004399  1
  H+  H187  1  0.71783415  0.11074963  0.66081227  1
  H+  H188  1  0.70661172  0.59288164  0.67468637  1
  H+  H189  1  0.51671028  0.60600665  0.82669051  1
  H+  H190  1  0.63778159  0.86398735  0.51183630  1
  H+  H191  1  0.38634652  0.85098536  0.50226572  1
  H+  H192  1  0.01002355  0.37081826  0.33702542  1
  H+  H193  1  0.14518369  0.89252768  0.51076575  1
  H+  H194  1  0.88301677  0.61461909  0.31672111  1
  H+  H195  1  0.39581641  0.26388727  0.49645564  1
  H+  H196  1  0.10722295  0.89196942  0.34364771  1
  H+  H197  1  0.10369115  0.14396452  0.49568512  1
  H+  H198  1  0.63068245  0.11325467  0.50997715  1
  H+  H199  1  0.09667100  0.72043325  0.00486923  1
  H+  H200  1  0.11113627  0.48139482  0.00968437  1
  H+  H201  1  -0.00319301  0.10685980  0.15253524  1
  H+  H202  1  0.38549675  0.09569500  0.50780775  1
  H+  H203  1  0.90540810  0.32728850  0.26186726  1
  H+  H204  1  0.87725336  -0.10728370  0.84725115  1
  H+  H205  1  0.38590985  0.87859532  0.32847153  1
  H+  H206  1  0.30011767  0.36714615  0.70382248  1
  H+  H207  1  0.38657705  0.51364140  0.49360932  1
  H+  H208  1  0.61128066  0.46490223  0.92163084  1
  H+  H209  1  0.08153424  0.71585053  0.15391920  1
  H+  H210  1  0.94701337  0.35067580  0.82638948  1
  H+  H211  1  0.46357383  0.35657968  0.33809991  1
  H+  H212  1  0.63318215  1.02210303  0.32796034  1
  H+  H213  1  0.39830018  0.50248023  0.65832753  1
  H+  H214  1  0.35496291  0.98730045  0.84292456  1
  H+  H215  1  0.13547912  0.36694766  0.83098677  1
  H+  H216  1  0.00036755  0.62131251  0.15749906  1
  H+  H217  1  0.37969742  0.26116437  0.33690563  1
  H+  H218  1  0.41508229  0.81792794  0.56159053  1
  H+  H219  1  0.84114635  0.91082054  0.78712090  1
  H+  H220  1  0.86141421  0.23053327  1.00564857  1
  H+  H221  1  0.14333604  1.02248353  0.17264262  1
  H+  H222  1  0.67606415  0.77198640  0.81202368  1
  H+  H223  1  -0.01467389  0.87437073  0.66849757  1
  H+  H224  1  0.23129401  0.61095556  0.50394987  1
  H+  H225  1  0.65188338  0.62246063  0.34035284  1
  H+  H226  1  0.52256471  0.89344514  0.00825535  1
  H+  H227  1  0.86825950  0.51438352  0.00002947  1
  H+  H228  1  0.34097807  0.65249636  0.33707095  1
  H+  H229  1  0.89859660  0.12890642  1.00735676  1
  H+  H230  1  0.39469129  0.02574320  0.67189626  1
  H+  H231  1  0.12242491  0.61275131  0.17459092  1
  H+  H232  1  0.57574732  0.17622533  1.06059556  1
  H+  H233  1  0.21911640  0.09385954  0.65602311  1
  H+  H234  1  0.39393571  0.54547673  0.98167804  1
  H+  H235  1  0.11327127  0.61129275  0.32454645  1
  H+  H236  1  0.62962455  0.86072334  0.33120707  1
  H+  H237  1  0.37902576  0.78779399  0.33023581  1
  H+  H238  1  0.32947289  0.68150713  0.06396086  1
  H+  H239  1  0.85682457  0.71538581  0.67824226  1
  H+  H240  1  0.54333478  0.63787022  0.35825292  1
  H+  H241  1  0.05240494  0.66751956  0.48026788  1
  H+  H242  1  0.21993436  0.18695230  0.53465613  1
  H+  H243  1  0.27643135  0.90805373  0.68673948  1
  H+  H244  1  0.59504795  0.22821952  0.48820941  1
  H+  H245  1  0.71468393  0.85543039  0.66974401  1
  H+  H246  1  0.13380275  0.51741176  0.65930477  1
  H+  H247  1  0.62505555  0.75331998  0.00284705  1
  H+  H248  1  0.37579398  0.36302684  0.18596719  1
  H+  H249  1  0.86986286  0.73237978  0.33451483  1
  H+  H250  1  0.38662876  0.55162970  0.84839184  1
  H+  H251  1  0.41304656  0.57574352  0.31423484  1
  H+  H252  1  0.53354432  0.63336656  0.50151222  1
  H+  H253  1  0.87498140  0.99189391  0.01755893  1
  H+  H254  1  0.10528051  0.47159528  0.49186439  1
  H+  H255  1  0.38669852  1.02703782  0.32393271  1
  H+  H256  1  0.16223582  0.79108398  0.66105300  1
  H+  H257  1  0.09661076  0.21346776  0.33726828  1
  H+  H258  1  0.11193451  0.22685293  0.81785159  1
  H+  H259  1  0.36803480  0.72225163  0.48986848  1
  H+  H260  1  0.08184882  0.84486928  0.68433446  1
  H+  H261  1  0.27187926  0.13094716  0.33666926  1
  H+  H262  1  0.61203138  -0.02284361  0.49780568  1
  H+  H263  1  1.02782577  0.88537860  0.83930737  1
  H+  H264  1  0.89752291  0.78282695  0.17386303  1
  H+  H265  1  0.64308384  0.27123684  0.17909892  1
  H+  H266  1  0.65433009  0.60506625  0.50429677  1
  H+  H267  1  0.85452027  0.02182497  0.63041809  1
  H+  H268  1  0.88224354  0.02904061  0.49760914  1
  H+  H269  1  0.52591498  0.14482410  0.16112022  1
  H+  H270  1  0.37104237  0.97003071  0.49374954  1
  H+  H271  1  0.12882595  0.85342029  -0.00061625  1
  H+  H272  1  1.00943293  0.11648022  0.66673573  1
  H+  H273  1  0.26783351  0.40417293  0.83261126  1
  H+  H274  1  0.36523638  0.90064391  0.83849048  1
  H+  H275  1  0.72478966  0.86800889  0.17837567  1
  H+  H276  1  0.26489234  0.64615353  0.16094686  1
  H+  H277  1  0.38687946  0.87073772  -0.00722755  1
  H+  H278  1  0.48436010  0.35185666  0.49860306  1
  H+  H279  1  0.33506984  0.18588287  0.06328703  1
  H+  H280  1  -0.03827577  0.36359601  0.50658645  1
  H+  H281  1  0.63323192  0.48155427  0.73034455  1
  H+  H282  1  0.05681474  0.41062710  0.85880367  1
  H+  H283  1  0.76802418  0.38162936  0.15763996  1
  H+  H284  1  0.76459777  0.38924070  -0.00494093  1
  H+  H285  1  0.59862603  0.88808318  0.67563511  1
  H+  H286  1  0.87176276  0.26880137  0.32254275  1
  H+  H287  1  0.87313971  0.47603818  0.69392218  1
  H+  H288  1  0.22233222  0.73726194  0.71495401  1
  H+  H289  1  0.85737830  0.38354812  0.15094047  1
  H+  H290  1  0.91383920  0.33433617  0.60299686  1
  H+  H291  1  0.12813636  0.52603726  0.17565611  1
  H+  H292  1  0.33144338  0.93006854  0.74755115  1
  H+  H293  1  0.60901107  0.13043385  0.34125738  1
  H+  H294  1  0.53415500  0.66341034  0.00362734  1
  H+  H295  1  0.41982718  0.84408641  0.93304734  1
  H+  H296  1  0.57755480  0.34896427  0.09856729  1
  H+  H297  1  0.59938702  0.39384790  0.42543908  1
  H+  H298  1  0.84123628  0.67245426  0.07408528  1
  H+  H299  1  0.84421912  0.42701441  0.39063930  1
  H+  H300  1  0.16713231  0.83689849  0.27345492  1
  H+  H301  1  0.64832428  0.20632171  0.69149104  1
  H+  H302  1  0.68536384  0.32519563  0.24133174  1
  H+  H303  1  0.39507163  0.07777658  0.93115387  1
  H+  H304  1  0.31844536  0.66872908  0.40396009  1
  H+  H305  1  0.56907929  0.61945174  0.76673638  1
  H+  H306  1  0.86308037  0.63849335  0.16084262  1
  H+  H307  1  0.46031816  0.52549518  0.29774014  1
  H+  H308  1  0.90936625  0.09293612  0.58405137  1
  H+  H309  1  0.68153271  0.60632400  0.91176708  1
  H+  H310  1  0.82707819  0.41071940  0.77656520  1
  H+  H311  1  0.89786763  0.03602321  0.85687597  1
  H+  H312  1  0.12317620  0.97003924  0.00758660  1
  H+  H313  1  0.27271131  0.62139074  0.66870356  1
  H+  H314  1  0.65923807  0.91716909  0.85066706  1
  H+  H315  1  0.03098235  0.61119645  0.38899723  1
  H+  H316  1  0.83233313  0.16564902  0.73355344  1
  H+  H317  1  0.62757712  0.02263250  0.66127556  1
  H+  H318  1  0.82011421  0.17033933  0.39869448  1
  H+  H319  1  0.60046087  0.67352369  0.44779658  1
  H+  H320  1  0.85839941  0.14015379  0.67019940  1
  H+  H321  1  0.66031317  0.08283022  0.56935437  1
  H+  H322  1  0.17265287  0.85535345  0.60667941  1
  H+  H323  1  0.81116826  0.50690641  0.58650082  1
  H+  H324  1  0.43097634  0.61933567  0.90171999  1
  H+  H325  1  0.09267976  0.91521651  0.10465297  1
  H+  H326  1  0.27442674  0.40236400  -0.03158410  1
  H+  H327  1  0.67305698  0.07562558  0.92177183  1
  H+  H328  1  0.91720844  0.84008372  0.26735363  1
  H+  H329  1  0.82763457  0.91420275  0.43589840  1
  H+  H330  1  0.06945630  0.39631238  0.39574314  1
  H+  H331  1  0.57708455  0.16426531  0.43357833  1
  H+  H332  1  0.38873814  0.03652944  0.16941803  1
  H+  H333  1  0.59387677  0.68825531  0.09441520  1
  H+  H334  1  0.08027790  0.41440342  0.73332270  1
  H+  H335  1  0.91191891  0.33724192  0.93196105  1
  H+  H336  1  0.06755630  0.14651241  0.72656129  1
  H+  H337  1  0.08080623  0.17163038  0.43204519  1
  H+  H338  1  0.05201642  0.86901051  0.74565176  1
  H+  H339  1  0.85354837  0.54664107  0.59252278  1
  H+  H340  1  0.02489390  0.38234141  0.67263304  1
  H+  H341  1  0.41744966  0.08802613  0.26415923  1
  H+  H342  1  0.73942955  0.35778938  0.67545847  1
  H+  H343  1  0.53737122  0.11993709  0.74367550  1
  H+  H344  1  0.14075403  0.86398154  0.84808938  1
  H+  H345  1  0.84939464  0.67588959  0.39503925  1
  H+  H346  1  0.83221917  0.91891138  0.10553545  1
  H+  H347  1  0.68715773  0.87744579  0.94168484  1
  H+  H348  1  0.13080306  0.10280739  0.16573763  1
  H+  H349  1  0.58999913  0.37569043  0.07017429  1
  H+  H350  1  0.63400529  0.29115477  0.87582874  1
  H+  H351  1  0.06520720  0.65870434  0.06393125  1
  H+  H352  1  0.16639693  0.57677377  0.59848965  1
  H+  H353  1  0.19325407  0.36039251  0.60212628  1
  H+  H354  1  0.09964598  0.68063775  0.77375449  1
  H+  H355  1  0.41458456  0.31872439  0.59847644  1
  H+  H356  1  0.16129413  0.82636542  0.93906105  1
  H+  H357  1  0.99963038  0.95899175  0.63537043  1
  H+  H358  1  0.15641894  0.59024420  0.25998443  1
  H+  H359  1  0.41521387  0.84449941  0.23412926  1
  H+  H360  1  0.25636333  0.38357832  0.15956400  1
  H+  H361  1  0.42732581  0.07871942  0.61045625  1
  H+  H362  1  0.56589118  0.91384427  0.73479492  1
  H+  H363  1  0.58263647  0.91766424  0.40355618  1
  H+  H364  1  0.94318896  0.10555594  0.95509304  1
  H+  H365  1  0.13422000  0.71484748  0.43709339  1
  H+  H366  1  0.89486284  0.07913270  0.26885498  1
  H+  H367  1  0.58123731  0.92593180  0.06853176  1
  H+  H368  1  0.10814337  0.39552873  0.15981580  1
  H+  H369  1  0.81953211  0.41632707  0.05934113  1
  H+  H370  1  0.31648028  0.39143537  0.43290323  1
  H+  H371  1  0.69006643  0.62741672  0.24272683  1
  H+  H372  1  0.36464804  0.63009306  0.48420170  1
  H+  H373  1  0.65949378  0.83166498  0.27101086  1
  H+  H374  1  0.19605371  0.33788077  0.31514022  1
  H+  H375  1  0.41646824  0.59423524  0.21007561  1
  H+  H376  1  0.13010632  0.09590338  0.65754618  1
  H+  H377  1  0.16811972  0.08662721  0.26435949  1
  H+  H378  1  0.16803937  0.08066873  0.88729012  1
  H+  H379  1  0.90470717  0.57223923  0.22382003  1
  H+  H380  1  0.91941351  0.59126705  0.89782280  1
  H+  H381  1  0.12989804  0.60954540  -0.00339006  1
  H+  H382  1  0.33531397  0.92701162  0.09839340  1
  H+  H383  1  0.08160124  0.93034821  0.40029773  1
  O2-  O384  1  0.04875538  0.11312486  0.12866147  1
  O2-  O385  1  0.07465867  0.17357728  0.47852742  1
  O2-  O386  1  0.07741212  0.16511194  0.80681959  1
  O2-  O387  1  0.08052222  0.42931559  0.14683087  1
  O2-  O388  1  0.07215159  0.41029058  0.48029765  1
  O2-  O389  1  0.08700310  0.42564448  0.81995246  1
  O2-  O390  1  0.06379551  0.65641493  0.14366956  1
  O2-  O391  1  0.11703481  0.70148365  0.47958294  1
  O2-  O392  1  0.08621750  0.67319308  0.81766552  1
  O2-  O393  1  0.09301722  0.91594526  0.15047116  1
  O2-  O394  1  0.08661518  0.93987351  0.47932699  1
  O2-  O395  1  0.08477666  0.91020517  0.81859596  1
  O2-  O396  1  0.33299560  0.17478390  0.14217920  1
  O2-  O397  1  0.33952335  0.15494352  0.47664495  1
  O2-  O398  1  0.32058826  0.14922353  0.80585931  1
  O2-  O399  1  0.31973147  0.41631404  0.14816807  1
  O2-  O400  1  0.33035774  0.40429254  0.47699723  1
  O2-  O401  1  0.33155788  0.44429406  0.83340631  1
  O2-  O402  1  0.32455722  0.67952001  0.14541635  1
  O2-  O403  1  0.33422989  0.66178037  0.47209764  1
  O2-  O404  1  0.34053784  0.68349257  0.80514463  1
  O2-  O405  1  0.33822570  0.93055696  0.14452308  1
  O2-  O406  1  0.33567015  0.90983666  0.47639377  1
  O2-  O407  1  0.32728954  0.92403450  0.82677662  1
  O2-  O408  1  0.58578554  0.17406389  0.14527039  1
  O2-  O409  1  0.57581292  0.16751303  0.47916021  1
  O2-  O410  1  0.59537497  0.15585414  0.75953938  1
  O2-  O411  1  0.57692379  0.39703900  0.22805022  1
  O2-  O412  1  0.60259680  0.40112091  0.47052711  1
  O2-  O413  1  0.56831929  0.36890539  0.76895805  1
  O2-  O414  1  0.58829164  0.68204189  0.14003244  1
  O2-  O415  1  0.59602881  0.66773346  0.49299313  1
  O2-  O416  1  0.55651572  0.59081434  0.80661747  1
  O2-  O417  1  0.58488903  0.92527726  0.14822648  1
  O2-  O418  1  0.58660995  0.91700109  0.48164984  1
  O2-  O419  1  0.56906511  0.89815113  0.80701521  1
  O2-  O420  1  0.83221396  0.16858044  0.14407760  1
  O2-  O421  1  0.82222687  0.17336966  0.47827711  1
  O2-  O422  1  0.82757506  0.15912290  0.81232573  1
  O2-  O423  1  0.82569553  0.41300504  0.13625898  1
  O2-  O424  1  0.81076931  0.41276567  0.47588358  1
  O2-  O425  1  0.82721211  0.41324416  0.82197383  1
  O2-  O426  1  0.84396513  0.67872472  0.14622770  1
  O2-  O427  1  0.85445284  0.67746633  0.47368007  1
  O2-  O428  1  0.83386778  0.67535873  0.81818883  1
  O2-  O429  1  0.82846274  0.91585242  0.15115195  1
  O2-  O430  1  0.83289563  0.91878852  0.48153128  1
  O2-  O431  1  0.85091442  0.92618839  0.83046884  1
  O2-  O432  1  0.16895753  0.08405842  0.18474094  1
  O2-  O433  1  0.18737185  0.12476203  0.52927127  1
  O2-  O434  1  0.16218909  0.08308840  0.84277858  1
  O2-  O435  1  0.15380795  0.33248306  0.17653677  1
  O2-  O436  1  0.16601476  0.33653647  0.52458459  1
  O2-  O437  1  0.16390051  0.33441447  0.84564304  1
  O2-  O438  1  0.15583855  0.58712520  0.19235524  1
  O2-  O439  1  0.17103739  0.58455253  0.51924400  1
  O2-  O440  1  0.17370208  0.58508125  0.83457842  1
  O2-  O441  1  0.18996626  0.83579959  0.19543546  1
  O2-  O442  1  0.17619347  0.86398658  0.52729899  1
  O2-  O443  1  0.16966883  0.83318496  0.86502730  1
  O2-  O444  1  0.41842682  0.09556605  0.18696073  1
  O2-  O445  1  0.41625847  0.06611065  0.52259983  1
  O2-  O446  1  0.38852766  0.07678559  0.86497511  1
  O2-  O447  1  0.40052329  0.32831394  0.20096708  1
  O2-  O448  1  0.42302753  0.32522195  0.50961385  1
  O2-  O449  1  0.41885750  0.32624187  0.82321846  1
  O2-  O450  1  0.40707976  0.58776071  0.16639681  1
  O2-  O451  1  0.41408807  0.57307019  0.51094818  1
  O2-  O452  1  0.42687503  0.61377840  0.85652005  1
  O2-  O453  1  0.41673221  0.84552584  0.18869097  1
  O2-  O454  1  0.41693059  0.82005395  0.51471436  1
  O2-  O455  1  0.42167342  0.84872518  0.85764148  1
  O2-  O456  1  0.66818889  0.09102821  0.18778594  1
  O2-  O457  1  0.66055590  0.08211338  0.52301448  1
  O2-  O458  1  0.65081052  0.07149583  0.83192925  1
  O2-  O459  1  0.67783842  0.33065880  0.19635203  1
  O2-  O460  1  0.63688408  0.34711006  0.49335152  1
  O2-  O461  1  0.59256967  0.26974401  0.84216115  1
  O2-  O462  1  0.71105064  0.66102292  0.20462431  1
  O2-  O463  1  0.69284584  0.58076524  0.50667373  1
  O2-  O464  1  0.67840040  0.58191650  0.87099806  1
  O2-  O465  1  0.66389620  0.84018976  0.19294643  1
  O2-  O466  1  0.66979808  0.83661453  0.52928614  1
  O2-  O467  1  0.70676838  0.92571730  0.87860943  1
  O2-  O468  1  0.90901967  0.08136252  0.18614531  1
  O2-  O469  1  0.90947912  0.09033317  0.51087932  1
  O2-  O470  1  0.92560727  0.09753892  0.86858157  1
  O2-  O471  1  0.90880185  0.33413699  0.18140775  1
  O2-  O472  1  0.90213164  0.33664303  0.52291653  1
  O2-  O473  1  0.89754014  0.32686758  0.85360668  1
  O2-  O474  1  0.90611775  0.57314186  0.17807216  1
  O2-  O475  1  0.94551969  0.60169212  0.48587133  1
  O2-  O476  1  0.91805452  0.59007422  0.85328750  1
  O2-  O477  1  0.92453892  0.84293359  0.18966160  1
  O2-  O478  1  0.92393858  0.84513305  0.52045762  1
  O2-  O479  1  0.92484350  0.83584619  0.86780488  1
  O2-  O480  1  0.17138405  0.08749456  0.30969557  1
  O2-  O481  1  0.16055499  0.06908091  0.63687514  1
  O2-  O482  1  0.19834265  0.05375514  0.96283182  1
  O2-  O483  1  0.13866293  0.31320263  0.29594950  1
  O2-  O484  1  0.21476888  0.38571182  0.64314342  1
  O2-  O485  1  0.15953802  0.34408336  0.97147481  1
  O2-  O486  1  0.15500781  0.59236503  0.30772304  1
  O2-  O487  1  0.16885563  0.57773739  0.64385521  1
  O2-  O488  1  0.15994669  0.57754113  0.98838219  1
  O2-  O489  1  0.15930207  0.83465835  0.31843779  1
  O2-  O490  1  0.16861005  0.84792426  0.65162804  1
  O2-  O491  1  0.15747569  0.82117995  0.98507948  1
  O2-  O492  1  0.41827169  0.08780393  0.30979012  1
  O2-  O493  1  0.42615423  0.08587331  0.65479981  1
  O2-  O494  1  0.39935949  0.07660624  0.97932237  1
  O2-  O495  1  0.40288745  0.32313293  0.32431340  1
  O2-  O496  1  0.41238635  0.31365770  0.64303372  1
  O2-  O497  1  0.41527230  0.33478698  0.95284255  1
  O2-  O498  1  0.43879839  0.54421964  0.33176711  1
  O2-  O499  1  0.36860620  0.52616744  0.63469672  1
  O2-  O500  1  0.42754375  0.60915294  0.98089902  1
  O2-  O501  1  0.41457499  0.84607923  0.31350715  1
  O2-  O502  1  0.41022197  0.81274082  0.63197045  1
  O2-  O503  1  0.41714186  0.84010765  0.97901583  1
  O2-  O504  1  0.65929075  0.08167745  0.31171337  1
  O2-  O505  1  0.65982188  0.08090103  0.64279990  1
  O2-  O506  1  0.68709267  0.08064171  0.96530894  1
  O2-  O507  1  0.68785871  0.32671491  0.31734670  1
  O2-  O508  1  0.67806104  0.31866148  0.66218000  1
  O2-  O509  1  0.67263188  0.33192569  0.96361592  1
  O2-  O510  1  0.67399190  0.58756963  0.32054570  1
  O2-  O511  1  0.64463011  0.55062036  0.67346582  1
  O2-  O512  1  0.68023600  0.60986604  0.99451261  1
  O2-  O513  1  0.65895173  0.82910879  0.31658757  1
  O2-  O514  1  0.65606836  0.82824676  0.65274980  1
  O2-  O515  1  0.67957359  0.85695439  0.98576989  1
  O2-  O516  1  0.88530756  0.07885357  0.31308082  1
  O2-  O517  1  0.90043561  0.08155374  0.62964639  1
  O2-  O518  1  0.93765907  0.10462727  1.00005372  1
  O2-  O519  1  0.90709416  0.32907099  0.30706470  1
  O2-  O520  1  0.92207415  0.33509037  0.64802014  1
  O2-  O521  1  0.91599024  0.34117338  0.97732398  1
  O2-  O522  1  0.91222792  0.58456249  0.29839598  1
  O2-  O523  1  0.92524128  0.58404550  0.69983227  1
  O2-  O524  1  0.90344749  0.58185841  0.98801334  1
  O2-  O525  1  0.91278331  0.83623637  0.31283428  1
  O2-  O526  1  0.95448226  0.89955595  0.64209844  1
  O2-  O527  1  0.92164811  0.84296575  0.99128766  1
  O2-  O528  1  0.07225206  0.18688564  0.08840639  1
  O2-  O529  1  0.08486393  0.16311957  0.36250774  1
  O2-  O530  1  0.06725279  0.13479249  0.68237989  1
  O2-  O531  1  0.07992753  0.41871729  0.02375720  1
  O2-  O532  1  0.07058706  0.39510624  0.35081410  1
  O2-  O533  1  0.08530729  0.41573170  0.68878085  1
  O2-  O534  1  0.06125485  0.65827280  0.01873633  1
  O2-  O535  1  0.05647683  0.64417485  0.35175006  1
  O2-  O536  1  0.16307447  0.70573128  0.70060116  1
  O2-  O537  1  0.08655147  0.91414745  0.02876057  1
  O2-  O538  1  0.07836194  0.92467975  0.35505895  1
  O2-  O539  1  0.03020124  0.83932776  0.70584970  1
  O2-  O540  1  0.33215627  0.18029522  0.01806820  1
  O2-  O541  1  0.33143311  0.15988661  0.35443755  1
  O2-  O542  1  0.32245016  0.14547172  0.68069218  1
  O2-  O543  1  0.33702552  0.43302767  -0.04072650  1
  O2-  O544  1  0.29650067  0.37842461  0.35596490  1
  O2-  O545  1  0.35882787  0.38916754  0.71880135  1
  O2-  O546  1  0.33116645  0.67678852  0.01911573  1
  O2-  O547  1  0.30898632  0.67524273  0.35807453  1
  O2-  O548  1  0.33372260  0.64861347  0.68273227  1
  O2-  O549  1  0.32886470  0.91944267  0.02399210  1
  O2-  O550  1  0.33118000  0.92383480  0.35571056  1
  O2-  O551  1  0.33520005  0.93039565  0.70236282  1
  O2-  O552  1  0.57370996  0.18130777  0.01601356  1
  O2-  O553  1  0.58178361  0.16350576  0.35749651  1
  O2-  O554  1  0.67693796  0.23863015  0.65336646  1
  O2-  O555  1  0.59341286  0.43700490  -0.03830413  1
  O2-  O556  1  0.58318870  0.41527632  0.34526703  1
  O2-  O557  1  0.64359507  0.45378950  0.76706617  1
  O2-  O558  1  0.59439893  0.69255265  0.01911074  1
  O2-  O559  1  0.60327151  0.67728728  0.36977530  1
  O2-  O560  1  0.56782539  0.66125776  0.68910387  1
  O2-  O561  1  0.58298497  0.92366486  0.02337717  1
  O2-  O562  1  0.58205031  0.91684893  0.35785910  1
  O2-  O563  1  0.56687264  0.91723166  0.68810885  1
  O2-  O564  1  0.83491238  0.17072564  0.02085889  1
  O2-  O565  1  0.81789994  0.16857146  0.35331188  1
  O2-  O566  1  0.83116877  0.17104997  0.68834793  1
  O2-  O567  1  0.82481229  0.42531593  0.01395493  1
  O2-  O568  1  0.88583580  0.45203178  0.35720689  1
  O2-  O569  1  0.83989490  0.41238144  0.69960350  1
  O2-  O570  1  0.84097697  0.66983923  0.02765706  1
  O2-  O571  1  0.84398689  0.67170717  0.34977999  1
  O2-  O572  1  0.82496046  0.65878339  0.69673210  1
  O2-  O573  1  0.84195154  0.92970777  0.02865847  1
  O2-  O574  1  0.82460187  0.91217690  0.35931811  1
  O2-  O575  1  0.82687128  0.90621793  0.70176374  1
