# generated using pymatgen
data_H2O
_symmetry_space_group_name_H-M   'P 1'
_cell_length_a   17.96563276
_cell_length_b   17.95181867
_cell_length_c   21.95375187
_cell_angle_alpha   89.98913833
_cell_angle_beta   89.99368515
_cell_angle_gamma   120.03195365
_symmetry_Int_Tables_number   1
_chemical_formula_structural   H2O
_chemical_formula_sum   'H384 O192'
_cell_volume   6129.85790068
_cell_formula_units_Z   192
loop_
 _symmetry_equiv_pos_site_id
 _symmetry_equiv_pos_as_xyz
  1  'x, y, z'
loop_
 _atom_type_symbol
 _atom_type_oxidation_number
  H+  1.0
  O2-  -2.0
loop_
 _atom_site_type_symbol
 _atom_site_label
 _atom_site_symmetry_multiplicity
 _atom_site_fract_x
 _atom_site_fract_y
 _atom_site_fract_z
 _atom_site_occupancy
  H+  H0  1  0.64027520  0.52751989  0.84423708  1
  H+  H1  1  0.60888897  0.21145742  0.15734581  1
  H+  H2  1  0.88134931  0.02230704  0.64989704  1
  H+  H3  1  0.89200052  0.53201178  0.82316585  1
  H+  H4  1  0.40261093  0.53151304  0.64504645  1
  H+  H5  1  0.61509184  0.48266662  0.33859123  1
  H+  H6  1  0.87556953  0.65738899  0.15594745  1
  H+  H7  1  0.78176107  0.90844048  0.32976636  1
  H+  H8  1  0.73697021  0.61697259  0.16603405  1
  H+  H9  1  0.83751835  0.62811631  0.99472102  1
  H+  H10  1  0.11847580  0.63957853  0.83094468  1
  H+  H11  1  0.34144238  0.35210917  0.34428392  1
  H+  H12  1  0.33919793  0.48075817  0.32102733  1
  H+  H13  1  0.39341742  0.26219259  0.65330476  1
  H+  H14  1  0.23541538  0.62034117  0.83808420  1
  H+  H15  1  0.84780108  0.97163246  0.48523499  1
  H+  H16  1  0.75775201  0.12986664  0.95365398  1
  H+  H17  1  0.59663468  0.22783417  0.34339100  1
  H+  H18  1  0.11194126  0.46979103  0.00249671  1
  H+  H19  1  0.27476932  0.87970615  0.82465771  1
  H+  H20  1  0.13078420  0.26580236  0.83609308  1
  H+  H21  1  0.61267447  0.21946886  0.99271370  1
  H+  H22  1  0.43265967  0.37238286  0.93539451  1
  H+  H23  1  0.42029205  0.08109429  0.92292944  1
  H+  H24  1  0.37505821  0.64441321  0.66877433  1
  H+  H25  1  0.78946760  0.14730868  1.02310434  1
  H+  H26  1  0.61570080  0.87758765  0.15384150  1
  H+  H27  1  0.86033786  0.13731829  0.66954253  1
  H+  H28  1  0.72622290  0.85994558  0.49997033  1
  H+  H29  1  0.64006940  0.76548616  0.17673388  1
  H+  H30  1  0.23877189  0.11796394  -0.01771567  1
  H+  H31  1  0.70526138  0.96034061  0.26742473  1
  H+  H32  1  0.12897689  0.13966229  0.51655170  1
  H+  H33  1  0.65535889  0.99738290  0.18762726  1
  H+  H34  1  0.27981822  0.88784045  0.66964119  1
  H+  H35  1  0.65087099  0.52594307  0.51623999  1
  H+  H36  1  0.37286751  0.73412687  0.82625030  1
  H+  H37  1  0.86231632  0.97655201  0.00254206  1
  H+  H38  1  0.74699225  0.15623957  0.84050234  1
  H+  H39  1  0.23110302  0.35049617  0.18281740  1
  H+  H40  1  0.23330306  0.87547974  0.16980742  1
  H+  H41  1  0.68643777  0.34595531  0.74589471  1
  H+  H42  1  0.77420149  0.40746938  0.34331049  1
  H+  H43  1  0.59815834  0.70763966  0.29076513  1
  H+  H44  1  0.13647928  0.66210965  0.17206477  1
  H+  H45  1  0.88253278  0.65804685  0.67738346  1
  H+  H46  1  0.88081384  0.24173076  0.82077320  1
  H+  H47  1  0.50468707  0.14078405  0.34040207  1
  H+  H48  1  0.78603401  0.63994251  0.49738712  1
  H+  H49  1  0.59275278  0.98750075  0.49395482  1
  H+  H50  1  0.53087946  0.64006256  0.49325029  1
  H+  H51  1  0.12761247  0.26014837  0.65681436  1
  H+  H52  1  0.39133140  0.25249667  0.48608249  1
  H+  H53  1  0.61768968  0.11682837  0.33024992  1
  H+  H54  1  0.85387457  0.72586856  -0.00215806  1
  H+  H55  1  0.78579324  0.38859835  0.80586857  1
  H+  H56  1  0.36068537  0.46928810  0.01657851  1
  H+  H57  1  0.65300291  0.35376769  0.17579485  1
  H+  H58  1  0.12768839  0.00226243  0.34585806  1
  H+  H59  1  0.47983891  0.86568848  0.65331541  1
  H+  H60  1  0.84492083  0.23281895  0.34576892  1
  H+  H61  1  0.36578854  0.12757092  0.67787551  1
  H+  H62  1  0.84718803  0.22264020  0.49215447  1
  H+  H63  1  0.86994411  0.86624003  0.65702089  1
  H+  H64  1  0.51028144  0.32816620  0.84486881  1
  H+  H65  1  0.61596572  0.13472758  -0.02483440  1
  H+  H66  1  0.14888327  0.03144794  0.98113906  1
  H+  H67  1  0.63868397  0.26882825  0.79099408  1
  H+  H68  1  0.12528008  0.46076155  0.16316834  1
  H+  H69  1  0.98540883  0.61888331  0.66789576  1
  H+  H70  1  0.61335310  0.14046317  0.80375555  1
  H+  H71  1  0.12274829  0.98417449  0.15819455  1
  H+  H72  1  0.52875388  0.64505715  0.81281346  1
  H+  H73  1  0.40747325  0.40064339  0.84245020  1
  H+  H74  1  0.63905025  0.77076585  0.99639370  1
  H+  H75  1  0.35659175  0.62290206  0.15812561  1
  H+  H76  1  0.47542249  0.11118845  0.17250748  1
  H+  H77  1  0.73602310  0.36125618  0.98770033  1
  H+  H78  1  0.17766765  0.58319988  0.93411560  1
  H+  H79  1  1.04611269  0.14935091  0.52524999  1
  H+  H80  1  0.63699181  0.27925191  0.50630085  1
  H+  H81  1  0.62897512  0.36352504  0.32717724  1
  H+  H82  1  0.86973289  0.89385223  0.16016267  1
  H+  H83  1  0.14353420  0.11250330  0.16658599  1
  H+  H84  1  0.88075108  0.10928886  0.97944151  1
  H+  H85  1  0.63873366  0.77715387  0.65430611  1
  H+  H86  1  0.02031911  0.38309989  0.00205196  1
  H+  H87  1  0.60922789  0.88192260  1.00835498  1
  H+  H88  1  0.72903887  0.36605912  0.50581033  1
  H+  H89  1  0.63122442  0.39269919  0.81673160  1
  H+  H90  1  0.58409053  0.73365326  0.30928753  1
  H+  H91  1  0.14276298  0.35112876  0.17653174  1
  H+  H92  1  0.99563584  0.63686093  0.31713968  1
  H+  H93  1  0.35583769  0.73190459  0.48624962  1
  H+  H94  1  0.38553594  0.86247693  0.99565549  1
  H+  H95  1  0.49343895  0.36935628  0.98978874  1
  H+  H96  1  0.96648695  0.85532828  0.99268282  1
  H+  H97  1  0.59731797  0.13448258  0.49615881  1
  H+  H98  1  0.39361109  0.75897129  0.17610992  1
  H+  H99  1  0.52577275  0.62807526  0.16843662  1
  H+  H100  1  0.36376903  0.19546236  0.41951625  1
  H+  H101  1  0.62560136  0.46988052  0.15426343  1
  H+  H102  1  0.39248218  0.77630343  0.65250897  1
  H+  H103  1  0.33719275  0.61753732  0.33496683  1
  H+  H104  1  0.03021884  0.89652092  0.16453351  1
  H+  H105  1  0.02032073  0.79870624  0.04918153  1
  H+  H106  1  0.01669838  0.13140079  0.66039926  1
  H+  H107  1  0.58432930  0.91476345  0.09953160  1
  H+  H108  1  0.27544225  0.16179857  0.81828355  1
  H+  H109  1  -0.01425335  0.61967063  0.50960492  1
  H+  H110  1  0.22793265  0.61308737  0.50735669  1
  H+  H111  1  0.11126462  0.72809122  0.50232456  1
  H+  H112  1  0.11127862  0.13674760  0.99884295  1
  H+  H113  1  0.89458076  0.78597931  0.17255053  1
  H+  H114  1  0.03598255  0.39457465  0.82601163  1
  H+  H115  1  0.75107807  0.60020578  0.31603170  1
  H+  H116  1  0.86267156  0.73399378  0.82715142  1
  H+  H117  1  0.38293223  0.77115451  0.99860170  1
  H+  H118  1  0.12782206  0.88850009  0.67341420  1
  H+  H119  1  0.37595363  0.16705392  0.32443503  1
  H+  H120  1  0.15072851  0.78079257  0.66156921  1
  H+  H121  1  0.36118140  0.87139832  0.50373305  1
  H+  H122  1  0.14888716  0.52871808  0.83981242  1
  H+  H123  1  0.46328610  0.11168378  0.50500080  1
  H+  H124  1  0.46821477  0.10342826  0.82578865  1
  H+  H125  1  0.38859799  1.01860108  0.66424840  1
  H+  H126  1  0.15493114  0.77724629  0.99368919  1
  H+  H127  1  0.86888300  0.99026599  0.33978756  1
  H+  H128  1  0.35951699  0.71658491  0.33359052  1
  H+  H129  1  0.11368921  0.64010923  0.50216071  1
  H+  H130  1  0.37253229  0.98331560  0.00036683  1
  H+  H131  1  0.64959220  0.61423996  0.51813103  1
  H+  H132  1  0.40223502  0.84355450  0.55924301  1
  H+  H133  1  0.23282281  0.11149870  0.16590737  1
  H+  H134  1  0.72787699  0.33046435  0.19492950  1
  H+  H135  1  0.13475735  0.66071043  0.31041768  1
  H+  H136  1  0.58452979  0.42901371  0.77814357  1
  H+  H137  1  0.87621051  0.27124828  0.97400765  1
  H+  H138  1  0.99045668  0.63935393  0.17103788  1
  H+  H139  1  0.24116326  0.37182295  0.51606379  1
  H+  H140  1  0.40082106  0.37039995  0.50378990  1
  H+  H141  1  0.84603296  0.25509809  0.65338348  1
  H+  H142  1  0.11291771  0.38836049  0.49526936  1
  H+  H143  1  0.11543979  -0.02518565  0.82445404  1
  H+  H144  1  0.88286969  0.77652036  0.66042897  1
  H+  H145  1  0.52555881  0.63757954  0.02127839  1
  H+  H146  1  0.70797459  0.11835912  0.33613133  1
  H+  H147  1  0.38779985  0.62005619  0.81812307  1
  H+  H148  1  0.36979502  0.88811611  0.66895436  1
  H+  H149  1  0.88293689  0.02506573  0.83237236  1
  H+  H150  1  0.72676752  0.86082871  0.99341544  1
  H+  H151  1  0.87187361  0.35758013  -0.02118028  1
  H+  H152  1  0.97735127  0.32333803  0.15038134  1
  H+  H153  1  0.61564093  0.97601124  0.67567570  1
  H+  H154  1  0.86719875  0.49492744  0.34097322  1
  H+  H155  1  0.83491283  0.16845482  0.73174927  1
  H+  H156  1  0.59538903  0.98786614  0.34599545  1
  H+  H157  1  0.82614385  0.49733973  0.97005220  1
  H+  H158  1  0.64239379  0.87169274  0.84428653  1
  H+  H159  1  0.13083876  0.56560905  0.15400695  1
  H+  H160  1  0.24250592  0.88986671  0.50327024  1
  H+  H161  1  0.88594532  0.77442504  0.50672941  1
  H+  H162  1  0.90497390  0.87935316  0.32795569  1
  H+  H163  1  0.49167096  0.57623442  0.36510062  1
  H+  H164  1  0.23365212  0.13938318  0.32004812  1
  H+  H165  1  0.90804264  0.35532470  0.65575074  1
  H+  H166  1  0.87749209  0.86028182  0.50261602  1
  H+  H167  1  0.37106077  0.37627348  0.16334637  1
  H+  H168  1  0.21647581  0.61158011  0.31472565  1
  H+  H169  1  0.63394664  0.10394549  0.67174064  1
  H+  H170  1  0.96004783  0.36576340  0.32955541  1
  H+  H171  1  0.38560738  0.01211938  0.83360819  1
  H+  H172  1  0.35903785  -0.01849367  0.16016582  1
  H+  H173  1  0.07124851  0.89055610  0.07830294  1
  H+  H174  1  0.51123276  0.88940355  0.34164032  1
  H+  H175  1  0.32725715  0.48284843  0.77924087  1
  H+  H176  1  0.81034197  0.16334332  0.43300031  1
  H+  H177  1  0.24036634  0.88527509  0.34206625  1
  H+  H178  1  0.11014824  0.22426707  1.00152760  1
  H+  H179  1  0.63723254  0.61550778  0.83711588  1
  H+  H180  1  0.05397440  0.64229097  0.01841191  1
  H+  H181  1  0.10725840  0.42202823  0.74213783  1
  H+  H182  1  0.36353970  0.38118088  0.85672390  1
  H+  H183  1  0.74616784  0.63218270  0.66638071  1
  H+  H184  1  0.14396502  0.36204190  0.66614250  1
  H+  H185  1  0.66146935  0.58527396  0.93603760  1
  H+  H186  1  -0.00395116  0.88291803  0.33099310  1
  H+  H187  1  0.52042205  0.12508758  0.70199714  1
  H+  H188  1  0.85330379  0.31939526  0.17719359  1
  H+  H189  1  0.66564871  0.63006088  0.35493809  1
  H+  H190  1  0.25616767  0.35992488  0.34837939  1
  H+  H191  1  0.49303306  0.55422687  0.33629720  1
  H+  H192  1  0.61187780  0.63348324  0.01282118  1
  H+  H193  1  0.48796969  0.62440948  0.65176878  1
  H+  H194  1  0.13646961  0.85406842  0.99673000  1
  H+  H195  1  0.07342346  0.16256752  0.76125380  1
  H+  H196  1  0.04876657  0.39413091  0.68309176  1
  H+  H197  1  0.63621359  0.86619689  0.65547773  1
  H+  H198  1  0.37878993  0.84389393  0.31476833  1
  H+  H199  1  0.61569930  0.46659971  0.00216419  1
  H+  H200  1  0.63498452  0.75928332  0.50598186  1
  H+  H201  1  0.49106619  0.35675364  0.17254159  1
  H+  H202  1  0.11981167  0.21806290  0.16173050  1
  H+  H203  1  0.22322392  0.35806428  0.99352094  1
  H+  H204  1  0.15335730  0.61315642  0.99632903  1
  H+  H205  1  0.67383272  0.84439103  0.22560302  1
  H+  H206  1  0.36340832  0.38194516  0.01005385  1
  H+  H207  1  0.12185731  0.38698243  0.82985505  1
  H+  H208  1  0.38885610  0.23175158  0.82699902  1
  H+  H209  1  0.14075259  0.02679719  0.52148150  1
  H+  H210  1  0.37315670  0.13669881  -0.00730969  1
  H+  H211  1  0.38882990  0.51085538  0.16947847  1
  H+  H212  1  0.36528968  1.02908582  0.50592724  1
  H+  H213  1  0.52098022  0.88181587  1.00999773  1
  H+  H214  1  0.97595959  0.86737983  0.83620684  1
  H+  H215  1  0.27423093  0.12669601  0.67972709  1
  H+  H216  1  0.38336393  0.61262759  1.01370018  1
  H+  H217  1  0.95894393  0.13008456  0.33601548  1
  H+  H218  1  0.90408729  0.10363854  0.27259342  1
  H+  H219  1  0.08574116  0.23950118  0.36135051  1
  H+  H220  1  0.53523627  0.35434592  0.65539124  1
  H+  H221  1  0.17243491  0.33444384  0.59724741  1
  H+  H222  1  0.86139855  0.89076248  0.81969509  1
  H+  H223  1  0.15458063  0.53155956  0.66449692  1
  H+  H224  1  0.90292793  0.37554269  0.82750210  1
  H+  H225  1  0.62965881  0.50744027  0.68450689  1
  H+  H226  1  0.45627024  0.32148478  0.33661931  1
  H+  H227  1  0.37121385  0.22518654  0.14959428  1
  H+  H228  1  0.81032445  0.40402434  0.04155756  1
  H+  H229  1  0.10501086  0.12869446  0.67283016  1
  H+  H230  1  0.37123244  0.22565007  0.99457114  1
  H+  H231  1  0.27784625  0.63045967  0.01070085  1
  H+  H232  1  0.39163474  0.86099917  0.84149973  1
  H+  H233  1  0.11364567  0.89427953  0.50431617  1
  H+  H234  1  0.88269844  0.74405938  0.34370249  1
  H+  H235  1  0.38803996  0.11477398  0.16856829  1
  H+  H236  1  0.62495234  0.39108131  0.49891021  1
  H+  H237  1  0.92806011  0.60760266  0.22782437  1
  H+  H238  1  0.16447800  0.08465922  0.73114260  1
  H+  H239  1  0.86385148  0.11111996  0.49528058  1
  H+  H240  1  0.66091783  0.32827633  0.27201349  1
  H+  H241  1  0.35195543  1.04004594  0.32421991  1
  H+  H242  1  0.88553737  0.36477317  0.49869511  1
  H+  H243  1  0.73027330  0.40332009  0.65386584  1
  H+  H244  1  0.83565535  0.91773976  0.06308699  1
  H+  H245  1  0.87646510  0.37348506  0.34035150  1
  H+  H246  1  0.71860132  0.61264350  -0.00404945  1
  H+  H247  1  0.88301693  0.86628596  0.98992376  1
  H+  H248  1  0.64697395  0.90008031  0.31936390  1
  H+  H249  1  0.72349045  0.10799725  0.66241027  1
  H+  H250  1  0.62076394  0.98643517  0.85172356  1
  H+  H251  1  0.37767129  0.14750948  0.48523928  1
  H+  H252  1  0.28200397  0.89617368  0.00258042  1
  H+  H253  1  0.87017533  0.02353905  0.15141843  1
  H+  H254  1  0.89001917  0.62062133  0.82757481  1
  H+  H255  1  0.13693475  0.11822064  0.83050052  1
  H+  H256  1  0.96551732  0.53373618  0.99535896  1
  H+  H257  1  0.61773736  0.73415848  0.82377206  1
  H+  H258  1  0.49260272  0.89912764  0.48967053  1
  H+  H259  1  0.13939249  0.86898790  0.17649204  1
  H+  H260  1  0.77445472  0.88146031  0.15652721  1
  H+  H261  1  0.49368127  0.37306479  0.50448961  1
  H+  H262  1  0.84524953  0.33929193  0.24476104  1
  H+  H263  1  0.13001542  0.36740616  0.32863247  1
  H+  H264  1  0.08011566  0.42597304  0.39516329  1
  H+  H265  1  0.39529852  0.62246586  0.49840510  1
  H+  H266  1  0.92758938  0.84446727  0.23347961  1
  H+  H267  1  0.71068642  0.11020391  0.50753290  1
  H+  H268  1  0.62878653  0.65260493  0.66980003  1
  H+  H269  1  0.61254407  0.37102001  0.99743484  1
  H+  H270  1  0.38804770  0.39769052  0.65564896  1
  H+  H271  1  -0.01467174  0.53527869  -0.03520774  1
  H+  H272  1  0.88903820  0.53596879  0.66480542  1
  H+  H273  1  0.76787130  0.88893686  0.66682765  1
  H+  H274  1  0.13792757  0.52452063  0.50963676  1
  H+  H275  1  0.90515449  0.22841838  0.16438002  1
  H+  H276  1  0.11423340  0.88514022  0.82953879  1
  H+  H277  1  0.86961267  0.48376559  0.49973893  1
  H+  H278  1  0.84446280  0.14261829  0.34264789  1
  H+  H279  1  0.12070209  0.63966824  0.67535145  1
  H+  H280  1  0.86878444  0.14620784  0.82503773  1
  H+  H281  1  0.48396878  0.11223080  0.98116606  1
  H+  H282  1  0.94472413  0.10875170  0.47178360  1
  H+  H283  1  0.90734377  0.63492884  0.32755413  1
  H+  H284  1  0.02841736  -0.09883549  0.49879368  1
  H+  H285  1  0.02162911  0.38364408  0.49486146  1
  H+  H286  1  0.10415454  0.48116453  0.33322584  1
  H+  H287  1  0.15332333  0.27949347  0.51665590  1
  H+  H288  1  0.33113589  0.92519057  0.09913816  1
  H+  H289  1  0.67075311  0.83352399  0.89954937  1
  H+  H290  1  0.61375017  0.66650897  0.44637220  1
  H+  H291  1  0.16126629  0.57602088  0.25177499  1
  H+  H292  1  0.28596133  0.92551410  0.43945262  1
  H+  H293  1  0.91535879  0.08241339  0.89319349  1
  H+  H294  1  0.09276628  0.67068204  0.73531078  1
  H+  H295  1  0.68572039  0.59388049  0.60706811  1
  H+  H296  1  0.79111746  0.36225790  0.65225659  1
  H+  H297  1  0.27514443  0.49400799  0.28128815  1
  H+  H298  1  0.92496768  0.59254837  0.56926133  1
  H+  H299  1  0.56675501  0.16434820  0.43666670  1
  H+  H300  1  0.16849777  0.83840048  0.59967368  1
  H+  H301  1  0.59552063  0.68190692  0.72738638  1
  H+  H302  1  1.02878931  0.64062217  0.82681122  1
  H+  H303  1  0.26349696  0.61869360  0.16096156  1
  H+  H304  1  0.68751783  0.57212181  0.25721843  1
  H+  H305  1  0.39862282  0.56392216  0.22831486  1
  H+  H306  1  0.65344359  0.07973937  0.56883549  1
  H+  H307  1  0.97244906  0.11318324  0.98758923  1
  H+  H308  1  0.94164994  0.46613905  0.09982295  1
  H+  H309  1  0.34152336  0.67971845  0.76304314  1
  H+  H310  1  0.82842820  0.91824954  0.72734060  1
  H+  H311  1  0.90165508  0.83340892  0.59215744  1
  H+  H312  1  0.28546347  0.64413550  0.66995398  1
  H+  H313  1  0.41816781  0.83033881  0.90271213  1
  H+  H314  1  0.87730284  0.64433332  0.49756501  1
  H+  H315  1  0.13421140  0.35879061  0.98985115  1
  H+  H316  1  0.33474002  0.41203754  0.43912352  1
  H+  H317  1  0.17234011  0.79987142  0.25849808  1
  H+  H318  1  0.33252611  0.40069853  0.10579105  1
  H+  H319  1  0.08553594  0.90486589  0.73275253  1
  H+  H320  1  0.59504285  0.42924947  0.44195159  1
  H+  H321  1  0.09754701  0.94296442  0.40700921  1
  H+  H322  1  0.16747275  0.32628803  0.89567630  1
  H+  H323  1  0.83771224  0.43082097  0.43777077  1
  H+  H324  1  0.64319288  0.60637992  0.17323606  1
  H+  H325  1  0.57973005  0.15600496  0.09652125  1
  H+  H326  1  0.42568990  0.31520526  0.22984044  1
  H+  H327  1  0.84474192  0.42650262  0.75092808  1
  H+  H328  1  0.17497131  0.58660925  0.60298584  1
  H+  H329  1  0.42643080  0.59597620  0.55900754  1
  H+  H330  1  0.59152212  0.40690078  0.09680213  1
  H+  H331  1  0.40181887  0.55316103  0.85772003  1
  H+  H332  1  0.93589753  0.49851216  0.11785606  1
  H+  H333  1  0.48545938  0.84899166  0.17495452  1
  H+  H334  1  0.83828216  0.68068310  0.09637013  1
  H+  H335  1  0.82281501  0.91312363  0.42571708  1
  H+  H336  1  0.91435944  0.84011747  0.89456813  1
  H+  H337  1  0.42496837  0.81996124  0.26091083  1
  H+  H338  1  0.73727701  0.70294089  0.39276744  1
  H+  H339  1  0.87093827  0.56630194  0.91655252  1
  H+  H340  1  0.17399403  0.09196682  0.26384522  1
  H+  H341  1  0.33992839  0.16561656  0.08963058  1
  H+  H342  1  0.40398895  0.09036756  0.26268349  1
  H+  H343  1  0.42668177  0.32060100  0.59294642  1
  H+  H344  1  0.32588142  0.41806198  0.69544114  1
  H+  H345  1  0.85313707  0.68010535  0.40225724  1
  H+  H346  1  0.15877392  0.32532123  0.27457555  1
  H+  H347  1  0.45434372  0.27745653  0.90352188  1
  H+  H348  1  0.08977559  0.16401659  0.09981181  1
  H+  H349  1  0.66654919  0.83266822  0.56559804  1
  H+  H350  1  0.80420595  0.08873760  0.19776490  1
  H+  H351  1  0.92347317  0.34402064  0.89099824  1
  H+  H352  1  0.77410894  0.64267146  0.82558276  1
  H+  H353  1  0.58724131  0.66243280  0.11001115  1
  H+  H354  1  0.20484103  0.94424965  0.36292112  1
  H+  H355  1  0.67551739  0.06154202  0.24548366  1
  H+  H356  1  0.58778346  0.91879486  0.73544727  1
  H+  H357  1  0.13938027  0.77495195  0.83971953  1
  H+  H358  1  0.13360822  0.74918600  0.16209818  1
  H+  H359  1  0.07532066  0.79385487  0.54922615  1
  H+  H360  1  0.09541980  0.40580560  0.10112494  1
  H+  H361  1  0.56001745  0.92832828  0.42478060  1
  H+  H362  1  0.17677785  0.09278389  0.88671156  1
  H+  H363  1  0.24672304  0.39213057  0.79418659  1
  H+  H364  1  0.53348060  0.89951560  0.83902526  1
  H+  H365  1  0.77165784  0.88984983  0.82230448  1
  H+  H366  1  0.42034956  0.08614914  0.60891739  1
  H+  H367  1  0.42060318  0.58679110  0.95743203  1
  H+  H368  1  0.89655067  0.32236142  0.55784895  1
  H+  H369  1  0.33533948  0.90732099  0.76509198  1
  H+  H370  1  0.64417188  0.31901299  0.93063314  1
  H+  H371  1  0.01597750  0.13053134  0.82200151  1
  H+  H372  1  0.06896879  0.17550901  0.41605991  1
  H+  H373  1  0.84686994  0.68615306  0.73618403  1
  H+  H374  1  0.11606321  0.68103773  0.07490497  1
  H+  H375  1  0.33136506  0.66218109  0.07424191  1
  H+  H376  1  0.52809242  0.46135102  0.36783515  1
  H+  H377  1  0.33868401  0.18650047  0.75564265  1
  H+  H378  1  0.17122131  0.83624141  0.89836282  1
  H+  H379  1  0.37277139  0.48247271  0.49319714  1
  H+  H380  1  0.90691404  0.08103613  0.58984215  1
  H+  H381  1  0.32701704  0.66763672  0.42937293  1
  H+  H382  1  0.13345729  0.00815371  0.68357022  1
  H+  H383  1  0.17037610  0.07960850  0.58325586  1
  O2-  O384  1  0.09538435  0.15951039  0.14419336  1
  O2-  O385  1  0.10006343  0.17393879  0.50269220  1
  O2-  O386  1  0.07715654  0.16057624  0.80624615  1
  O2-  O387  1  0.09460808  0.39992431  0.14599859  1
  O2-  O388  1  0.08245958  0.41791293  0.48055276  1
  O2-  O389  1  0.09804742  0.42312199  0.81284993  1
  O2-  O390  1  0.10733890  0.68600347  0.14784783  1
  O2-  O391  1  0.08073726  0.66721409  0.48748788  1
  O2-  O392  1  0.09084456  0.67160949  0.81413929  1
  O2-  O393  1  0.08912520  0.92058639  0.14643839  1
  O2-  O394  1  0.08966991  0.93191610  0.48721069  1
  O2-  O395  1  0.08205094  0.91335024  0.81301236  1
  O2-  O396  1  0.33816034  0.16456870  0.13499276  1
  O2-  O397  1  0.36131077  0.19095799  0.46541071  1
  O2-  O398  1  0.33160149  0.20596976  0.79869753  1
  O2-  O399  1  0.33735451  0.40423516  0.15110550  1
  O2-  O400  1  0.34239173  0.41925980  0.48424431  1
  O2-  O401  1  0.27946029  0.43133407  0.76046999  1
  O2-  O402  1  0.32716813  0.65482206  0.14570004  1
  O2-  O403  1  0.33215601  0.67073618  0.47499811  1
  O2-  O404  1  0.33978589  0.67413177  0.80856784  1
  O2-  O405  1  0.32292676  0.92221613  0.14398260  1
  O2-  O406  1  0.29952955  0.92215529  0.48327881  1
  O2-  O407  1  0.33562763  0.90586965  0.81065150  1
  O2-  O408  1  0.57214588  0.15268681  0.14101952  1
  O2-  O409  1  0.56628636  0.16441828  0.48227628  1
  O2-  O410  1  0.57494571  0.15891039  0.78326916  1
  O2-  O411  1  0.59413036  0.40794520  0.14235749  1
  O2-  O412  1  0.59533392  0.42559569  0.48695670  1
  O2-  O413  1  0.59256027  0.41728972  0.82190022  1
  O2-  O414  1  0.58755655  0.65948837  0.15564850  1
  O2-  O415  1  0.59577774  0.67086925  0.48906600  1
  O2-  O416  1  0.59179262  0.67552855  0.80471727  1
  O2-  O417  1  0.58674814  0.91164815  0.14586402  1
  O2-  O418  1  0.55538204  0.92800475  0.47452223  1
  O2-  O419  1  0.59518718  0.93343245  0.82647306  1
  O2-  O420  1  0.86917961  0.11846008  0.19772349  1
  O2-  O421  1  0.81201111  0.16072870  0.47923121  1
  O2-  O422  1  0.84414450  0.18047150  0.80704638  1
  O2-  O423  1  0.82548453  0.34370693  0.20387262  1
  O2-  O424  1  0.83871554  0.42375815  0.48289622  1
  O2-  O425  1  0.84811560  0.42514318  0.79554192  1
  O2-  O426  1  0.84091305  0.68471652  0.14187781  1
  O2-  O427  1  0.84608089  0.67427396  0.48155482  1
  O2-  O428  1  0.83450676  0.67428590  0.80959088  1
  O2-  O429  1  0.83509720  0.91751021  0.14143256  1
  O2-  O430  1  0.81941694  0.91013648  0.47203640  1
  O2-  O431  1  0.83054747  0.91999045  0.80314527  1
  O2-  O432  1  0.17351041  0.08066076  0.18283640  1
  O2-  O433  1  0.17108984  0.08668481  0.53929153  1
  O2-  O434  1  0.17578177  0.09452337  0.84107051  1
  O2-  O435  1  0.17082185  0.32173612  0.19795666  1
  O2-  O436  1  0.17993582  0.34100755  0.53097750  1
  O2-  O437  1  0.16364943  0.32662486  0.85023530  1
  O2-  O438  1  0.17124510  0.56429930  0.18285397  1
  O2-  O439  1  0.16991478  0.58384032  0.52681897  1
  O2-  O440  1  0.17601667  0.58895242  0.85565164  1
  O2-  O441  1  0.17191904  0.83934326  0.18799302  1
  O2-  O442  1  0.13518999  0.82784428  0.53615437  1
  O2-  O443  1  0.16948054  0.83680520  0.85285914  1
  O2-  O444  1  0.41560831  0.08583868  0.19034335  1
  O2-  O445  1  0.40233228  0.09073423  0.51881016  1
  O2-  O446  1  0.41252472  0.07337559  0.84679149  1
  O2-  O447  1  0.42894438  0.32566101  0.18552871  1
  O2-  O448  1  0.42990751  0.33655707  0.51411613  1
  O2-  O449  1  0.46367189  0.27003939  0.86045913  1
  O2-  O450  1  0.41593300  0.57157444  0.18484089  1
  O2-  O451  1  0.42705928  0.59341769  0.51295724  1
  O2-  O452  1  0.41617891  0.58299626  0.81879182  1
  O2-  O453  1  0.42857379  0.81602026  0.19589948  1
  O2-  O454  1  0.39880043  0.84671449  0.51378988  1
  O2-  O455  1  0.42379776  0.83254381  0.85702653  1
  O2-  O456  1  0.70049766  0.03617429  0.21789174  1
  O2-  O457  1  0.64981371  0.07935380  0.52328252  1
  O2-  O458  1  0.69415120  0.15309405  0.85828670  1
  O2-  O459  1  0.66556517  0.31443624  0.19953868  1
  O2-  O460  1  0.66864520  0.33958079  0.52064911  1
  O2-  O461  1  0.67661987  0.33292474  0.78953210  1
  O2-  O462  1  0.67767895  0.57788606  0.18263489  1
  O2-  O463  1  0.68351826  0.58725778  0.53110750  1
  O2-  O464  1  0.66991474  0.58960182  0.85554203  1
  O2-  O465  1  0.67253993  0.82957355  0.18183610  1
  O2-  O466  1  0.66570373  0.82569696  0.51882918  1
  O2-  O467  1  0.67091401  0.83725198  0.85380910  1
  O2-  O468  1  0.89198163  0.08646619  0.14353256  1
  O2-  O469  1  0.90011507  0.08275875  0.50318644  1
  O2-  O470  1  0.91566128  0.08581169  0.84733885  1
  O2-  O471  1  0.91558171  0.28186028  0.14427126  1
  O2-  O472  1  0.90987172  0.32808322  0.51361158  1
  O2-  O473  1  0.93220275  0.34593497  0.84529630  1
  O2-  O474  1  0.92963301  0.61427719  0.18293338  1
  O2-  O475  1  0.92261230  0.58988512  0.52415233  1
  O2-  O476  1  0.92096092  0.59044177  0.84165396  1
  O2-  O477  1  0.92616354  0.84679845  0.18816231  1
  O2-  O478  1  0.90887513  0.83476055  0.52326753  1
  O2-  O479  1  0.91422343  0.83938001  0.84883244  1
  O2-  O480  1  0.17389653  0.09828604  0.30893730  1
  O2-  O481  1  0.16223378  0.07627882  0.68704873  1
  O2-  O482  1  0.17788335  0.09034430  0.96586449  1
  O2-  O483  1  0.15844057  0.33257694  0.32008650  1
  O2-  O484  1  0.16305757  0.32388370  0.64482507  1
  O2-  O485  1  0.16500040  0.32857021  0.97477724  1
  O2-  O486  1  0.15696773  0.58370934  0.29827940  1
  O2-  O487  1  0.17898617  0.59092304  0.64883627  1
  O2-  O488  1  0.17668131  0.57737263  0.97960767  1
  O2-  O489  1  0.19144983  0.78474595  0.29739660  1
  O2-  O490  1  0.18156848  0.84119209  0.64688488  1
  O2-  O491  1  0.17490899  0.83605853  0.97705346  1
  O2-  O492  1  0.39750092  0.09672992  0.30844586  1
  O2-  O493  1  0.42012046  0.08234180  0.65380142  1
  O2-  O494  1  0.42150485  0.08511399  0.96883974  1
  O2-  O495  1  0.39933203  0.29163224  0.31619209  1
  O2-  O496  1  0.43253939  0.32126520  0.63792249  1
  O2-  O497  1  0.43075409  0.34061663  0.97204279  1
  O2-  O498  1  0.33362583  0.52535032  0.29728513  1
  O2-  O499  1  0.42831881  0.59542209  0.63554113  1
  O2-  O500  1  0.41457628  0.57952856  1.00141613  1
  O2-  O501  1  0.41890902  0.82274277  0.30931742  1
  O2-  O502  1  0.42062947  0.83686677  0.63633311  1
  O2-  O503  1  0.41306617  0.82949715  0.97998836  1
  O2-  O504  1  0.64778311  0.08432262  0.31993129  1
  O2-  O505  1  0.66221598  0.07795669  0.64800517  1
  O2-  O506  1  0.67276477  0.09141406  0.90903345  1
  O2-  O507  1  0.66099753  0.33412100  0.31831713  1
  O2-  O508  1  0.59651666  0.38587417  0.67090075  1
  O2-  O509  1  0.64859642  0.32043690  0.97488075  1
  O2-  O510  1  0.69040408  0.56600252  0.30290069  1
  O2-  O511  1  0.68505278  0.60142973  0.65240046  1
  O2-  O512  1  0.65749145  0.57975902  0.98132650  1
  O2-  O513  1  0.69415524  0.90867208  0.29193803  1
  O2-  O514  1  0.66722343  0.83812144  0.63668131  1
  O2-  O515  1  0.66674366  0.82893936  0.97727253  1
  O2-  O516  1  0.90081507  0.09344458  0.31719988  1
  O2-  O517  1  0.91250264  0.08308811  0.63472407  1
  O2-  O518  1  0.91333592  0.07934235  0.96980521  1
  O2-  O519  1  0.89682586  0.33526138  0.32322805  1
  O2-  O520  1  0.85795102  0.31126155  0.63412518  1
  O2-  O521  1  0.91037379  0.33433585  0.96633096  1
  O2-  O522  1  0.93300455  0.60138887  0.31035200  1
  O2-  O523  1  0.92471940  0.59645291  0.65258126  1
  O2-  O524  1  0.83450618  0.55259470  0.95324156  1
  O2-  O525  1  0.93555129  0.84862844  0.31536532  1
  O2-  O526  1  0.90067933  0.83508496  0.63953912  1
  O2-  O527  1  0.91056788  0.83413876  0.97181231  1
  O2-  O528  1  0.07828238  0.16277692  0.01515773  1
  O2-  O529  1  0.03977108  0.18977425  0.38421865  1
  O2-  O530  1  0.07629858  0.16398699  0.67779303  1
  O2-  O531  1  0.08066020  0.40866943  0.01648490  1
  O2-  O532  1  0.07616183  0.42125554  0.35013297  1
  O2-  O533  1  0.10890424  0.42099468  0.69508082  1
  O2-  O534  1  0.11492117  0.67716070  0.02857678  1
  O2-  O535  1  0.11619136  0.70487662  0.31895503  1
  O2-  O536  1  0.08909972  0.66895028  0.68974580  1
  O2-  O537  1  0.05364075  0.85905141  0.03707775  1
  O2-  O538  1  0.10329686  0.94191682  0.36185547  1
  O2-  O539  1  0.09256139  0.91437825  0.68801377  1
  O2-  O540  1  0.33961956  0.16500073  0.00793565  1
  O2-  O541  1  0.35381047  0.20534678  0.34488379  1
  O2-  O542  1  0.33679370  0.16165230  0.68946201  1
  O2-  O543  1  0.32897110  0.40647554  0.02654854  1
  O2-  O544  1  0.31857019  0.38792347  0.36075661  1
  O2-  O545  1  0.35605219  0.42901282  0.65556315  1
  O2-  O546  1  0.33736826  0.66367117  0.02777250  1
  O2-  O547  1  0.32037453  0.65842089  0.35144846  1
  O2-  O548  1  0.34647625  0.67634311  0.68451541  1
  O2-  O549  1  0.34178601  0.92402218  0.01850087  1
  O2-  O550  1  0.25884339  0.94077090  0.36310391  1
  O2-  O551  1  0.34077438  0.91842488  0.68639897  1
  O2-  O552  1  0.58690117  0.15587590  0.00256287  1
  O2-  O553  1  0.56366410  0.16673998  0.35774775  1
  O2-  O554  1  0.57954586  0.14427296  0.71772258  1
  O2-  O555  1  0.58281103  0.40555859  0.01569097  1
  O2-  O556  1  0.56511182  0.43630379  0.36273371  1
  O2-  O557  1  0.58906662  0.45190723  0.70604966  1
  O2-  O558  1  0.58761725  0.66785828  0.03189130  1
  O2-  O559  1  0.67499209  0.67194141  0.38767090  1
  O2-  O560  1  0.59618734  0.68219248  0.68154001  1
  O2-  O561  1  0.58026175  0.91105914  0.02667901  1
  O2-  O562  1  0.56842480  0.92674165  0.36277140  1
  O2-  O563  1  0.58637979  0.91488839  0.69041336  1
  O2-  O564  1  0.81123203  0.15568930  -0.01851673  1
  O2-  O565  1  0.81255155  0.17064664  0.35931629  1
  O2-  O566  1  0.82741892  0.16380903  0.68593758  1
  O2-  O567  1  0.80538367  0.39683486  -0.00254946  1
  O2-  O568  1  0.83347759  0.43692598  0.36006930  1
  O2-  O569  1  0.78077201  0.40533707  0.67283520  1
  O2-  O570  1  0.82443874  0.66881547  0.01841253  1
  O2-  O571  1  0.85037827  0.68227983  0.35684598  1
  O2-  O572  1  0.85188655  0.68952472  0.68997903  1
  O2-  O573  1  0.83347524  0.91579846  0.01744910  1
  O2-  O574  1  0.83764727  0.92751027  0.35091264  1
  O2-  O575  1  0.82935695  0.91807834  0.68105629  1
