# generated using pymatgen
data_H2O
_symmetry_space_group_name_H-M   'P 1'
_cell_length_a   17.98650819
_cell_length_b   17.98198155
_cell_length_c   22.00825421
_cell_angle_alpha   90.00018892
_cell_angle_beta   90.00423604
_cell_angle_gamma   120.00050639
_symmetry_Int_Tables_number   1
_chemical_formula_structural   H2O
_chemical_formula_sum   'H384 O192'
_cell_volume   6164.50792556
_cell_formula_units_Z   192
loop_
 _symmetry_equiv_pos_site_id
 _symmetry_equiv_pos_as_xyz
  1  'x, y, z'
loop_
 _atom_type_symbol
 _atom_type_oxidation_number
  H+  1.0
  O2-  -2.0
loop_
 _atom_site_type_symbol
 _atom_site_label
 _atom_site_symmetry_multiplicity
 _atom_site_fract_x
 _atom_site_fract_y
 _atom_site_fract_z
 _atom_site_occupancy
  H+  H0  1  0.38788829  0.26417854  0.50763757  1
  H+  H1  1  0.14539349  0.52745474  0.99739031  1
  H+  H2  1  0.71928464  0.85646642  0.49908871  1
  H+  H3  1  0.36065584  0.63429131  0.34665304  1
  H+  H4  1  0.14081476  0.52399066  0.84874928  1
  H+  H5  1  0.10170511  0.13941358  0.34366969  1
  H+  H6  1  0.35184538  -0.02543122  1.00485337  1
  H+  H7  1  0.91081503  0.40182934  0.99326535  1
  H+  H8  1  0.60438762  0.38015685  1.01646709  1
  H+  H9  1  0.13268566  0.36416145  0.31895503  1
  H+  H10  1  0.51500041  0.36948031  0.86517593  1
  H+  H11  1  0.09678943  0.43245137  0.10606628  1
  H+  H12  1  0.82583459  0.90556607  0.39904954  1
  H+  H13  1  0.40535713  0.54808542  0.93033639  1
  H+  H14  1  0.57742944  0.41564202  0.07926915  1
  H+  H15  1  0.90863718  1.00548266  0.48479927  1
  H+  H16  1  0.60196143  0.65254387  0.69295332  1
  H+  H17  1  0.43582533  0.22692103  0.12683418  1
  H+  H18  1  0.21461276  0.09978869  0.51779401  1
  H+  H19  1  0.60940617  0.13773816  0.16130050  1
  H+  H20  1  0.85596740  0.87907864  0.67741831  1
  H+  H21  1  0.10679703  0.89219453  0.69876285  1
  H+  H22  1  0.14532098  0.60926990  0.65943797  1
  H+  H23  1  0.88911241  0.53328433  0.82488554  1
  H+  H24  1  0.17234461  0.35114925  0.93497419  1
  H+  H25  1  0.48634654  0.86973498  0.17485596  1
  H+  H26  1  0.14983776  0.86788153  0.32991791  1
  H+  H27  1  0.88988223  0.85640751  0.16477706  1
  H+  H28  1  0.47172539  0.86243947  0.65853000  1
  H+  H29  1  0.36032459  0.73250943  0.99720895  1
  H+  H30  1  0.64226741  0.63187557  0.99380604  1
  H+  H31  1  0.87571606  0.28036218  0.33020559  1
  H+  H32  1  0.60260780  0.36292444  0.85250134  1
  H+  H33  1  0.88345825  0.15950882  0.67957224  1
  H+  H34  1  0.61681053  0.89484147  0.49611402  1
  H+  H35  1  0.89340206  0.77133584  0.32511106  1
  H+  H36  1  0.24489171  0.82356760  0.50007509  1
  H+  H37  1  0.86314931  0.72635648  0.16002042  1
  H+  H38  1  0.37803211  0.74045551  0.15327525  1
  H+  H39  1  0.60434576  0.97676839  0.67136362  1
  H+  H40  1  0.89076136  0.30351358  0.99120406  1
  H+  H41  1  0.22816886  0.62223012  0.33807202  1
  H+  H42  1  0.84449137  0.44044414  0.10510170  1
  H+  H43  1  0.28571717  0.16648219  0.82325461  1
  H+  H44  1  0.26958274  0.14270207  0.34421924  1
  H+  H45  1  0.59702574  0.86145248  0.81744871  1
  H+  H46  1  0.84721466  0.18040330  0.06712154  1
  H+  H47  1  0.77197711  0.62809270  0.49977195  1
  H+  H48  1  0.35896300  0.71777202  0.49759455  1
  H+  H49  1  0.36794909  0.39004588  0.49887755  1
  H+  H50  1  0.11126162  0.26815428  0.16790011  1
  H+  H51  1  0.85321654  0.13852680  0.16111999  1
  H+  H52  1  0.86952284  0.40331770  0.32474326  1
  H+  H53  1  0.62678429  0.41246388  0.62871076  1
  H+  H54  1  0.51912581  0.14124228  0.81873323  1
  H+  H55  1  0.25903639  0.40893779  0.84949707  1
  H+  H56  1  0.62534140  0.48595509  0.16258791  1
  H+  H57  1  0.89426221  0.85998473  0.32580905  1
  H+  H58  1  0.22375226  0.59844245  0.50816095  1
  H+  H59  1  0.23456561  0.87823489  0.67760139  1
  H+  H60  1  0.86606242  1.01757967  0.83477475  1
  H+  H61  1  0.12329784  0.77087435  0.98740478  1
  H+  H62  1  0.91779766  0.05206224  0.57438462  1
  H+  H63  1  0.64132998  0.27300625  0.33309325  1
  H+  H64  1  0.28764376  0.88878343  0.82480875  1
  H+  H65  1  0.86742034  0.64027080  0.34397658  1
  H+  H66  1  0.61898865  0.89808977  0.15522897  1
  H+  H67  1  0.11279181  0.94106626  0.14593191  1
  H+  H68  1  0.85637563  0.22969940  0.15739769  1
  H+  H69  1  0.07594150  0.21057844  0.66891276  1
  H+  H70  1  0.37832417  0.28673038  0.32955129  1
  H+  H71  1  0.61710774  0.89028340  0.34322497  1
  H+  H72  1  0.88279788  0.52920082  0.18032015  1
  H+  H73  1  0.39137930  0.49644620  0.67824686  1
  H+  H74  1  0.10618055  0.14066322  -0.00482637  1
  H+  H75  1  0.48292735  0.20207065  0.29264379  1
  H+  H76  1  0.80425265  0.66506618  0.82542349  1
  H+  H77  1  0.11897345  0.63414259  0.83202695  1
  H+  H78  1  0.39792514  0.28423322  0.98805876  1
  H+  H79  1  0.72143950  0.11876431  0.65050166  1
  H+  H80  1  0.11994025  0.64013659  0.33223887  1
  H+  H81  1  0.77501380  0.38473788  0.49246972  1
  H+  H82  1  0.68069041  0.83941835  0.21943480  1
  H+  H83  1  0.50315965  0.14318036  0.33266668  1
  H+  H84  1  0.36428333  0.87429134  0.15859327  1
  H+  H85  1  0.13752107  0.02812458  0.32952829  1
  H+  H86  1  0.91117399  0.58020512  0.59823360  1
  H+  H87  1  0.31728608  0.46814156  0.16441609  1
  H+  H88  1  0.36365210  0.15223946  0.34395464  1
  H+  H89  1  0.13955335  0.51566995  0.65894240  1
  H+  H90  1  0.47861993  0.85814300  0.50828025  1
  H+  H91  1  0.64651122  0.54687441  0.65635535  1
  H+  H92  1  0.38682606  0.29705669  0.84064929  1
  H+  H93  1  0.85962159  0.14143064  0.82389460  1
  H+  H94  1  0.84830170  0.06271729  0.61139182  1
  H+  H95  1  -0.02797937  0.35477367  0.50405751  1
  H+  H96  1  0.63436224  0.60287044  0.33771746  1
  H+  H97  1  0.72652462  0.60834913  0.33469658  1
  H+  H98  1  0.37753362  0.57471708  0.83244492  1
  H+  H99  1  0.61773931  0.72839032  0.15313223  1
  H+  H100  1  0.16416032  0.86689494  0.83552713  1
  H+  H101  1  0.61201763  0.38158596  0.33861965  1
  H+  H102  1  0.63566033  0.36474361  0.17568206  1
  H+  H103  1  0.11528001  0.39488943  0.00641060  1
  H+  H104  1  0.08236709  0.38187320  0.71710428  1
  H+  H105  1  0.63906818  0.12301802  0.83026032  1
  H+  H106  1  0.22931862  0.84910642  0.17851243  1
  H+  H107  1  0.12285608  0.72358076  0.82514560  1
  H+  H108  1  0.24342611  0.62422293  -0.00429756  1
  H+  H109  1  0.86085172  0.17479626  0.36234154  1
  H+  H110  1  0.13651770  0.34411862  0.50118831  1
  H+  H111  1  0.16305462  0.39153359  0.84038893  1
  H+  H112  1  0.85492779  0.47768050  0.66406929  1
  H+  H113  1  0.00344421  0.09130663  0.49053003  1
  H+  H114  1  0.27447463  0.63564191  0.67467871  1
  H+  H115  1  0.94892279  0.87055858  0.50186948  1
  H+  H116  1  0.38023976  0.11261589  -0.01557477  1
  H+  H117  1  0.66777401  0.09095738  0.23526802  1
  H+  H118  1  0.60431726  0.35334877  0.48343812  1
  H+  H119  1  0.88107184  0.09032444  0.31984871  1
  H+  H120  1  0.01515898  0.63609877  0.15744703  1
  H+  H121  1  0.89967741  0.78689639  0.84120698  1
  H+  H122  1  0.10735057  0.59176884  0.50117920  1
  H+  H123  1  0.27631043  0.87643878  0.34414632  1
  H+  H124  1  0.40138989  0.32636174  0.16932791  1
  H+  H125  1  0.39050397  0.76870290  0.33276696  1
  H+  H126  1  0.77354837  0.14865056  0.82331707  1
  H+  H127  1  0.63963548  0.61876154  0.17435779  1
  H+  H128  1  0.88459193  0.51580721  0.50406109  1
  H+  H129  1  0.25231469  0.37418370  0.01233591  1
  H+  H130  1  0.66036970  0.32564032  0.26957136  1
  H+  H131  1  0.85095405  0.72392959  0.49872039  1
  H+  H132  1  0.40972349  0.38301579  0.65974464  1
  H+  H133  1  0.61585842  0.61333289  0.84595474  1
  H+  H134  1  0.37087683  0.14955064  0.67223553  1
  H+  H135  1  0.96922313  0.88632228  0.84752555  1
  H+  H136  1  0.10884216  0.71672582  0.15792904  1
  H+  H137  1  0.47477830  0.11763636  0.65436874  1
  H+  H138  1  0.16642019  0.08240434  0.61585891  1
  H+  H139  1  0.06997236  0.45983835  0.77268804  1
  H+  H140  1  0.61706314  0.47510834  0.34529592  1
  H+  H141  1  0.12005166  0.73505084  0.33373190  1
  H+  H142  1  0.88489713  0.27896432  0.65704393  1
  H+  H143  1  0.24629186  0.62220594  0.17862352  1
  H+  H144  1  0.86704999  0.96130824  0.33427577  1
  H+  H145  1  0.11696048  0.68636565  0.49169166  1
  H+  H146  1  0.34960289  0.45386888  0.01331860  1
  H+  H147  1  0.37175740  -0.01710390  0.82406520  1
  H+  H148  1  0.84557679  0.88354290  0.82832770  1
  H+  H149  1  0.86690531  -0.00297620  0.98658117  1
  H+  H150  1  0.81706170  0.01750313  0.19503360  1
  H+  H151  1  0.24223062  0.11121406  0.18221175  1
  H+  H152  1  0.85875575  0.38958147  0.66360778  1
  H+  H153  1  0.36151558  0.70942794  0.82903921  1
  H+  H154  1  0.14540100  0.25889373  0.49633710  1
  H+  H155  1  0.42437020  0.83231690  0.23387609  1
  H+  H156  1  0.42746346  0.08515212  0.24270370  1
  H+  H157  1  0.13855307  0.12660870  0.82801806  1
  H+  H158  1  0.27661815  0.38378249  0.49986523  1
  H+  H159  1  0.01439908  0.39407286  0.82416525  1
  H+  H160  1  0.32658429  0.91374882  0.06441345  1
  H+  H161  1  0.38783199  0.12580071  0.83548817  1
  H+  H162  1  0.14397184  1.03828853  -0.03257672  1
  H+  H163  1  0.47942137  0.86032632  0.33177302  1
  H+  H164  1  0.35303946  0.45178975  0.33187787  1
  H+  H165  1  0.13264419  0.73010800  0.67870021  1
  H+  H166  1  0.17721742  0.11270579  0.92024446  1
  H+  H167  1  0.86431326  0.73657794  0.01126276  1
  H+  H168  1  0.63346870  0.02899093  0.99074180  1
  H+  H169  1  0.36923094  0.87170984  0.34206407  1
  H+  H170  1  0.62872986  0.48488502  0.87481478  1
  H+  H171  1  0.40259332  0.28997108  0.65694713  1
  H+  H172  1  0.88251625  0.61745833  0.17374233  1
  H+  H173  1  0.89735279  0.53654200  0.32228558  1
  H+  H174  1  0.07592246  0.89060113  0.48952039  1
  H+  H175  1  0.02054833  0.39039497  0.33816664  1
  H+  H176  1  0.75528722  0.64561999  1.00616155  1
  H+  H177  1  0.87209320  0.08981207  0.98904354  1
  H+  H178  1  0.17888739  0.90744038  0.53298493  1
  H+  H179  1  0.29704421  0.55639226  0.21437012  1
  H+  H180  1  0.60468595  0.26283608  0.98705230  1
  H+  H181  1  0.11015427  0.47861888  0.34170701  1
  H+  H182  1  0.83221646  0.42005583  0.75422244  1
  H+  H183  1  0.76964181  0.39164368  0.15761069  1
  H+  H184  1  0.36305644  0.88858489  0.67197915  1
  H+  H185  1  0.77093190  0.63888296  0.16209295  1
  H+  H186  1  0.62745568  0.75525908  0.85347757  1
  H+  H187  1  0.03114513  0.40431726  0.00293496  1
  H+  H188  1  0.23560098  0.60808613  0.84486861  1
  H+  H189  1  0.11128508  0.45602469  0.49416127  1
  H+  H190  1  0.73830632  0.36528348  0.82655814  1
  H+  H191  1  0.86570487  0.95924434  0.13587528  1
  H+  H192  1  0.63153418  0.50951526  0.49170108  1
  H+  H193  1  0.46855123  0.37081441  0.33055895  1
  H+  H194  1  0.92926374  0.21341147  0.02760794  1
  H+  H195  1  0.37984037  0.59035168  0.98380441  1
  H+  H196  1  0.59789400  0.72544519  1.00294783  1
  H+  H197  1  1.02001118  0.37745278  0.66387019  1
  H+  H198  1  0.70731686  0.76186223  0.27683536  1
  H+  H199  1  0.37594205  0.87941253  0.49166079  1
  H+  H200  1  0.10211736  0.92901278  0.86673565  1
  H+  H201  1  0.70511234  0.86501804  0.99782462  1
  H+  H202  1  0.38212406  0.77291679  0.66162349  1
  H+  H203  1  0.27433295  0.14870964  -0.01075009  1
  H+  H204  1  0.61268235  0.71206834  0.34595529  1
  H+  H205  1  0.80203496  0.86022223  -0.02015681  1
  H+  H206  1  0.36591522  0.64218843  0.67406269  1
  H+  H207  1  0.26435419  0.09144107  0.19980088  1
  H+  H208  1  0.46984098  0.87067916  0.99156833  1
  H+  H209  1  0.36717187  0.07642928  0.18888328  1
  H+  H210  1  0.88155626  0.37147214  0.16150901  1
  H+  H211  1  0.85636859  0.68360409  0.73448005  1
  H+  H212  1  0.51845897  0.13168210  0.16137945  1
  H+  H213  1  0.13210998  0.11037274  0.51522403  1
  H+  H214  1  0.73228999  0.86458677  0.15638782  1
  H+  H215  1  0.12409500  0.27509056  -0.01463267  1
  H+  H216  1  0.60611072  0.73975878  0.67455138  1
  H+  H217  1  0.38191361  0.51882266  0.51066816  1
  H+  H218  1  0.98987775  0.15628837  0.13441879  1
  H+  H219  1  0.35752651  0.12493668  0.49610164  1
  H+  H220  1  0.01942936  0.89341903  0.69051227  1
  H+  H221  1  0.28381082  0.15153990  0.67674263  1
  H+  H222  1  0.16815423  1.05549578  0.83520074  1
  H+  H223  1  0.38700128  0.02717885  0.66005100  1
  H+  H224  1  0.18086525  0.59129952  0.27480281  1
  H+  H225  1  0.47361368  1.09038741  0.50897110  1
  H+  H226  1  0.16774084  0.52488871  0.18445205  1
  H+  H227  1  0.63166316  0.28293088  0.65041080  1
  H+  H228  1  0.89796422  0.61261059  0.50125630  1
  H+  H229  1  1.01339179  0.60443533  0.49723952  1
  H+  H230  1  0.11922430  0.89067060  -0.04268081  1
  H+  H231  1  0.60963102  0.14798004  0.66538451  1
  H+  H232  1  0.61059059  0.63024378  0.50280056  1
  H+  H233  1  0.62458280  0.13758223  0.34398528  1
  H+  H234  1  1.01055579  0.12535789  0.99103154  1
  H+  H235  1  0.63269770  0.27378263  0.17205894  1
  H+  H236  1  0.53780691  0.41220752  0.63114519  1
  H+  H237  1  0.21874302  0.85540882  0.99121572  1
  H+  H238  1  0.46609999  0.10690891  -0.01000377  1
  H+  H239  1  0.36293549  0.96051178  0.16480958  1
  H+  H240  1  0.60065814  0.89241895  0.00417386  1
  H+  H241  1  0.04495725  0.40444568  0.16780759  1
  H+  H242  1  0.74890115  0.84458986  0.31798624  1
  H+  H243  1  0.98914917  0.11998054  0.66483230  1
  H+  H244  1  0.10789344  0.08860715  0.17844174  1
  H+  H245  1  0.14259992  0.34173363  0.64796129  1
  H+  H246  1  0.74532274  0.15862905  0.48957519  1
  H+  H247  1  0.72293421  0.11690271  0.98895852  1
  H+  H248  1  0.72289937  0.86644319  0.66077351  1
  H+  H249  1  0.86576709  0.39365547  0.81428223  1
  H+  H250  1  0.88738798  0.65011493  0.82556196  1
  H+  H251  1  0.53204600  0.40445598  0.16994525  1
  H+  H252  1  0.02991510  0.87861560  0.18192169  1
  H+  H253  1  0.14389478  0.89449548  0.55669160  1
  H+  H254  1  0.78319814  0.65076507  0.68366215  1
  H+  H255  1  0.61370276  0.98461594  0.16135203  1
  H+  H256  1  0.12718612  0.27435390  0.32708878  1
  H+  H257  1  0.60546313  0.97972744  0.49259744  1
  H+  H258  1  0.61351240  0.72201413  0.50081302  1
  H+  H259  1  0.73973470  0.13482847  0.32934451  1
  H+  H260  1  0.98182113  0.61697567  0.83182144  1
  H+  H261  1  0.47389461  0.60118264  0.33770911  1
  H+  H262  1  0.88271522  0.61187817  0.65734388  1
  H+  H263  1  0.93418046  0.34632506  0.11863248  1
  H+  H264  1  0.39960060  0.39476660  0.84561291  1
  H+  H265  1  0.61252122  0.22669567  0.81650388  1
  H+  H266  1  -0.02215127  0.10920741  0.32575339  1
  H+  H267  1  0.23978681  0.36238445  0.16287745  1
  H+  H268  1  0.85703196  0.85982449  0.50513113  1
  H+  H269  1  0.60600415  0.13722129  0.00351422  1
  H+  H270  1  0.51868820  0.62780441  1.00011485  1
  H+  H271  1  0.37838193  0.86574366  -0.00988062  1
  H+  H272  1  0.51101199  0.35931098  0.48741776  1
  H+  H273  1  0.63318475  0.25122838  0.50356801  1
  H+  H274  1  0.88554364  0.27706922  0.83454556  1
  H+  H275  1  0.02021763  0.64027729  0.32917427  1
  H+  H276  1  0.41548154  0.59168859  0.60155804  1
  H+  H277  1  0.93257622  0.54301112  0.02270171  1
  H+  H278  1  0.14192969  0.85184559  0.18946379  1
  H+  H279  1  0.03267715  0.89360918  -0.03679789  1
  H+  H280  1  0.90011130  0.87247936  1.00079335  1
  H+  H281  1  0.72078230  0.11873502  0.17272333  1
  H+  H282  1  0.01090945  0.11791066  0.82446022  1
  H+  H283  1  0.09318372  0.98461441  0.49278935  1
  H+  H284  1  0.63556034  0.87145412  0.65615237  1
  H+  H285  1  0.96644145  0.49238669  0.06191233  1
  H+  H286  1  0.89095791  0.77843419  0.66219816  1
  H+  H287  1  0.72372430  0.55031753  0.85799572  1
  H+  H288  1  0.16629667  0.86543163  0.62711498  1
  H+  H289  1  0.65890689  0.32135699  0.55667759  1
  H+  H290  1  0.16663718  0.56637734  0.56989551  1
  H+  H291  1  0.91979828  0.33652020  0.26838772  1
  H+  H292  1  0.51002742  0.86285557  0.81646149  1
  H+  H293  1  0.47065956  0.60921662  0.50819598  1
  H+  H294  1  0.07999414  0.40415322  0.43206783  1
  H+  H295  1  0.82535897  0.89613383  0.07822431  1
  H+  H296  1  0.14380883  1.03499879  0.67936914  1
  H+  H297  1  0.17686491  0.58614281  0.93272680  1
  H+  H298  1  0.57709206  0.92779541  0.06330206  1
  H+  H299  1  0.33007272  0.65424046  0.76872413  1
  H+  H300  1  0.41023216  0.06877846  0.56507636  1
  H+  H301  1  0.16233331  0.30192381  0.59192304  1
  H+  H302  1  0.78136583  0.40475251  0.32864710  1
  H+  H303  1  0.58196481  0.65927564  0.40883698  1
  H+  H304  1  0.33740250  0.67613975  0.05800916  1
  H+  H305  1  0.47672353  0.62995527  0.66145764  1
  H+  H306  1  0.86563885  0.38945439  0.49745182  1
  H+  H307  1  0.64761109  0.83122620  0.93724649  1
  H+  H308  1  0.34096672  0.90465556  0.40862755  1
  H+  H309  1  0.59337920  0.15512703  0.40816427  1
  H+  H310  1  0.57369788  0.16262707  0.06366470  1
  H+  H311  1  0.15880584  0.17244102  0.44640943  1
  H+  H312  1  0.15525071  0.30486662  0.23597973  1
  H+  H313  1  0.87336152  0.27541675  0.50535922  1
  H+  H314  1  0.90009792  0.07270777  0.89491379  1
  H+  H315  1  0.33349508  0.66526329  0.40638154  1
  H+  H316  1  0.41016373  0.82527793  0.89639548  1
  H+  H317  1  0.58733376  0.91973781  0.40198803  1
  H+  H318  1  0.41663487  0.82978696  0.56741059  1
  H+  H319  1  0.13569949  0.18021842  0.20649359  1
  H+  H320  1  0.67754594  0.59018008  0.94152608  1
  H+  H321  1  0.68223832  0.63631844  0.62532749  1
  H+  H322  1  0.30055152  0.40903605  0.09170087  1
  H+  H323  1  0.66695277  0.58666292  0.23542214  1
  H+  H324  1  0.37821984  0.44973524  0.74199713  1
  H+  H325  1  0.65238385  0.03686885  0.32792968  1
  H+  H326  1  0.81591640  0.90939570  0.76734465  1
  H+  H327  1  0.38197852  0.56263803  0.24112371  1
  H+  H328  1  0.07924458  0.94136894  0.06464954  1
  H+  H329  1  0.68743532  0.32643581  0.88901485  1
  H+  H330  1  0.38593926  0.85511636  0.83538709  1
  H+  H331  1  0.57715067  0.39618309  0.41848178  1
  H+  H332  1  0.09575762  0.92804325  0.79032688  1
  H+  H333  1  0.66778614  0.83654169  0.56386737  1
  H+  H334  1  0.43230055  0.35724125  0.93768386  1
  H+  H335  1  0.59318968  0.32627774  0.93989272  1
  H+  H336  1  0.42675896  0.33413076  0.56217546  1
  H+  H337  1  0.34458144  0.92370002  0.73433782  1
  H+  H338  1  0.52496096  0.60660732  0.84067616  1
  H+  H339  1  0.08168595  0.92116892  0.39375058  1
  H+  H340  1  0.34073176  0.18434961  0.04569054  1
  H+  H341  1  0.72486055  0.36761129  0.64761796  1
  H+  H342  1  0.57744524  0.17542438  0.72408993  1
  H+  H343  1  0.83315446  0.17319634  0.73222429  1
  H+  H344  1  0.50991147  0.38260564  0.01048541  1
  H+  H345  1  0.35991639  0.62889830  0.49611175  1
  H+  H346  1  0.70921674  0.84907190  0.84381738  1
  H+  H347  1  0.91297632  0.84100860  0.60476185  1
  H+  H348  1  0.05968014  0.67010769  0.06562741  1
  H+  H349  1  0.57993762  0.38798190  0.74797420  1
  H+  H350  1  0.85391316  0.96455608  0.66690704  1
  H+  H351  1  0.05715885  0.14877549  0.76126645  1
  H+  H352  1  0.79467549  0.95768494  0.45823391  1
  H+  H353  1  0.03176730  0.88530874  0.33193439  1
  H+  H354  1  0.82738045  0.67195570  0.07142682  1
  H+  H355  1  0.57463933  0.90822540  0.72755644  1
  H+  H356  1  0.06828001  0.89494487  0.06297998  1
  H+  H357  1  0.33995750  0.18157699  0.14903486  1
  H+  H358  1  0.91422050  0.34349035  0.89171310  1
  H+  H359  1  0.80534558  0.19226239  0.43077021  1
  H+  H360  1  0.04959049  0.19302898  0.07752175  1
  H+  H361  1  0.36673242  0.64673210  0.15148751  1
  H+  H362  1  0.63580766  0.51910484  0.56082695  1
  H+  H363  1  0.91414108  0.82967045  0.22984037  1
  H+  H364  1  0.57088976  0.42422952  0.75228514  1
  H+  H365  1  0.91635127  0.33601574  0.59604780  1
  H+  H366  1  0.42557783  0.36121505  0.23728315  1
  H+  H367  1  0.58560072  0.66331440  0.09841025  1
  H+  H368  1  0.07193902  0.16686416  0.40226856  1
  H+  H369  1  0.34926530  0.19319339  0.76634456  1
  H+  H370  1  0.36577059  0.96513522  0.49173474  1
  H+  H371  1  0.92694173  0.60327854  0.26709319  1
  H+  H372  1  0.10287253  0.66447338  0.73313800  1
  H+  H373  1  0.91053635  0.83434607  0.93853571  1
  H+  H374  1  0.90364864  0.06790937  0.22962159  1
  H+  H375  1  0.18080488  0.82503350  0.89335042  1
  H+  H376  1  0.41312342  0.08816415  0.89300309  1
  H+  H377  1  0.32619252  0.16013099  0.44069888  1
  H+  H378  1  0.15065058  0.09739932  0.27847037  1
  H+  H379  1  0.18648942  0.78710754  0.55899451  1
  H+  H380  1  0.83384122  0.66705756  0.40314379  1
  H+  H381  1  0.18072290  0.83345239  0.27165231  1
  H+  H382  1  0.66905684  0.09803652  0.89119270  1
  H+  H383  1  0.65487927  0.09346423  0.59528500  1
  O2-  O384  1  0.02717534  0.21006563  0.11332006  1
  O2-  O385  1  0.10981269  0.16783960  0.46863371  1
  O2-  O386  1  0.06762153  0.14074537  0.80478414  1
  O2-  O387  1  0.10307679  0.43307624  0.15072686  1
  O2-  O388  1  0.07749378  0.39721369  0.47721838  1
  O2-  O389  1  0.07535226  0.43109231  0.80864599  1
  O2-  O390  1  0.07201089  0.66164165  0.13685788  1
  O2-  O391  1  0.07583728  0.62344927  0.48196639  1
  O2-  O392  1  0.08919600  0.66179674  0.81260328  1
  O2-  O393  1  0.09403428  0.91004628  0.18427348  1
  O2-  O394  1  0.05661005  0.92736185  0.47115148  1
  O2-  O395  1  0.13293014  0.94246785  0.82696992  1
  O2-  O396  1  0.38071585  0.22380028  0.12008947  1
  O2-  O397  1  0.32766428  0.15727776  0.48601907  1
  O2-  O398  1  0.34825998  0.19427044  0.81194129  1
  O2-  O399  1  0.29367704  0.41121498  0.14271347  1
  O2-  O400  1  0.33876870  0.42238369  0.48956193  1
  O2-  O401  1  0.35992612  0.45691987  0.82361549  1
  O2-  O402  1  0.34494838  0.68255865  0.13343192  1
  O2-  O403  1  0.32720414  0.65815888  0.48126389  1
  O2-  O404  1  0.33061860  0.64868487  0.81420768  1
  O2-  O405  1  0.33176373  0.90337663  0.14526101  1
  O2-  O406  1  0.34205883  0.90570624  0.47319398  1
  O2-  O407  1  0.34807347  0.92280856  0.80909176  1
  O2-  O408  1  0.57733729  0.16609458  0.14496601  1
  O2-  O409  1  0.58730732  0.13399083  0.48992904  1
  O2-  O410  1  0.57765515  0.16723285  0.80018910  1
  O2-  O411  1  0.59071664  0.42400911  0.15019374  1
  O2-  O412  1  0.57329383  0.38560948  0.46795108  1
  O2-  O413  1  0.57410668  0.38464016  0.88013871  1
  O2-  O414  1  0.59222747  0.66689104  0.14323554  1
  O2-  O415  1  0.58331865  0.66133659  0.48521257  1
  O2-  O416  1  0.58696993  0.64720473  0.84509059  1
  O2-  O417  1  0.58409240  0.92520168  0.14379831  1
  O2-  O418  1  0.58254506  0.91975429  0.47828868  1
  O2-  O419  1  0.56771689  0.88921045  0.79759245  1
  O2-  O420  1  0.82487574  0.16874099  0.14307838  1
  O2-  O421  1  0.80565631  0.18586579  0.47627050  1
  O2-  O422  1  0.83546667  0.17730975  0.80798555  1
  O2-  O423  1  0.83262782  0.42555222  0.14913116  1
  O2-  O424  1  0.83657623  0.42199737  0.48429349  1
  O2-  O425  1  0.83452811  0.42327459  0.80010180  1
  O2-  O426  1  0.83006792  0.66601953  0.14370198  1
  O2-  O427  1  0.83067792  0.66446911  0.48353819  1
  O2-  O428  1  0.86396805  0.69186132  0.81251405  1
  O2-  O429  1  0.83291795  0.89797078  0.12536726  1
  O2-  O430  1  0.81080735  0.91329788  0.45926661  1
  O2-  O431  1  0.81194870  0.90937982  0.81280996  1
  O2-  O432  1  0.10868290  0.11747412  0.21597205  1
  O2-  O433  1  0.15426695  0.07203347  0.53216396  1
  O2-  O434  1  0.18445968  0.11495507  0.84704978  1
  O2-  O435  1  0.16282266  0.28541515  0.19368865  1
  O2-  O436  1  0.17158864  0.31910090  0.51545262  1
  O2-  O437  1  0.19848695  0.37751067  0.86607111  1
  O2-  O438  1  0.21130683  0.57622083  0.20821349  1
  O2-  O439  1  0.16328507  0.56280001  0.52362283  1
  O2-  O440  1  0.17660666  0.58379977  0.86458466  1
  O2-  O441  1  0.17250841  0.81925941  0.19959696  1
  O2-  O442  1  0.19339972  0.77289226  0.51758169  1
  O2-  O443  1  0.18576374  0.82752366  0.84782079  1
  O2-  O444  1  0.41355897  0.06543642  0.19920164  1
  O2-  O445  1  0.41142798  0.06400066  0.51934637  1
  O2-  O446  1  0.41497135  0.09108389  0.84771191  1
  O2-  O447  1  0.44012090  0.37676519  0.19343781  1
  O2-  O448  1  0.42717639  0.32675423  0.51654724  1
  O2-  O449  1  0.41945568  0.35431039  0.86116844  1
  O2-  O450  1  0.35089138  0.55653394  0.20266283  1
  O2-  O451  1  0.41058924  0.58230032  0.52281160  1
  O2-  O452  1  0.40612760  0.54452333  0.85040986  1
  O2-  O453  1  0.42486265  0.83516791  0.18881026  1
  O2-  O454  1  0.41727652  0.82777991  0.52147535  1
  O2-  O455  1  0.40682907  0.81701908  0.85151428  1
  O2-  O456  1  0.66131315  0.08801741  0.18947687  1
  O2-  O457  1  0.63015895  0.09488055  0.51198066  1
  O2-  O458  1  0.67783203  0.10364894  0.84689191  1
  O2-  O459  1  0.66551797  0.33302041  0.18916133  1
  O2-  O460  1  0.65431021  0.31341472  0.51095680  1
  O2-  O461  1  0.67912026  0.32815618  0.84505724  1
  O2-  O462  1  0.67111563  0.58898087  0.19043999  1
  O2-  O463  1  0.65398142  0.55471097  0.52280657  1
  O2-  O464  1  0.67144462  0.54943774  0.87079598  1
  O2-  O465  1  0.67500289  0.84665505  0.17533899  1
  O2-  O466  1  0.66038606  0.83028347  0.51852121  1
  O2-  O467  1  0.65059477  0.81767616  0.86196653  1
  O2-  O468  1  0.87759665  0.05877881  0.18769016  1
  O2-  O469  1  0.94489777  0.05915026  0.50788678  1
  O2-  O470  1  0.89992878  0.07793452  0.84973161  1
  O2-  O471  1  0.91566568  0.34018591  0.16092987  1
  O2-  O472  1  0.91426951  0.33515300  0.52225697  1
  O2-  O473  1  0.91524837  0.33989906  0.84668916  1
  O2-  O474  1  0.91455081  0.59089068  0.19245551  1
  O2-  O475  1  0.92433303  0.57928034  0.51654848  1
  O2-  O476  1  0.91946242  0.59302948  0.84082859  1
  O2-  O477  1  0.91873060  0.82744803  0.18448140  1
  O2-  O478  1  0.89167647  0.83509572  0.52115828  1
  O2-  O479  1  0.91171266  0.84315310  0.86040649  1
  O2-  O480  1  0.16523578  0.09094537  0.32137145  1
  O2-  O481  1  0.17962833  0.09117541  0.65978039  1
  O2-  O482  1  0.17209724  0.10192506  0.96598090  1
  O2-  O483  1  0.15844038  0.32954445  0.30473305  1
  O2-  O484  1  0.15673489  0.29739800  0.63720521  1
  O2-  O485  1  0.15889418  0.33868514  0.98007590  1
  O2-  O486  1  0.16950098  0.59539820  0.31929582  1
  O2-  O487  1  0.17179358  0.57511120  0.64247820  1
  O2-  O488  1  0.17818098  0.58848761  0.98005673  1
  O2-  O489  1  0.18027126  0.83570553  0.31819993  1
  O2-  O490  1  0.17041143  0.84856268  0.66863912  1
  O2-  O491  1  0.16325895  0.82782715  0.96848790  1
  O2-  O492  1  0.45533546  0.14308639  0.30773624  1
  O2-  O493  1  0.41334815  0.08496706  0.64046354  1
  O2-  O494  1  0.40658063  0.07689772  0.97302137  1
  O2-  O495  1  0.41045321  0.34596021  0.31321027  1
  O2-  O496  1  0.43086333  0.34772917  0.63711943  1
  O2-  O497  1  0.43485989  0.34764463  0.98237831  1
  O2-  O498  1  0.41348933  0.57604583  0.32133693  1
  O2-  O499  1  0.41513801  0.59504531  0.64680307  1
  O2-  O500  1  0.40869014  0.55716564  0.97543799  1
  O2-  O501  1  0.41857746  0.82960303  0.31683982  1
  O2-  O502  1  0.41060901  0.83223579  0.64345506  1
  O2-  O503  1  0.40970262  0.83595839  0.97589614  1
  O2-  O504  1  0.67673410  0.09511989  0.31083667  1
  O2-  O505  1  0.65982189  0.09063300  0.64011554  1
  O2-  O506  1  0.66319874  0.09033336  0.97591063  1
  O2-  O507  1  0.65969490  0.33038492  0.31478637  1
  O2-  O508  1  0.66507830  0.34034219  0.63014864  1
  O2-  O509  1  0.62972330  0.32339161  0.97250982  1
  O2-  O510  1  0.66542023  0.57457039  0.32036380  1
  O2-  O511  1  0.67719305  0.61039960  0.66515947  1
  O2-  O512  1  0.68087568  0.60702220  0.98516782  1
  O2-  O513  1  0.69270911  0.80202746  0.29568501  1
  O2-  O514  1  0.66505232  0.84002346  0.64110247  1
  O2-  O515  1  0.64399198  0.83333714  0.98304745  1
  O2-  O516  1  0.91939030  0.07097167  0.30457862  1
  O2-  O517  1  0.89338470  0.04854730  0.61742520  1
  O2-  O518  1  0.90191040  0.06101624  0.97264931  1
  O2-  O519  1  0.91752536  0.34336090  0.31212696  1
  O2-  O520  1  0.91793693  0.33930165  0.64216619  1
  O2-  O521  1  0.92568479  0.36079302  0.97271430  1
  O2-  O522  1  0.93201913  0.60199388  0.31277954  1
  O2-  O523  1  0.90384867  0.57363213  0.64276908  1
  O2-  O524  1  0.96753233  0.63147174  1.00526677  1
  O2-  O525  1  0.92451101  0.83045800  0.30765197  1
  O2-  O526  1  0.91811979  0.84048941  0.64968125  1
  O2-  O527  1  0.92254262  0.83648995  0.98314662  1
  O2-  O528  1  0.06969393  0.16612579  0.00623513  1
  O2-  O529  1  0.06620282  0.16530202  0.35565073  1
  O2-  O530  1  0.02461563  0.16713223  0.69279264  1
  O2-  O531  1  0.08978433  0.43070067  0.02135501  1
  O2-  O532  1  0.08146823  0.41722529  0.35300542  1
  O2-  O533  1  0.08219528  0.40482204  0.67691769  1
  O2-  O534  1  0.05542856  0.67158558  0.01924660  1
  O2-  O535  1  0.08603035  0.67129853  0.34423805  1
  O2-  O536  1  0.11290870  0.66966894  0.68850566  1
  O2-  O537  1  0.09064916  0.92392905  -0.05556264  1
  O2-  O538  1  0.09117551  0.91718858  0.34949326  1
  O2-  O539  1  0.07500362  0.92100961  0.71278357  1
  O2-  O540  1  0.33688122  0.17633322  0.00113229  1
  O2-  O541  1  0.32919657  0.17563395  0.36164330  1
  O2-  O542  1  0.34667889  0.18487530  0.68790670  1
  O2-  O543  1  0.30925195  0.39947652  0.03442687  1
  O2-  O544  1  0.36410560  0.49938156  0.35934187  1
  O2-  O545  1  0.38373672  0.44323974  0.69780458  1
  O2-  O546  1  0.33136344  0.67124700  0.01244534  1
  O2-  O547  1  0.33443314  0.66874366  0.36041176  1
  O2-  O548  1  0.33365189  0.67038198  0.69144550  1
  O2-  O549  1  0.32275747  0.91356538  0.01926630  1
  O2-  O550  1  0.33800799  0.90234674  0.35991730  1
  O2-  O551  1  0.33706428  0.92233285  0.68875295  1
  O2-  O552  1  0.57039848  0.16198703  0.01845489  1
  O2-  O553  1  0.59427827  0.16622523  0.36366230  1
  O2-  O554  1  0.57847986  0.17820927  0.67837972  1
  O2-  O555  1  0.57491750  0.41191758  0.03264692  1
  O2-  O556  1  0.58348558  0.41230760  0.35795732  1
  O2-  O557  1  0.60109317  0.45007425  0.62311359  1
  O2-  O558  1  0.57793054  0.66488150  0.01591286  1
  O2-  O559  1  0.57842132  0.65359514  0.36316229  1
  O2-  O560  1  0.56901092  0.68255215  0.69357378  1
  O2-  O561  1  0.57486838  0.92816338  0.01800736  1
  O2-  O562  1  0.58563184  0.91871813  0.35609836  1
  O2-  O563  1  0.57594985  0.91487534  0.68120455  1
  O2-  O564  1  0.86772212  0.19270828  0.02382635  1
  O2-  O565  1  0.82153329  0.19626129  0.35577908  1
  O2-  O566  1  0.83707423  0.17224900  0.68630944  1
  O2-  O567  1  0.91390606  0.47947209  0.04017369  1
  O2-  O568  1  0.84414626  0.44112279  0.33079655  1
  O2-  O569  1  0.82411129  0.41517792  0.67869505  1
  O2-  O570  1  0.82498814  0.67598560  0.02531542  1
  O2-  O571  1  0.83293953  0.66679276  0.35772865  1
  O2-  O572  1  0.84666292  0.67901183  0.68962682  1
  O2-  O573  1  0.81559835  0.90479520  0.01008268  1
  O2-  O574  1  0.83666822  0.90162839  0.34980720  1
  O2-  O575  1  0.82466778  0.90956659  0.69038477  1
