# generated using pymatgen
data_H2O
_symmetry_space_group_name_H-M   'P 1'
_cell_length_a   17.98948897
_cell_length_b   17.99412810
_cell_length_c   22.00968694
_cell_angle_alpha   89.97596817
_cell_angle_beta   89.98562668
_cell_angle_gamma   119.96979906
_symmetry_Int_Tables_number   1
_chemical_formula_structural   H2O
_chemical_formula_sum   'H384 O192'
_cell_volume   6172.00284980
_cell_formula_units_Z   192
loop_
 _symmetry_equiv_pos_site_id
 _symmetry_equiv_pos_as_xyz
  1  'x, y, z'
loop_
 _atom_type_symbol
 _atom_type_oxidation_number
  H+  1.0
  O2-  -2.0
loop_
 _atom_site_type_symbol
 _atom_site_label
 _atom_site_symmetry_multiplicity
 _atom_site_fract_x
 _atom_site_fract_y
 _atom_site_fract_z
 _atom_site_occupancy
  H+  H0  1  0.27138658  0.63951159  0.66627334  1
  H+  H1  1  0.88182640  0.52208701  0.49696578  1
  H+  H2  1  0.40281718  0.24287300  0.47165526  1
  H+  H3  1  0.75821767  0.86259325  0.33892699  1
  H+  H4  1  0.16086697  0.58089571  0.60356887  1
  H+  H5  1  0.13550204  0.51507582  0.83184749  1
  H+  H6  1  0.11744165  0.12404074  0.33700883  1
  H+  H7  1  0.86234297  0.89387982  0.48498314  1
  H+  H8  1  0.62170836  0.38033984  0.15485867  1
  H+  H9  1  0.27341355  0.62983729  1.03605917  1
  H+  H10  1  0.47986287  0.62357881  0.99347142  1
  H+  H11  1  0.97636878  0.36256146  0.66616367  1
  H+  H12  1  0.85573929  0.47534240  0.18130623  1
  H+  H13  1  0.23481435  0.39443855  -0.00705872  1
  H+  H14  1  0.35429323  0.46035604  0.29131360  1
  H+  H15  1  0.85866612  0.62797313  0.47831804  1
  H+  H16  1  0.12139742  0.64002101  0.82090693  1
  H+  H17  1  0.51768705  0.11393031  0.66606056  1
  H+  H18  1  0.48184496  0.36608890  0.15351285  1
  H+  H19  1  0.07591284  0.41134966  0.10540844  1
  H+  H20  1  0.22461293  0.61674563  0.50786773  1
  H+  H21  1  0.14125457  0.85821445  0.49433373  1
  H+  H22  1  0.87069998  0.39082362  0.33564933  1
  H+  H23  1  0.47804872  0.85423160  0.84715134  1
  H+  H24  1  0.61209690  0.98371689  0.49326606  1
  H+  H25  1  0.39781756  0.89274227  0.81667313  1
  H+  H26  1  0.13780749  0.26828947  0.32133290  1
  H+  H27  1  0.44899915  0.97000400  0.77131386  1
  H+  H28  1  0.37118681  0.40431027  0.01720229  1
  H+  H29  1  0.89675460  0.03932258  0.96636052  1
  H+  H30  1  0.11647476  0.89329223  -0.00154588  1
  H+  H31  1  0.86920194  0.84935229  0.34222759  1
  H+  H32  1  0.49902143  0.12473314  1.01499795  1
  H+  H33  1  0.02021669  0.38492406  0.16563748  1
  H+  H34  1  0.77177093  0.88827682  0.67019822  1
  H+  H35  1  0.16018249  0.85412531  0.32803313  1
  H+  H36  1  0.72082403  0.10284654  0.65666172  1
  H+  H37  1  0.85713313  0.72002323  0.64738716  1
  H+  H38  1  0.73271297  0.11382375  0.83916304  1
  H+  H39  1  0.16355444  0.33050534  0.26170555  1
  H+  H40  1  0.33076800  0.69428810  0.43354732  1
  H+  H41  1  0.71002563  0.60676942  0.31150515  1
  H+  H42  1  0.36320696  -0.03640801  0.15777288  1
  H+  H43  1  0.39648841  0.10418660  0.49274751  1
  H+  H44  1  0.59720467  0.61515255  0.14973043  1
  H+  H45  1  0.62726309  0.73329373  0.83746561  1
  H+  H46  1  0.03045870  0.80317078  0.13932993  1
  H+  H47  1  0.25650947  0.05342881  0.46227832  1
  H+  H48  1  0.61564850  0.97486561  0.83496191  1
  H+  H49  1  0.22879680  0.85403882  0.49489068  1
  H+  H50  1  0.52021676  0.88420109  0.67921884  1
  H+  H51  1  0.62655787  0.58409939  0.50040612  1
  H+  H52  1  0.76399083  0.63557054  0.14697164  1
  H+  H53  1  0.12930323  0.28011686  0.54052071  1
  H+  H54  1  0.53072817  0.88919956  0.49735332  1
  H+  H55  1  0.35941526  0.38865625  0.45854270  1
  H+  H56  1  0.86713080  0.71332958  0.84354377  1
  H+  H57  1  0.78375666  0.14434489  0.34212531  1
  H+  H58  1  0.71173110  0.36803205  0.49917636  1
  H+  H59  1  0.88800035  0.03294435  0.50244957  1
  H+  H60  1  0.22893226  0.10255059  0.31969665  1
  H+  H61  1  0.01302277  0.10276462  0.02390287  1
  H+  H62  1  0.91826391  0.04608129  0.18186845  1
  H+  H63  1  0.13006505  0.61033690  0.66253275  1
  H+  H64  1  0.15832651  0.06987045  0.23188361  1
  H+  H65  1  0.97163401  0.86068962  0.63762116  1
  H+  H66  1  0.86391236  0.13750718  0.17043181  1
  H+  H67  1  0.13162341  0.01374124  0.65390736  1
  H+  H68  1  0.15640180  0.38813041  0.68227923  1
  H+  H69  1  0.39502446  0.10420793  0.83996735  1
  H+  H70  1  0.36668746  0.00920603  0.99663313  1
  H+  H71  1  0.61485501  0.14004510  0.50048986  1
  H+  H72  1  0.63685271  0.51751599  0.16106903  1
  H+  H73  1  0.85099912  0.71022911  0.32911923  1
  H+  H74  1  0.60626080  0.73788309  0.18211361  1
  H+  H75  1  0.78387421  0.41191975  0.01773579  1
  H+  H76  1  0.64411490  0.86873279  0.84685131  1
  H+  H77  1  0.23879703  0.86103961  0.17312312  1
  H+  H78  1  1.00246269  0.65085992  0.98200196  1
  H+  H79  1  0.85578737  0.14300463  0.49459600  1
  H+  H80  1  0.63133118  0.85958797  0.67111505  1
  H+  H81  1  0.08116921  0.77247979  0.95411735  1
  H+  H82  1  0.35934514  0.21075720  0.31397451  1
  H+  H83  1  0.62812599  0.22437188  0.34478845  1
  H+  H84  1  0.35534116  0.63825819  0.47795942  1
  H+  H85  1  0.38681785  0.76938607  0.83447650  1
  H+  H86  1  0.49012605  0.63348291  0.84290882  1
  H+  H87  1  0.54332158  0.21367072  0.04607551  1
  H+  H88  1  0.66585803  0.27122176  0.99484716  1
  H+  H89  1  0.10052107  0.71698398  0.66816217  1
  H+  H90  1  0.28425444  0.15072770  1.01694170  1
  H+  H91  1  0.46405118  0.36016549  0.51515810  1
  H+  H92  1  0.08592699  0.42140444  0.87374958  1
  H+  H93  1  0.59807815  0.46185493  0.30761270  1
  H+  H94  1  0.14603161  0.77413497  0.82547709  1
  H+  H95  1  0.37318575  0.49267694  0.65027123  1
  H+  H96  1  0.11306964  0.12194725  0.50811349  1
  H+  H97  1  0.98100010  0.63406291  0.22112738  1
  H+  H98  1  0.52078299  0.12561270  0.17245276  1
  H+  H99  1  0.63661054  0.26566820  0.17528194  1
  H+  H100  1  0.52801884  0.38143617  0.99663558  1
  H+  H101  1  0.36312031  0.63663849  0.01792935  1
  H+  H102  1  -0.01335947  0.37416207  0.32483391  1
  H+  H103  1  0.88709895  0.36268099  0.66796785  1
  H+  H104  1  0.49300164  0.86864286  0.18025298  1
  H+  H105  1  0.10491474  0.87517378  0.65358565  1
  H+  H106  1  0.72622143  0.35695779  0.17391139  1
  H+  H107  1  0.63304308  0.77258141  0.51844216  1
  H+  H108  1  0.89018558  1.02139878  0.80203288  1
  H+  H109  1  0.14908530  0.37706243  0.83260636  1
  H+  H110  1  0.10985200  0.47266771  0.50911432  1
  H+  H111  1  0.45384980  0.57428199  0.24276130  1
  H+  H112  1  0.49899972  0.58480168  0.13934783  1
  H+  H113  1  0.32870892  0.91131524  0.71964951  1
  H+  H114  1  0.39327265  0.77483263  0.50926751  1
  H+  H115  1  0.61984329  0.60585328  0.31346210  1
  H+  H116  1  0.62610654  0.97246223  0.34423793  1
  H+  H117  1  0.97422194  0.37846264  0.83329396  1
  H+  H118  1  0.14387145  0.11568291  0.82822423  1
  H+  H119  1  0.64511395  0.64081179  0.68141491  1
  H+  H120  1  0.46392675  0.34347504  0.29666778  1
  H+  H121  1  0.09575103  0.17359728  0.76576866  1
  H+  H122  1  0.72303288  0.11786646  0.50594106  1
  H+  H123  1  0.67429684  0.77153328  0.51375293  1
  H+  H124  1  0.83923711  0.51245556  0.02762995  1
  H+  H125  1  0.25885951  0.39565269  0.66930195  1
  H+  H126  1  0.90801755  0.82315516  0.54432664  1
  H+  H127  1  0.73635652  0.14106680  -0.00210327  1
  H+  H128  1  0.11435739  0.38818010  0.33017952  1
  H+  H129  1  0.01870516  0.38632037  0.51004977  1
  H+  H130  1  0.45336948  0.59030375  0.48280765  1
  H+  H131  1  0.37386011  0.59484678  0.37034269  1
  H+  H132  1  0.29062997  0.41269073  0.83304958  1
  H+  H133  1  0.85680945  0.47087153  0.32466569  1
  H+  H134  1  0.36654507  0.14058937  1.00980154  1
  H+  H135  1  0.86661187  0.87961791  0.17744159  1
  H+  H136  1  0.85965038  0.59569691  0.29083278  1
  H+  H137  1  0.38198321  0.86184746  0.65509582  1
  H+  H138  1  0.27952535  0.64123263  0.81051029  1
  H+  H139  1  0.64904158  0.61118832  0.85446964  1
  H+  H140  1  0.11363570  0.48166787  0.68375376  1
  H+  H141  1  0.89805465  0.41757703  0.99240656  1
  H+  H142  1  0.87898921  0.27001071  0.17609157  1
  H+  H143  1  0.21424639  0.85046009  0.64983132  1
  H+  H144  1  0.66828095  0.57928652  0.56401963  1
  H+  H145  1  0.71310260  0.72171398  0.71551146  1
  H+  H146  1  0.83199734  0.17632854  0.43456858  1
  H+  H147  1  0.50673151  0.64637821  0.34453790  1
  H+  H148  1  0.15253384  0.28925181  0.83491495  1
  H+  H149  1  0.09939100  0.96794914  0.48728473  1
  H+  H150  1  0.61849143  0.64335680  0.01095768  1
  H+  H151  1  0.14020508  0.37117577  0.17654015  1
  H+  H152  1  0.00361103  0.14906577  0.49613484  1
  H+  H153  1  0.57500161  0.66278198  0.06704799  1
  H+  H154  1  0.24550776  0.07624433  0.43841488  1
  H+  H155  1  0.64840608  0.34974090  0.99272338  1
  H+  H156  1  0.52189504  0.12940691  0.49683752  1
  H+  H157  1  0.63120769  0.85423792  0.33440404  1
  H+  H158  1  0.84692565  0.09593359  1.02555074  1
  H+  H159  1  0.85451522  0.46425050  0.67258617  1
  H+  H160  1  0.41544636  0.75573358  0.19007268  1
  H+  H161  1  0.70390832  0.80733484  0.18486299  1
  H+  H162  1  0.80864969  0.91964764  0.15748493  1
  H+  H163  1  0.90814799  0.63617383  0.87871953  1
  H+  H164  1  0.39484107  0.59559105  0.29031144  1
  H+  H165  1  0.59765848  0.16817975  0.40543279  1
  H+  H166  1  0.40247446  0.01950260  0.84068307  1
  H+  H167  1  0.39648729  0.27307325  0.64825499  1
  H+  H168  1  0.67060664  0.91900728  0.52162847  1
  H+  H169  1  0.12587158  0.36807031  0.53534557  1
  H+  H170  1  0.39822031  0.28647197  1.00940737  1
  H+  H171  1  -0.03459349  0.60079866  0.65306002  1
  H+  H172  1  0.39122067  0.53510169  -0.00686540  1
  H+  H173  1  0.33250133  0.86695814  0.00182105  1
  H+  H174  1  0.87719409  1.02069259  0.65677819  1
  H+  H175  1  0.37537429  0.34419303  0.29740110  1
  H+  H176  1  0.59048123  0.45570605  0.54438118  1
  H+  H177  1  0.12627550  0.51536007  1.02219596  1
  H+  H178  1  0.38723645  0.62583290  0.19042480  1
  H+  H179  1  0.52546973  0.38479559  0.68603164  1
  H+  H180  1  0.76760018  0.62245197  0.48009919  1
  H+  H181  1  0.61126574  0.97040759  0.67673501  1
  H+  H182  1  0.28722803  0.84032280  0.33252573  1
  H+  H183  1  0.09810722  0.62391061  1.04164744  1
  H+  H184  1  0.91958833  0.33732852  0.26923013  1
  H+  H185  1  0.13646022  0.11698952  0.00767190  1
  H+  H186  1  0.12547751  -0.01507411  1.01264128  1
  H+  H187  1  0.03495618  0.87508611  0.33371422  1
  H+  H188  1  0.19604568  0.11546028  0.50504304  1
  H+  H189  1  0.62801633  0.27492639  0.50236659  1
  H+  H190  1  0.63000512  0.25908289  0.84459409  1
  H+  H191  1  0.31215758  0.15815162  0.82000766  1
  H+  H192  1  0.65065813  0.81121217  0.27518273  1
  H+  H193  1  0.78399325  0.62243274  0.85791817  1
  H+  H194  1  0.72049309  0.10332615  0.18109071  1
  H+  H195  1  0.12320332  0.48028485  0.32462279  1
  H+  H196  1  0.38442451  0.77371091  0.65707117  1
  H+  H197  1  0.99119210  0.86975870  0.98271329  1
  H+  H198  1  0.41464712  0.22377711  0.80693806  1
  H+  H199  1  0.38352407  0.61569263  0.63613538  1
  H+  H200  1  0.38542431  0.39500246  0.85949449  1
  H+  H201  1  0.33840484  0.41954052  0.39637394  1
  H+  H202  1  0.88125415  0.19372347  0.01708478  1
  H+  H203  1  0.11043977  0.71819032  0.48367699  1
  H+  H204  1  0.94218626  0.09075436  0.75221518  1
  H+  H205  1  0.36836536  0.87739337  0.49475275  1
  H+  H206  1  0.11017247  0.39321232  1.00371754  1
  H+  H207  1  0.52911476  0.13039813  0.84090627  1
  H+  H208  1  0.87720209  0.76046319  0.48621274  1
  H+  H209  1  0.63409192  0.10852375  0.18339780  1
  H+  H210  1  0.24632776  0.87145559  0.99998508  1
  H+  H211  1  0.11621731  1.01320936  0.17326047  1
  H+  H212  1  0.82790636  0.41428616  0.73726890  1
  H+  H213  1  0.14457428  0.61447336  0.31956179  1
  H+  H214  1  0.65066079  0.11330203  0.33786372  1
  H+  H215  1  0.58262555  0.95023781  -0.00129570  1
  H+  H216  1  0.92262418  0.81944157  0.38247934  1
  H+  H217  1  0.87030140  0.23816335  0.34239541  1
  H+  H218  1  0.03554802  0.63458824  0.32428520  1
  H+  H219  1  0.38371775  0.00833976  0.49625799  1
  H+  H220  1  0.85838105  0.63196319  0.65506467  1
  H+  H221  1  0.04071416  0.14820869  0.82341789  1
  H+  H222  1  0.88278134  0.36145589  0.17544386  1
  H+  H223  1  0.86580249  0.32028363  0.98846254  1
  H+  H224  1  0.58786879  0.67595441  0.48367770  1
  H+  H225  1  0.26401902  0.10523839  0.16020947  1
  H+  H226  1  1.01811387  0.39305606  1.00614658  1
  H+  H227  1  0.60903879  0.42977649  -0.04708700  1
  H+  H228  1  0.37088433  0.40121657  0.65709503  1
  H+  H229  1  0.37175788  0.07407362  0.31979731  1
  H+  H230  1  0.87064316  0.97484127  0.02170465  1
  H+  H231  1  0.77159430  0.85229692  0.01534840  1
  H+  H232  1  0.63713268  0.51583109  0.66630562  1
  H+  H233  1  0.11434178  0.71717881  1.04162908  1
  H+  H234  1  0.72883059  0.36112907  0.32613327  1
  H+  H235  1  0.08911746  0.73735423  0.17395567  1
  H+  H236  1  0.38009559  -0.01107536  0.32185788  1
  H+  H237  1  0.48284331  0.34403814  0.84140818  1
  H+  H238  1  0.63934637  0.52859400  1.00924634  1
  H+  H239  1  0.36200635  0.50977063  0.47439064  1
  H+  H240  1  0.98589027  0.88312853  0.18770534  1
  H+  H241  1  0.38041010  0.10289832  0.65052601  1
  H+  H242  1  0.65094895  0.86212435  1.01021600  1
  H+  H243  1  0.86649097  0.88096138  0.82099760  1
  H+  H244  1  0.86864260  0.14551348  0.80730422  1
  H+  H245  1  0.26964497  0.37714935  0.31440763  1
  H+  H246  1  0.78869592  0.91865733  0.49925902  1
  H+  H247  1  0.62707318  0.09481147  0.65774700  1
  H+  H248  1  0.58380559  0.91538351  0.77530207  1
  H+  H249  1  0.13327926  0.61046559  0.50529542  1
  H+  H250  1  0.86089850  0.66488749  0.16045302  1
  H+  H251  1  0.12108447  0.53597220  0.16500320  1
  H+  H252  1  0.89457169  0.84630485  0.98682839  1
  H+  H253  1  0.87773526  0.27811932  0.50968965  1
  H+  H254  1  0.11552557  0.88362773  0.80633636  1
  H+  H255  1  0.77980444  0.88657993  0.82613498  1
  H+  H256  1  0.15183398  0.86617725  0.18160730  1
  H+  H257  1  0.36685821  0.75815398  1.00140566  1
  H+  H258  1  0.34914207  0.96819105  0.66006247  1
  H+  H259  1  0.35223519  0.29563411  0.87400422  1
  H+  H260  1  0.92629661  0.83481992  0.88981604  1
  H+  H261  1  0.73413624  0.60442229  1.00629145  1
  H+  H262  1  0.14126640  1.01154195  0.32225628  1
  H+  H263  1  0.97235212  0.61009056  0.49685481  1
  H+  H264  1  0.85968822  0.22647736  0.66646234  1
  H+  H265  1  0.86584703  0.23272841  0.82113904  1
  H+  H266  1  0.12096955  0.14434693  0.16301958  1
  H+  H267  1  0.75499518  0.38267770  0.82387236  1
  H+  H268  1  0.59847085  0.97752549  0.16898567  1
  H+  H269  1  0.84397835  0.38466742  0.82535152  1
  H+  H270  1  0.37969637  0.50346329  0.83804885  1
  H+  H271  1  0.01383112  0.12684042  0.67253815  1
  H+  H272  1  0.98676049  0.12688394  0.32448843  1
  H+  H273  1  0.27360078  0.13261782  0.66539972  1
  H+  H274  1  0.63262520  0.34135000  0.68276484  1
  H+  H275  1  -0.02537131  0.85529450  0.82552651  1
  H+  H276  1  0.87757601  0.64474510  -0.00282025  1
  H+  H277  1  0.48368647  0.88399884  1.01100286  1
  H+  H278  1  0.11422728  0.97111342  0.80161578  1
  H+  H279  1  0.64439426  0.13292471  -0.00276847  1
  H+  H280  1  0.37545245  0.48992648  0.17505616  1
  H+  H281  1  0.64757970  0.77847213  0.66665171  1
  H+  H282  1  0.23993414  0.63864603  0.31317682  1
  H+  H283  1  0.14940611  0.28784448  0.17188337  1
  H+  H284  1  0.37213488  0.64729905  0.81802817  1
  H+  H285  1  0.60512708  0.37689949  0.31686277  1
  H+  H286  1  0.59085214  0.36840007  0.53674316  1
  H+  H287  1  0.61839884  0.13208911  0.83395748  1
  H+  H288  1  0.70085163  0.88903890  0.58016406  1
  H+  H289  1  0.18409851  0.82529339  0.26613608  1
  H+  H290  1  0.88246066  0.09178941  0.90132480  1
  H+  H291  1  0.67288313  0.07960961  0.27697965  1
  H+  H292  1  0.63519736  0.76725743  1.00123159  1
  H+  H293  1  0.66432042  0.32439847  0.90062956  1
  H+  H294  1  0.59109915  0.91301067  0.40212023  1
  H+  H295  1  0.03874267  0.15592952  0.16463629  1
  H+  H296  1  0.93313820  0.10741037  0.23975378  1
  H+  H297  1  0.01661661  0.87529327  0.48228556  1
  H+  H298  1  0.47024175  0.22350872  0.44037575  1
  H+  H299  1  0.87663075  0.11106814  0.65851404  1
  H+  H300  1  0.90845786  0.08564760  0.56551679  1
  H+  H301  1  0.19347700  0.60637581  0.87689753  1
  H+  H302  1  0.40791279  0.06822858  0.59249131  1
  H+  H303  1  0.08404061  0.16129142  0.07237498  1
  H+  H304  1  0.55312140  0.92286996  0.10722081  1
  H+  H305  1  0.60724547  0.67389026  0.77955164  1
  H+  H306  1  0.72685896  0.60258400  0.65260585  1
  H+  H307  1  0.35531273  0.45193148  0.07096138  1
  H+  H308  1  0.35233133  0.16739558  0.37794854  1
  H+  H309  1  0.03536169  0.66964245  0.12362963  1
  H+  H310  1  0.83137523  0.41831885  0.42993782  1
  H+  H311  1  0.15980099  0.60149018  0.21665123  1
  H+  H312  1  0.06568429  0.88623894  0.09697797  1
  H+  H313  1  0.57205844  0.44043384  0.44429877  1
  H+  H314  1  0.39865872  0.57841546  0.57444514  1
  H+  H315  1  0.82340992  0.91023594  0.39396237  1
  H+  H316  1  0.41164779  0.32923498  0.20546977  1
  H+  H317  1  0.42632346  0.60799060  0.90049321  1
  H+  H318  1  0.08532479  0.42652119  0.74521816  1
  H+  H319  1  0.90717418  0.33621233  0.56986020  1
  H+  H320  1  0.57504532  0.43938854  0.41016563  1
  H+  H321  1  0.07144213  0.66241561  0.72997830  1
  H+  H322  1  0.56560812  0.63158965  0.41934997  1
  H+  H323  1  0.81813849  0.63959209  0.37931127  1
  H+  H324  1  0.15677152  0.08356117  0.60210364  1
  H+  H325  1  0.39295512  0.81155031  0.93726656  1
  H+  H326  1  0.18236171  0.36370532  0.93047356  1
  H+  H327  1  0.90959994  0.57209900  0.59207632  1
  H+  H328  1  0.68129922  0.10022369  0.90114886  1
  H+  H329  1  0.42363597  0.83538917  0.56874200  1
  H+  H330  1  0.65759323  0.57961960  0.21882870  1
  H+  H331  1  0.56791009  0.39196055  0.74831391  1
  H+  H332  1  0.37189803  0.31602087  0.54212445  1
  H+  H333  1  0.94092805  0.87181632  0.25196835  1
  H+  H334  1  0.47210750  0.34788361  0.60699864  1
  H+  H335  1  0.93060746  0.11997490  0.90360961  1
  H+  H336  1  0.40700948  0.07063744  0.93884457  1
  H+  H337  1  0.41529570  0.05722930  0.23290067  1
  H+  H338  1  0.34199722  0.16272793  0.71978275  1
  H+  H339  1  0.33304188  0.14872940  0.10726055  1
  H+  H340  1  0.37604767  0.69824782  0.34171760  1
  H+  H341  1  0.90127004  0.13582002  0.32595945  1
  H+  H342  1  0.60589644  0.19840042  0.68127331  1
  H+  H343  1  0.08007292  0.65496093  0.42661152  1
  H+  H344  1  0.66934129  0.32601670  0.26715936  1
  H+  H345  1  0.15828361  0.83844981  0.91457142  1
  H+  H346  1  0.41049606  0.42844462  0.15103339  1
  H+  H347  1  0.17247775  0.34963335  0.61735815  1
  H+  H348  1  0.09779120  0.11718724  0.67757337  1
  H+  H349  1  0.82591836  0.15526000  0.11098157  1
  H+  H350  1  0.19053272  0.11552689  0.95034226  1
  H+  H351  1  0.91657024  0.35332823  0.89207215  1
  H+  H352  1  0.88376726  0.86213987  0.64126555  1
  H+  H353  1  0.14401521  0.04944827  0.87558790  1
  H+  H354  1  0.07323660  -0.09893791  0.71356083  1
  H+  H355  1  0.12386046  0.72004724  0.33575278  1
  H+  H356  1  0.83601385  0.91147848  0.72590177  1
  H+  H357  1  0.85536104  0.38918073  0.49237197  1
  H+  H358  1  0.15719482  0.58901849  0.97341279  1
  H+  H359  1  0.42197326  0.82319802  0.24592440  1
  H+  H360  1  0.33904133  0.66972046  0.72068416  1
  H+  H361  1  0.41769689  0.35030708  0.95261079  1
  H+  H362  1  0.83436544  0.63301742  0.06361416  1
  H+  H363  1  0.67150676  0.58669384  0.91742909  1
  H+  H364  1  0.38621074  0.09028720  0.17393386  1
  H+  H365  1  0.66455474  0.07987789  0.56631950  1
  H+  H366  1  0.82616568  0.16978049  0.72616688  1
  H+  H367  1  0.15903333  0.81851699  0.58873175  1
  H+  H368  1  0.67655843  0.84137806  0.90618880  1
  H+  H369  1  0.23350042  0.86513108  0.82315766  1
  H+  H370  1  0.36752425  0.65882953  0.12611020  1
  H+  H371  1  0.31890039  0.90684236  0.09843589  1
  H+  H372  1  0.55939578  0.32093260  0.83532983  1
  H+  H373  1  0.84100479  0.44290585  0.11211960  1
  H+  H374  1  0.72007565  0.34123617  0.67696557  1
  H+  H375  1  0.09120946  0.90811900  0.39287979  1
  H+  H376  1  0.34167643  0.89262864  0.42968383  1
  H+  H377  1  0.60390050  0.72001884  0.34120336  1
  H+  H378  1  0.57815759  0.15558938  0.11309612  1
  H+  H379  1  0.04121392  0.65175322  0.84095486  1
  H+  H380  1  0.82688664  0.86552859  0.07591699  1
  H+  H381  1  0.60464779  0.41255748  0.09154740  1
  H+  H382  1  0.08798566  0.15450631  0.39624342  1
  H+  H383  1  0.06959854  0.23235853  0.45788145  1
  O2-  O384  1  0.09728187  0.17990514  0.14665603  1
  O2-  O385  1  0.06614649  0.18429889  0.48081076  1
  O2-  O386  1  0.10199508  0.17828079  0.81169233  1
  O2-  O387  1  0.08024057  0.41632759  0.15027097  1
  O2-  O388  1  0.08106395  0.40968243  0.50299173  1
  O2-  O389  1  0.09135665  0.43612310  0.83066444  1
  O2-  O390  1  0.02862442  0.69795443  0.16017454  1
  O2-  O391  1  0.07814055  0.65639263  0.47215917  1
  O2-  O392  1  0.09026877  0.67306718  0.81213045  1
  O2-  O393  1  0.05261687  0.86583550  0.14007432  1
  O2-  O394  1  0.07900030  0.91013252  0.47059862  1
  O2-  O395  1  0.08121798  0.90944307  0.79109898  1
  O2-  O396  1  0.32406263  0.12488555  0.14877157  1
  O2-  O397  1  0.40949243  0.19677766  0.45074121  1
  O2-  O398  1  0.36327454  0.16508407  0.79897201  1
  O2-  O399  1  0.40360031  0.48044183  0.13991963  1
  O2-  O400  1  0.33141981  0.41898388  0.44133220  1
  O2-  O401  1  0.35389283  0.44127198  0.82757318  1
  O2-  O402  1  0.40232336  0.67581079  0.16344298  1
  O2-  O403  1  0.33013237  0.67709048  0.47626328  1
  O2-  O404  1  0.34225826  0.67588524  0.79887635  1
  O2-  O405  1  0.32476922  0.90378511  0.14280985  1
  O2-  O406  1  0.33578285  0.90217720  0.47335945  1
  O2-  O407  1  0.39360043  0.93848916  0.79198143  1
  O2-  O408  1  0.58332259  0.15997771  0.15787110  1
  O2-  O409  1  0.58248163  0.16822288  0.48459127  1
  O2-  O410  1  0.58819338  0.16418591  0.82498982  1
  O2-  O411  1  0.59682939  0.41398599  0.13528972  1
  O2-  O412  1  0.55352039  0.39320583  0.55116615  1
  O2-  O413  1  0.50833709  0.31825600  0.81450832  1
  O2-  O414  1  0.55737641  0.63671837  0.13754890  1
  O2-  O415  1  0.56051244  0.61901354  0.46501195  1
  O2-  O416  1  0.59565756  0.67219257  0.82391822  1
  O2-  O417  1  0.56131504  0.91821759  0.15157715  1
  O2-  O418  1  0.59076765  0.92242482  0.48182430  1
  O2-  O419  1  0.58413735  0.91377753  0.82091529  1
  O2-  O420  1  0.82680815  0.16092054  0.15582651  1
  O2-  O421  1  0.82689685  0.17467717  0.48023405  1
  O2-  O422  1  0.83271164  0.17325245  0.80474959  1
  O2-  O423  1  0.83425618  0.42426821  0.15573138  1
  O2-  O424  1  0.82747984  0.42061477  0.47495216  1
  O2-  O425  1  0.81557353  0.41567407  0.80979764  1
  O2-  O426  1  0.82368275  0.66866622  0.13005504  1
  O2-  O427  1  0.82520556  0.65388172  0.46017050  1
  O2-  O428  1  0.84648687  0.65105436  0.84742616  1
  O2-  O429  1  0.81495203  0.86942470  0.15174049  1
  O2-  O430  1  0.84057175  0.93239703  0.47283608  1
  O2-  O431  1  0.83645447  0.91176566  0.80518555  1
  O2-  O432  1  0.15490361  0.07204373  0.18623397  1
  O2-  O433  1  0.13772520  0.08602324  0.52111949  1
  O2-  O434  1  0.17187296  0.08040931  0.83848392  1
  O2-  O435  1  0.17382627  0.34465844  0.19179265  1
  O2-  O436  1  0.15800773  0.33972227  0.55454789  1
  O2-  O437  1  0.18178045  0.35002708  0.84869528  1
  O2-  O438  1  0.13913750  0.59618640  0.17447706  1
  O2-  O439  1  0.16556087  0.58509271  0.52514485  1
  O2-  O440  1  0.17813151  0.59319828  0.83432092  1
  O2-  O441  1  0.17885821  0.83282194  0.19432333  1
  O2-  O442  1  0.16778890  0.82496399  0.50950834  1
  O2-  O443  1  0.17382094  0.83783026  0.83619617  1
  O2-  O444  1  0.42291598  0.06530515  0.18719544  1
  O2-  O445  1  0.41289356  0.06678297  0.51518318  1
  O2-  O446  1  0.41910528  0.07343104  0.86330908  1
  O2-  O447  1  0.42161983  0.34901132  0.16229396  1
  O2-  O448  1  0.40102757  0.32748792  0.50277963  1
  O2-  O449  1  0.40278471  0.35166005  0.88059939  1
  O2-  O450  1  0.39338197  0.55718822  0.24668579  1
  O2-  O451  1  0.39207860  0.56994237  0.49238909  1
  O2-  O452  1  0.42842523  0.60850770  0.85505399  1
  O2-  O453  1  0.42889001  0.81787796  0.20197612  1
  O2-  O454  1  0.42480099  0.83601115  0.52314779  1
  O2-  O455  1  0.41520409  0.82677320  0.85620032  1
  O2-  O456  1  0.66048881  0.07355535  0.19682687  1
  O2-  O457  1  0.66241295  0.08600806  0.52097223  1
  O2-  O458  1  0.67471359  0.08045181  0.85823656  1
  O2-  O459  1  0.66507699  0.32784523  0.18712199  1
  O2-  O460  1  0.64946469  0.33730575  0.50753505  1
  O2-  O461  1  0.64984570  0.32115986  0.85718342  1
  O2-  O462  1  0.66115802  0.57884957  0.17316284  1
  O2-  O463  1  0.66662124  0.56797110  0.51956132  1
  O2-  O464  1  0.67458301  0.57909674  0.87315491  1
  O2-  O465  1  0.64713627  0.79380453  0.20020109  1
  O2-  O466  1  0.72220872  0.92614870  0.54386267  1
  O2-  O467  1  0.67766423  0.84126310  0.86110573  1
  O2-  O468  1  0.93431663  0.10499774  0.19153316  1
  O2-  O469  1  0.91213955  0.09206493  0.52019778  1
  O2-  O470  1  0.92229852  0.08491096  0.79422302  1
  O2-  O471  1  0.91249177  0.33083054  0.18985710  1
  O2-  O472  1  0.90691945  0.33873778  0.52457863  1
  O2-  O473  1  0.91412222  0.34142443  0.84806192  1
  O2-  O474  1  0.96629012  0.60281831  0.26138409  1
  O2-  O475  1  0.91184631  0.58339325  0.51179884  1
  O2-  O476  1  0.95822987  0.62684715  0.89795744  1
  O2-  O477  1  0.95191279  0.90160835  0.21294647  1
  O2-  O478  1  0.91039610  0.82233299  0.49871750  1
  O2-  O479  1  0.91684576  0.82888086  0.84425238  1
  O2-  O480  1  0.16630268  0.07189444  0.30761651  1
  O2-  O481  1  0.16279421  0.07736460  0.64627737  1
  O2-  O482  1  0.17881924  0.09700824  0.99254525  1
  O2-  O483  1  0.16495368  0.32878107  0.30832047  1
  O2-  O484  1  0.18812767  0.36001582  0.66472937  1
  O2-  O485  1  0.17735055  0.37180952  0.97448412  1
  O2-  O486  1  0.18188969  0.59450515  0.30067882  1
  O2-  O487  1  0.16209761  0.58095106  0.64915909  1
  O2-  O488  1  0.15829018  0.58064672  1.01700349  1
  O2-  O489  1  0.18529326  0.82009456  0.31207035  1
  O2-  O490  1  0.15406085  0.81902265  0.63397953  1
  O2-  O491  1  0.13910986  0.82516217  0.95766281  1
  O2-  O492  1  0.40376724  0.04665492  0.30455878  1
  O2-  O493  1  0.40537220  0.06650717  0.63790532  1
  O2-  O494  1  0.40279455  0.07071125  0.98432987  1
  O2-  O495  1  0.40182210  0.30946075  0.28372077  1
  O2-  O496  1  0.42580407  0.33504572  0.63718871  1
  O2-  O497  1  0.42973063  0.34849542  0.99730388  1
  O2-  O498  1  0.40675545  0.63736206  0.33919199  1
  O2-  O499  1  0.40991911  0.58347249  0.61883001  1
  O2-  O500  1  0.41935701  0.59643032  0.97873951  1
  O2-  O501  1  0.38664324  0.81689879  0.32834009  1
  O2-  O502  1  0.41862762  0.83628646  0.64539932  1
  O2-  O503  1  0.38744185  0.81589054  0.98191647  1
  O2-  O504  1  0.68127321  0.08255992  0.32171247  1
  O2-  O505  1  0.66079788  0.06623783  0.64212942  1
  O2-  O506  1  0.69605000  0.15038834  0.97291071  1
  O2-  O507  1  0.66787274  0.32798062  0.31228862  1
  O2-  O508  1  0.65725649  0.30551929  0.67047834  1
  O2-  O509  1  0.69103943  0.33160723  0.98271270  1
  O2-  O510  1  0.65083283  0.57885359  0.29448497  1
  O2-  O511  1  0.66233380  0.57152237  0.64444519  1
  O2-  O512  1  0.67329293  0.58990529  0.99883393  1
  O2-  O513  1  0.65603625  0.81650084  0.32057098  1
  O2-  O514  1  0.66772879  0.83788667  0.65252524  1
  O2-  O515  1  0.67299043  0.83011729  0.98822267  1
  O2-  O516  1  0.92998975  0.10716552  0.30547730  1
  O2-  O517  1  0.90936629  0.08245855  0.64414098  1
  O2-  O518  1  0.89491879  0.03818833  1.01079128  1
  O2-  O519  1  0.92250232  0.34165938  0.31438712  1
  O2-  O520  1  0.91740038  0.33337497  0.64936459  1
  O2-  O521  1  0.91358503  0.37543164  0.97564709  1
  O2-  O522  1  0.87297064  0.55621676  0.26618213  1
  O2-  O523  1  0.90555110  0.56953585  0.63737020  1
  O2-  O524  1  0.98145620  0.67997166  0.95363620  1
  O2-  O525  1  0.90945859  0.82099771  0.33956737  1
  O2-  O526  1  0.91173630  0.83266636  0.62139372  1
  O2-  O527  1  0.93439392  0.83431468  0.96346389  1
  O2-  O528  1  0.07466479  0.14466613  0.02825143  1
  O2-  O529  1  0.08998619  0.15747215  0.35172365  1
  O2-  O530  1  0.06799607  0.14587900  0.69550201  1
  O2-  O531  1  0.07457086  0.41472723  0.02576306  1
  O2-  O532  1  0.08583727  0.42164861  0.34044087  1
  O2-  O533  1  0.08779261  0.42192275  0.70073834  1
  O2-  O534  1  0.06780228  0.65787044  0.04531061  1
  O2-  O535  1  0.08741756  0.65912212  0.35018687  1
  O2-  O536  1  0.07079345  0.65745327  0.68498399  1
  O2-  O537  1  0.09182048  0.92284515  0.02260298  1
  O2-  O538  1  0.09520153  0.90595470  0.34755518  1
  O2-  O539  1  0.07477823  0.90612931  0.66821670  1
  O2-  O540  1  0.34655396  0.17878057  0.02720147  1
  O2-  O541  1  0.33275538  0.15333628  0.33529546  1
  O2-  O542  1  0.33635902  0.16339550  0.67481558  1
  O2-  O543  1  0.34237557  0.43772068  0.02663483  1
  O2-  O544  1  0.33439213  0.40895955  0.31778614  1
  O2-  O545  1  0.34516274  0.43483217  0.67217199  1
  O2-  O546  1  0.33644443  0.66536627  0.04102697  1
  O2-  O547  1  0.33897656  0.72976395  0.35150142  1
  O2-  O548  1  0.33426526  0.67070748  0.67541044  1
  O2-  O549  1  0.30559140  0.90123227  0.01556157  1
  O2-  O550  1  0.34758352  0.87085349  0.34928962  1
  O2-  O551  1  0.31793356  0.90661495  0.67551929  1
  O2-  O552  1  0.55526741  0.16833776  0.03443777  1
  O2-  O553  1  0.60582874  0.16559810  0.36107763  1
  O2-  O554  1  0.57485319  0.13417638  0.68397627  1
  O2-  O555  1  0.59377376  0.40776439  -0.00558103  1
  O2-  O556  1  0.56510789  0.39999934  0.31688112  1
  O2-  O557  1  0.58243010  0.41113904  0.70558236  1
  O2-  O558  1  0.58441878  0.67162711  0.02136666  1
  O2-  O559  1  0.56635391  0.65580087  0.34985892  1
  O2-  O560  1  0.65205110  0.69211536  0.70552872  1
  O2-  O561  1  0.54007452  0.92447851  0.03071315  1
  O2-  O562  1  0.59376060  0.91127002  0.35704072  1
  O2-  O563  1  0.57940327  0.91200537  0.69672780  1
  O2-  O564  1  0.83078075  0.14169540  0.03141188  1
  O2-  O565  1  0.84414299  0.17817147  0.35848887  1
  O2-  O566  1  0.82773911  0.16540148  0.68099801  1
  O2-  O567  1  0.83982090  0.45768276  0.03422839  1
  O2-  O568  1  0.83586639  0.41812305  0.34899577  1
  O2-  O569  1  0.83235190  0.40700966  0.69177062  1
  O2-  O570  1  0.82803196  0.60530844  0.02252586  1
  O2-  O571  1  0.81864850  0.64638003  0.33414015  1
  O2-  O572  1  0.82619639  0.66202593  0.66559499  1
  O2-  O573  1  0.83133617  0.87558466  0.03092871  1
  O2-  O574  1  0.82054264  0.89195135  0.35098579  1
  O2-  O575  1  0.83450610  0.91559678  0.68068184  1
