# generated using pymatgen
data_H2O
_symmetry_space_group_name_H-M   'P 1'
_cell_length_a   17.99539380
_cell_length_b   18.00064915
_cell_length_c   22.01467535
_cell_angle_alpha   90.00451153
_cell_angle_beta   90.00483206
_cell_angle_gamma   120.00656783
_symmetry_Int_Tables_number   1
_chemical_formula_structural   H2O
_chemical_formula_sum   'H384 O192'
_cell_volume   6175.38000386
_cell_formula_units_Z   192
loop_
 _symmetry_equiv_pos_site_id
 _symmetry_equiv_pos_as_xyz
  1  'x, y, z'
loop_
 _atom_type_symbol
 _atom_type_oxidation_number
  H+  1.0
  O2-  -2.0
loop_
 _atom_site_type_symbol
 _atom_site_label
 _atom_site_symmetry_multiplicity
 _atom_site_fract_x
 _atom_site_fract_y
 _atom_site_fract_z
 _atom_site_occupancy
  H+  H0  1  0.76886971  0.87102009  0.15569448  1
  H+  H1  1  0.85710109  0.63569732  0.34365795  1
  H+  H2  1  0.42947305  0.82014543  0.24507378  1
  H+  H3  1  0.66115047  0.34333219  0.59499319  1
  H+  H4  1  0.88075194  0.11278310  0.33303846  1
  H+  H5  1  0.13035422  0.26953873  0.83264022  1
  H+  H6  1  0.01972754  0.61576268  0.16639717  1
  H+  H7  1  0.20305014  0.09992509  0.32931629  1
  H+  H8  1  0.86642401  0.38780140  0.49906760  1
  H+  H9  1  0.37616690  0.68837893  0.49584400  1
  H+  H10  1  0.36223886  0.86777598  0.34937849  1
  H+  H11  1  0.14432089  0.86992854  0.33661098  1
  H+  H12  1  0.39758834  0.91303645  0.50993561  1
  H+  H13  1  0.87836375  0.77084539  0.50143438  1
  H+  H14  1  0.70333442  0.09376396  0.16692107  1
  H+  H15  1  0.93251952  0.30471587  0.18365042  1
  H+  H16  1  0.51357284  0.13948835  0.00244589  1
  H+  H17  1  0.84593289  -0.00182642  0.17769236  1
  H+  H18  1  0.90057999  0.77313957  0.84989814  1
  H+  H19  1  0.16801019  0.82833289  0.95629699  1
  H+  H20  1  0.87924972  0.02001210  0.82961207  1
  H+  H21  1  0.14738145  0.25260806  0.46133579  1
  H+  H22  1  0.35801713  0.64033601  0.81390829  1
  H+  H23  1  0.61455872  0.24126864  0.49281351  1
  H+  H24  1  0.13553917  1.01597697  0.00412232  1
  H+  H25  1  0.32514008  0.51789589  0.19711064  1
  H+  H26  1  0.91827954  0.58442763  0.24189197  1
  H+  H27  1  0.61428251  0.87614971  0.16443319  1
  H+  H28  1  0.62488379  0.39047048  0.00596306  1
  H+  H29  1  0.86901759  0.89067754  0.34110278  1
  H+  H30  1  0.85559322  0.63433931  0.49622929  1
  H+  H31  1  0.01681814  0.87689923  0.34062085  1
  H+  H32  1  0.15265281  0.50855745  0.32273041  1
  H+  H33  1  0.82981961  0.90581742  0.09738368  1
  H+  H34  1  0.26877889  0.13825604  0.84110274  1
  H+  H35  1  0.40157373  0.60796137  0.32878437  1
  H+  H36  1  0.60415762  0.62628703  1.01811294  1
  H+  H37  1  0.60921104  0.76928684  0.49163830  1
  H+  H38  1  0.26150416  0.37955296  0.82204852  1
  H+  H39  1  0.63911723  0.31266158  0.25036567  1
  H+  H40  1  0.13066153  0.10946891  0.85009631  1
  H+  H41  1  0.88792026  0.85966335  0.17405713  1
  H+  H42  1  0.48713234  0.85416438  0.33135774  1
  H+  H43  1  0.88051319  0.77000189  0.32989796  1
  H+  H44  1  0.89679997  0.62214879  0.66791080  1
  H+  H45  1  0.43096272  0.38783485  0.33790344  1
  H+  H46  1  0.64822656  0.86550416  0.32112384  1
  H+  H47  1  0.89014437  0.79102765  0.65682137  1
  H+  H48  1  0.75073162  0.87334520  0.48227427  1
  H+  H49  1  0.11406296  0.47832240  -0.00199736  1
  H+  H50  1  0.39098368  0.53111587  0.98691329  1
  H+  H51  1  0.14338468  0.61419960  0.16890040  1
  H+  H52  1  0.33648343  0.92334197  0.72527652  1
  H+  H53  1  0.37251508  0.45716251  0.49623953  1
  H+  H54  1  0.88100016  0.51964385  0.84952360  1
  H+  H55  1  0.87248842  0.85721579  0.50042479  1
  H+  H56  1  0.34934347  0.91625240  0.45107104  1
  H+  H57  1  0.76874873  0.13787535  0.34260953  1
  H+  H58  1  0.08738117  0.23850421  0.20182416  1
  H+  H59  1  0.53163603  0.38804954  0.15972261  1
  H+  H60  1  0.77634395  0.38137342  0.18587437  1
  H+  H61  1  0.72467282  0.32730731  0.97020574  1
  H+  H62  1  0.43700617  0.81737361  0.68583898  1
  H+  H63  1  0.61840206  0.80557661  0.70195391  1
  H+  H64  1  0.16343820  0.13674270  0.12615306  1
  H+  H65  1  0.13709337  0.85795226  1.01345493  1
  H+  H66  1  0.46777708  0.35952594  0.66546355  1
  H+  H67  1  0.13894659  0.23299877  0.65769293  1
  H+  H68  1  0.14441164  0.86508895  0.18104678  1
  H+  H69  1  -0.00030528  0.11014778  0.45613759  1
  H+  H70  1  0.11566785  0.74764787  0.35306402  1
  H+  H71  1  0.60775182  0.08088121  0.31948643  1
  H+  H72  1  0.11798456  0.76841232  0.51174591  1
  H+  H73  1  0.91454323  0.83008716  0.27020598  1
  H+  H74  1  0.88993560  0.86127626  0.99821054  1
  H+  H75  1  0.37736679  0.10957724  0.84764134  1
  H+  H76  1  0.67617647  0.95960174  0.03008190  1
  H+  H77  1  0.48295433  0.35375920  -0.00455516  1
  H+  H78  1  0.39398833  0.76070094  0.17703721  1
  H+  H79  1  0.62907877  0.26615551  -0.00726747  1
  H+  H80  1  0.35938291  0.73081697  0.82406148  1
  H+  H81  1  0.64087770  0.62563497  0.66875533  1
  H+  H82  1  0.21616879  0.39686756  0.23581758  1
  H+  H83  1  0.07599489  0.67922368  0.44694228  1
  H+  H84  1  0.85679103  0.63243052  0.83545875  1
  H+  H85  1  0.62677307  0.74994906  -0.00526909  1
  H+  H86  1  0.42560274  0.64876474  0.67827048  1
  H+  H87  1  0.45892709  0.10640033  0.18769099  1
  H+  H88  1  0.60006592  0.48299358  0.81602838  1
  H+  H89  1  0.39372452  0.87311189  0.99407578  1
  H+  H90  1  0.63710135  0.61089159  0.17146649  1
  H+  H91  1  0.38133682  0.26545675  0.67243104  1
  H+  H92  1  0.37799764  0.27704164  0.84614773  1
  H+  H93  1  0.09953179  0.49315126  0.67071761  1
  H+  H94  1  0.88463189  0.03058800  0.66818795  1
  H+  H95  1  0.53467690  0.64035319  0.33370852  1
  H+  H96  1  0.15284443  0.16660961  0.45222187  1
  H+  H97  1  0.62198932  0.03090123  0.99315546  1
  H+  H98  1  0.10663759  0.65549830  0.36250508  1
  H+  H99  1  0.22386217  0.10102326  0.45915919  1
  H+  H100  1  0.26038936  0.35513262  0.67648065  1
  H+  H101  1  0.11671051  0.47936964  0.49853412  1
  H+  H102  1  1.01843562  0.88134761  0.84212572  1
  H+  H103  1  0.82978048  0.19302206  0.14557105  1
  H+  H104  1  0.85758340  0.20333638  -0.00503587  1
  H+  H105  1  0.48830416  0.12559048  0.68019463  1
  H+  H106  1  0.78213910  0.64122345  0.02124021  1
  H+  H107  1  0.09758374  0.11730033  0.32249784  1
  H+  H108  1  0.11892324  0.86488323  0.51063742  1
  H+  H109  1  1.01960862  0.12955137  0.82511344  1
  H+  H110  1  0.88284395  0.02357581  0.33154934  1
  H+  H111  1  0.52191661  0.63485037  0.16552495  1
  H+  H112  1  0.45418625  0.36704594  0.23673951  1
  H+  H113  1  0.27421267  0.39448115  0.98911465  1
  H+  H114  1  0.36560092  0.14148644  0.21012485  1
  H+  H115  1  0.40055519  0.76130964  0.33037418  1
  H+  H116  1  0.77154737  0.88424184  0.82451606  1
  H+  H117  1  0.35365273  0.38177003  0.82664349  1
  H+  H118  1  0.22907542  0.61730448  0.98868509  1
  H+  H119  1  0.38653353  0.39208771  0.14846483  1
  H+  H120  1  0.63334865  0.14650933  0.66836154  1
  H+  H121  1  0.49049867  0.85448160  0.17926573  1
  H+  H122  1  0.82556969  0.91483924  0.43447639  1
  H+  H123  1  0.85034383  -0.03845766  0.99786206  1
  H+  H124  1  0.62195748  0.39312526  0.16586629  1
  H+  H125  1  0.86553350  0.23329794  0.66530686  1
  H+  H126  1  0.28366029  0.64891931  0.15548604  1
  H+  H127  1  0.97617619  0.62598135  0.33758000  1
  H+  H128  1  0.18488846  0.42213342  0.17319600  1
  H+  H129  1  0.83483145  0.34923878  0.98658916  1
  H+  H130  1  0.90116376  0.37359142  0.18326889  1
  H+  H131  1  0.73113071  0.12066108  0.64848843  1
  H+  H132  1  0.11585730  0.89169243  0.81280397  1
  H+  H133  1  -0.00044087  0.08752279  0.14154375  1
  H+  H134  1  0.12632701  0.27399470  -0.02261984  1
  H+  H135  1  0.10799500  0.63801286  0.82390304  1
  H+  H136  1  0.82004593  0.92215946  0.76235318  1
  H+  H137  1  0.11138919  0.62934902  0.00597684  1
  H+  H138  1  1.01976525  0.88660338  0.66052490  1
  H+  H139  1  0.37970730  0.52677077  0.81560882  1
  H+  H140  1  -0.00934673  0.37102602  0.83188407  1
  H+  H141  1  0.00156163  0.13036600  -0.01154857  1
  H+  H142  1  0.83774845  0.00029602  0.52179796  1
  H+  H143  1  0.13842706  0.52980524  0.83425813  1
  H+  H144  1  0.48390572  0.63264513  0.51527812  1
  H+  H145  1  0.62690691  0.84048010  0.83833803  1
  H+  H146  1  0.37341582  0.96018856  0.35102617  1
  H+  H147  1  0.63138376  0.28055871  0.65282045  1
  H+  H148  1  -0.02399417  0.35670169  0.50378436  1
  H+  H149  1  0.76121780  0.38920408  0.66605379  1
  H+  H150  1  0.39797083  0.52339567  0.16086481  1
  H+  H151  1  0.77768840  0.63581933  0.16590657  1
  H+  H152  1  0.46383149  0.36835947  0.83906760  1
  H+  H153  1  1.01594320  0.64092407  0.50602750  1
  H+  H154  1  0.60080390  0.61010286  0.49438950  1
  H+  H155  1  0.82264689  0.66047589  0.43636213  1
  H+  H156  1  0.89102791  0.77244966  0.17810447  1
  H+  H157  1  0.77407888  0.64324533  0.82221560  1
  H+  H158  1  0.98629503  0.33493911  0.98722748  1
  H+  H159  1  0.90318125  0.12598317  0.66424699  1
  H+  H160  1  0.23530600  0.11217188  0.19269781  1
  H+  H161  1  0.89405325  0.53106991  0.33611637  1
  H+  H162  1  0.81476435  0.40064672  0.75733290  1
  H+  H163  1  0.19581115  0.11655090  0.52351264  1
  H+  H164  1  0.40362142  0.28458965  0.19664494  1
  H+  H165  1  0.89299248  0.77414349  1.00443232  1
  H+  H166  1  0.59755122  0.89228020  0.76707584  1
  H+  H167  1  -0.03425937  0.37263639  0.65380401  1
  H+  H168  1  0.29250980  0.62547997  0.33503906  1
  H+  H169  1  0.27531330  0.64846878  0.48940305  1
  H+  H170  1  0.82394080  0.16373060  0.40433436  1
  H+  H171  1  0.89437837  0.62294852  0.99920037  1
  H+  H172  1  0.75843476  0.14049350  0.49096060  1
  H+  H173  1  0.87250978  0.06217595  0.23602716  1
  H+  H174  1  0.08716621  0.25272426  0.16973974  1
  H+  H175  1  0.39358869  0.11596109  0.46136985  1
  H+  H176  1  0.73031354  0.37547042  0.50697940  1
  H+  H177  1  0.95714850  0.09932298  0.46980207  1
  H+  H178  1  0.63976593  0.37512537  0.50342743  1
  H+  H179  1  0.59813515  0.39350725  0.82433975  1
  H+  H180  1  0.36058432  0.97794846  0.82212818  1
  H+  H181  1  0.09016015  0.13257838  -0.01600209  1
  H+  H182  1  0.33535591  0.69458714  0.66172822  1
  H+  H183  1  0.38276317  0.47484109  0.34438194  1
  H+  H184  1  0.60568187  0.47664080  0.49704086  1
  H+  H185  1  0.01599397  0.63769602  0.67080795  1
  H+  H186  1  0.76636005  0.63172103  0.33997760  1
  H+  H187  1  0.63465876  0.62238941  0.79896990  1
  H+  H188  1  0.74442045  0.90639275  0.68378675  1
  H+  H189  1  0.46990409  0.35144348  0.51402206  1
  H+  H190  1  0.87233831  0.38934496  0.34632962  1
  H+  H191  1  0.10405692  0.87483901  0.66440748  1
  H+  H192  1  0.02865767  0.11709382  0.67429166  1
  H+  H193  1  0.76618329  0.86806741  1.00061331  1
  H+  H194  1  0.36555296  0.36509990  0.49912466  1
  H+  H195  1  0.88373695  0.51717294  0.18712878  1
  H+  H196  1  0.87056598  0.23410937  0.82077487  1
  H+  H197  1  0.38779675  0.58602604  0.53778131  1
  H+  H198  1  0.71266294  0.11508649  0.98834121  1
  H+  H199  1  0.53921004  0.66125590  0.69035387  1
  H+  H200  1  0.11174917  0.71728466  0.01765025  1
  H+  H201  1  0.97727374  0.61100697  0.99801875  1
  H+  H202  1  0.36492836  0.73444639  0.00088237  1
  H+  H203  1  0.12340571  0.62545694  0.66509664  1
  H+  H204  1  0.20529049  0.61541926  0.67790308  1
  H+  H205  1  0.23194070  0.86355425  0.34085596  1
  H+  H206  1  0.87837009  0.52409017  0.66264805  1
  H+  H207  1  0.47441362  0.85946882  0.83283679  1
  H+  H208  1  0.05026063  0.41099248  0.15854101  1
  H+  H209  1  0.62891136  0.83868263  0.98732503  1
  H+  H210  1  0.11790592  0.38925015  0.81878795  1
  H+  H211  1  0.78551868  0.32419144  0.80305756  1
  H+  H212  1  0.59346798  0.22740932  0.82777688  1
  H+  H213  1  0.61407826  0.23358917  0.40118518  1
  H+  H214  1  0.36667403  0.63801943  0.15539584  1
  H+  H215  1  0.58855823  0.47810010  0.33239973  1
  H+  H216  1  0.82232343  0.10072777  0.15785850  1
  H+  H217  1  0.63916003  0.52275352  0.16898263  1
  H+  H218  1  0.60203606  0.39078846  0.66796592  1
  H+  H219  1  0.66285716  0.22118766  0.71693303  1
  H+  H220  1  0.22460061  0.62084730  0.83281208  1
  H+  H221  1  0.14332667  0.77604336  0.65744614  1
  H+  H222  1  0.60724741  0.96364890  0.16611050  1
  H+  H223  1  0.60940133  0.08416336  0.16965514  1
  H+  H224  1  0.33769509  0.18225843  0.26212679  1
  H+  H225  1  0.27702561  0.89575680  0.16852297  1
  H+  H226  1  0.13625941  0.49838207  0.14795150  1
  H+  H227  1  0.78401347  0.39032551  0.34936147  1
  H+  H228  1  0.46664296  0.11026823  0.84294779  1
  H+  H229  1  0.88940449  0.11503657  0.82900635  1
  H+  H230  1  0.62526389  0.53085282  0.66197749  1
  H+  H231  1  0.70754336  0.36751318  0.83526123  1
  H+  H232  1  0.17051745  0.11136674  1.02995265  1
  H+  H233  1  0.61011823  0.72370336  0.79864286  1
  H+  H234  1  0.86244105  0.09055286  0.98181329  1
  H+  H235  1  0.62480651  0.12468626  0.49619428  1
  H+  H236  1  0.78019604  0.88973845  0.33676313  1
  H+  H237  1  0.41785842  0.83902180  0.89308935  1
  H+  H238  1  0.35776779  0.36287468  0.67830375  1
  H+  H239  1  0.72544129  0.03294572  0.88054522  1
  H+  H240  1  0.30629804  0.40616964  0.14790494  1
  H+  H241  1  0.48078582  0.87023672  -0.01213555  1
  H+  H242  1  0.11653031  0.00844736  0.32750794  1
  H+  H243  1  0.46540498  0.61251952  0.79897864  1
  H+  H244  1  0.64782801  0.77654185  0.32373028  1
  H+  H245  1  0.23550642  0.36315006  0.50493146  1
  H+  H246  1  0.10818388  0.41379979  0.65552700  1
  H+  H247  1  0.55486023  0.13746206  0.09353085  1
  H+  H248  1  0.28321146  0.12609577  0.00539962  1
  H+  H249  1  0.41488120  0.07523104  0.93472106  1
  H+  H250  1  0.02684385  0.88141534  0.01522161  1
  H+  H251  1  0.13500532  0.61899985  0.51045078  1
  H+  H252  1  0.28148937  0.88741289  1.01666652  1
  H+  H253  1  0.88839378  0.27439796  0.33622587  1
  H+  H254  1  0.37045048  1.01848694  0.18371114  1
  H+  H255  1  0.37252160  0.21410855  1.00623237  1
  H+  H256  1  0.64467988  0.52074111  1.00740187  1
  H+  H257  1  0.07360086  0.66864023  0.73212342  1
  H+  H258  1  0.16111484  0.37599969  0.32645045  1
  H+  H259  1  0.90919741  0.33608558  0.59355118  1
  H+  H260  1  0.85022375  0.38698537  0.66474145  1
  H+  H261  1  1.03311420  0.38695756  0.34665417  1
  H+  H262  1  0.10480776  -0.02516481  0.48849530  1
  H+  H263  1  0.36918178  0.97833046  0.00874728  1
  H+  H264  1  0.39631119  0.62254996  0.99306586  1
  H+  H265  1  0.86558732  0.38969250  -0.03018085  1
  H+  H266  1  0.60397460  0.85334737  0.49162537  1
  H+  H267  1  0.88325923  0.26829851  0.50349878  1
  H+  H268  1  1.01067452  0.07756391  0.17224109  1
  H+  H269  1  0.59857048  0.87481380  0.67009740  1
  H+  H270  1  0.63319127  0.76569527  0.17265962  1
  H+  H271  1  0.13435604  0.36631991  -0.01810092  1
  H+  H272  1  0.83508369  0.12353643  0.50160863  1
  H+  H273  1  0.36228703  0.88969056  0.81914967  1
  H+  H274  1  0.84714888  0.50073113  0.03253295  1
  H+  H275  1  0.16290978  0.59967300  0.31152756  1
  H+  H276  1  0.01183910  0.88594379  0.49411004  1
  H+  H277  1  0.62308994  0.97676038  0.33745797  1
  H+  H278  1  0.13154274  0.78030073  0.80639089  1
  H+  H279  1  0.12380203  0.31043127  0.65836761  1
  H+  H280  1  0.38619311  0.10691683  -0.00451447  1
  H+  H281  1  0.22263975  0.86853034  0.80246149  1
  H+  H282  1  0.96049473  0.74994560  0.71492485  1
  H+  H283  1  0.01798397  0.63621174  0.82823726  1
  H+  H284  1  0.63984268  0.61560054  0.32170012  1
  H+  H285  1  0.37595295  0.14486859  0.69302275  1
  H+  H286  1  0.11841691  0.97409179  0.16429630  1
  H+  H287  1  0.75451469  0.41891476  0.03557337  1
  H+  H288  1  0.11615281  0.10919227  0.67576580  1
  H+  H289  1  0.50046236  0.88198178  0.58554546  1
  H+  H290  1  0.64290130  0.60660346  0.86658302  1
  H+  H291  1  0.82223490  0.42068252  0.12247693  1
  H+  H292  1  0.33810165  0.67737510  0.06075538  1
  H+  H293  1  0.08524916  0.91133680  0.07588193  1
  H+  H294  1  0.40821412  0.32092481  0.57204273  1
  H+  H295  1  0.61701619  -0.04180997  0.82194013  1
  H+  H296  1  0.65264963  0.33760253  0.89628762  1
  H+  H297  1  0.39896579  0.04015388  0.66994024  1
  H+  H298  1  0.16139694  0.08282934  0.91148971  1
  H+  H299  1  0.12547439  0.17553163  0.07765437  1
  H+  H300  1  0.09535553  0.42131670  0.40405540  1
  H+  H301  1  0.65407204  0.80010334  0.89250423  1
  H+  H302  1  0.59225531  0.66802205  0.39334912  1
  H+  H303  1  0.10164819  0.18514010  0.37663974  1
  H+  H304  1  0.91125675  0.58555590  0.57005525  1
  H+  H305  1  0.16907543  0.58865165  0.92926737  1
  H+  H306  1  0.24778196  0.37215221  0.32436793  1
  H+  H307  1  0.34872307  0.40928586  0.40142340  1
  H+  H308  1  0.61816223  0.91868779  0.39427427  1
  H+  H309  1  0.34175574  0.41784781  0.04229706  1
  H+  H310  1  0.57073819  0.41735999  0.72858419  1
  H+  H311  1  0.82102769  -0.11317714  0.66590551  1
  H+  H312  1  0.83694248  0.17419405  0.72460274  1
  H+  H313  1  0.65780604  0.07115578  0.26505644  1
  H+  H314  1  0.13894143  1.00045487  0.66918053  1
  H+  H315  1  0.51465694  0.90231434  0.45399784  1
  H+  H316  1  0.88028852  0.06667078  0.57679065  1
  H+  H317  1  0.51992829  0.56364067  0.45166696  1
  H+  H318  1  0.86597672  0.63341682  0.16991290  1
  H+  H319  1  0.33723885  0.92882292  0.10900071  1
  H+  H320  1  0.54840458  0.16058234  0.32876724  1
  H+  H321  1  0.23455352  0.86624787  0.65397754  1
  H+  H322  1  0.59697253  0.91620355  0.07362474  1
  H+  H323  1  0.84227372  0.42342127  0.44087595  1
  H+  H324  1  0.24640120  0.94802075  0.90833131  1
  H+  H325  1  0.57477899  0.65952541  0.10283031  1
  H+  H326  1  0.16123916  0.83639994  0.57206458  1
  H+  H327  1  0.17768347  0.84015627  0.23996199  1
  H+  H328  1  0.60394410  0.14314376  0.00316686  1
  H+  H329  1  0.16947036  0.59341443  0.56781585  1
  H+  H330  1  0.52368328  0.15589929  0.47668182  1
  H+  H331  1  0.67917034  0.24436020  0.35050750  1
  H+  H332  1  0.02682651  0.88645899  0.16696187  1
  H+  H333  1  0.46057328  0.63030592  0.61837649  1
  H+  H334  1  0.11361110  0.98096970  0.84046966  1
  H+  H335  1  0.37913425  0.90764218  0.66798957  1
  H+  H336  1  0.28066511  0.13103480  0.69039375  1
  H+  H337  1  0.51364587  0.62907641  0.01149507  1
  H+  H338  1  0.90835503  0.83921621  0.59325218  1
  H+  H339  1  0.08534510  0.15281908  0.76966957  1
  H+  H340  1  0.68334466  0.58857681  0.95416245  1
  H+  H341  1  0.31961109  0.39535772  0.74336107  1
  H+  H342  1  0.72062432  0.61252312  0.51156609  1
  H+  H343  1  0.15250598  0.07471299  0.23113337  1
  H+  H344  1  0.18704973  0.58293853  0.22174789  1
  H+  H345  1  0.66620512  0.58051557  0.26315994  1
  H+  H346  1  0.66051209  0.58713946  0.57208633  1
  H+  H347  1  0.34291601  0.66267595  0.39805110  1
  H+  H348  1  0.92748232  0.34059042  0.27986525  1
  H+  H349  1  0.61274700  0.03056431  0.50519740  1
  H+  H350  1  0.19434857  0.06500481  0.61648670  1
  H+  H351  1  0.07480410  0.90996530  0.40080264  1
  H+  H352  1  0.78245755  0.14236779  0.82295067  1
  H+  H353  1  0.40341375  0.04315208  0.49410965  1
  H+  H354  1  0.49131881  0.04714751  0.12090271  1
  H+  H355  1  0.67119474  0.82918913  0.23054449  1
  H+  H356  1  0.56747635  0.41792848  0.43744385  1
  H+  H357  1  0.33035123  0.16882106  0.78213624  1
  H+  H358  1  0.66519075  0.09699690  0.59281520  1
  H+  H359  1  0.90304903  0.37236243  0.83988265  1
  H+  H360  1  0.84577935  0.67142384  0.07774540  1
  H+  H361  1  0.41182876  0.06341854  0.27878751  1
  H+  H362  1  0.09207153  0.42268740  0.05858023  1
  H+  H363  1  0.88790587  0.52600664  0.51085878  1
  H+  H364  1  0.15964894  0.33292069  0.89062206  1
  H+  H365  1  0.81136886  0.14213972  0.05371458  1
  H+  H366  1  0.07352684  0.64091216  0.10397627  1
  H+  H367  1  0.89937486  0.06780231  0.92230498  1
  H+  H368  1  0.56937829  0.15876669  0.77547722  1
  H+  H369  1  0.08768739  0.42335017  0.76105497  1
  H+  H370  1  0.59439131  0.41463527  0.06778595  1
  H+  H371  1  0.66923088  0.07213307  0.89834844  1
  H+  H372  1  1.00917050  0.12947655  0.32927296  1
  H+  H373  1  0.16809627  0.31649912  0.55837518  1
  H+  H374  1  0.87127822  0.69279164  0.74599608  1
  H+  H375  1  0.42235265  0.57318213  0.26800701  1
  H+  H376  1  0.34971244  0.69182562  0.73576327  1
  H+  H377  1  0.91276208  0.58016102  0.90822794  1
  H+  H378  1  0.12129033  0.39213798  0.49726483  1
  H+  H379  1  0.20464811  0.94788526  0.90701053  1
  H+  H380  1  0.41620781  0.32925827  0.94178104  1
  H+  H381  1  0.93219204  0.83030897  0.91158007  1
  H+  H382  1  0.93268178  0.30625621  0.92593872  1
  H+  H383  1  0.69008833  0.41148002  0.25572422  1
  O2-  O384  1  0.17480829  0.16852403  0.08729603  1
  O2-  O385  1  0.15020594  0.21362986  0.43067725  1
  O2-  O386  1  0.08241360  0.15960429  0.81436877  1
  O2-  O387  1  0.10524860  0.43555245  0.13656248  1
  O2-  O388  1  0.08808055  0.41954790  0.48259025  1
  O2-  O389  1  0.09015179  0.42368814  0.80602585  1
  O2-  O390  1  0.07722937  0.63564272  0.14863683  1
  O2-  O391  1  0.07819539  0.67571495  0.49242356  1
  O2-  O392  1  0.07474105  0.66494061  0.80773549  1
  O2-  O393  1  0.08622097  0.91300869  0.15014076  1
  O2-  O394  1  0.07406495  0.91155644  0.48147185  1
  O2-  O395  1  0.08037152  0.92216819  0.82098007  1
  O2-  O396  1  0.34061588  0.18029917  0.21780056  1
  O2-  O397  1  0.30596690  0.12606566  0.41602782  1
  O2-  O398  1  0.32993947  0.17000180  0.82778783  1
  O2-  O399  1  0.36169571  0.42323508  0.12716081  1
  O2-  O400  1  0.33794957  0.39936115  0.48027172  1
  O2-  O401  1  0.32186918  0.40797682  0.80501408  1
  O2-  O402  1  0.34665750  0.67859225  0.14275708  1
  O2-  O403  1  0.33074382  0.68154944  0.46791229  1
  O2-  O404  1  0.32641163  0.67276336  0.80445509  1
  O2-  O405  1  0.33832041  0.93332431  0.15379813  1
  O2-  O406  1  0.36002496  0.93425632  0.49397659  1
  O2-  O407  1  0.33354486  0.92015701  0.80198399  1
  O2-  O408  1  0.53761043  0.10401715  0.13268122  1
  O2-  O409  1  0.58887469  0.18815841  0.46773739  1
  O2-  O410  1  0.56798731  0.16521325  0.81977315  1
  O2-  O411  1  0.59247675  0.41826581  0.14325799  1
  O2-  O412  1  0.57567748  0.41622398  0.48179092  1
  O2-  O413  1  0.56683619  0.42083573  0.80606747  1
  O2-  O414  1  0.58024398  0.66209164  0.14922943  1
  O2-  O415  1  0.55640248  0.61930720  0.47074154  1
  O2-  O416  1  0.58155954  0.66790135  0.77460568  1
  O2-  O417  1  0.57959008  0.90305686  0.14941731  1
  O2-  O418  1  0.54360351  0.91082129  0.49319509  1
  O2-  O419  1  0.58111951  0.89741925  0.80971526  1
  O2-  O420  1  0.79928524  0.13380378  0.13183413  1
  O2-  O421  1  0.82028362  0.16440904  0.47982736  1
  O2-  O422  1  0.83953177  0.17503324  0.80322312  1
  O2-  O423  1  0.83238266  0.40694613  0.16514801  1
  O2-  O424  1  0.83921105  0.42211500  0.48600595  1
  O2-  O425  1  0.80894139  0.38624806  0.80251198  1
  O2-  O426  1  0.83934732  0.66674966  0.15349380  1
  O2-  O427  1  0.82345219  0.66289263  0.48187072  1
  O2-  O428  1  0.83728724  0.67063794  0.81741767  1
  O2-  O429  1  0.83023749  0.90440444  0.14274245  1
  O2-  O430  1  0.81438896  0.90397926  0.47891086  1
  O2-  O431  1  0.82827183  0.92433810  0.80723714  1
  O2-  O432  1  0.17158524  0.07818054  0.18826902  1
  O2-  O433  1  0.17159904  0.08745138  0.48518669  1
  O2-  O434  1  0.16107612  0.07958751  0.86625627  1
  O2-  O435  1  0.23537056  0.42590021  0.19448855  1
  O2-  O436  1  0.17294149  0.33490976  0.51553446  1
  O2-  O437  1  0.16054584  0.33158228  0.84421495  1
  O2-  O438  1  0.18767530  0.59446727  0.17776765  1
  O2-  O439  1  0.16680431  0.58943333  0.52298905  1
  O2-  O440  1  0.16425019  0.59016189  0.84886033  1
  O2-  O441  1  0.18137957  0.84229083  0.19532132  1
  O2-  O442  1  0.14911302  0.83229537  0.52541691  1
  O2-  O443  1  0.15940288  0.84222043  0.79662995  1
  O2-  O444  1  0.40141901  0.07737617  0.20633844  1
  O2-  O445  1  0.42758253  0.10685880  0.49218689  1
  O2-  O446  1  0.40577765  0.07551409  0.85790078  1
  O2-  O447  1  0.43995198  0.34875121  0.19380964  1
  O2-  O448  1  0.40884551  0.32108442  0.52700572  1
  O2-  O449  1  0.40483671  0.33951243  0.85649901  1
  O2-  O450  1  0.38778410  0.56219256  0.18836046  1
  O2-  O451  1  0.44194214  0.63996054  0.54077545  1
  O2-  O452  1  0.41011329  0.58972115  0.82016619  1
  O2-  O453  1  0.42967836  0.82092751  0.19781216  1
  O2-  O454  1  0.46615394  0.86941207  0.53322382  1
  O2-  O455  1  0.41428612  0.83492060  0.84794405  1
  O2-  O456  1  0.64643336  0.06301229  0.18806496  1
  O2-  O457  1  0.65218803  0.09212639  0.51316672  1
  O2-  O458  1  0.69304410  0.05730567  0.86219876  1
  O2-  O459  1  0.67573236  0.36472359  0.22712694  1
  O2-  O460  1  0.66962304  0.34594963  0.52133855  1
  O2-  O461  1  0.64817379  0.34047257  0.85135496  1
  O2-  O462  1  0.66918602  0.58236263  0.18603091  1
  O2-  O463  1  0.65966833  0.58172550  0.52609586  1
  O2-  O464  1  0.65991820  0.59585615  0.82698584  1
  O2-  O465  1  0.66574573  0.82763097  0.18497139  1
  O2-  O466  1  0.63703504  0.82725442  0.47528575  1
  O2-  O467  1  0.65526109  0.80599452  0.84746405  1
  O2-  O468  1  0.84078313  0.04554366  0.19700967  1
  O2-  O469  1  0.84187936  0.05176676  0.54125822  1
  O2-  O470  1  0.91431617  0.08125003  0.84631684  1
  O2-  O471  1  0.94454083  0.35946696  0.20078701  1
  O2-  O472  1  0.91545766  0.32961826  0.51805095  1
  O2-  O473  1  0.93017777  0.33777377  0.84816238  1
  O2-  O474  1  0.91493286  0.57954731  0.19667223  1
  O2-  O475  1  0.91466256  0.58730134  0.52454090  1
  O2-  O476  1  0.91071861  0.57981639  0.86204525  1
  O2-  O477  1  0.91986182  0.83317457  0.19286290  1
  O2-  O478  1  0.90897703  0.83254788  0.51416093  1
  O2-  O479  1  0.93767028  0.83185508  0.86620109  1
  O2-  O480  1  0.14392548  0.06863615  0.31086516  1
  O2-  O481  1  0.17888037  0.06501896  0.65880562  1
  O2-  O482  1  0.16364177  0.07740045  0.99110352  1
  O2-  O483  1  0.19428618  0.35678959  0.30200026  1
  O2-  O484  1  0.16516782  0.29549336  0.64240364  1
  O2-  O485  1  0.16130944  0.33464376  0.96326314  1
  O2-  O486  1  0.19014611  0.56619883  0.30197014  1
  O2-  O487  1  0.15506586  0.59347933  0.65162347  1
  O2-  O488  1  0.16800380  0.58546002  0.97451245  1
  O2-  O489  1  0.17124004  0.83482858  0.32549293  1
  O2-  O490  1  0.17318379  0.83448427  0.63900387  1
  O2-  O491  1  0.16893795  0.82700730  1.00052700  1
  O2-  O492  1  0.43094057  0.06317820  0.32214069  1
  O2-  O493  1  0.42876269  0.10374752  0.66776885  1
  O2-  O494  1  0.41949769  0.07688051  0.98020905  1
  O2-  O495  1  0.47389387  0.37421021  0.31890506  1
  O2-  O496  1  0.40472162  0.32467741  0.65403707  1
  O2-  O497  1  0.42336074  0.31375858  0.98339454  1
  O2-  O498  1  0.43262216  0.57851615  0.31261144  1
  O2-  O499  1  0.45702630  0.61998273  0.66286705  1
  O2-  O500  1  0.43007123  0.59511458  0.98163614  1
  O2-  O501  1  0.42801534  0.82194170  0.31433421  1
  O2-  O502  1  0.46458187  0.87991273  0.67670170  1
  O2-  O503  1  0.42124662  0.84195058  0.97408359  1
  O2-  O504  1  0.65711722  0.07216553  0.31061274  1
  O2-  O505  1  0.67013395  0.09888990  0.63786478  1
  O2-  O506  1  0.65059746  0.08846078  0.97444269  1
  O2-  O507  1  0.63297083  0.25654829  0.35807011  1
  O2-  O508  1  0.65876887  0.34198463  0.64098156  1
  O2-  O509  1  0.66986056  0.32601112  0.97483537  1
  O2-  O510  1  0.66358925  0.57823989  0.30875845  1
  O2-  O511  1  0.66001318  0.59045274  0.64671484  1
  O2-  O512  1  0.67434472  0.58476347  0.99788352  1
  O2-  O513  1  0.67912926  0.83591885  0.30624876  1
  O2-  O514  1  0.63681762  0.86739304  0.70063251  1
  O2-  O515  1  0.65802636  0.80776387  0.97349606  1
  O2-  O516  1  0.91039993  0.08370961  0.31468027  1
  O2-  O517  1  0.92836939  0.08911535  0.65373938  1
  O2-  O518  1  0.89524265  0.06247540  0.96788002  1
  O2-  O519  1  0.92237817  0.33683055  0.32495818  1
  O2-  O520  1  0.90571358  0.33955737  0.63907954  1
  O2-  O521  1  0.93588331  0.28655535  0.96716844  1
  O2-  O522  1  0.91750867  0.59037719  0.32020626  1
  O2-  O523  1  0.91456511  0.58401748  0.64710726  1
  O2-  O524  1  0.91622227  0.58520132  0.98329168  1
  O2-  O525  1  0.91450035  0.83092441  0.31589643  1
  O2-  O526  1  0.91105026  0.84795563  0.63822192  1
  O2-  O527  1  0.92465067  0.83374188  0.98731498  1
  O2-  O528  1  0.06418483  0.16653630  -0.00257264  1
  O2-  O529  1  0.07456550  0.15822188  0.33337481  1
  O2-  O530  1  0.09000755  0.14427945  0.68890123  1
  O2-  O531  1  0.08627988  0.41812283  0.01343341  1
  O2-  O532  1  0.09470357  0.41884662  0.35859312  1
  O2-  O533  1  0.07384554  0.43002929  0.68053011  1
  O2-  O534  1  0.07782652  0.65420995  0.02476821  1
  O2-  O535  1  0.07657761  0.68646861  0.37136302  1
  O2-  O536  1  0.07686269  0.67168486  0.68631028  1
  O2-  O537  1  0.08772101  0.91015366  0.02993444  1
  O2-  O538  1  0.07780083  0.91037428  0.35563195  1
  O2-  O539  1  0.07629244  0.90619449  0.68071524  1
  O2-  O540  1  0.34274667  0.15245903  0.02007629  1
  O2-  O541  1  0.30217564  0.15034871  0.36025722  1
  O2-  O542  1  0.33932497  0.17113761  0.70587907  1
  O2-  O543  1  0.33585911  0.42860805  -0.00084063  1
  O2-  O544  1  0.35573724  0.41332213  0.35642752  1
  O2-  O545  1  0.31993351  0.38945323  0.69395454  1
  O2-  O546  1  0.33374813  0.67416225  0.01579427  1
  O2-  O547  1  0.35112084  0.65892614  0.35271558  1
  O2-  O548  1  0.37778581  0.70786646  0.69343868  1
  O2-  O549  1  0.34376732  0.91882902  0.02671873  1
  O2-  O550  1  0.33516563  0.89994764  0.36513224  1
  O2-  O551  1  0.33674569  0.92504777  0.67958276  1
  O2-  O552  1  0.57454591  0.17345808  0.01996600  1
  O2-  O553  1  0.52337391  0.10134102  0.31169679  1
  O2-  O554  1  0.61278989  0.18400838  0.69234249  1
  O2-  O555  1  0.59628739  0.42069448  0.02227211  1
  O2-  O556  1  0.55241927  0.42288898  0.35513481  1
  O2-  O557  1  0.56894993  0.41806084  0.68311984  1
  O2-  O558  1  0.57570699  0.65870945  0.03095478  1
  O2-  O559  1  0.59584514  0.67391239  0.34860852  1
  O2-  O560  1  0.60272165  0.69492994  0.71038392  1
  O2-  O561  1  0.61346243  0.92838565  0.02934939  1
  O2-  O562  1  0.59738777  0.91543523  0.35284913  1
  O2-  O563  1  0.53140624  0.89075107  0.63303061  1
  O2-  O564  1  0.81041877  0.14386233  0.00848670  1
  O2-  O565  1  0.82833813  0.16758720  0.35835612  1
  O2-  O566  1  0.84028992  0.17289715  0.67940980  1
  O2-  O567  1  0.80206255  0.45961586  0.06091386  1
  O2-  O568  1  0.84450169  0.42316159  0.36078709  1
  O2-  O569  1  0.82093695  0.41639920  0.68374432  1
  O2-  O570  1  0.84418055  0.67285407  0.03198081  1
  O2-  O571  1  0.82522583  0.66465775  0.35794739  1
  O2-  O572  1  0.90081326  0.70845776  0.70522839  1
  O2-  O573  1  0.82530473  0.90342747  0.01724047  1
  O2-  O574  1  0.83901087  0.92187234  0.35508382  1
  O2-  O575  1  0.80765903  0.92786480  0.68549854  1
