# generated using pymatgen
data_H2O
_symmetry_space_group_name_H-M   'P 1'
_cell_length_a   17.98748914
_cell_length_b   17.99240708
_cell_length_c   21.99948151
_cell_angle_alpha   90.00188001
_cell_angle_beta   90.01523494
_cell_angle_gamma   119.98322079
_symmetry_Int_Tables_number   1
_chemical_formula_structural   H2O
_chemical_formula_sum   'H384 O192'
_cell_volume   6167.03299251
_cell_formula_units_Z   192
loop_
 _symmetry_equiv_pos_site_id
 _symmetry_equiv_pos_as_xyz
  1  'x, y, z'
loop_
 _atom_type_symbol
 _atom_type_oxidation_number
  H+  1.0
  O2-  -2.0
loop_
 _atom_site_type_symbol
 _atom_site_label
 _atom_site_symmetry_multiplicity
 _atom_site_fract_x
 _atom_site_fract_y
 _atom_site_fract_z
 _atom_site_occupancy
  H+  H0  1  0.65106734  0.99663288  0.33621717  1
  H+  H1  1  0.90718277  0.07578480  0.23437087  1
  H+  H2  1  0.03387248  0.65143914  0.84325440  1
  H+  H3  1  0.51231452  0.63094170  0.33613061  1
  H+  H4  1  0.63792838  0.61074832  0.84176137  1
  H+  H5  1  0.11255331  0.63503869  0.99686581  1
  H+  H6  1  0.88072585  0.13271145  0.34492054  1
  H+  H7  1  0.33935700  0.29940415  0.87559331  1
  H+  H8  1  0.87394243  0.72241458  0.16103558  1
  H+  H9  1  0.35068293  0.38425723  0.33624428  1
  H+  H10  1  0.46691675  0.10086375  0.32848200  1
  H+  H11  1  0.87956024  0.78799899  0.50173460  1
  H+  H12  1  0.61919675  0.48101540  0.15762228  1
  H+  H13  1  0.40977751  0.58202735  0.56296553  1
  H+  H14  1  0.38961893  0.10775234  0.84905234  1
  H+  H15  1  0.14066299  0.51628287  0.98245761  1
  H+  H16  1  0.36190667  0.97338060  0.49098927  1
  H+  H17  1  0.77061928  0.63666417  0.49384203  1
  H+  H18  1  0.36017317  0.13968133  0.33833367  1
  H+  H19  1  0.91207289  0.13118716  1.00389733  1
  H+  H20  1  0.47602774  0.36450401  0.17142887  1
  H+  H21  1  0.77181536  0.63095176  0.83406980  1
  H+  H22  1  0.64680775  0.11948461  0.65844658  1
  H+  H23  1  0.77452774  0.38684980  0.49438939  1
  H+  H24  1  0.13591346  0.11306177  0.33092955  1
  H+  H25  1  0.47130148  0.60097758  0.16434631  1
  H+  H26  1  0.61513826  0.38918132  0.15818159  1
  H+  H27  1  0.36317305  0.71555081  0.00327569  1
  H+  H28  1  0.89431429  0.27964823  0.17674872  1
  H+  H29  1  0.56747904  0.12193978  0.41234603  1
  H+  H30  1  0.08882860  0.40523601  0.76649383  1
  H+  H31  1  0.64804733  0.79286159  0.52130230  1
  H+  H32  1  0.32608211  0.91290249  0.43175642  1
  H+  H33  1  0.60173389  0.71527121  0.68031291  1
  H+  H34  1  0.39140540  0.77575830  0.82474598  1
  H+  H35  1  0.88293968  0.51447422  0.65111058  1
  H+  H36  1  0.60525747  0.48134045  0.33944573  1
  H+  H37  1  0.33735127  0.72043377  0.33621684  1
  H+  H38  1  0.84796604  0.97473842  0.66931442  1
  H+  H39  1  0.13396168  0.48123055  0.32765211  1
  H+  H40  1  0.67291161  0.94935765  0.53828848  1
  H+  H41  1  0.89600782  0.61997885  0.84325660  1
  H+  H42  1  0.83648394  0.91849385  0.39728455  1
  H+  H43  1  0.89723289  0.01834820  0.32662796  1
  H+  H44  1  0.66227978  0.39352708  0.01182116  1
  H+  H45  1  0.38547259  0.35623566  0.66091120  1
  H+  H46  1  0.86369638  0.87249885  0.16412250  1
  H+  H47  1  0.12053664  -0.02163026  0.83485326  1
  H+  H48  1  0.36053910  0.62783892  0.01004032  1
  H+  H49  1  0.41774362  0.08837401  0.26511938  1
  H+  H50  1  0.87006998  0.73102305  0.00820760  1
  H+  H51  1  0.16842089  0.27154170  0.23874018  1
  H+  H52  1  0.16590060  0.08415565  0.27110938  1
  H+  H53  1  0.73689914  0.10832262  0.83964865  1
  H+  H54  1  0.12278796  0.15130075  0.66907699  1
  H+  H55  1  0.76216450  0.16001557  0.01360481  1
  H+  H56  1  0.87036073  0.22558984  0.67241393  1
  H+  H57  1  0.14095109  0.86387836  0.66257796  1
  H+  H58  1  0.79097674  0.41465502  0.82345608  1
  H+  H59  1  0.89569346  0.52796472  0.33598539  1
  H+  H60  1  0.22746240  0.61383266  0.66976364  1
  H+  H61  1  0.57564853  0.84108684  0.47482076  1
  H+  H62  1  0.35214978  1.00002036  0.02104098  1
  H+  H63  1  0.61082935  -0.02790831  0.65357391  1
  H+  H64  1  0.43419692  0.83651161  0.33749910  1
  H+  H65  1  0.61842266  0.63296441  0.00523980  1
  H+  H66  1  0.25652936  0.62583403  0.33427579  1
  H+  H67  1  0.85737768  0.51061603  0.99115050  1
  H+  H68  1  0.62748914  0.59249168  0.50390211  1
  H+  H69  1  0.36130692  0.88847930  0.16511658  1
  H+  H70  1  0.33649008  0.16886151  0.10323757  1
  H+  H71  1  0.36746763  0.22828335  0.16274976  1
  H+  H72  1  0.11300858  0.97862783  0.34388833  1
  H+  H73  1  0.34983921  0.87552959  0.33681754  1
  H+  H74  1  0.52701248  0.14023708  0.16111326  1
  H+  H75  1  0.27148616  0.38114064  0.67412422  1
  H+  H76  1  -0.01313805  0.10860983  0.32782584  1
  H+  H77  1  0.65481811  0.40632911  0.31928565  1
  H+  H78  1  0.25515788  0.37023779  0.32792384  1
  H+  H79  1  0.83340696  0.91382427  0.76132646  1
  H+  H80  1  0.46050768  0.74645812  0.94284116  1
  H+  H81  1  0.87473948  0.13947908  0.82571364  1
  H+  H82  1  0.87948975  0.10246033  0.02707803  1
  H+  H83  1  0.12069719  0.24471429  0.49080202  1
  H+  H84  1  0.77233663  0.38083214  0.15638939  1
  H+  H85  1  0.87222436  1.01187183  0.17794801  1
  H+  H86  1  0.56194013  0.91348520  0.32683167  1
  H+  H87  1  0.13417800  0.04098444  0.65122855  1
  H+  H88  1  0.25293617  0.90027926  0.01970698  1
  H+  H89  1  0.09140554  0.21961716  0.14096421  1
  H+  H90  1  0.35413642  -0.02943562  0.33598380  1
  H+  H91  1  0.51387129  0.62321803  0.67365766  1
  H+  H92  1  0.46696882  0.08595302  0.84507999  1
  H+  H93  1  0.13435324  0.60454739  0.66445551  1
  H+  H94  1  0.02216385  0.89473157  0.49543792  1
  H+  H95  1  0.79166685  0.40640336  0.34127927  1
  H+  H96  1  0.12117317  0.37511433  0.98938271  1
  H+  H97  1  0.17949225  0.60163158  0.89772003  1
  H+  H98  1  0.90117872  0.03114331  0.82428218  1
  H+  H99  1  0.89701211  0.86870664  -0.00443633  1
  H+  H100  1  0.65621721  0.86536787  0.98562989  1
  H+  H101  1  -0.01625499  0.86166803  0.17160148  1
  H+  H102  1  0.13151054  0.77990075  0.33547138  1
  H+  H103  1  0.35911354  0.22521150  0.68395993  1
  H+  H104  1  0.14174201  0.35407820  0.83539288  1
  H+  H105  1  0.14086795  0.37062013  0.66313380  1
  H+  H106  1  0.37908403  0.50973477  0.66827067  1
  H+  H107  1  0.62066708  0.85805365  0.67364171  1
  H+  H108  1  0.74013645  0.11248409  0.50337322  1
  H+  H109  1  0.86995859  0.60941906  0.50171446  1
  H+  H110  1  0.61564927  0.72330565  0.15894539  1
  H+  H111  1  0.90268220  0.80863356  0.66091368  1
  H+  H112  1  0.16754459  0.42882634  0.36599458  1
  H+  H113  1  0.47481356  0.60779521  0.83530717  1
  H+  H114  1  0.38445525  0.61656186  0.50242862  1
  H+  H115  1  0.72601027  0.85738581  0.17278374  1
  H+  H116  1  0.32650383  0.66001390  0.43238794  1
  H+  H117  1  0.03274068  0.88825223  0.83279010  1
  H+  H118  1  0.66548869  0.22205614  0.86805168  1
  H+  H119  1  0.88630366  0.08319640  0.49529925  1
  H+  H120  1  0.48099161  0.61341155  0.99109108  1
  H+  H121  1  0.59500154  0.08591708  0.81894395  1
  H+  H122  1  0.33801267  0.16628789  0.77777032  1
  H+  H123  1  0.91783493  0.83117034  0.89893216  1
  H+  H124  1  0.61913452  0.46718990  0.49184994  1
  H+  H125  1  0.14198718  0.70245481  0.51776527  1
  H+  H126  1  0.39144819  0.86464679  0.83739963  1
  H+  H127  1  0.63429909  1.03160755  -0.00907055  1
  H+  H128  1  -0.02725907  0.36544347  0.50221145  1
  H+  H129  1  0.09977617  0.56847619  0.29447115  1
  H+  H130  1  0.61791058  0.88839840  0.17610438  1
  H+  H131  1  0.87825358  0.20874611  0.49661307  1
  H+  H132  1  0.23164407  0.86888970  0.84578227  1
  H+  H133  1  0.22539614  0.60664887  0.99313355  1
  H+  H134  1  0.49052788  0.36072950  0.99203631  1
  H+  H135  1  0.22797867  0.86214432  0.51063679  1
  H+  H136  1  0.12745552  0.16041072  0.49255132  1
  H+  H137  1  0.14150982  0.77671740  0.99691767  1
  H+  H138  1  0.61729769  0.85416849  0.84135791  1
  H+  H139  1  0.73766186  0.46716350  0.28194194  1
  H+  H140  1  0.87971270  0.40164452  0.33975147  1
  H+  H141  1  0.36878411  0.22888378  1.00823226  1
  H+  H142  1  0.38627109  0.27526258  0.32751210  1
  H+  H143  1  0.13031342  0.56036248  0.49895152  1
  H+  H144  1  0.69783928  0.38212853  0.90904360  1
  H+  H145  1  0.64918424  0.86188950  0.32579728  1
  H+  H146  1  0.37561529  0.85726913  0.50434481  1
  H+  H147  1  0.12624307  0.23078438  0.82189478  1
  H+  H148  1  0.12516778  0.24773760  0.67161069  1
  H+  H149  1  0.51999206  0.38751088  0.33756704  1
  H+  H150  1  0.35522903  0.46057952  0.15498090  1
  H+  H151  1  0.43824631  0.81258283  0.91082466  1
  H+  H152  1  0.73435254  0.11787761  0.66102461  1
  H+  H153  1  0.87562113  0.92583392  0.49781142  1
  H+  H154  1  0.65643017  0.28289039  0.36574367  1
  H+  H155  1  0.23597614  0.63827570  0.83487703  1
  H+  H156  1  0.11538503  0.89070537  0.34487755  1
  H+  H157  1  0.35694584  0.71988596  0.49160014  1
  H+  H158  1  0.66218845  0.31743511  0.85628672  1
  H+  H159  1  0.17317237  0.10764909  0.59807186  1
  H+  H160  1  0.13694850  0.85577998  0.51319612  1
  H+  H161  1  0.88408223  0.49432089  0.82213395  1
  H+  H162  1  0.70695465  0.58814371  0.66459982  1
  H+  H163  1  0.79891671  0.14444315  0.34585919  1
  H+  H164  1  0.63369319  0.21217949  0.89338770  1
  H+  H165  1  1.03488344  0.11149847  0.96862189  1
  H+  H166  1  0.11187384  0.98779392  0.16026028  1
  H+  H167  1  0.27689999  0.89003537  0.68194835  1
  H+  H168  1  0.37751236  0.52160094  0.33321774  1
  H+  H169  1  0.46842947  0.86441491  0.19610225  1
  H+  H170  1  0.63342418  0.61496551  0.32124752  1
  H+  H171  1  0.86516703  0.72612546  0.34028280  1
  H+  H172  1  0.48331795  0.34545536  0.50914886  1
  H+  H173  1  -0.01411843  0.87001306  -0.00617656  1
  H+  H174  1  0.51622381  0.88662414  0.65736633  1
  H+  H175  1  0.38924574  0.12119731  0.00060612  1
  H+  H176  1  0.63446805  0.76531615  0.32537399  1
  H+  H177  1  0.14220743  1.03652719  0.50896080  1
  H+  H178  1  0.37817040  0.77554165  0.66585071  1
  H+  H179  1  0.02486862  0.63550124  0.00099329  1
  H+  H180  1  0.89609588  0.36199933  0.65876049  1
  H+  H181  1  0.36791657  0.46911400  0.00261117  1
  H+  H182  1  0.14865923  0.11576875  0.84029799  1
  H+  H183  1  0.35061608  0.66229947  0.64694255  1
  H+  H184  1  0.36093382  0.97081654  0.83570564  1
  H+  H185  1  0.22620697  0.38087337  0.50543521  1
  H+  H186  1  0.35097336  0.47794827  0.48469732  1
  H+  H187  1  0.66902672  0.29723224  1.00686114  1
  H+  H188  1  0.87496326  0.10032556  0.65336066  1
  H+  H189  1  0.64238248  0.35735231  0.50143895  1
  H+  H190  1  0.23696763  0.11478380  0.84475031  1
  H+  H191  1  0.86125475  0.37802701  0.98213687  1
  H+  H192  1  0.60222169  0.46289357  0.67632630  1
  H+  H193  1  0.60949500  0.71271192  0.81822946  1
  H+  H194  1  0.87515641  0.88064997  0.65802802  1
  H+  H195  1  0.27759189  0.38634656  0.82688847  1
  H+  H196  1  0.63250123  0.12060918  0.99328330  1
  H+  H197  1  0.54013207  0.87287054  -0.01632237  1
  H+  H198  1  0.59596075  0.39263795  0.83758342  1
  H+  H199  1  0.78445567  0.63334793  0.16071254  1
  H+  H200  1  0.03608987  0.39012897  0.67212048  1
  H+  H201  1  0.64636922  0.61487380  0.16916114  1
  H+  H202  1  -0.01677502  0.86022012  0.32919099  1
  H+  H203  1  0.62364420  0.59798080  0.65843211  1
  H+  H204  1  0.64746091  1.03737997  0.18462026  1
  H+  H205  1  0.51626153  0.03145646  0.38131208  1
  H+  H206  1  0.62923700  0.51960585  0.84467969  1
  H+  H207  1  1.02285074  0.63362478  0.66126043  1
  H+  H208  1  0.39098211  0.10844564  0.50294519  1
  H+  H209  1  0.51253963  0.13737347  0.67012879  1
  H+  H210  1  0.95098925  0.01177443  0.96473335  1
  H+  H211  1  0.38244164  0.88885540  -0.02740025  1
  H+  H212  1  0.22296386  0.29856579  0.17707945  1
  H+  H213  1  0.36356401  0.64251235  0.81729482  1
  H+  H214  1  0.87946204  0.60827191  -0.00584976  1
  H+  H215  1  0.50305605  0.38361162  0.83406111  1
  H+  H216  1  0.22384930  0.86474142  0.33165115  1
  H+  H217  1  0.62392788  0.72424167  0.00345522  1
  H+  H218  1  0.85834168  0.23624984  0.01088634  1
  H+  H219  1  0.48031694  0.10675084  0.50386412  1
  H+  H220  1  0.78376778  0.89234028  0.00354769  1
  H+  H221  1  0.12519961  0.48253224  0.67538645  1
  H+  H222  1  0.62572640  0.13201388  0.49700690  1
  H+  H223  1  0.37030129  0.39330879  0.82870011  1
  H+  H224  1  0.23539072  0.11976443  0.50704265  1
  H+  H225  1  0.92880369  0.59071131  0.27764788  1
  H+  H226  1  0.03246934  0.37556903  0.14971616  1
  H+  H227  1  0.39054751  0.02857021  0.17434038  1
  H+  H228  1  0.60016902  0.69257417  0.48670703  1
  H+  H229  1  0.64559971  0.10469952  0.33393142  1
  H+  H230  1  0.85374737  0.98529235  0.02603523  1
  H+  H231  1  1.03493448  0.14146969  0.81574320  1
  H+  H232  1  0.60536212  0.42462622  0.07254495  1
  H+  H233  1  0.16412863  0.15241916  0.19199784  1
  H+  H234  1  0.61948574  0.21850591  0.49170721  1
  H+  H235  1  0.11791135  0.22512333  0.33164770  1
  H+  H236  1  0.77589104  0.87565802  0.33927249  1
  H+  H237  1  0.82802142  0.69114494  0.68203354  1
  H+  H238  1  0.22888413  0.12101272  0.17692309  1
  H+  H239  1  0.01784383  0.64375575  0.35674881  1
  H+  H240  1  0.88070075  0.34909544  0.50995487  1
  H+  H241  1  0.22973690  0.35361887  -0.01592249  1
  H+  H242  1  0.97682797  0.36205536  0.32142486  1
  H+  H243  1  0.17832844  0.08566854  0.94158450  1
  H+  H244  1  0.37253490  0.22508045  0.83833035  1
  H+  H245  1  0.06417355  0.27642468  0.10767022  1
  H+  H246  1  0.88992810  0.85930437  0.83774759  1
  H+  H247  1  0.67813176  0.80570376  0.49408646  1
  H+  H248  1  0.34540067  0.87700570  0.95160339  1
  H+  H249  1  0.90735231  0.84772724  0.56036178  1
  H+  H250  1  0.53691325  0.16237671  0.01104840  1
  H+  H251  1  0.64030509  0.27678935  0.65854679  1
  H+  H252  1  0.62323896  0.24009973  0.35356800  1
  H+  H253  1  0.75855925  0.88180080  0.68125939  1
  H+  H254  1  0.88931742  0.36557714  0.82821202  1
  H+  H255  1  0.13051737  0.33356503  0.29650736  1
  H+  H256  1  0.10941193  0.65227813  0.36581602  1
  H+  H257  1  0.90487745  0.62024922  0.17349789  1
  H+  H258  1  0.73709354  0.12702265  0.17750904  1
  H+  H259  1  0.39108319  0.11835113  0.17172284  1
  H+  H260  1  0.37035954  0.21847969  0.49676573  1
  H+  H261  1  0.62677853  -0.02831990  0.83152079  1
  H+  H262  1  0.08756190  0.18005484  0.04218822  1
  H+  H263  1  1.02607828  0.37213752  0.82350605  1
  H+  H264  1  0.47286061  0.35311915  0.66462273  1
  H+  H265  1  0.92502908  0.32935292  0.60094571  1
  H+  H266  1  0.17497873  0.32576724  0.89546876  1
  H+  H267  1  0.73528998  0.61679553  -0.00398294  1
  H+  H268  1  1.02330994  0.90789077  0.64545743  1
  H+  H269  1  0.27636840  0.13961399  0.00921293  1
  H+  H270  1  0.53202831  0.88900184  0.82270934  1
  H+  H271  1  0.63889065  0.48502363  1.00979152  1
  H+  H272  1  0.33794150  0.67290915  0.75455830  1
  H+  H273  1  0.77973165  0.38533849  0.66948790  1
  H+  H274  1  0.12039477  0.98713715  0.00718227  1
  H+  H275  1  0.87383432  0.59791956  0.65678034  1
  H+  H276  1  0.36419402  0.88734037  0.67942657  1
  H+  H277  1  1.03361723  0.37792307  0.99309953  1
  H+  H278  1  0.14280461  0.63177912  0.16725250  1
  H+  H279  1  0.39606323  0.01731460  0.65954534  1
  H+  H280  1  0.11660033  0.89521472  1.00773648  1
  H+  H281  1  0.38269631  0.59937574  0.68063927  1
  H+  H282  1  0.14679628  0.87506884  0.17675695  1
  H+  H283  1  0.14770835  0.12534215  0.99672354  1
  H+  H284  1  0.78288380  0.89141524  0.82406538  1
  H+  H285  1  0.14284310  0.25757585  0.98038719  1
  H+  H286  1  0.38374541  0.52355489  0.83841497  1
  H+  H287  1  0.08709437  0.92147687  0.44069344  1
  H+  H288  1  0.16333564  0.57736337  0.24219272  1
  H+  H289  1  0.54226309  0.21068689  0.72010164  1
  H+  H290  1  0.58620834  0.91462226  0.43228377  1
  H+  H291  1  0.31262605  0.41511242  0.42723138  1
  H+  H292  1  0.12450895  0.74892531  0.84497002  1
  H+  H293  1  0.84055824  0.42134565  0.43675211  1
  H+  H294  1  0.92601939  0.82667547  0.23178749  1
  H+  H295  1  0.33472456  0.91648639  0.77319947  1
  H+  H296  1  0.09805999  0.18206959  0.73685839  1
  H+  H297  1  0.67275976  0.33159737  0.56263325  1
  H+  H298  1  0.58618992  0.41059763  0.43136677  1
  H+  H299  1  0.16975112  0.34148846  0.60150544  1
  H+  H300  1  0.09176555  0.40774565  0.09152523  1
  H+  H301  1  0.31936917  0.93295756  0.08763172  1
  H+  H302  1  0.09454283  0.92728450  0.59794590  1
  H+  H303  1  0.50730402  0.61156434  0.49006635  1
  H+  H304  1  0.17019187  0.84065080  0.23630363  1
  H+  H305  1  0.41978354  0.58434633  0.93171417  1
  H+  H306  1  0.75715089  0.94684862  0.52934156  1
  H+  H307  1  0.14248388  0.87354690  0.84748960  1
  H+  H308  1  0.95683691  0.44123395  0.96639842  1
  H+  H309  1  0.38544919  0.60501537  0.16650759  1
  H+  H310  1  0.61915675  0.14482603  0.16348128  1
  H+  H311  1  0.81793694  0.64270372  0.74356318  1
  H+  H312  1  0.63363884  0.27588179  0.17557510  1
  H+  H313  1  0.64218619  0.82981401  0.73483553  1
  H+  H314  1  0.57287588  0.76489826  0.87766403  1
  H+  H315  1  0.67262449  0.58445235  0.22965943  1
  H+  H316  1  0.42533416  0.33158088  0.93213355  1
  H+  H317  1  0.55917969  0.11637611  0.76355230  1
  H+  H318  1  0.41703288  0.08146526  0.94465703  1
  H+  H319  1  0.67218103  0.35035510  0.22834308  1
  H+  H320  1  0.59235321  0.90477317  0.04521110  1
  H+  H321  1  0.89921149  0.57556626  0.56530166  1
  H+  H322  1  0.83903358  0.16509118  0.73150735  1
  H+  H323  1  0.37946545  0.61149004  0.33594049  1
  H+  H324  1  0.17464852  0.83365995  0.60759961  1
  H+  H325  1  0.33424231  0.16242238  0.43535720  1
  H+  H326  1  0.56381325  0.91527006  0.13278207  1
  H+  H327  1  0.41677335  0.33364814  0.26753020  1
  H+  H328  1  0.08867624  0.92842044  0.10113940  1
  H+  H329  1  0.89262998  0.36582927  0.16518701  1
  H+  H330  1  0.68215629  0.08956985  0.56273335  1
  H+  H331  1  0.40185307  0.83104915  0.60332207  1
  H+  H332  1  0.42491562  0.07080522  0.59581228  1
  H+  H333  1  0.81377967  0.39927235  0.09168000  1
  H+  H334  1  0.83464898  0.90374179  0.10521421  1
  H+  H335  1  0.36634562  0.73318175  0.16521364  1
  H+  H336  1  0.07512157  0.44580732  0.41865604  1
  H+  H337  1  0.67488620  0.08385893  0.89850267  1
  H+  H338  1  0.93032671  0.35926331  0.25867572  1
  H+  H339  1  0.26749622  0.14304763  0.68622131  1
  H+  H340  1  0.42226973  0.31729753  0.56769507  1
  H+  H341  1  0.27068620  0.13831228  0.34048820  1
  H+  H342  1  0.89322089  0.85711831  0.32602152  1
  H+  H343  1  0.67853716  0.82673912  0.92952712  1
  H+  H344  1  0.83031088  0.17756898  0.10976624  1
  H+  H345  1  0.46317396  0.85505065  0.50547230  1
  H+  H346  1  0.66118842  0.57002335  0.56496645  1
  H+  H347  1  0.37406676  0.38348835  1.00218798  1
  H+  H348  1  0.13480058  0.65424731  0.84217770  1
  H+  H349  1  0.23192772  0.63090717  0.16325522  1
  H+  H350  1  0.86056371  0.72201626  0.82929621  1
  H+  H351  1  0.57376201  0.40726908  0.73760236  1
  H+  H352  1  0.57927994  0.64829691  0.76103713  1
  H+  H353  1  0.86618881  0.22469836  0.82631611  1
  H+  H354  1  0.91206193  0.34291733  0.89172893  1
  H+  H355  1  0.86970572  0.51015359  0.50138157  1
  H+  H356  1  0.38457766  0.36006107  0.17028562  1
  H+  H357  1  0.27202117  0.89184809  0.17039218  1
  H+  H358  1  0.57605115  0.65300511  0.39151298  1
  H+  H359  1  0.08930564  0.17216906  0.39647038  1
  H+  H360  1  0.33166798  0.40948474  0.73413497  1
  H+  H361  1  0.86078902  0.63573695  0.34348918  1
  H+  H362  1  0.09004898  0.65541013  0.46039212  1
  H+  H363  1  0.85812043  0.13402061  0.16462239  1
  H+  H364  1  0.94955546  0.08163344  0.88375865  1
  H+  H365  1  0.84369802  0.42342542  0.72666950  1
  H+  H366  1  0.59474595  0.18383961  0.07028706  1
  H+  H367  1  0.14546332  0.39263812  0.51819827  1
  H+  H368  1  0.39486842  0.82654045  0.24753998  1
  H+  H369  1  0.33056311  0.40029109  0.09706932  1
  H+  H370  1  0.11060227  0.71906292  0.67210692  1
  H+  H371  1  0.66751854  0.82674914  0.23237726  1
  H+  H372  1  0.89434600  0.05720299  0.59625655  1
  H+  H373  1  0.72379181  0.61634928  0.32666002  1
  H+  H374  1  0.85049850  0.15614309  0.43420281  1
  H+  H375  1  0.68656575  0.10000716  0.26987111  1
  H+  H376  1  0.64295671  0.36504354  0.66057343  1
  H+  H377  1  0.91807414  0.58382278  0.90303508  1
  H+  H378  1  0.17653175  0.84309455  0.94069498  1
  H+  H379  1  0.84092403  0.66926838  0.06718623  1
  H+  H380  1  0.59060891  0.66563215  0.09901601  1
  H+  H381  1  0.67230426  0.58077271  0.93731266  1
  H+  H382  1  0.83087613  0.66831193  0.43430776  1
  H+  H383  1  0.34037090  0.67647685  0.10348995  1
  O2-  O384  1  0.05684609  0.21784647  0.10523596  1
  O2-  O385  1  0.09588729  0.18635315  0.47381967  1
  O2-  O386  1  0.09690799  0.17153291  0.80224656  1
  O2-  O387  1  0.08547364  0.38130618  0.13162350  1
  O2-  O388  1  0.05152805  0.45564177  0.45786402  1
  O2-  O389  1  0.08658027  0.39622427  0.81133473  1
  O2-  O390  1  0.02350045  0.65367429  0.18835680  1
  O2-  O391  1  0.11128474  0.64544382  0.49897036  1
  O2-  O392  1  0.09610689  0.68564137  0.83074823  1
  O2-  O393  1  0.08743926  0.92742153  0.14658860  1
  O2-  O394  1  0.08445289  0.92091820  0.48634870  1
  O2-  O395  1  0.09397443  0.91740087  0.82117544  1
  O2-  O396  1  0.33733089  0.16691869  0.14872149  1
  O2-  O397  1  0.33543968  0.15706392  0.48049392  1
  O2-  O398  1  0.34282120  0.16360274  0.82356608  1
  O2-  O399  1  0.32966043  0.39893225  0.14225662  1
  O2-  O400  1  0.31269402  0.41765309  0.47255529  1
  O2-  O401  1  0.33886946  0.42166717  0.81160250  1
  O2-  O402  1  0.33743939  0.67350587  0.14855821  1
  O2-  O403  1  0.33485674  0.66020340  0.47710937  1
  O2-  O404  1  0.33749340  0.67579594  0.80150282  1
  O2-  O405  1  0.33298219  0.92158873  0.15114943  1
  O2-  O406  1  0.32754891  0.91200033  0.47741095  1
  O2-  O407  1  0.33204884  0.91089761  0.81902211  1
  O2-  O408  1  0.58798177  0.17334480  0.14640326  1
  O2-  O409  1  0.58853357  0.15641768  0.48136413  1
  O2-  O410  1  0.54278016  0.08334305  0.80171608  1
  O2-  O411  1  0.58754766  0.42135289  0.14017482  1
  O2-  O412  1  0.59143639  0.40709617  0.47641559  1
  O2-  O413  1  0.56282911  0.41626840  0.81786671  1
  O2-  O414  1  0.59100571  0.66318917  0.14417497  1
  O2-  O415  1  0.56751196  0.63280879  0.47315437  1
  O2-  O416  1  0.58125041  0.65108620  0.80700979  1
  O2-  O417  1  0.58724148  0.92289535  0.17356827  1
  O2-  O418  1  0.56725316  0.89050789  0.47346374  1
  O2-  O419  1  0.59450812  0.91087462  0.81620872  1
  O2-  O420  1  0.83200159  0.17108430  0.15467272  1
  O2-  O421  1  0.84794225  0.14944623  0.48073916  1
  O2-  O422  1  0.83823307  0.16396825  0.81177575  1
  O2-  O423  1  0.82793709  0.40214439  0.13547680  1
  O2-  O424  1  0.83716367  0.42288191  0.48254410  1
  O2-  O425  1  0.84818166  0.43492953  0.80524449  1
  O2-  O426  1  0.84483472  0.66181757  0.14525931  1
  O2-  O427  1  0.83206672  0.66821503  0.48017211  1
  O2-  O428  1  0.83098290  0.66010975  0.81603822  1
  O2-  O429  1  0.82918549  0.89907663  0.14998818  1
  O2-  O430  1  0.85087635  0.96122466  0.48241376  1
  O2-  O431  1  0.84042392  0.91500993  0.80725262  1
  O2-  O432  1  0.16957982  0.09908665  0.19235609  1
  O2-  O433  1  0.17543203  0.09665389  0.52352689  1
  O2-  O434  1  0.17550694  0.08457748  0.85859320  1
  O2-  O435  1  0.17324604  0.24935906  0.19608971  1
  O2-  O436  1  0.16770934  0.35427073  0.52748704  1
  O2-  O437  1  0.17693047  0.32690920  0.84883656  1
  O2-  O438  1  0.16984130  0.59735568  0.17514834  1
  O2-  O439  1  0.13050395  0.50494250  0.49304653  1
  O2-  O440  1  0.17783446  0.61462625  0.85355573  1
  O2-  O441  1  0.17992537  0.84837665  0.19164727  1
  O2-  O442  1  0.17007084  0.83035479  0.53032933  1
  O2-  O443  1  0.17261978  0.84188664  0.86448138  1
  O2-  O444  1  0.42385170  0.09004574  0.18708690  1
  O2-  O445  1  0.41909875  0.07510967  0.51701350  1
  O2-  O446  1  0.41274258  0.07212025  0.86736720  1
  O2-  O447  1  0.41703938  0.33184188  0.18785356  1
  O2-  O448  1  0.42314356  0.31176917  0.52284893  1
  O2-  O449  1  0.40043595  0.32402375  0.86679474  1
  O2-  O450  1  0.40926737  0.56655650  0.17235402  1
  O2-  O451  1  0.41459891  0.58448946  0.51837592  1
  O2-  O452  1  0.41633551  0.58486579  0.85290411  1
  O2-  O453  1  0.40555569  0.83331543  0.20001822  1
  O2-  O454  1  0.40383552  0.82610543  0.52183755  1
  O2-  O455  1  0.42466477  0.83401170  0.84500576  1
  O2-  O456  1  0.67557527  0.09937888  0.19424452  1
  O2-  O457  1  0.68008473  0.08998198  0.51765450  1
  O2-  O458  1  0.67603940  0.07322637  0.85423985  1
  O2-  O459  1  0.66337984  0.33893753  0.18395200  1
  O2-  O460  1  0.67484054  0.32910894  0.51738488  1
  O2-  O461  1  0.68654372  0.37866080  0.86478398  1
  O2-  O462  1  0.67626067  0.58379493  0.18424250  1
  O2-  O463  1  0.66678365  0.57245283  0.51969028  1
  O2-  O464  1  0.66664538  0.57992774  0.85921298  1
  O2-  O465  1  0.66479883  0.83088696  0.18697175  1
  O2-  O466  1  0.71668007  0.94338063  0.56057808  1
  O2-  O467  1  0.62872690  0.80468652  0.85999882  1
  O2-  O468  1  0.89150546  0.07119985  0.19060925  1
  O2-  O469  1  0.90838864  0.04448842  0.51128214  1
  O2-  O470  1  0.93326046  0.09039129  0.84031276  1
  O2-  O471  1  0.92686639  0.34252235  0.18506472  1
  O2-  O472  1  0.91731502  0.32495990  0.52185249  1
  O2-  O473  1  0.91245082  0.33137488  0.84749875  1
  O2-  O474  1  0.93838730  0.59636243  0.19549020  1
  O2-  O475  1  0.89670627  0.57443899  0.51810993  1
  O2-  O476  1  0.92962043  0.59300001  0.85791245  1
  O2-  O477  1  0.92305098  0.82572664  0.18636516  1
  O2-  O478  1  0.90996999  0.84875448  0.51509800  1
  O2-  O479  1  0.91635421  0.82598326  0.85367537  1
  O2-  O480  1  0.16618085  0.08109366  0.31657813  1
  O2-  O481  1  0.16543099  0.10415090  0.64381349  1
  O2-  O482  1  0.17821398  0.08711916  0.98674304  1
  O2-  O483  1  0.16714186  0.30854958  0.30142031  1
  O2-  O484  1  0.16957724  0.33695199  0.64742796  1
  O2-  O485  1  0.17100246  0.32412734  0.96664228  1
  O2-  O486  1  0.15285595  0.56742607  0.28884488  1
  O2-  O487  1  0.16728417  0.57496736  0.65472102  1
  O2-  O488  1  0.16834490  0.57906709  0.97278038  1
  O2-  O489  1  0.16266014  0.83752736  0.31643035  1
  O2-  O490  1  0.17273976  0.83389883  0.65327637  1
  O2-  O491  1  0.17277781  0.83999442  0.98644077  1
  O2-  O492  1  0.41019532  0.08345069  0.31037032  1
  O2-  O493  1  0.43376527  0.07438200  0.64052669  1
  O2-  O494  1  0.41828161  0.08663312  0.99034400  1
  O2-  O495  1  0.41906936  0.33605610  0.31288867  1
  O2-  O496  1  0.41386978  0.32358771  0.64731616  1
  O2-  O497  1  0.42995160  0.33248990  0.98017264  1
  O2-  O498  1  0.41512999  0.58472529  0.32806993  1
  O2-  O499  1  0.40997776  0.57279672  0.65680211  1
  O2-  O500  1  0.42016188  0.58660106  0.97727343  1
  O2-  O501  1  0.38188694  0.81915938  0.31459852  1
  O2-  O502  1  0.40817865  0.83709727  0.64832574  1
  O2-  O503  1  0.45307473  0.79542764  0.95199324  1
  O2-  O504  1  0.68934579  0.09343454  0.31521092  1
  O2-  O505  1  0.67503836  0.08923996  0.64289462  1
  O2-  O506  1  0.66350615  0.09182939  0.97706442  1
  O2-  O507  1  0.70514864  0.40841522  0.29689118  1
  O2-  O508  1  0.67460350  0.33718263  0.64346230  1
  O2-  O509  1  0.69866601  0.35927110  0.99187494  1
  O2-  O510  1  0.66508449  0.58446757  0.30852715  1
  O2-  O511  1  0.65032469  0.56351628  0.64410701  1
  O2-  O512  1  0.67348972  0.58085894  0.98294679  1
  O2-  O513  1  0.67231961  0.82562186  0.30997191  1
  O2-  O514  1  0.64873425  0.82373739  0.69140713  1
  O2-  O515  1  0.68623401  0.83317966  0.97472056  1
  O2-  O516  1  0.92519375  0.07855637  0.31268138  1
  O2-  O517  1  0.89703551  0.06174391  0.64095275  1
  O2-  O518  1  0.98358049  0.06355881  0.94103197  1
  O2-  O519  1  0.93253589  0.37125090  0.30367645  1
  O2-  O520  1  0.92611791  0.33056154  0.64638388  1
  O2-  O521  1  0.91493884  0.38001490  0.96604827  1
  O2-  O522  1  0.92169747  0.58969950  0.32247320  1
  O2-  O523  1  0.90492037  0.57415894  0.63412764  1
  O2-  O524  1  0.90052067  0.57030820  0.97780793  1
  O2-  O525  1  0.92367276  0.82692306  0.31149448  1
  O2-  O526  1  0.91424041  0.85969701  0.63848200  1
  O2-  O527  1  0.92426360  0.83705627  0.97925120  1
  O2-  O528  1  0.10587606  0.17233478  0.00096666  1
  O2-  O529  1  0.08571897  0.16302790  0.35140378  1
  O2-  O530  1  0.09620479  0.18515963  0.68876906  1
  O2-  O531  1  0.09480170  0.41117118  0.00225480  1
  O2-  O532  1  0.11615341  0.43213678  0.35686669  1
  O2-  O533  1  0.09565327  0.41816016  0.68809946  1
  O2-  O534  1  0.08695771  0.67077412  0.00823746  1
  O2-  O535  1  0.07562626  0.67890448  0.37683113  1
  O2-  O536  1  0.07824786  0.65724807  0.68225053  1
  O2-  O537  1  0.08555658  0.92492884  0.02151232  1
  O2-  O538  1  0.08301245  0.91869819  0.36108468  1
  O2-  O539  1  0.08637632  0.93074846  0.64158027  1
  O2-  O540  1  0.33828568  0.16900347  0.02463571  1
  O2-  O541  1  0.33181775  0.17061318  0.35525166  1
  O2-  O542  1  0.32501207  0.16886985  0.70475043  1
  O2-  O543  1  0.33824503  0.40861924  0.01590943  1
  O2-  O544  1  0.31535457  0.41018687  0.34740916  1
  O2-  O545  1  0.33257267  0.40885477  0.68852938  1
  O2-  O546  1  0.33084339  0.65950213  0.02374286  1
  O2-  O547  1  0.31391284  0.65953012  0.35249542  1
  O2-  O548  1  0.33435871  0.67738467  0.68527363  1
  O2-  O549  1  0.30540041  0.94715501  0.04397460  1
  O2-  O550  1  0.32431478  0.91268013  0.35466550  1
  O2-  O551  1  0.33718754  0.92028028  0.69729724  1
  O2-  O552  1  0.59778142  0.19129168  0.02463369  1
  O2-  O553  1  0.55127572  0.09201687  0.37113164  1
  O2-  O554  1  0.56623430  0.18282192  0.69528028  1
  O2-  O555  1  0.61559910  0.42419626  0.02594685  1
  O2-  O556  1  0.58114992  0.42065632  0.35325205  1
  O2-  O557  1  0.57880516  0.40348063  0.69271377  1
  O2-  O558  1  0.58814650  0.66434052  0.01813696  1
  O2-  O559  1  0.57704504  0.66113480  0.34688947  1
  O2-  O560  1  0.57618944  0.65173192  0.68615060  1
  O2-  O561  1  0.59789599  0.91563783  0.00170604  1
  O2-  O562  1  0.61529219  0.93369539  0.34939313  1
  O2-  O563  1  0.57913860  0.91030241  0.66302510  1
  O2-  O564  1  0.81103900  0.20250603  0.03843823  1
  O2-  O565  1  0.85600636  0.16598290  0.36429765  1
  O2-  O566  1  0.83630823  0.16443944  0.68615076  1
  O2-  O567  1  0.78932974  0.40302836  0.01285644  1
  O2-  O568  1  0.84794704  0.42820410  0.36155870  1
  O2-  O569  1  0.84177083  0.41772874  0.68140386  1
  O2-  O570  1  0.83691593  0.66990884  0.02168764  1
  O2-  O571  1  0.82989113  0.66619682  0.35695539  1
  O2-  O572  1  0.81021396  0.63416305  0.69762172  1
  O2-  O573  1  0.84127704  0.92573899  0.02425404  1
  O2-  O574  1  0.83687016  0.90637810  0.35367758  1
  O2-  O575  1  0.82224509  0.91360696  0.68823175  1
