# generated using pymatgen
data_H2O
_symmetry_space_group_name_H-M   'P 1'
_cell_length_a   17.98674789
_cell_length_b   17.98183836
_cell_length_c   21.99465650
_cell_angle_alpha   89.99030404
_cell_angle_beta   89.98881633
_cell_angle_gamma   119.98920742
_symmetry_Int_Tables_number   1
_chemical_formula_structural   H2O
_chemical_formula_sum   'H384 O192'
_cell_volume   6161.43319593
_cell_formula_units_Z   192
loop_
 _symmetry_equiv_pos_site_id
 _symmetry_equiv_pos_as_xyz
  1  'x, y, z'
loop_
 _atom_type_symbol
 _atom_type_oxidation_number
  H+  1.0
  O2-  -2.0
loop_
 _atom_site_type_symbol
 _atom_site_label
 _atom_site_symmetry_multiplicity
 _atom_site_fract_x
 _atom_site_fract_y
 _atom_site_fract_z
 _atom_site_occupancy
  H+  H0  1  0.37862994  0.35938857  0.33908332  1
  H+  H1  1  0.89458458  0.50538910  0.64431824  1
  H+  H2  1  0.60629052  0.85102114  0.17105617  1
  H+  H3  1  0.12336472  0.13776196  0.34711215  1
  H+  H4  1  0.22620652  0.86432214  0.50979275  1
  H+  H5  1  0.12553492  0.38015916  0.00321112  1
  H+  H6  1  0.52209733  0.13138512  0.00607365  1
  H+  H7  1  0.22234920  0.85815334  0.17177017  1
  H+  H8  1  0.37874951  0.52472579  0.83582680  1
  H+  H9  1  -0.00542522  0.84705102  0.67754362  1
  H+  H10  1  0.57278256  0.94846508  0.13098550  1
  H+  H11  1  1.11145486  0.13088346  1.00014317  1
  H+  H12  1  0.35854623  0.97162334  0.33898776  1
  H+  H13  1  0.16280508  0.28410883  0.33399415  1
  H+  H14  1  0.61074447  0.21854163  0.00528918  1
  H+  H15  1  0.11528669  0.97701472  -0.00228792  1
  H+  H16  1  0.38260439  0.36477467  0.83309165  1
  H+  H17  1  0.40811164  0.08321174  0.89713582  1
  H+  H18  1  0.61048006  0.22401787  0.67844383  1
  H+  H19  1  0.50894832  0.14102271  0.18056364  1
  H+  H20  1  0.35620453  0.21821519  0.15135071  1
  H+  H21  1  0.76572090  0.11949919  0.00319518  1
  H+  H22  1  0.86971810  0.41908071  0.20609445  1
  H+  H23  1  0.13853588  0.28035655  0.51260519  1
  H+  H24  1  0.11653846  0.88683710  0.15564182  1
  H+  H25  1  0.62195452  0.27488282  0.33729190  1
  H+  H26  1  0.31786172  0.91996974  0.09520368  1
  H+  H27  1  0.71453898  0.61052194  -0.00458600  1
  H+  H28  1  0.02167187  0.90070278  0.82995249  1
  H+  H29  1  0.97060519  0.60955326  0.85223540  1
  H+  H30  1  0.12964446  0.25904474  0.97767746  1
  H+  H31  1  0.36266956  0.97601357  0.49393089  1
  H+  H32  1  0.02382833  0.64504694  0.00667128  1
  H+  H33  1  0.63798792  0.61719105  0.32653065  1
  H+  H34  1  0.35648646  -0.03532419  0.16102305  1
  H+  H35  1  0.46766184  0.35745080  0.54643637  1
  H+  H36  1  0.16356814  0.32285196  0.88279271  1
  H+  H37  1  0.96803749  0.62063307  0.17016565  1
  H+  H38  1  0.59276395  0.46677310  0.81881911  1
  H+  H39  1  0.86569723  0.23026961  0.66562309  1
  H+  H40  1  0.77269887  0.88852189  0.82879483  1
  H+  H41  1  0.24498958  0.86065339  0.66267657  1
  H+  H42  1  0.36790711  0.84960424  0.16488397  1
  H+  H43  1  0.81720264  0.68300141  0.22408766  1
  H+  H44  1  0.59829097  0.63691789  0.16691102  1
  H+  H45  1  0.82816876  0.46753446  0.88227382  1
  H+  H46  1  0.08945712  0.85881141  0.67970330  1
  H+  H47  1  0.72842527  0.60936195  0.66070634  1
  H+  H48  1  0.86077864  0.77783774  0.66105661  1
  H+  H49  1  0.09503009  0.63082515  0.15095815  1
  H+  H50  1  0.72300293  0.36370519  0.66691409  1
  H+  H51  1  0.06513055  0.90684365  0.76642749  1
  H+  H52  1  0.64723476  0.66726892  0.67161794  1
  H+  H53  1  0.89260607  0.52773551  0.00886936  1
  H+  H54  1  0.63715378  0.76981311  0.99364491  1
  H+  H55  1  0.89863254  0.37406362  0.64252894  1
  H+  H56  1  0.26269046  0.62450335  0.15197255  1
  H+  H57  1  0.34945362  0.72802740  0.50549034  1
  H+  H58  1  0.59760442  0.62617388  0.49650381  1
  H+  H59  1  0.52726552  0.46575585  0.39540355  1
  H+  H60  1  0.60085111  0.48852324  0.34972027  1
  H+  H61  1  0.37670017  0.11208615  0.83654897  1
  H+  H62  1  0.22509915  0.11267844  0.98328638  1
  H+  H63  1  0.88943671  1.02105451  0.84419036  1
  H+  H64  1  0.35108816  0.47741636  0.99522084  1
  H+  H65  1  0.13541951  0.51875432  0.66487808  1
  H+  H66  1  0.63124579  0.36806677  0.32841021  1
  H+  H67  1  0.63500584  0.11204565  0.66240305  1
  H+  H68  1  0.72784138  0.36092379  0.51192813  1
  H+  H69  1  0.13733922  0.73670042  0.68132328  1
  H+  H70  1  0.38691269  0.63538687  0.52116401  1
  H+  H71  1  0.86346329  -0.02843947  1.00491885  1
  H+  H72  1  0.11586780  0.73311738  0.00415549  1
  H+  H73  1  0.61080619  0.75905771  0.17506188  1
  H+  H74  1  0.60783744  0.09944140  0.83938633  1
  H+  H75  1  0.38968852  0.52795411  0.33927340  1
  H+  H76  1  0.60269082  0.63501512  0.01258970  1
  H+  H77  1  0.86534889  0.38560284  0.49089920  1
  H+  H78  1  0.61625230  0.22158955  0.50463985  1
  H+  H79  1  0.62637508  0.52070848  0.99981527  1
  H+  H80  1  0.87854864  0.53100797  0.17753059  1
  H+  H81  1  0.35171257  0.21659551  0.33877887  1
  H+  H82  1  0.62609704  0.12564556  0.16244104  1
  H+  H83  1  0.39372849  0.11060609  0.50450298  1
  H+  H84  1  0.34671593  0.46548953  0.66206601  1
  H+  H85  1  0.83205417  0.44143568  0.59672336  1
  H+  H86  1  0.63522977  0.53155211  0.65537354  1
  H+  H87  1  0.60962977  0.72749521  0.33946640  1
  H+  H88  1  0.70968231  0.60072076  0.49862921  1
  H+  H89  1  0.39948869  0.90401383  0.68672888  1
  H+  H90  1  0.26932370  0.88247950  0.33911624  1
  H+  H91  1  0.84821753  0.86822644  0.33806841  1
  H+  H92  1  0.84494291  0.62837747  0.48654551  1
  H+  H93  1  0.13310098  0.61371482  0.99538600  1
  H+  H94  1  0.63067988  0.10403159  -0.01133466  1
  H+  H95  1  0.51410825  0.14655886  0.35236745  1
  H+  H96  1  0.52816910  0.13170846  0.50099750  1
  H+  H97  1  0.62474880  0.88639507  -0.00430963  1
  H+  H98  1  0.12705272  0.60932863  0.50128362  1
  H+  H99  1  0.87672597  0.25499117  1.00261528  1
  H+  H100  1  0.88464349  0.25282188  0.16321516  1
  H+  H101  1  0.62984543  0.86253870  0.84065124  1
  H+  H102  1  0.11343679  0.63437473  0.83684532  1
  H+  H103  1  0.46884079  0.61281928  0.99403949  1
  H+  H104  1  0.88776700  0.85912485  0.00062162  1
  H+  H105  1  0.88639804  0.34105891  0.15383705  1
  H+  H106  1  0.85321157  0.46918581  0.33942216  1
  H+  H107  1  0.37910975  0.76935570  0.84186269  1
  H+  H108  1  1.01012629  0.61183038  0.33729631  1
  H+  H109  1  0.12859053  0.39131232  0.81478581  1
  H+  H110  1  0.17114869  0.31386842  0.60261486  1
  H+  H111  1  0.13372593  0.76761775  0.32360247  1
  H+  H112  1  0.89493467  0.11380286  0.49658160  1
  H+  H113  1  0.88255001  0.82686228  0.57256622  1
  H+  H114  1  0.23157406  0.10457273  0.65383524  1
  H+  H115  1  0.15032682  0.07571209  0.27380991  1
  H+  H116  1  0.35955918  0.85539147  -0.00360050  1
  H+  H117  1  0.90232965  0.63664798  0.65991950  1
  H+  H118  1  0.78541305  0.13998686  0.49281650  1
  H+  H119  1  0.27302173  0.63880004  0.82673951  1
  H+  H120  1  0.11090915  0.47784002  0.49320012  1
  H+  H121  1  0.52164961  0.89224250  0.32308346  1
  H+  H122  1  0.60375611  0.38480772  0.00551022  1
  H+  H123  1  0.12747496  0.02797669  0.82618465  1
  H+  H124  1  0.77301811  0.12202158  0.16507272  1
  H+  H125  1  0.85582318  0.64167996  0.18121790  1
  H+  H126  1  0.84874308  0.96692889  0.48633886  1
  H+  H127  1  0.73387497  0.11065244  0.32861901  1
  H+  H128  1  0.60776492  0.86381707  0.62986178  1
  H+  H129  1  0.23833611  0.61268990  0.66742819  1
  H+  H130  1  0.50901964  0.38599435  0.16368624  1
  H+  H131  1  0.85268512  0.76307309  0.51357264  1
  H+  H132  1  0.33415619  0.91624897  0.76900767  1
  H+  H133  1  1.02301859  0.08410553  0.65225917  1
  H+  H134  1  0.62909581  0.77423238  0.83787795  1
  H+  H135  1  0.41733524  0.07627629  0.56535469  1
  H+  H136  1  0.38928119  0.11864371  0.98791408  1
  H+  H137  1  0.88150350  0.09937587  0.16811539  1
  H+  H138  1  0.12958303  1.02063156  0.18006609  1
  H+  H139  1  0.12321934  0.50531348  0.14803624  1
  H+  H140  1  0.63544990  0.78980600  0.64485399  1
  H+  H141  1  0.26672404  0.13575404  0.81798972  1
  H+  H142  1  0.87259881  0.98069747  0.15502062  1
  H+  H143  1  0.57831447  0.17848040  0.40994744  1
  H+  H144  1  0.88650988  0.76976014  1.00298628  1
  H+  H145  1  0.85543329  0.63133855  0.01556835  1
  H+  H146  1  0.65538359  0.26801679  0.17918181  1
  H+  H147  1  0.64627135  0.82916152  0.23653097  1
  H+  H148  1  0.63205338  0.75929886  0.49939958  1
  H+  H149  1  0.12377784  -0.01750166  0.48737423  1
  H+  H150  1  0.35793110  0.63869725  0.00561813  1
  H+  H151  1  0.77309000  0.88037229  1.00640521  1
  H+  H152  1  0.60009977  0.46166016  0.50902794  1
  H+  H153  1  0.12486996  0.01771011  0.33517349  1
  H+  H154  1  0.39304020  0.37253048  0.64712467  1
  H+  H155  1  0.14335303  0.76504735  0.84846060  1
  H+  H156  1  0.40844714  0.66440189  0.35624902  1
  H+  H157  1  0.86309936  0.21627977  0.33351877  1
  H+  H158  1  0.02532038  0.20141039  0.75990822  1
  H+  H159  1  0.50455245  0.12214252  0.82613608  1
  H+  H160  1  0.14635266  0.35789363  0.17775254  1
  H+  H161  1  0.61743569  0.30877663  0.92878663  1
  H+  H162  1  0.14045899  0.27698045  0.81681868  1
  H+  H163  1  0.03339318  0.13953986  0.49818007  1
  H+  H164  1  0.78476501  0.65383266  0.83493489  1
  H+  H165  1  0.88031823  0.88992180  0.15343341  1
  H+  H166  1  0.12952691  0.06294230  0.65806328  1
  H+  H167  1  0.13575193  0.77708247  0.51048660  1
  H+  H168  1  0.46395695  0.61692457  0.83402191  1
  H+  H169  1  0.37615464  0.10413885  0.33021235  1
  H+  H170  1  0.38167758  1.02740158  -0.00687897  1
  H+  H171  1  0.85539765  0.11955350  0.00610020  1
  H+  H172  1  0.86746080  0.34485474  0.31967030  1
  H+  H173  1  0.03964999  0.38764246  0.81343430  1
  H+  H174  1  0.41083525  0.66698530  0.62219270  1
  H+  H175  1  0.52825156  0.39749746  0.65745266  1
  H+  H176  1  0.64458774  0.06809459  0.90260548  1
  H+  H177  1  0.50813517  0.63661986  0.16897914  1
  H+  H178  1  0.27466476  0.39829719  0.51255714  1
  H+  H179  1  0.35898531  0.22627977  0.99654472  1
  H+  H180  1  0.89279366  0.35047292  1.01034817  1
  H+  H181  1  0.37284844  0.85806221  0.51021245  1
  H+  H182  1  0.69109025  0.34991790  0.85479210  1
  H+  H183  1  0.45315699  0.84541114  0.50374593  1
  H+  H184  1  0.05241630  0.13352832  0.74334454  1
  H+  H185  1  0.13578897  0.12110413  0.83200125  1
  H+  H186  1  0.37629530  0.14384224  0.14731274  1
  H+  H187  1  0.81673767  0.37318593  0.88622511  1
  H+  H188  1  0.96189398  0.05868911  0.31158803  1
  H+  H189  1  0.13505514  0.36826793  0.51292830  1
  H+  H190  1  0.63098602  0.01301654  0.98571630  1
  H+  H191  1  0.87309476  0.74271441  0.83316696  1
  H+  H192  1  0.35200229  0.72592610  0.00996933  1
  H+  H193  1  0.15175110  0.62542142  0.67308784  1
  H+  H194  1  0.97526170  0.10463654  0.99569197  1
  H+  H195  1  0.88237394  0.86313558  0.84978198  1
  H+  H196  1  0.37864654  0.85868029  0.84206086  1
  H+  H197  1  0.91088348  0.58252000  0.94663260  1
  H+  H198  1  0.76218975  0.38291677  0.34148134  1
  H+  H199  1  0.14689481  0.49474590  0.33584872  1
  H+  H200  1  0.13770779  0.86257186  0.98518219  1
  H+  H201  1  0.86022100  0.72672452  0.33461985  1
  H+  H202  1  0.37981122  0.36438151  -0.01263922  1
  H+  H203  1  0.85047446  0.09581175  0.64953818  1
  H+  H204  1  0.72363629  0.11141621  0.66499400  1
  H+  H205  1  0.27708415  0.39129542  0.81728536  1
  H+  H206  1  0.47663771  0.11117966  0.66000753  1
  H+  H207  1  0.14256199  0.40545976  0.34269793  1
  H+  H208  1  0.11668334  0.22500302  0.15887047  1
  H+  H209  1  0.79355314  0.39129687  1.03733136  1
  H+  H210  1  1.04642055  0.65166777  0.67985350  1
  H+  H211  1  0.14301588  0.52552973  0.84101784  1
  H+  H212  1  0.08652286  0.16544148  0.06017723  1
  H+  H213  1  0.60690241  0.00335746  0.83818723  1
  H+  H214  1  0.57547610  0.83774082  0.47083099  1
  H+  H215  1  1.03199342  0.40386757  0.66021491  1
  H+  H216  1  0.27692184  0.97388777  1.04382614  1
  H+  H217  1  0.15212386  0.61791377  0.30202254  1
  H+  H218  1  0.60744449  0.34663978  0.82648798  1
  H+  H219  1  -0.00947081  0.87418957  0.16455938  1
  H+  H220  1  0.34054222  0.42704384  0.41748427  1
  H+  H221  1  0.59431180  0.21054196  0.82582900  1
  H+  H222  1  0.86727145  0.12826063  0.33509520  1
  H+  H223  1  0.62677782  0.86447694  0.31964861  1
  H+  H224  1  0.12819354  0.10829673  0.17967165  1
  H+  H225  1  0.82714288  0.41257754  0.43488326  1
  H+  H226  1  0.70547481  0.35977232  0.95601329  1
  H+  H227  1  0.58761236  0.63260928  0.82446514  1
  H+  H228  1  0.86559948  0.99142933  0.32208282  1
  H+  H229  1  0.77097131  0.38159006  0.18219598  1
  H+  H230  1  0.53111986  0.51006449  0.88211044  1
  H+  H231  1  0.37845570  0.97960651  0.67632144  1
  H+  H232  1  0.36383110  0.40280374  0.52288380  1
  H+  H233  1  0.04996472  0.16526564  0.35479935  1
  H+  H234  1  0.11802960  0.89177853  0.49303448  1
  H+  H235  1  0.89749336  0.78670563  0.17246548  1
  H+  H236  1  0.89358296  0.27593089  0.49781764  1
  H+  H237  1  0.27280774  0.36732825  0.66777749  1
  H+  H238  1  0.22339378  0.61484855  0.99765627  1
  H+  H239  1  0.97633084  0.11082081  0.83568676  1
  H+  H240  1  0.65160720  0.11566543  0.50580069  1
  H+  H241  1  0.72214440  0.85866066  0.49593605  1
  H+  H242  1  0.49001263  0.86114995  0.15139702  1
  H+  H243  1  0.21535321  0.60935120  0.50399881  1
  H+  H244  1  0.86099988  0.96392639  0.68713002  1
  H+  H245  1  0.71430315  0.85715913  0.31986311  1
  H+  H246  1  0.97468071  0.86301524  0.33035781  1
  H+  H247  1  0.88079475  0.14442056  0.82452704  1
  H+  H248  1  0.37032653  0.22995466  0.66446921  1
  H+  H249  1  0.79550533  0.55466026  0.72013090  1
  H+  H250  1  0.70313394  0.60837461  0.17502846  1
  H+  H251  1  0.10395810  0.88310952  0.34111589  1
  H+  H252  1  0.35570685  -0.02417161  0.82848838  1
  H+  H253  1  0.68022307  1.08623263  0.56403467  1
  H+  H254  1  0.51584319  0.38629602  1.00384690  1
  H+  H255  1  0.26286933  0.12694292  0.33934488  1
  H+  H256  1  0.64014735  1.02638139  0.32616347  1
  H+  H257  1  0.48120873  0.61107242  0.32907656  1
  H+  H258  1  0.50575211  0.87674236  0.83423575  1
  H+  H259  1  0.84185793  0.16557738  0.43133477  1
  H+  H260  1  0.36062647  0.63737709  0.82943313  1
  H+  H261  1  0.39116162  0.55217233  0.53769712  1
  H+  H262  1  0.59012950  0.68340524  0.76386279  1
  H+  H263  1  0.15066681  0.57100235  0.09473457  1
  H+  H264  1  0.85859700  0.22026678  0.82903481  1
  H+  H265  1  0.23438268  0.87875944  0.99953352  1
  H+  H266  1  0.28599152  0.39769442  0.35481788  1
  H+  H267  1  0.01478219  0.64207108  0.48788824  1
  H+  H268  1  0.23636493  0.86035921  0.84270516  1
  H+  H269  1  0.84569882  0.17653336  0.72754995  1
  H+  H270  1  0.38249532  0.86365636  0.32298871  1
  H+  H271  1  0.65222975  0.82985447  0.56480587  1
  H+  H272  1  0.61534737  0.39425402  0.66599061  1
  H+  H273  1  0.38720081  0.10987474  0.65925671  1
  H+  H274  1  0.88099632  0.52152621  0.50144676  1
  H+  H275  1  0.66218537  0.58237549  0.56260863  1
  H+  H276  1  0.15180597  0.11952302  0.50683102  1
  H+  H277  1  0.88905926  0.62193301  0.85172957  1
  H+  H278  1  0.12929575  0.47043174  0.01144688  1
  H+  H279  1  0.65506316  0.01463563  0.19429326  1
  H+  H280  1  0.55346862  0.90343248  0.77089805  1
  H+  H281  1  0.91473796  0.35741031  0.85378883  1
  H+  H282  1  0.46400185  0.35724259  0.33649400  1
  H+  H283  1  0.34067468  0.65144462  0.73486289  1
  H+  H284  1  0.36943373  0.48486715  0.16401452  1
  H+  H285  1  1.02580003  0.13769458  0.15548445  1
  H+  H286  1  0.61182708  0.51915070  0.17088875  1
  H+  H287  1  0.40375473  0.75089876  0.34989472  1
  H+  H288  1  0.81419816  0.89727468  0.39679987  1
  H+  H289  1  0.23402985  0.35706325  0.17195710  1
  H+  H290  1  0.07961857  0.91355213  0.40372816  1
  H+  H291  1  0.81791076  0.66191337  0.42868068  1
  H+  H292  1  0.88273995  0.31182431  0.91841531  1
  H+  H293  1  0.34064711  0.42498261  0.76064035  1
  H+  H294  1  0.40530560  0.82979950  0.26152574  1
  H+  H295  1  0.33949865  0.17446299  0.72645822  1
  H+  H296  1  0.79951679  0.36174752  0.74712327  1
  H+  H297  1  0.17890624  0.83211784  0.91390486  1
  H+  H298  1  0.46532145  0.81366302  0.68403711  1
  H+  H299  1  0.06365827  0.57632414  0.37012193  1
  H+  H300  1  0.42365658  0.08931363  0.27462295  1
  H+  H301  1  0.18930907  0.33806490  0.27222399  1
  H+  H302  1  0.57504643  0.41921156  0.75356902  1
  H+  H303  1  0.66707265  0.32998194  0.60727552  1
  H+  H304  1  0.10276907  0.17817697  0.44483799  1
  H+  H305  1  0.85015700  0.92162735  0.77736674  1
  H+  H306  1  0.55749734  0.38977673  0.45948947  1
  H+  H307  1  0.76980880  0.63639838  0.33290478  1
  H+  H308  1  0.09532816  0.39929474  0.10347781  1
  H+  H309  1  0.33186386  0.65991647  0.10029729  1
  H+  H310  1  0.59646170  0.15714494  0.10235502  1
  H+  H311  1  0.98213423  0.36706641  0.49666384  1
  H+  H312  1  0.63628072  0.35703122  0.51934670  1
  H+  H313  1  0.85671331  0.42717779  0.09158902  1
  H+  H314  1  0.18475478  0.24310557  0.63372483  1
  H+  H315  1  0.92454816  0.84259127  0.26674439  1
  H+  H316  1  0.92809328  0.33830710  0.58798068  1
  H+  H317  1  0.33307232  0.16595812  0.05537894  1
  H+  H318  1  0.83221320  0.64705016  0.74687361  1
  H+  H319  1  0.08887498  0.66983977  0.77839319  1
  H+  H320  1  0.40511913  0.32144868  0.24228091  1
  H+  H321  1  0.88357160  0.61250952  0.32874559  1
  H+  H322  1  0.49141185  0.78940976  0.42841805  1
  H+  H323  1  0.41147281  0.58697460  0.93296407  1
  H+  H324  1  0.79453397  0.39999539  0.75437886  1
  H+  H325  1  0.91468162  0.82973033  0.90706581  1
  H+  H326  1  0.91270931  0.58526486  0.26836751  1
  H+  H327  1  0.56631475  0.41806323  0.10255034  1
  H+  H328  1  0.02744602  0.88679051  0.00434343  1
  H+  H329  1  0.16741249  0.57924939  0.90371940  1
  H+  H330  1  0.18037456  0.83061364  0.60564355  1
  H+  H331  1  0.16411909  0.08335325  0.92434864  1
  H+  H332  1  0.48168318  0.20011883  0.21371930  1
  H+  H333  1  0.40752513  0.57998096  0.24157491  1
  H+  H334  1  0.83956185  0.87221962  0.49587365  1
  H+  H335  1  0.51646092  0.64250090  0.50284316  1
  H+  H336  1  0.66733040  0.32596622  0.23877349  1
  H+  H337  1  0.70838019  0.75677899  0.70029253  1
  H+  H338  1  0.62260380  0.56626245  0.90875050  1
  H+  H339  1  0.17996130  0.07901955  0.56030359  1
  H+  H340  1  0.16178179  0.57109134  0.24601715  1
  H+  H341  1  0.36707776  0.75875205  0.16953883  1
  H+  H342  1  0.28853784  0.13679747  0.49198487  1
  H+  H343  1  0.59349605  0.97505053  0.65282410  1
  H+  H344  1  0.81928445  0.66159019  0.07065265  1
  H+  H345  1  0.56293030  0.89441029  0.04292328  1
  H+  H346  1  0.39756323  0.43667769  0.11775613  1
  H+  H347  1  0.46689945  0.35685484  0.82950465  1
  H+  H348  1  0.09139340  0.42734585  0.72106406  1
  H+  H349  1  0.30776169  0.41433043  0.05073344  1
  H+  H350  1  0.65300655  0.57709644  0.26609170  1
  H+  H351  1  0.98107823  0.70198263  0.62066674  1
  H+  H352  1  0.82351476  0.14416722  0.10013112  1
  H+  H353  1  0.90787641  0.07245154  0.55562872  1
  H+  H354  1  0.57530423  0.15671944  0.73375749  1
  H+  H355  1  0.37465954  0.60732933  0.18073817  1
  H+  H356  1  0.37364687  0.35045792  0.18475000  1
  H+  H357  1  0.02632267  0.36795865  0.15874750  1
  H+  H358  1  0.07273174  0.67268519  0.09683188  1
  H+  H359  1  0.39607248  0.82844443  0.94059712  1
  H+  H360  1  0.66971612  0.82717515  0.93229937  1
  H+  H361  1  0.90880643  0.06345318  0.22660941  1
  H+  H362  1  0.09522933  0.42205558  0.43350605  1
  H+  H363  1  0.08011562  0.67300391  0.43288300  1
  H+  H364  1  0.57014061  0.90205080  0.38445205  1
  H+  H365  1  0.13063964  0.77121628  0.17145054  1
  H+  H366  1  0.57108709  0.66783684  0.06952574  1
  H+  H367  1  0.89914542  0.31625652  0.26034818  1
  H+  H368  1  0.16019933  0.82735339  0.26529795  1
  H+  H369  1  0.89299084  0.88202091  0.67742693  1
  H+  H370  1  -0.02156017  0.01066755  0.70219864  1
  H+  H371  1  0.34360347  0.15926246  0.43254840  1
  H+  H372  1  0.83971854  0.91628627  0.09084311  1
  H+  H373  1  0.67808777  0.08408617  0.24787843  1
  H+  H374  1  0.91848146  0.07707538  0.93545818  1
  H+  H375  1  0.91416193  0.59356888  0.55534399  1
  H+  H376  1  0.09158203  0.92024811  0.09474345  1
  H+  H377  1  0.79241732  0.01024990  0.61472818  1
  H+  H378  1  0.21734709  0.34926740  0.97387967  1
  H+  H379  1  0.41234495  0.33607936  0.92882212  1
  H+  H380  1  0.58253842  0.66899711  0.40033900  1
  H+  H381  1  0.35511371  0.22460826  0.82288072  1
  H+  H382  1  0.32872094  0.91522313  0.43481291  1
  H+  H383  1  0.34459358  0.67530985  0.44630703  1
  O2-  O384  1  0.08544993  0.16667629  0.13997234  1
  O2-  O385  1  0.09624671  0.17555462  0.48986083  1
  O2-  O386  1  0.05651285  0.17481316  0.77716768  1
  O2-  O387  1  0.08883504  0.40154333  0.14916648  1
  O2-  O388  1  0.08441941  0.41592360  0.47855937  1
  O2-  O389  1  0.09918280  0.42405949  0.80097703  1
  O2-  O390  1  0.06876003  0.66696785  0.14255737  1
  O2-  O391  1  0.07709119  0.67424215  0.47763550  1
  O2-  O392  1  0.08462992  0.66729633  0.82377816  1
  O2-  O393  1  0.08672184  0.91745927  0.14015325  1
  O2-  O394  1  0.09122368  0.92180512  0.47278377  1
  O2-  O395  1  0.07582997  0.93474627  0.80740175  1
  O2-  O396  1  0.34001496  0.16456786  0.12909522  1
  O2-  O397  1  0.34890753  0.16197091  0.47736790  1
  O2-  O398  1  0.32883508  0.16550969  0.80566386  1
  O2-  O399  1  0.34823506  0.42830706  0.14169540  1
  O2-  O400  1  0.33739852  0.43263129  0.50226043  1
  O2-  O401  1  0.33929209  0.42536801  0.80608191  1
  O2-  O402  1  0.32603526  0.65651749  0.14610281  1
  O2-  O403  1  0.32624229  0.66678108  0.48951867  1
  O2-  O404  1  0.33303492  0.66894101  0.81078320  1
  O2-  O405  1  0.32385248  0.90839410  0.14182482  1
  O2-  O406  1  0.32680781  0.91473911  0.48003931  1
  O2-  O407  1  0.32823395  0.91438807  0.81468473  1
  O2-  O408  1  0.60064296  0.16044282  0.14750698  1
  O2-  O409  1  0.58913100  0.16375140  0.48592006  1
  O2-  O410  1  0.56673751  0.14859863  0.81291167  1
  O2-  O411  1  0.56676932  0.42651921  0.14711389  1
  O2-  O412  1  0.56827504  0.39755327  0.50346433  1
  O2-  O413  1  0.56976578  0.41024330  0.79878704  1
  O2-  O414  1  0.56889891  0.66958911  0.15281803  1
  O2-  O415  1  0.57337622  0.66245815  0.48166512  1
  O2-  O416  1  0.57040463  0.67253441  0.80680142  1
  O2-  O417  1  0.55141201  0.88691250  0.13433930  1
  O2-  O418  1  0.53182321  0.84487552  0.44874196  1
  O2-  O419  1  0.56538736  0.90964865  0.81519303  1
  O2-  O420  1  0.83154375  0.14870278  0.14551500  1
  O2-  O421  1  0.84653331  0.16985220  0.47658528  1
  O2-  O422  1  0.87177409  0.18612908  0.80057580  1
  O2-  O423  1  0.83778572  0.42228179  0.17122799  1
  O2-  O424  1  0.83169397  0.41512752  0.48048291  1
  O2-  O425  1  0.78799901  0.40767776  0.89465251  1
  O2-  O426  1  0.82422536  0.67548216  0.18083589  1
  O2-  O427  1  0.81076403  0.65541315  0.47363113  1
  O2-  O428  1  0.84267597  0.67937643  0.81832277  1
  O2-  O429  1  0.84524728  0.91796000  0.13828210  1
  O2-  O430  1  0.81322190  0.90561717  0.47362076  1
  O2-  O431  1  0.83586938  0.91722052  0.82302089  1
  O2-  O432  1  0.14872181  0.07465997  0.20264676  1
  O2-  O433  1  0.18145655  0.08642285  0.51471281  1
  O2-  O434  1  0.16387140  0.08918329  0.84436996  1
  O2-  O435  1  0.17737301  0.32730777  0.19158296  1
  O2-  O436  1  0.16657500  0.33976017  0.53001064  1
  O2-  O437  1  0.17099832  0.33347321  0.83729792  1
  O2-  O438  1  0.14882138  0.56908135  0.13929238  1
  O2-  O439  1  0.15331041  0.57534937  0.51462117  1
  O2-  O440  1  0.16960300  0.58434891  0.85831235  1
  O2-  O441  1  0.16208264  0.83101915  0.18771871  1
  O2-  O442  1  0.16766330  0.83527481  0.52898321  1
  O2-  O443  1  0.17761325  0.82668719  0.86370628  1
  O2-  O444  1  0.45839556  0.14069778  0.20059004  1
  O2-  O445  1  0.42241087  0.07767229  0.52024634  1
  O2-  O446  1  0.40582129  0.08017232  0.85147883  1
  O2-  O447  1  0.40477202  0.32068234  0.19673721  1
  O2-  O448  1  0.41140658  0.34420343  0.56477798  1
  O2-  O449  1  0.40965362  0.33198922  0.84974283  1
  O2-  O450  1  0.40810973  0.57994243  0.19571092  1
  O2-  O451  1  0.42382402  0.61524320  0.54297290  1
  O2-  O452  1  0.40681193  0.58401159  0.85399162  1
  O2-  O453  1  0.39932439  0.82100672  0.18163159  1
  O2-  O454  1  0.39926381  0.82495881  0.52675715  1
  O2-  O455  1  0.40827732  0.82898985  0.85936205  1
  O2-  O456  1  0.67708194  0.07608273  0.19832927  1
  O2-  O457  1  0.68717691  0.09057071  0.51947657  1
  O2-  O458  1  0.63676130  0.06542460  0.85500155  1
  O2-  O459  1  0.68141175  0.32769707  0.19464035  1
  O2-  O460  1  0.67098965  0.33071951  0.53301434  1
  O2-  O461  1  0.62836994  0.31140523  0.84771024  1
  O2-  O462  1  0.64281258  0.58071385  0.18864172  1
  O2-  O463  1  0.65098022  0.57151028  0.51824000  1
  O2-  O464  1  0.59037881  0.54783151  0.86909437  1
  O2-  O465  1  0.63930112  0.82376934  0.18899390  1
  O2-  O466  1  0.65858411  0.82290503  0.51099201  1
  O2-  O467  1  0.66214917  0.83397285  0.85409907  1
  O2-  O468  1  0.91347586  0.06884352  0.18128787  1
  O2-  O469  1  0.92058006  0.07821876  0.51139547  1
  O2-  O470  1  0.92163024  0.08240514  0.85872656  1
  O2-  O471  1  0.91617098  0.31546179  0.17485792  1
  O2-  O472  1  0.92081371  0.33699513  0.51239654  1
  O2-  O473  1  0.86381895  0.31280794  0.87405451  1
  O2-  O474  1  0.90924945  0.59305893  0.18920458  1
  O2-  O475  1  0.90732029  0.58440947  0.51091550  1
  O2-  O476  1  0.91165151  0.58583357  0.86886490  1
  O2-  O477  1  0.92941864  0.84948533  0.18103911  1
  O2-  O478  1  0.87118546  0.82186706  0.52756482  1
  O2-  O479  1  0.91370009  0.83188093  0.86169982  1
  O2-  O480  1  0.15437553  0.07867657  0.32027306  1
  O2-  O481  1  0.17659454  0.06480292  0.63382579  1
  O2-  O482  1  0.16360859  0.08110824  0.96979306  1
  O2-  O483  1  0.19238486  0.34353981  0.31733597  1
  O2-  O484  1  0.18234063  0.29483711  0.64305547  1
  O2-  O485  1  0.15764238  0.31707666  0.95774592  1
  O2-  O486  1  0.18494806  0.59163610  0.28645097  1
  O2-  O487  1  0.17647189  0.59005884  0.65546159  1
  O2-  O488  1  0.16181162  0.58032679  0.98423002  1
  O2-  O489  1  0.16033229  0.82765091  0.31099452  1
  O2-  O490  1  0.18357623  0.82768190  0.65115782  1
  O2-  O491  1  0.17328057  0.83553225  0.97500327  1
  O2-  O492  1  0.41066229  0.07620586  0.31836808  1
  O2-  O493  1  0.41576898  0.07704676  0.64609610  1
  O2-  O494  1  0.41888041  0.08624069  0.97489221  1
  O2-  O495  1  0.40450219  0.32666304  0.32050485  1
  O2-  O496  1  0.42507854  0.34380341  0.63090869  1
  O2-  O497  1  0.41310126  0.33651358  0.97431834  1
  O2-  O498  1  0.41931348  0.58490885  0.31798331  1
  O2-  O499  1  0.41104787  0.69622700  0.66069471  1
  O2-  O500  1  0.40855290  0.58302955  0.97832261  1
  O2-  O501  1  0.41617001  0.83745832  0.30604771  1
  O2-  O502  1  0.49483666  0.87563305  0.69549947  1
  O2-  O503  1  0.38890464  0.82411549  0.98547472  1
  O2-  O504  1  0.67519760  0.08620474  0.31061878  1
  O2-  O505  1  0.66349994  0.07906163  0.64951485  1
  O2-  O506  1  0.65970389  0.07463423  0.96939393  1
  O2-  O507  1  0.65792465  0.33476390  0.31620199  1
  O2-  O508  1  0.66312289  0.33291430  0.65310108  1
  O2-  O509  1  0.64516593  0.32428673  0.96973431  1
  O2-  O510  1  0.66338940  0.58227102  0.31115536  1
  O2-  O511  1  0.67176758  0.59361809  0.64322919  1
  O2-  O512  1  0.65299622  0.58120405  0.98354884  1
  O2-  O513  1  0.65384662  0.82966871  0.30397886  1
  O2-  O514  1  0.64727697  0.84043426  0.61906230  1
  O2-  O515  1  0.67452926  0.82927417  0.97775425  1
  O2-  O516  1  0.90491762  0.05067287  0.30413299  1
  O2-  O517  1  0.85120539  0.04618760  0.62896398  1
  O2-  O518  1  0.91411473  0.07250466  0.98103104  1
  O2-  O519  1  0.89351006  0.31112220  0.30485000  1
  O2-  O520  1  0.92932163  0.34248648  0.63400752  1
  O2-  O521  1  0.90743259  0.31418954  0.98539626  1
  O2-  O522  1  0.91150450  0.57975384  0.31352881  1
  O2-  O523  1  0.94899750  0.64133991  0.63243488  1
  O2-  O524  1  0.91378326  0.58639170  0.99221309  1
  O2-  O525  1  0.91516811  0.83295312  0.31111405  1
  O2-  O526  1  0.90166436  0.83515175  0.64679285  1
  O2-  O527  1  0.91870758  0.82915374  0.98636628  1
  O2-  O528  1  0.08105902  0.16150368  0.01487444  1
  O2-  O529  1  0.10856038  0.18159416  0.36586483  1
  O2-  O530  1  0.03724605  0.06643366  0.69039974  1
  O2-  O531  1  0.12262122  0.41955374  0.03327986  1
  O2-  O532  1  0.11741511  0.43967272  0.35810426  1
  O2-  O533  1  0.09240306  0.43675913  0.67643266  1
  O2-  O534  1  0.08462991  0.67315307  0.02105657  1
  O2-  O535  1  0.06952783  0.62919491  0.35298122  1
  O2-  O536  1  0.10361657  0.67516786  0.69862526  1
  O2-  O537  1  0.08953276  0.91790693  0.01567846  1
  O2-  O538  1  0.07290248  0.91168154  0.35675163  1
  O2-  O539  1  0.03782724  0.84287691  0.70378333  1
  O2-  O540  1  0.33016207  0.16499086  0.00929728  1
  O2-  O541  1  0.32479490  0.15525430  0.35093133  1
  O2-  O542  1  0.34158492  0.17113376  0.68119018  1
  O2-  O543  1  0.31919298  0.41479706  0.00708222  1
  O2-  O544  1  0.34569610  0.42737018  0.37229939  1
  O2-  O545  1  0.33382735  0.41153930  0.68151708  1
  O2-  O546  1  0.32559961  0.66438388  0.02467713  1
  O2-  O547  1  0.41064961  0.71292036  0.37962568  1
  O2-  O548  1  0.33321623  0.62969284  0.69165771  1
  O2-  O549  1  0.30307239  0.93952315  0.03226278  1
  O2-  O550  1  0.32962690  0.91054060  0.35374022  1
  O2-  O551  1  0.35523438  0.92014216  0.69395662  1
  O2-  O552  1  0.58327583  0.15846685  0.02024262  1
  O2-  O553  1  0.57271653  0.18914158  0.36605108  1
  O2-  O554  1  0.58023433  0.16171804  0.68854901  1
  O2-  O555  1  0.57552094  0.41677276  0.02083764  1
  O2-  O556  1  0.55774478  0.43998311  0.37579603  1
  O2-  O557  1  0.58641489  0.42791402  0.67674290  1
  O2-  O558  1  0.57280217  0.66718196  0.02437176  1
  O2-  O559  1  0.58615441  0.66782424  0.35511668  1
  O2-  O560  1  0.64783895  0.71858894  0.69058494  1
  O2-  O561  1  0.59177085  0.91638255  0.00388053  1
  O2-  O562  1  0.58149264  0.91733619  0.34007288  1
  O2-  O563  1  0.55388839  0.91164425  0.64310407  1
  O2-  O564  1  0.82293548  0.14664168  0.02330363  1
  O2-  O565  1  0.83789961  0.15709006  0.35245868  1
  O2-  O566  1  0.83335012  0.17131980  0.68263031  1
  O2-  O567  1  0.85480807  0.42432686  0.04638275  1
  O2-  O568  1  0.82331872  0.40954722  0.35542829  1
  O2-  O569  1  0.84886060  0.44572837  0.63937588  1
  O2-  O570  1  0.82284607  0.66173968  0.02635219  1
  O2-  O571  1  0.83029666  0.66539806  0.34833146  1
  O2-  O572  1  0.81844681  0.61418432  0.70724395  1
  O2-  O573  1  0.83359884  0.91174272  0.02316012  1
  O2-  O574  1  0.81360293  0.89538059  0.35091919  1
  O2-  O575  1  0.88899191  0.93901102  0.71144777  1
