# generated using pymatgen
data_H2O
_symmetry_space_group_name_H-M   'P 1'
_cell_length_a   17.97565921
_cell_length_b   17.97406947
_cell_length_c   22.00202696
_cell_angle_alpha   89.99958062
_cell_angle_beta   90.00757360
_cell_angle_gamma   119.97862509
_symmetry_Int_Tables_number   1
_chemical_formula_structural   H2O
_chemical_formula_sum   'H384 O192'
_cell_volume   6157.69342626
_cell_formula_units_Z   192
loop_
 _symmetry_equiv_pos_site_id
 _symmetry_equiv_pos_as_xyz
  1  'x, y, z'
loop_
 _atom_type_symbol
 _atom_type_oxidation_number
  H+  1.0
  O2-  -2.0
loop_
 _atom_site_type_symbol
 _atom_site_label
 _atom_site_symmetry_multiplicity
 _atom_site_fract_x
 _atom_site_fract_y
 _atom_site_fract_z
 _atom_site_occupancy
  H+  H0  1  0.60658991  0.13208911  0.49831082  1
  H+  H1  1  0.43570060  0.75746731  0.15622445  1
  H+  H2  1  0.11483459  0.47829990  0.49742146  1
  H+  H3  1  0.91860707  0.06861855  0.92394407  1
  H+  H4  1  0.11492756  0.21821049  0.34189883  1
  H+  H5  1  0.28718852  0.68480029  0.15723917  1
  H+  H6  1  0.87282444  0.62828074  0.32001832  1
  H+  H7  1  0.86459157  0.73102273  0.68010932  1
  H+  H8  1  0.35729760  0.62937676  0.49770181  1
  H+  H9  1  0.84868321  0.87448056  0.50031994  1
  H+  H10  1  0.89553440  0.86129920  0.16196759  1
  H+  H11  1  0.18203420  0.12973895  0.37243650  1
  H+  H12  1  0.31592819  0.15393121  0.34203857  1
  H+  H13  1  0.76913187  0.86818220  0.33506547  1
  H+  H14  1  0.63172511  0.89775052  0.16342185  1
  H+  H15  1  0.27723358  0.63390684  0.34304513  1
  H+  H16  1  0.77995794  0.13967870  0.16652890  1
  H+  H17  1  0.88698837  0.51494797  -0.00055662  1
  H+  H18  1  0.87298450  0.41227048  0.34355363  1
  H+  H19  1  0.60073404  0.36148284  0.83256195  1
  H+  H20  1  0.61938461  0.78124779  0.48197466  1
  H+  H21  1  0.32466188  0.14743726  -0.01013136  1
  H+  H22  1  0.16235770  0.83193278  0.61525885  1
  H+  H23  1  -0.02390635  0.61396380  0.66194792  1
  H+  H24  1  0.39271529  0.77219981  0.50738053  1
  H+  H25  1  0.12703316  0.38811764  0.01045450  1
  H+  H26  1  0.33280630  0.08456555  0.90590588  1
  H+  H27  1  0.37808958  0.35228119  0.50339190  1
  H+  H28  1  0.97726075  0.36584695  0.50677289  1
  H+  H29  1  -0.01333080  0.86099736  0.16562735  1
  H+  H30  1  0.72487277  0.10385814  0.65313573  1
  H+  H31  1  0.89076395  0.35757672  0.80465016  1
  H+  H32  1  0.12043127  0.97155252  0.15182756  1
  H+  H33  1  0.90403878  0.10567380  0.37080762  1
  H+  H34  1  0.86940642  0.38954073  0.65926096  1
  H+  H35  1  0.11653898  0.64062886  0.50196304  1
  H+  H36  1  0.86608026  0.48607767  0.66055288  1
  H+  H37  1  0.11138616  0.23144097  0.49681135  1
  H+  H38  1  0.72537132  0.36526178  0.50848963  1
  H+  H39  1  0.63399941  0.35829306  0.50542417  1
  H+  H40  1  0.65028760  0.78221062  0.17095387  1
  H+  H41  1  0.48324284  0.37279568  0.31711133  1
  H+  H42  1  0.22924087  0.85617153  0.18236893  1
  H+  H43  1  0.60941700  -0.02687319  0.33885183  1
  H+  H44  1  0.08618447  0.16147277  0.09088586  1
  H+  H45  1  0.73367483  0.64962779  0.83411273  1
  H+  H46  1  0.36813526  0.96933236  0.15581469  1
  H+  H47  1  0.61608473  0.24275871  0.84226347  1
  H+  H48  1  0.77939762  0.61991285  0.50286833  1
  H+  H49  1  0.86503388  0.47372933  0.16596002  1
  H+  H50  1  0.72243536  0.86417640  0.49145515  1
  H+  H51  1  0.62466121  0.68417371  0.82394321  1
  H+  H52  1  0.48242153  0.85926752  0.66508650  1
  H+  H53  1  0.38936537  0.24211120  0.31366474  1
  H+  H54  1  0.38865460  0.61656764  0.83670864  1
  H+  H55  1  0.72987030  0.61517670  0.67325441  1
  H+  H56  1  0.85271817  0.71960289  0.49523713  1
  H+  H57  1  0.64202521  0.36906876  0.66509540  1
  H+  H58  1  0.75953644  0.64637569  0.34250628  1
  H+  H59  1  0.40001474  0.53404713  0.83360365  1
  H+  H60  1  0.50871578  0.38025365  0.49420324  1
  H+  H61  1  -0.03073866  0.60979849  0.17773284  1
  H+  H62  1  -0.02718251  0.11544752  0.49885574  1
  H+  H63  1  0.88061486  0.36459374  0.16590762  1
  H+  H64  1  0.17273143  0.33828815  0.56267240  1
  H+  H65  1  0.56654745  0.47187679  0.46586969  1
  H+  H66  1  0.84214768  0.78767642  0.34156534  1
  H+  H67  1  0.42253011  0.37493259  0.97845328  1
  H+  H68  1  0.38288494  0.02101971  0.66021367  1
  H+  H69  1  0.37726482  0.10396921  0.50608792  1
  H+  H70  1  0.26019330  0.12765590  0.51060318  1
  H+  H71  1  0.36553571  0.72620440  0.67333386  1
  H+  H72  1  0.77047410  0.38879362  0.66170647  1
  H+  H73  1  0.37214451  0.39401457  0.81816041  1
  H+  H74  1  0.36047081  0.97262814  0.50042934  1
  H+  H75  1  0.28804321  0.40160969  0.82267562  1
  H+  H76  1  0.15974265  0.28848437  0.83959814  1
  H+  H77  1  0.86294269  0.48119330  0.49792569  1
  H+  H78  1  0.13001593  0.39889995  0.82274323  1
  H+  H79  1  0.30006871  0.66913712  0.18516019  1
  H+  H80  1  0.61363026  0.21872422  0.15885312  1
  H+  H81  1  0.85667903  0.22346977  0.67072376  1
  H+  H82  1  0.10828960  0.60192858  0.17928440  1
  H+  H83  1  0.62404856  0.60571251  0.33052969  1
  H+  H84  1  0.87779735  0.09608894  0.82644367  1
  H+  H85  1  0.11611839  0.38924625  0.49593810  1
  H+  H86  1  0.60348544  0.72072280  0.32744184  1
  H+  H87  1  0.39596674  0.01677092  0.29779764  1
  H+  H88  1  0.14011766  0.14960728  0.82966513  1
  H+  H89  1  0.98511609  0.85975763  1.00134664  1
  H+  H90  1  0.57271991  0.40468862  0.23942790  1
  H+  H91  1  0.52445268  0.12692191  0.15279626  1
  H+  H92  1  0.02034379  0.89042113  0.68373476  1
  H+  H93  1  0.54332591  0.89858784  0.17335164  1
  H+  H94  1  0.65075519  0.63864624  -0.00690304  1
  H+  H95  1  0.62826931  0.65873607  0.51446791  1
  H+  H96  1  0.18406671  0.04244796  0.37324635  1
  H+  H97  1  0.36388822  0.62918020  0.34190172  1
  H+  H98  1  0.39665113  0.37902977  0.32459233  1
  H+  H99  1  0.97208949  0.61165945  0.84403827  1
  H+  H100  1  0.22890948  0.36303427  0.50076215  1
  H+  H101  1  0.37965090  0.95516637  0.37443935  1
  H+  H102  1  0.87604641  0.54148569  0.32738408  1
  H+  H103  1  0.33208790  0.17247919  0.08820527  1
  H+  H104  1  0.15116256  1.03535772  0.83699368  1
  H+  H105  1  0.36477873  0.22871128  0.66723502  1
  H+  H106  1  0.49838218  0.71824020  0.44121416  1
  H+  H107  1  0.10600788  0.72179568  1.00864052  1
  H+  H108  1  0.11094823  0.63878495  0.82841814  1
  H+  H109  1  0.10962405  0.72486466  0.67846719  1
  H+  H110  1  0.66687031  0.07854688  0.56652397  1
  H+  H111  1  0.52640666  0.38694106  0.67892717  1
  H+  H112  1  0.11039762  0.72591191  0.16823544  1
  H+  H113  1  0.51036345  0.62914156  0.33040110  1
  H+  H114  1  0.32036285  0.35077456  0.97973886  1
  H+  H115  1  0.17321549  0.83518242  0.24252734  1
  H+  H116  1  0.29570078  0.39312202  0.34325271  1
  H+  H117  1  0.88754808  0.61670504  0.66222460  1
  H+  H118  1  0.82480545  0.94381569  0.79904197  1
  H+  H119  1  0.13630515  0.61375805  0.66261991  1
  H+  H120  1  0.96946381  0.86943150  0.50875902  1
  H+  H121  1  0.58708723  0.90566010  0.73340991  1
  H+  H122  1  0.38248953  0.26939346  0.83137226  1
  H+  H123  1  0.11892916  0.88072623  0.16309463  1
  H+  H124  1  0.22295574  0.86040160  0.52844180  1
  H+  H125  1  0.65171491  0.02953905  0.17578529  1
  H+  H126  1  0.02265789  0.39454518  0.34683322  1
  H+  H127  1  0.98823300  0.00506798  0.27723576  1
  H+  H128  1  0.26527772  0.37994612  0.14960785  1
  H+  H129  1  0.21719707  0.86186255  -0.01521981  1
  H+  H130  1  0.19276890  0.59690259  0.18302599  1
  H+  H131  1  0.04901748  0.11815100  0.34053603  1
  H+  H132  1  0.60632999  0.21986897  0.50353131  1
  H+  H133  1  0.36489934  0.22249721  0.15115322  1
  H+  H134  1  0.64442382  0.24923918  -0.00183832  1
  H+  H135  1  0.11507473  0.22559685  0.14852831  1
  H+  H136  1  0.24321731  0.11925020  0.82999275  1
  H+  H137  1  0.73547937  0.09573246  -0.01198874  1
  H+  H138  1  0.36708628  0.47836072  0.66757676  1
  H+  H139  1  0.23231101  0.10733772  0.14841685  1
  H+  H140  1  0.59974063  0.22804859  0.68528629  1
  H+  H141  1  0.39249811  0.86095407  0.51046133  1
  H+  H142  1  0.83995240  0.66857590  0.10280540  1
  H+  H143  1  0.42050742  0.07360173  0.21338415  1
  H+  H144  1  0.32802606  0.23709888  -0.00305552  1
  H+  H145  1  0.12382675  0.48497987  0.82225156  1
  H+  H146  1  0.66110789  0.49586942  0.52973116  1
  H+  H147  1  0.46955745  0.10773396  0.50737210  1
  H+  H148  1  0.86279960  0.39189743  0.49631370  1
  H+  H149  1  0.30627384  0.39912038  0.08479410  1
  H+  H150  1  0.11230628  0.38904881  0.66628554  1
  H+  H151  1  0.34112905  0.66318892  1.06423977  1
  H+  H152  1  0.64049873  0.02815825  0.50230447  1
  H+  H153  1  0.46778194  0.85749575  0.99991717  1
  H+  H154  1  0.15777043  0.26863096  -0.00575349  1
  H+  H155  1  0.39499182  0.15002453  0.80872046  1
  H+  H156  1  0.05710165  0.15809708  0.84227050  1
  H+  H157  1  0.87352239  0.12418787  0.00431154  1
  H+  H158  1  0.61356054  0.63841231  0.67694603  1
  H+  H159  1  0.88587684  0.27784479  0.50716870  1
  H+  H160  1  0.41469665  0.57867220  0.56803731  1
  H+  H161  1  0.53634974  0.11535671  0.01200016  1
  H+  H162  1  0.72396953  0.35513184  0.17439973  1
  H+  H163  1  0.64648139  0.33762498  1.00143972  1
  H+  H164  1  0.13031873  0.60639959  0.99523829  1
  H+  H165  1  0.39073560  0.87323507  0.32632653  1
  H+  H166  1  0.19079531  0.13025585  1.00141001  1
  H+  H167  1  0.08751273  0.98828172  0.49759642  1
  H+  H168  1  0.53170319  0.64763735  0.15821542  1
  H+  H169  1  0.98203254  0.35462271  1.02772628  1
  H+  H170  1  0.02810262  0.90004224  0.82941074  1
  H+  H171  1  0.11142365  0.72805491  0.82608500  1
  H+  H172  1  0.27501107  0.63767521  0.67253023  1
  H+  H173  1  0.60280255  0.07408940  0.84144550  1
  H+  H174  1  0.39352294  0.61217659  -0.00950063  1
  H+  H175  1  0.52140109  0.88195789  0.33992251  1
  H+  H176  1  0.87904427  0.29047481  0.33217624  1
  H+  H177  1  0.39013378  0.36490077  0.65813880  1
  H+  H178  1  0.46333364  0.61146548  0.50366296  1
  H+  H179  1  0.69556593  0.11689016  0.33526173  1
  H+  H180  1  0.14159441  0.86971396  0.83619776  1
  H+  H181  1  0.61365134  0.80380921  0.82767335  1
  H+  H182  1  0.87196881  0.37838237  1.02804589  1
  H+  H183  1  0.40619681  0.86373684  0.18332185  1
  H+  H184  1  0.37911770  0.85178228  -0.01666583  1
  H+  H185  1  0.87492106  0.97721547  0.15131090  1
  H+  H186  1  0.98073953  0.12619136  0.65445707  1
  H+  H187  1  0.57243399  0.40357618  -0.03520356  1
  H+  H188  1  0.87173570  0.73229841  0.82527864  1
  H+  H189  1  0.09488306  0.46826236  0.16211362  1
  H+  H190  1  0.63822433  0.01345728  0.65442969  1
  H+  H191  1  0.42704060  0.13021120  0.92521251  1
  H+  H192  1  0.38562136  0.51435149  0.16581116  1
  H+  H193  1  0.36179645  0.72451753  0.82651903  1
  H+  H194  1  0.63122733  0.87934493  0.48972412  1
  H+  H195  1  0.25391070  0.88052563  0.32772281  1
  H+  H196  1  0.98341380  0.11508902  0.16361186  1
  H+  H197  1  0.58146889  0.43989899  -0.10127384  1
  H+  H198  1  0.94172175  0.05857939  0.81620334  1
  H+  H199  1  0.13683845  0.52472775  0.66048129  1
  H+  H200  1  0.07952791  0.66872976  0.10648870  1
  H+  H201  1  0.36072014  0.13638471  0.66582799  1
  H+  H202  1  0.78233760  0.37335017  1.01119314  1
  H+  H203  1  0.13450607  0.02480056  0.67030756  1
  H+  H204  1  0.89540416  1.01329969  -0.01535724  1
  H+  H205  1  0.33141735  0.66552564  0.76647760  1
  H+  H206  1  0.98326457  0.36499291  0.80354871  1
  H+  H207  1  0.12978167  0.35985215  0.16595988  1
  H+  H208  1  0.42996676  0.04018682  0.82607267  1
  H+  H209  1  0.38934079  0.61422413  0.65990749  1
  H+  H210  1  0.86826489  0.71814764  1.01443880  1
  H+  H211  1  0.40536388  0.11166417  0.29630604  1
  H+  H212  1  0.16354858  0.83434968  0.89518689  1
  H+  H213  1  0.22701309  0.61384177  0.50885117  1
  H+  H214  1  0.23029079  0.36826095  0.65689629  1
  H+  H215  1  0.63943603  0.86355262  0.32431639  1
  H+  H216  1  0.11884189  0.47362900  0.00581853  1
  H+  H217  1  0.11520736  0.14235223  0.67686727  1
  H+  H218  1  0.77422204  0.63718282  1.01164963  1
  H+  H219  1  0.87855586  0.86817399  0.69088654  1
  H+  H220  1  0.38926486  0.77714665  0.33142851  1
  H+  H221  1  0.86095304  0.06504288  0.37141898  1
  H+  H222  1  0.65118847  0.10259853  -0.00706254  1
  H+  H223  1  0.37736894  0.35652761  0.16004410  1
  H+  H224  1  0.28906610  0.89742365  0.83153265  1
  H+  H225  1  0.93831109  0.79547278  0.55824770  1
  H+  H226  1  0.88156219  0.26515423  0.16710089  1
  H+  H227  1  0.10975324  0.35138851  0.32543500  1
  H+  H228  1  0.85396318  0.46691725  0.83308613  1
  H+  H229  1  0.76843781  0.14101944  0.49702188  1
  H+  H230  1  0.14214120  0.10688035  0.15029084  1
  H+  H231  1  0.86624063  0.63991010  0.83172112  1
  H+  H232  1  0.86191166  0.87678586  1.00067095  1
  H+  H233  1  0.89056775  0.61691765  0.50314333  1
  H+  H234  1  0.36117383  0.46634599  0.49172311  1
  H+  H235  1  0.51351352  0.37378373  0.18233536  1
  H+  H236  1  0.88648521  0.75031054  0.16140172  1
  H+  H237  1  0.76987287  0.37506273  0.82988709  1
  H+  H238  1  0.63381016  0.52070707  0.33063645  1
  H+  H239  1  0.73203291  0.86591348  0.67878723  1
  H+  H240  1  0.35571651  0.71799051  0.00563714  1
  H+  H241  1  0.64443669  0.78682433  0.98451268  1
  H+  H242  1  0.13096737  0.86513599  0.99251852  1
  H+  H243  1  1.02796823  0.64163324  0.49905749  1
  H+  H244  1  0.86517759  0.13923569  0.66251474  1
  H+  H245  1  0.22466782  0.11420232  0.66560521  1
  H+  H246  1  0.22648780  0.61806628  0.83868159  1
  H+  H247  1  0.64575294  0.77924406  0.66291649  1
  H+  H248  1  0.60882910  0.95799315  0.83454731  1
  H+  H249  1  0.40951494  0.07684691  0.59842400  1
  H+  H250  1  0.61995743  0.87974816  0.67415474  1
  H+  H251  1  0.74177827  0.86914849  0.17069890  1
  H+  H252  1  0.34998332  0.96380240  -0.05401846  1
  H+  H253  1  0.64473826  0.55193767  0.96820900  1
  H+  H254  1  0.43486498  0.83711681  0.24498301  1
  H+  H255  1  0.39101970  0.10300767  0.15107662  1
  H+  H256  1  0.66501632  0.85313766  -0.07018605  1
  H+  H257  1  0.88422571  0.02547508  0.49906452  1
  H+  H258  1  0.47940016  0.84960275  0.84307988  1
  H+  H259  1  0.14099645  0.27954021  0.65810374  1
  H+  H260  1  0.06710143  0.91429363  0.33991935  1
  H+  H261  1  0.87181190  0.14192736  0.16717363  1
  H+  H262  1  0.36873557  0.88719039  0.67634388  1
  H+  H263  1  0.13069214  0.11843773  0.51823991  1
  H+  H264  1  0.83100620  0.15477440  0.34448752  1
  H+  H265  1  0.13288606  0.65676316  0.35130798  1
  H+  H266  1  0.88037730  0.21812561  0.80694039  1
  H+  H267  1  1.03223658  0.11764165  0.99261700  1
  H+  H268  1  0.14597559  0.89831104  0.34913391  1
  H+  H269  1  0.13513185  0.77313783  0.52516989  1
  H+  H270  1  0.52680228  0.66199583  0.82230493  1
  H+  H271  1  0.87591804  0.86115895  0.81247889  1
  H+  H272  1  0.52662374  0.21022274  0.42444649  1
  H+  H273  1  0.37899038  0.26315349  0.50646096  1
  H+  H274  1  0.51465349  0.36893840  0.82981298  1
  H+  H275  1  0.63278633  0.35037716  0.18547968  1
  H+  H276  1  0.63295489  0.62138002  0.52471316  1
  H+  H277  1  0.50742866  0.14157630  0.67702853  1
  H+  H278  1  0.09961544  0.98140377  0.01606036  1
  H+  H279  1  0.60043205  0.96979844  0.01041474  1
  H+  H280  1  0.39129696  0.32672549  0.89051359  1
  H+  H281  1  0.40748239  0.61183782  0.16848133  1
  H+  H282  1  0.38787609  0.51006403  0.33414797  1
  H+  H283  1  0.22212815  0.86109137  0.67448841  1
  H+  H284  1  0.61633289  0.64325771  0.16000801  1
  H+  H285  1  0.62138562  0.52325553  0.18167370  1
  H+  H286  1  0.62208071  0.38305567  0.33429233  1
  H+  H287  1  0.97393670  0.36974128  0.66027657  1
  H+  H288  1  0.08583736  0.91526812  0.07018324  1
  H+  H289  1  0.21960140  0.60731857  0.99491660  1
  H+  H290  1  0.91684087  0.34432492  0.27096656  1
  H+  H291  1  0.55514408  0.68302386  0.41093985  1
  H+  H292  1  0.18792968  0.34736276  0.89845988  1
  H+  H293  1  0.15485313  0.08278418  0.57827145  1
  H+  H294  1  0.67355572  0.83811582  0.26409549  1
  H+  H295  1  0.37429747  0.88933910  0.83325576  1
  H+  H296  1  0.57238384  0.92308935  0.07507117  1
  H+  H297  1  0.41833627  0.82279467  0.90145173  1
  H+  H298  1  0.85815979  0.14141828  0.48961281  1
  H+  H299  1  0.53197592  0.64912818  1.00186075  1
  H+  H300  1  0.83599523  0.14770978  0.75779780  1
  H+  H301  1  0.16196607  0.79158040  0.33677636  1
  H+  H302  1  0.08634194  0.92435405  0.77060307  1
  H+  H303  1  0.65790790  0.30382967  0.89965587  1
  H+  H304  1  0.34143702  0.41452541  0.42766462  1
  H+  H305  1  0.57257486  0.39386233  0.38967300  1
  H+  H306  1  0.73588148  0.37447051  0.33032223  1
  H+  H307  1  0.08816072  0.42006348  0.72721323  1
  H+  H308  1  0.87512427  0.27065885  0.92796761  1
  H+  H309  1  0.08926494  0.17822433  0.73385605  1
  H+  H310  1  0.47984415  0.61581933  0.65968269  1
  H+  H311  1  0.13794467  0.52505948  0.33725075  1
  H+  H312  1  0.84035538  0.66808612  0.73662583  1
  H+  H313  1  0.77716210  0.88636879  -0.00381838  1
  H+  H314  1  0.16864263  0.58433591  0.56899923  1
  H+  H315  1  0.07695124  0.66124440  0.73499104  1
  H+  H316  1  0.83578395  0.41483871  0.10463831  1
  H+  H317  1  0.33327091  0.66224127  0.43634206  1
  H+  H318  1  0.42490831  0.83366519  0.60500411  1
  H+  H319  1  0.84064184  0.91523503  0.09311344  1
  H+  H320  1  0.33107666  0.88800068  0.11105912  1
  H+  H321  1  0.15539918  0.57936144  0.27721939  1
  H+  H322  1  0.34530128  0.92085715  0.73629567  1
  H+  H323  1  0.66473838  0.33536032  0.60367455  1
  H+  H324  1  0.59256061  0.15369943  0.07263604  1
  H+  H325  1  0.88187847  0.60154532  1.00131507  1
  H+  H326  1  0.67548100  0.32830714  0.27290112  1
  H+  H327  1  0.65858358  0.07986959  0.27049929  1
  H+  H328  1  0.31455158  0.89942226  0.44951613  1
  H+  H329  1  0.90306262  0.58299567  0.23466474  1
  H+  H330  1  0.91177888  -0.00951659  0.31756040  1
  H+  H331  1  0.16106904  0.08540292  0.26630142  1
  H+  H332  1  0.40339138  0.33378208  0.22483086  1
  H+  H333  1  -0.02443558  0.36163476  0.16276299  1
  H+  H334  1  0.64051746  0.52529182  0.67532475  1
  H+  H335  1  0.10897047  0.88640602  0.68154517  1
  H+  H336  1  0.91782813  0.34050064  0.59843485  1
  H+  H337  1  0.64652409  0.11572475  0.17322716  1
  H+  H338  1  0.29709837  0.14321368  0.44594461  1
  H+  H339  1  0.69405785  0.55923021  0.58664184  1
  H+  H340  1  0.41916623  0.33269855  0.59974328  1
  H+  H341  1  0.91720816  0.58903700  0.56504301  1
  H+  H342  1  0.10481542  0.68976077  0.40895033  1
  H+  H343  1  0.48209675  0.73864508  0.10268177  1
  H+  H344  1  0.52498804  0.88720186  0.49002203  1
  H+  H345  1  0.05321985  0.27038936  0.28607198  1
  H+  H346  1  0.58158731  0.91771430  0.42618191  1
  H+  H347  1  0.90599084  0.85140170  0.62447074  1
  H+  H348  1  0.68545621  0.63932286  0.89609444  1
  H+  H349  1  0.08389935  0.41676480  0.40568175  1
  H+  H350  1  0.93222251  0.07245858  0.22447410  1
  H+  H351  1  0.40990808  0.56778771  0.27045736  1
  H+  H352  1  0.91408350  0.58117063  0.90400434  1
  H+  H353  1  0.35572198  0.96759273  0.01538102  1
  H+  H354  1  0.81823907  0.18698917  0.40781615  1
  H+  H355  1  0.43011915  0.59296497  0.93082197  1
  H+  H356  1  0.82127869  0.67563451  0.40068546  1
  H+  H357  1  0.65569140  0.58817171  0.23550062  1
  H+  H358  1  0.07122492  0.92770710  0.43962193  1
  H+  H359  1  0.83136031  0.89597058  0.43322717  1
  H+  H360  1  0.16482390  0.58448402  0.89745617  1
  H+  H361  1  0.55009969  0.14995210  0.76675191  1
  H+  H362  1  0.56233923  0.44684252  0.07728207  1
  H+  H363  1  0.83727567  0.14375883  0.06541051  1
  H+  H364  1  0.45651558  0.21697612  0.38647578  1
  H+  H365  1  0.12342289  0.04062565  0.26518462  1
  H+  H366  1  0.58307700  0.67881652  0.73048072  1
  H+  H367  1  0.08743057  0.16841972  0.43956594  1
  H+  H368  1  0.87306756  0.64124032  0.16467913  1
  H+  H369  1  0.08014442  0.41428990  0.09949602  1
  H+  H370  1  0.58205710  0.41074688  0.74068119  1
  H+  H371  1  0.34591495  0.16992619  0.75620663  1
  H+  H372  1  0.89277870  0.85768888  0.88099043  1
  H+  H373  1  0.92254868  0.09484140  0.59442775  1
  H+  H374  1  0.93586310  0.80893508  0.94258687  1
  H+  H375  1  0.59210147  0.68184486  0.06193500  1
  H+  H376  1  0.83781225  0.43297737  0.40408566  1
  H+  H377  1  0.52086560  0.40809741  0.06769297  1
  H+  H378  1  0.89219747  0.29031590  0.89719984  1
  H+  H379  1  0.33861999  0.42081455  0.72740918  1
  H+  H380  1  0.89399509  0.26502283  0.02678775  1
  H+  H381  1  0.01904765  0.63142898  0.01151673  1
  H+  H382  1  0.15770375  0.32769526  0.22380193  1
  H+  H383  1  0.65209664  0.05868458  0.89691570  1
  O2-  O384  1  0.08345943  0.16403387  0.13593958  1
  O2-  O385  1  0.08019984  0.16924097  0.48446192  1
  O2-  O386  1  0.10901592  0.18234098  0.81752161  1
  O2-  O387  1  0.06941673  0.40851955  0.14497759  1
  O2-  O388  1  0.08352103  0.41786246  0.48142756  1
  O2-  O389  1  0.10013198  0.42685136  0.80365870  1
  O2-  O390  1  0.07636607  0.66572215  0.15194878  1
  O2-  O391  1  0.09035705  0.67563964  0.48894543  1
  O2-  O392  1  0.07793376  0.66661512  0.81345268  1
  O2-  O393  1  0.08677678  0.90672055  0.14382904  1
  O2-  O394  1  0.04263823  0.93826026  0.47427925  1
  O2-  O395  1  0.08874398  0.92547077  0.81650807  1
  O2-  O396  1  0.34068246  0.16453759  0.13202403  1
  O2-  O397  1  0.31678753  0.15311509  0.48871580  1
  O2-  O398  1  0.35256721  0.16898102  0.80191529  1
  O2-  O399  1  0.32207413  0.40720279  0.12886215  1
  O2-  O400  1  0.33188676  0.40727038  0.47470029  1
  O2-  O401  1  0.34676085  0.42958759  0.80415985  1
  O2-  O402  1  0.43038386  0.71153075  0.12760625  1
  O2-  O403  1  0.33414692  0.66622812  0.48202241  1
  O2-  O404  1  0.32897141  0.66362840  0.81201729  1
  O2-  O405  1  0.33690580  0.90354580  0.15380703  1
  O2-  O406  1  0.33073999  0.90832135  0.49238585  1
  O2-  O407  1  0.35095522  0.92721305  0.82020506  1
  O2-  O408  1  0.58777698  0.15892617  0.14185821  1
  O2-  O409  1  0.57245474  0.16035039  0.48803571  1
  O2-  O410  1  0.54956753  0.13642276  0.81454445  1
  O2-  O411  1  0.57556587  0.40240732  0.19514845  1
  O2-  O412  1  0.56919262  0.42170075  0.47954898  1
  O2-  O413  1  0.57815195  0.40083942  0.82282436  1
  O2-  O414  1  0.59164428  0.67950800  0.14345304  1
  O2-  O415  1  0.54027814  0.70098935  0.45199538  1
  O2-  O416  1  0.58516472  0.70329667  0.80583638  1
  O2-  O417  1  0.60059036  0.92893961  0.15217073  1
  O2-  O418  1  0.58525237  0.91874884  0.47284012  1
  O2-  O419  1  0.58255745  0.89396030  0.81840693  1
  O2-  O420  1  0.84178584  0.17236471  0.15139841  1
  O2-  O421  1  0.82877822  0.17467561  0.47944720  1
  O2-  O422  1  0.84963192  0.15421551  0.80209788  1
  O2-  O423  1  0.83791597  0.41243245  0.15067968  1
  O2-  O424  1  0.83054345  0.42064024  0.48231902  1
  O2-  O425  1  0.82978971  0.40850725  0.81617937  1
  O2-  O426  1  0.84952316  0.67844163  0.14829407  1
  O2-  O427  1  0.83007015  0.66167341  0.47735702  1
  O2-  O428  1  0.84010197  0.67175346  0.81173048  1
  O2-  O429  1  0.84495270  0.91574759  0.13857898  1
  O2-  O430  1  0.82312040  0.90318936  0.47735618  1
  O2-  O431  1  0.81044474  0.88718928  0.78168060  1
  O2-  O432  1  0.16890577  0.07061201  0.15267881  1
  O2-  O433  1  0.15658191  0.08367842  0.53269711  1
  O2-  O434  1  0.18575961  0.09712989  0.84833433  1
  O2-  O435  1  0.16137119  0.33000076  0.17885515  1
  O2-  O436  1  0.16862047  0.33643503  0.51716105  1
  O2-  O437  1  0.18686967  0.34954025  0.85348531  1
  O2-  O438  1  0.13213335  0.56474969  0.19508750  1
  O2-  O439  1  0.16628251  0.58211383  0.52337282  1
  O2-  O440  1  0.16485512  0.58778283  0.85221746  1
  O2-  O441  1  0.16873809  0.82896648  0.19669071  1
  O2-  O442  1  0.16353724  0.83155491  0.54400774  1
  O2-  O443  1  0.17203967  0.83896388  0.85035825  1
  O2-  O444  1  0.42007680  0.07116470  0.16492235  1
  O2-  O445  1  0.40746980  0.07331769  0.52086061  1
  O2-  O446  1  0.46014543  0.10329568  0.83515786  1
  O2-  O447  1  0.40520017  0.32652992  0.17964088  1
  O2-  O448  1  0.40987506  0.32419285  0.52072641  1
  O2-  O449  1  0.40855945  0.32951462  0.84673765  1
  O2-  O450  1  0.41933754  0.56936130  0.18815014  1
  O2-  O451  1  0.40682489  0.57390647  0.52245844  1
  O2-  O452  1  0.42629743  0.59356663  0.85035042  1
  O2-  O453  1  0.44308716  0.84138018  0.19869701  1
  O2-  O454  1  0.42699946  0.83328622  0.52144999  1
  O2-  O455  1  0.41828052  0.82715663  0.85601017  1
  O2-  O456  1  0.68107376  0.09107851  0.19035863  1
  O2-  O457  1  0.66930371  0.08665498  0.51971355  1
  O2-  O458  1  0.63552252  0.04587465  0.85331410  1
  O2-  O459  1  0.66460007  0.31800283  0.18933316  1
  O2-  O460  1  0.66552686  0.33352547  0.52534550  1
  O2-  O461  1  0.65030762  0.30401567  0.85518261  1
  O2-  O462  1  0.64970939  0.58514151  0.19051146  1
  O2-  O463  1  0.71295463  0.54272154  0.54878129  1
  O2-  O464  1  0.67968277  0.64211256  0.85150214  1
  O2-  O465  1  0.68206141  0.84248021  0.18720046  1
  O2-  O466  1  0.65902449  0.83963659  0.50175805  1
  O2-  O467  1  0.63533185  0.86220324  0.84740878  1
  O2-  O468  1  0.92389564  0.08416516  0.18170503  1
  O2-  O469  1  0.91077743  0.08626657  0.51119133  1
  O2-  O470  1  0.89595170  0.05232607  0.84310624  1
  O2-  O471  1  0.91295181  0.33091412  0.18009983  1
  O2-  O472  1  0.91683197  0.33873240  0.52206250  1
  O2-  O473  1  0.92196502  0.32655764  0.79450433  1
  O2-  O474  1  0.90692990  0.57759083  0.18810154  1
  O2-  O475  1  0.92019916  0.58668692  0.51989552  1
  O2-  O476  1  0.91154772  0.58319114  0.85885235  1
  O2-  O477  1  0.92375906  0.82877041  0.17720275  1
  O2-  O478  1  0.91576247  0.82441912  0.53309533  1
  O2-  O479  1  0.91025071  0.84600329  0.84187058  1
  O2-  O480  1  0.22004283  0.10559404  0.37954364  1
  O2-  O481  1  0.16241213  0.08500998  0.65431113  1
  O2-  O482  1  0.12717506  0.09287037  0.99348257  1
  O2-  O483  1  0.11217887  0.30516958  0.30043788  1
  O2-  O484  1  0.17001387  0.33913346  0.64088957  1
  O2-  O485  1  0.18017471  0.32939923  0.98206895  1
  O2-  O486  1  0.16955668  0.58489364  0.32102140  1
  O2-  O487  1  0.16885186  0.58623899  0.64659395  1
  O2-  O488  1  0.15971449  0.57635131  0.97831421  1
  O2-  O489  1  0.18930964  0.85131497  0.31824744  1
  O2-  O490  1  0.16085075  0.83164503  0.66185258  1
  O2-  O491  1  0.15483760  0.82951810  0.97633999  1
  O2-  O492  1  0.42683877  0.07537010  0.27809450  1
  O2-  O493  1  0.40906680  0.08083786  0.64391835  1
  O2-  O494  1  0.36903885  0.09451832  0.94155479  1
  O2-  O495  1  0.42408039  0.34908818  0.30055823  1
  O2-  O496  1  0.42126926  0.33417100  0.64526687  1
  O2-  O497  1  0.36605272  0.33102612  0.96391767  1
  O2-  O498  1  0.41333561  0.57377618  0.31540604  1
  O2-  O499  1  0.41909587  0.58397554  0.64357045  1
  O2-  O500  1  0.43414722  0.59441253  0.97596868  1
  O2-  O501  1  0.42329327  0.83641371  0.31565463  1
  O2-  O502  1  0.42105006  0.83215838  0.65005249  1
  O2-  O503  1  0.41018805  0.81994745  0.97858078  1
  O2-  O504  1  0.64482099  0.07111321  0.31455317  1
  O2-  O505  1  0.66577069  0.07127099  0.63565322  1
  O2-  O506  1  0.67466814  0.06868550  0.97394769  1
  O2-  O507  1  0.67514025  0.33900069  0.31686654  1
  O2-  O508  1  0.67195621  0.33862975  0.64901941  1
  O2-  O509  1  0.67517341  0.31006629  0.98206644  1
  O2-  O510  1  0.66002346  0.58134579  0.31596057  1
  O2-  O511  1  0.66953643  0.58423429  0.65756640  1
  O2-  O512  1  0.68571872  0.61395857  0.97567963  1
  O2-  O513  1  0.66919098  0.83228755  0.30963248  1
  O2-  O514  1  0.67806977  0.84168248  0.65391532  1
  O2-  O515  1  0.68090677  0.84774390  0.97167875  1
  O2-  O516  1  0.96160319  0.03597949  0.29478836  1
  O2-  O517  1  0.92110950  0.09786792  0.63915747  1
  O2-  O518  1  0.92859680  0.07380796  0.96879590  1
  O2-  O519  1  0.91970814  0.34932693  0.31546551  1
  O2-  O520  1  0.91388108  0.34296545  0.64393153  1
  O2-  O521  1  0.92102630  0.32555979  1.04066273  1
  O2-  O522  1  0.89878429  0.59540281  0.30349709  1
  O2-  O523  1  0.91559119  0.58445186  0.64549958  1
  O2-  O524  1  0.91557290  0.57561781  0.98475477  1
  O2-  O525  1  0.86655958  0.84684243  0.32223116  1
  O2-  O526  1  0.91193354  0.84211903  0.66772494  1
  O2-  O527  1  0.92545690  0.82138165  0.98381945  1
  O2-  O528  1  0.09179117  0.14804357  0.01156059  1
  O2-  O529  1  0.10028694  0.16330810  0.36211201  1
  O2-  O530  1  0.08816361  0.17726902  0.68887790  1
  O2-  O531  1  0.09465539  0.41577030  0.02557685  1
  O2-  O532  1  0.08353395  0.41751374  0.35972628  1
  O2-  O533  1  0.08206039  0.41922125  0.68175182  1
  O2-  O534  1  0.07991050  0.66331487  0.02667422  1
  O2-  O535  1  0.11173755  0.69550743  0.36413620  1
  O2-  O536  1  0.07804385  0.66204550  0.68939167  1
  O2-  O537  1  0.08234904  0.92075348  0.02448114  1
  O2-  O538  1  0.11604857  0.92997340  0.36650126  1
  O2-  O539  1  0.08241567  0.92101683  0.69578138  1
  O2-  O540  1  0.29988679  0.17643222  0.01363447  1
  O2-  O541  1  0.37560352  0.18301414  0.32583271  1
  O2-  O542  1  0.33247385  0.16808932  0.68286502  1
  O2-  O543  1  0.26805569  0.37656922  0.00809729  1
  O2-  O544  1  0.35442883  0.42475917  0.35847497  1
  O2-  O545  1  0.33612028  0.41720456  0.68176476  1
  O2-  O546  1  0.32388812  0.65740019  0.02120938  1
  O2-  O547  1  0.33729050  0.66229900  0.35898053  1
  O2-  O548  1  0.33531115  0.66519477  0.68804282  1
  O2-  O549  1  0.33469351  0.92656617  -0.01812450  1
  O2-  O550  1  0.35425088  0.92377625  0.33714118  1
  O2-  O551  1  0.33835413  0.91751287  0.69143641  1
  O2-  O552  1  0.59535019  0.15128821  0.02568398  1
  O2-  O553  1  0.50015973  0.24576222  0.41861423  1
  O2-  O554  1  0.55962688  0.17160442  0.70324341  1
  O2-  O555  1  0.57132328  0.44929323  -0.05797025  1
  O2-  O556  1  0.58751404  0.41209817  0.34690558  1
  O2-  O557  1  0.58619242  0.41574856  0.69542186  1
  O2-  O558  1  0.59366376  0.68314664  0.01671901  1
  O2-  O559  1  0.57228081  0.66300128  0.34700229  1
  O2-  O560  1  0.58094410  0.66874422  0.68542337  1
  O2-  O561  1  0.55216005  0.92280900  0.03305880  1
  O2-  O562  1  0.58353004  0.91198463  0.35461930  1
  O2-  O563  1  0.58362770  0.90586781  0.68864688  1
  O2-  O564  1  0.83910235  0.14931753  0.02070409  1
  O2-  O565  1  0.81292463  0.19298669  0.36213848  1
  O2-  O566  1  0.82768324  0.16158691  0.67976378  1
  O2-  O567  1  0.83923276  0.41097178  0.03010309  1
  O2-  O568  1  0.83946378  0.43845150  0.35874639  1
  O2-  O569  1  0.83549717  0.42172906  0.67106658  1
  O2-  O570  1  0.83344141  0.65819093  0.02977524  1
  O2-  O571  1  0.81965022  0.68727868  0.35645346  1
  O2-  O572  1  0.83862136  0.66885598  0.69081109  1
  O2-  O573  1  0.83762207  0.91268340  0.01400194  1
  O2-  O574  1  0.82861644  0.89189461  0.35392033  1
  O2-  O575  1  0.82873640  0.90689486  0.71680186  1
