# generated using pymatgen
data_H2O
_symmetry_space_group_name_H-M   'P 1'
_cell_length_a   17.96768621
_cell_length_b   17.96228757
_cell_length_c   21.96853610
_cell_angle_alpha   90.03081633
_cell_angle_beta   89.98025975
_cell_angle_gamma   120.01942689
_symmetry_Int_Tables_number   1
_chemical_formula_structural   H2O
_chemical_formula_sum   'H384 O192'
_cell_volume   6139.03959854
_cell_formula_units_Z   192
loop_
 _symmetry_equiv_pos_site_id
 _symmetry_equiv_pos_as_xyz
  1  'x, y, z'
loop_
 _atom_type_symbol
 _atom_type_oxidation_number
  H+  1.0
  O2-  -2.0
loop_
 _atom_site_type_symbol
 _atom_site_label
 _atom_site_symmetry_multiplicity
 _atom_site_fract_x
 _atom_site_fract_y
 _atom_site_fract_z
 _atom_site_occupancy
  H+  H0  1  0.86996231  0.23098224  0.49698770  1
  H+  H1  1  0.07190329  1.00787845  0.79666743  1
  H+  H2  1  0.73143514  0.37074421  0.83332595  1
  H+  H3  1  0.10835572  0.13398826  0.48751614  1
  H+  H4  1  0.08382029  0.11759530  0.75552488  1
  H+  H5  1  0.61146912  0.88451708  0.45962986  1
  H+  H6  1  0.02330466  0.37455231  0.68224139  1
  H+  H7  1  0.60471336  0.23218019  0.66657261  1
  H+  H8  1  0.64490014  0.86281139  0.98737965  1
  H+  H9  1  0.10627601  0.63283599  0.16407351  1
  H+  H10  1  0.40062160  0.61132039  0.98893083  1
  H+  H11  1  0.28655767  0.55948385  0.03579084  1
  H+  H12  1  0.63711178  0.13703624  0.49552589  1
  H+  H13  1  0.06348717  0.41088990  0.07094878  1
  H+  H14  1  0.39105679  0.52863080  0.32847048  1
  H+  H15  1  0.01724223  0.38536255  0.16501891  1
  H+  H16  1  0.76196756  0.61329466  0.66643009  1
  H+  H17  1  0.73415869  0.88164948  0.18104861  1
  H+  H18  1  0.85384939  0.13790360  0.80972606  1
  H+  H19  1  0.61982604  -0.01838947  0.36528361  1
  H+  H20  1  0.14487519  0.56718609  0.92624219  1
  H+  H21  1  0.38258526  0.34869121  0.66735211  1
  H+  H22  1  0.71024025  0.38529288  0.35267185  1
  H+  H23  1  -0.03618044  0.36790186  0.84575075  1
  H+  H24  1  1.01888559  0.88311914  0.48898020  1
  H+  H25  1  0.86994730  0.73191683  0.00663818  1
  H+  H26  1  0.14142612  0.85801080  0.02840019  1
  H+  H27  1  0.98796317  0.62134573  0.83574174  1
  H+  H28  1  0.39044143  0.77563480  0.33068560  1
  H+  H29  1  0.90055218  0.07373014  0.74177359  1
  H+  H30  1  0.33736460  0.88812859  0.09992935  1
  H+  H31  1  0.26361261  0.89793187  0.83403598  1
  H+  H32  1  0.86629586  0.48426970  0.81994664  1
  H+  H33  1  0.86119466  0.39165631  0.82312609  1
  H+  H34  1  0.38940999  0.52302054  0.83656273  1
  H+  H35  1  0.98021570  0.87807897  0.83269617  1
  H+  H36  1  0.85722090  0.25248072  1.01263562  1
  H+  H37  1  0.52167318  0.13446455  0.17287366  1
  H+  H38  1  0.32124405  0.81946030  0.85974366  1
  H+  H39  1  0.39551167  0.13129160  0.49614609  1
  H+  H40  1  0.62237055  0.39998257  0.00883286  1
  H+  H41  1  0.11572441  0.22418387  0.33831591  1
  H+  H42  1  0.39716175  0.35973922  -0.00200705  1
  H+  H43  1  0.39286188  0.28085071  0.33047099  1
  H+  H44  1  0.63607297  0.87934495  0.17969642  1
  H+  H45  1  0.13876175  0.11286776  0.32641921  1
  H+  H46  1  0.63842848  0.36622001  0.17837460  1
  H+  H47  1  0.61247214  0.47005761  0.83205260  1
  H+  H48  1  0.77681508  0.39365461  0.49127957  1
  H+  H49  1  0.63112975  0.85453547  0.63984460  1
  H+  H50  1  0.39494778  0.04315013  0.49330884  1
  H+  H51  1  0.87629444  0.28060918  0.83398811  1
  H+  H52  1  0.38381723  0.74831768  0.99431775  1
  H+  H53  1  0.09345773  0.93584061  0.71999216  1
  H+  H54  1  0.08552733  0.45286568  1.00395513  1
  H+  H55  1  0.39060460  0.51953670  0.50704481  1
  H+  H56  1  0.86460811  0.47232663  0.66773840  1
  H+  H57  1  0.01335344  0.02161974  0.92060925  1
  H+  H58  1  0.87174113  0.22558214  0.34197621  1
  H+  H59  1  0.14171940  0.77801234  0.66797244  1
  H+  H60  1  0.91543737  0.07683977  0.59951192  1
  H+  H61  1  0.86065240  0.88242501  0.66087855  1
  H+  H62  1  0.72697250  0.12868578  0.84197260  1
  H+  H63  1  0.89356939  0.36558864  0.66175837  1
  H+  H64  1  0.27797087  0.39130997  0.34400045  1
  H+  H65  1  0.05655892  0.29334193  0.03029587  1
  H+  H66  1  0.86703785  -0.02305782  0.33921731  1
  H+  H67  1  0.25219127  0.11329903  0.63750772  1
  H+  H68  1  0.89113347  0.11196165  0.33077584  1
  H+  H69  1  0.20690137  0.59683301  0.84537973  1
  H+  H70  1  0.37395671  0.02383527  0.32339458  1
  H+  H71  1  0.83024839  0.91461091  0.43257389  1
  H+  H72  1  0.13666636  0.61498611  0.32843746  1
  H+  H73  1  0.62903132  0.76163361  0.49316871  1
  H+  H74  1  0.13216046  0.35688754  0.49561680  1
  H+  H75  1  0.36481701  0.63942600  0.33595046  1
  H+  H76  1  0.02254881  -0.11323615  0.33863633  1
  H+  H77  1  0.35870699  0.88802937  0.33608639  1
  H+  H78  1  0.52276614  0.37745241  0.83330183  1
  H+  H79  1  0.67077840  0.58638023  0.23142994  1
  H+  H80  1  0.32099426  0.64214760  0.07560244  1
  H+  H81  1  0.86964810  0.98586916  0.01907686  1
  H+  H82  1  0.63545961  0.15688112  0.34636870  1
  H+  H83  1  1.02434511  0.64155135  0.49091771  1
  H+  H84  1  0.13204247  0.29245736  0.83623257  1
  H+  H85  1  0.10232477  0.62053045  0.00495110  1
  H+  H86  1  0.63632058  0.12806571  0.65100042  1
  H+  H87  1  0.62336999  0.59710450  0.64991230  1
  H+  H88  1  0.21807993  0.35243204  0.49817655  1
  H+  H89  1  0.78045926  0.64302541  1.00956007  1
  H+  H90  1  0.08087288  0.16250164  0.39679860  1
  H+  H91  1  0.33398063  0.14693009  1.05676755  1
  H+  H92  1  0.23010540  0.46316515  0.22164401  1
  H+  H93  1  0.27512453  0.63989325  0.33377255  1
  H+  H94  1  0.13242274  0.86133957  0.32014444  1
  H+  H95  1  0.35728866  1.05143541  0.79824640  1
  H+  H96  1  0.36839837  0.39404079  0.34349802  1
  H+  H97  1  0.39735066  0.53432846  0.17002430  1
  H+  H98  1  0.87180292  0.85731016  0.18346930  1
  H+  H99  1  0.73313785  0.10930458  0.33890065  1
  H+  H100  1  0.00580831  0.91400807  0.16293998  1
  H+  H101  1  0.17922489  0.34512213  0.27429910  1
  H+  H102  1  0.11035007  0.17156975  0.15349333  1
  H+  H103  1  0.47810447  0.17074465  0.81247218  1
  H+  H104  1  0.64582228  0.28542695  0.33664043  1
  H+  H105  1  0.86303829  0.47879675  0.16436787  1
  H+  H106  1  0.36343893  0.72224296  0.16526513  1
  H+  H107  1  0.64421768  0.61984968  -0.00236087  1
  H+  H108  1  0.90688398  0.36616867  0.32840746  1
  H+  H109  1  0.87827930  0.01001639  0.65446044  1
  H+  H110  1  0.47744531  0.87688407  0.47992442  1
  H+  H111  1  0.28004683  0.87390783  0.01721788  1
  H+  H112  1  0.63829180  0.53116611  0.32820904  1
  H+  H113  1  0.14409943  0.36448717  0.33439985  1
  H+  H114  1  0.11596015  0.48380207  0.49106197  1
  H+  H115  1  0.97266175  0.14964512  1.01068673  1
  H+  H116  1  0.38192485  -0.00672579  0.16937306  1
  H+  H117  1  0.00126293  0.08174154  0.79574427  1
  H+  H118  1  0.88511744  0.77063335  0.33390950  1
  H+  H119  1  0.63156874  0.98604733  0.86921420  1
  H+  H120  1  0.66248556  0.40815507  0.50490546  1
  H+  H121  1  0.14137431  0.02532643  0.32376020  1
  H+  H122  1  0.52279222  0.62322233  0.49537633  1
  H+  H123  1  -0.01978041  0.11163415  0.32657621  1
  H+  H124  1  0.60215053  0.61586918  0.82137693  1
  H+  H125  1  0.36964128  0.24149267  0.48699362  1
  H+  H126  1  0.60502477  0.71599491  0.66391870  1
  H+  H127  1  0.63672765  0.12564947  0.84646223  1
  H+  H128  1  0.39155090  0.98973193  0.80867359  1
  H+  H129  1  0.53756826  0.64438023  0.00305024  1
  H+  H130  1  0.64164223  0.62099628  0.32443652  1
  H+  H131  1  0.87566971  0.84962725  0.49754349  1
  H+  H132  1  0.11883310  0.65162307  0.66979091  1
  H+  H133  1  0.97290444  0.10718789  0.50481968  1
  H+  H134  1  0.48504900  0.90770508  0.62959110  1
  H+  H135  1  0.27790915  0.14554848  0.33565358  1
  H+  H136  1  0.12003425  0.97047777  0.01537103  1
  H+  H137  1  0.97469903  0.61004750  0.99155190  1
  H+  H138  1  0.88796123  0.61387256  -0.00887573  1
  H+  H139  1  0.17659129  0.82831398  1.08156137  1
  H+  H140  1  0.48614338  0.39625145  0.51759843  1
  H+  H141  1  0.13933788  0.52599242  0.32891451  1
  H+  H142  1  0.24470848  0.07074334  0.86631210  1
  H+  H143  1  0.86629780  0.47802395  0.00717322  1
  H+  H144  1  0.42118495  0.25628948  0.85170359  1
  H+  H145  1  0.39277155  0.00284731  0.99071477  1
  H+  H146  1  0.14227812  0.25188471  0.66968549  1
  H+  H147  1  0.22091969  0.86074740  0.31858807  1
  H+  H148  1  0.79230747  0.64900641  0.82781764  1
  H+  H149  1  0.12801724  0.05185700  0.16838843  1
  H+  H150  1  0.46950837  0.59263488  0.66516924  1
  H+  H151  1  0.64636694  0.74190671  0.85007637  1
  H+  H152  1  0.02505434  0.63927700  0.33778146  1
  H+  H153  1  0.88957139  0.36502965  0.50754050  1
  H+  H154  1  0.63035135  0.10908962  0.19031950  1
  H+  H155  1  0.89405575  0.52281912  0.50502364  1
  H+  H156  1  0.63665714  0.04766342  0.48765482  1
  H+  H157  1  0.13498369  0.98530864  0.65693081  1
  H+  H158  1  0.12887625  0.76552820  0.16856873  1
  H+  H159  1  0.88536622  0.10958798  0.50809355  1
  H+  H160  1  0.13815187  0.87048004  0.66150002  1
  H+  H161  1  0.87341818  0.75947485  0.50036991  1
  H+  H162  1  0.12982911  0.52646337  0.17480133  1
  H+  H163  1  0.85794347  0.98018461  0.16835129  1
  H+  H164  1  0.81421271  0.88860098  0.75472421  1
  H+  H165  1  0.09988467  0.53066118  0.63675741  1
  H+  H166  1  0.51999317  0.62860780  0.82657868  1
  H+  H167  1  0.63947499  0.36693025  0.83447237  1
  H+  H168  1  0.52492757  0.15567786  0.49063917  1
  H+  H169  1  0.73010474  0.53390367  0.87859919  1
  H+  H170  1  0.45953803  0.14600399  0.66932915  1
  H+  H171  1  0.47939638  0.37412838  0.33883148  1
  H+  H172  1  0.11818606  0.62624196  0.83051217  1
  H+  H173  1  0.59752609  0.93124129  0.57937189  1
  H+  H174  1  0.37916667  0.47550027  1.00163248  1
  H+  H175  1  0.29268804  0.38058936  0.99952729  1
  H+  H176  1  0.13551725  0.62064590  0.49930015  1
  H+  H177  1  0.64109200  0.52809575  1.00377597  1
  H+  H178  1  0.52634803  0.64054302  0.33763286  1
  H+  H179  1  0.85515016  0.62017886  0.49230438  1
  H+  H180  1  0.77384894  0.38964783  0.16461251  1
  H+  H181  1  0.63600635  0.54777769  0.59345803  1
  H+  H182  1  0.10525148  0.22231340  0.48635367  1
  H+  H183  1  0.36584580  0.07174442  0.16151710  1
  H+  H184  1  0.89598984  0.87129189  -0.00433711  1
  H+  H185  1  0.75690726  0.59084466  0.47992050  1
  H+  H186  1  0.52326295  0.87983914  0.16324341  1
  H+  H187  1  0.64697416  0.77441799  -0.00299589  1
  H+  H188  1  0.95589767  0.34889377  1.01104892  1
  H+  H189  1  -0.01366014  0.88355451  0.64562057  1
  H+  H190  1  0.88316968  0.36207217  0.17559072  1
  H+  H191  1  0.47638711  0.35635778  0.66410359  1
  H+  H192  1  0.35369909  0.73634190  0.48347349  1
  H+  H193  1  0.77323360  0.14309564  0.65912735  1
  H+  H194  1  0.25024721  0.40754578  0.17749642  1
  H+  H195  1  0.61521440  0.72957040  0.34152967  1
  H+  H196  1  0.06905877  0.22890594  0.07540533  1
  H+  H197  1  0.41859964  0.85679624  0.84011307  1
  H+  H198  1  0.38107416  0.23046950  0.66989439  1
  H+  H199  1  0.89741790  0.78301008  0.83447251  1
  H+  H200  1  0.36439561  0.18236021  0.15331055  1
  H+  H201  1  0.34322051  0.70837681  0.82250487  1
  H+  H202  1  0.83287804  0.42326407  0.07024517  1
  H+  H203  1  0.11361421  0.72909494  0.33430352  1
  H+  H204  1  0.36212889  0.90233714  0.47946517  1
  H+  H205  1  0.89263673  0.27605771  0.65803471  1
  H+  H206  1  0.47766954  0.86508727  0.33919202  1
  H+  H207  1  0.86124126  0.87922910  0.81574814  1
  H+  H208  1  0.60752916  0.90250256  0.83403992  1
  H+  H209  1  -0.02374858  0.61535545  0.66105239  1
  H+  H210  1  0.88413825  0.61420785  0.17510582  1
  H+  H211  1  0.02666169  0.39403385  0.49251448  1
  H+  H212  1  0.61649974  0.24013391  0.82740739  1
  H+  H213  1  0.53195795  0.64245689  0.15618399  1
  H+  H214  1  0.22681833  0.10691717  0.99661115  1
  H+  H215  1  0.36492715  0.14170416  0.33259923  1
  H+  H216  1  0.88573848  0.61084048  0.32914758  1
  H+  H217  1  0.60722070  0.39769492  0.35107236  1
  H+  H218  1  0.13471752  0.33476226  0.68223553  1
  H+  H219  1  0.12242991  0.44695570  0.68815043  1
  H+  H220  1  0.37293952  0.57652128  0.66348736  1
  H+  H221  1  0.87551970  0.11024584  0.17830552  1
  H+  H222  1  0.24445866  0.88536190  0.66347175  1
  H+  H223  1  0.61080305  0.22592727  0.17622151  1
  H+  H224  1  0.49680406  0.98560171  0.80198692  1
  H+  H225  1  0.01558716  0.15346811  0.16040156  1
  H+  H226  1  0.03595942  0.38709229  0.33866597  1
  H+  H227  1  1.03153407  0.88092592  1.00959414  1
  H+  H228  1  0.76502171  0.87180958  0.65935587  1
  H+  H229  1  0.88188737  0.77376840  0.17831857  1
  H+  H230  1  0.49222531  0.10023076  0.90194829  1
  H+  H231  1  0.52826761  0.87403447  0.00581151  1
  H+  H232  1  0.22813409  0.62501751  0.49905536  1
  H+  H233  1  0.64352395  0.87152975  0.34067636  1
  H+  H234  1  0.23178421  0.10456785  0.86408040  1
  H+  H235  1  0.27103100  0.86020466  0.15706797  1
  H+  H236  1  0.42561865  0.86298524  0.54234812  1
  H+  H237  1  0.68678986  0.57697414  0.91483711  1
  H+  H238  1  0.52444060  0.12255976  0.02028734  1
  H+  H239  1  0.48523538  0.95068176  0.77858046  1
  H+  H240  1  0.86267141  0.88445890  0.34121119  1
  H+  H241  1  0.86473758  0.35588273  1.00957682  1
  H+  H242  1  0.24725549  0.60350037  0.66422872  1
  H+  H243  1  0.38963462  0.84769838  0.17688915  1
  H+  H244  1  0.27091913  0.36273392  0.68461747  1
  H+  H245  1  0.10291626  0.48551072  0.84134492  1
  H+  H246  1  0.63071078  0.02047364  0.18377976  1
  H+  H247  1  0.39482240  0.82712921  0.64306459  1
  H+  H248  1  0.85633365  -0.03151587  0.49460755  1
  H+  H249  1  0.06521686  0.10057252  0.87862303  1
  H+  H250  1  0.39412286  0.61485853  0.83627768  1
  H+  H251  1  0.27214246  0.89917661  0.48700105  1
  H+  H252  1  0.13689240  0.77662823  0.50273099  1
  H+  H253  1  0.64093391  0.52408040  0.17339813  1
  H+  H254  1  0.87899248  0.27025898  0.17557698  1
  H+  H255  1  0.77444791  0.63559237  0.33822494  1
  H+  H256  1  0.52514363  0.38861235  0.16366893  1
  H+  H257  1  0.36934891  0.29148754  0.19038734  1
  H+  H258  1  0.12770862  0.96800705  0.82143000  1
  H+  H259  1  0.12542830  0.11892109  0.65749039  1
  H+  H260  1  0.36079386  0.38657130  0.49702098  1
  H+  H261  1  0.77722549  0.14687223  0.49208441  1
  H+  H262  1  0.73297799  0.87182415  0.33244101  1
  H+  H263  1  0.78344666  0.89531074  0.01113628  1
  H+  H264  1  0.61470670  0.24825337  0.49277888  1
  H+  H265  1  0.72814921  0.37654652  -0.00757700  1
  H+  H266  1  0.42639819  0.82900758  0.23827267  1
  H+  H267  1  0.59479702  0.55734495  0.49738291  1
  H+  H268  1  0.33439415  0.41772433  0.43660236  1
  H+  H269  1  0.77593183  0.63820820  0.16073151  1
  H+  H270  1  0.37191003  0.40357425  0.16105337  1
  H+  H271  1  0.27120426  0.40372721  0.83029293  1
  H+  H272  1  0.75414150  0.12621779  0.01107811  1
  H+  H273  1  0.62077446  -0.00158970  0.63180274  1
  H+  H274  1  0.88161239  0.60369259  0.65722112  1
  H+  H275  1  0.39223263  0.61983177  0.17506687  1
  H+  H276  1  0.10947162  0.88636335  0.49232519  1
  H+  H277  1  0.26952521  0.63611209  0.16641409  1
  H+  H278  1  0.63510521  0.36336641  0.66236994  1
  H+  H279  1  0.80499090  0.38847341  0.31985476  1
  H+  H280  1  0.11498624  0.40230333  0.16467276  1
  H+  H281  1  0.63008380  0.10275372  1.00594344  1
  H+  H282  1  0.36544808  0.86627161  1.00410291  1
  H+  H283  1  0.53004634  0.39243474  0.01282704  1
  H+  H284  1  0.26098501  0.12238305  0.15505655  1
  H+  H285  1  0.12655068  0.37725232  0.84882572  1
  H+  H286  1  0.92407227  0.33915203  0.56700612  1
  H+  H287  1  0.84930922  0.13501059  1.01178946  1
  H+  H288  1  0.58183383  0.17457085  0.77041463  1
  H+  H289  1  0.36361435  0.92674491  0.65852566  1
  H+  H290  1  0.91080024  0.82933023  0.27402901  1
  H+  H291  1  0.92120230  0.84208232  0.58971553  1
  H+  H292  1  0.72392071  0.36112526  0.65922693  1
  H+  H293  1  0.07175427  0.41399394  0.78549704  1
  H+  H294  1  0.74084732  0.83789853  0.84164235  1
  H+  H295  1  0.40229877  0.80514437  0.93509729  1
  H+  H296  1  0.91615558  0.58452909  0.26767812  1
  H+  H297  1  0.61787321  0.63740199  0.15532078  1
  H+  H298  1  0.82520229  0.65390519  0.72337415  1
  H+  H299  1  0.42203340  0.33906663  0.56959589  1
  H+  H300  1  0.07094855  0.65137957  0.10228487  1
  H+  H301  1  0.16592417  0.83615950  0.22002819  1
  H+  H302  1  0.92570230  0.33037424  0.26776051  1
  H+  H303  1  0.83861010  0.41576063  0.43277448  1
  H+  H304  1  0.82156132  0.17252288  0.75767105  1
  H+  H305  1  0.58491186  0.91165352  0.10325494  1
  H+  H306  1  0.43042738  0.58694098  0.92694571  1
  H+  H307  1  0.67138316  0.35585034  0.56210589  1
  H+  H308  1  0.85753507  0.13335014  0.66369265  1
  H+  H309  1  0.66520884  0.07304991  0.28429322  1
  H+  H310  1  0.17501934  0.10163209  0.22906897  1
  H+  H311  1  0.84278326  0.16985215  0.40352018  1
  H+  H312  1  0.68522775  0.81495641  0.91423005  1
  H+  H313  1  0.71611992  0.85340843  0.49359529  1
  H+  H314  1  0.20111845  0.58907002  0.98902926  1
  H+  H315  1  0.67164622  0.34587784  0.23986734  1
  H+  H316  1  0.58490382  0.66357253  0.72681503  1
  H+  H317  1  0.81610472  0.15883473  0.10881928  1
  H+  H318  1  0.31858990  0.15794099  0.71733225  1
  H+  H319  1  0.61222391  0.96674518  0.00625063  1
  H+  H320  1  0.39754414  0.26992098  0.99830716  1
  H+  H321  1  0.66829376  0.11041135  0.58660244  1
  H+  H322  1  0.60874636  0.90598417  0.73529702  1
  H+  H323  1  0.58304477  0.86067348  0.74731358  1
  H+  H324  1  0.32515736  0.67059398  0.42884105  1
  H+  H325  1  0.88114791  0.65226694  0.82121618  1
  H+  H326  1  0.13154072  0.72386968  0.82503727  1
  H+  H327  1  0.33302014  0.41502566  0.77453793  1
  H+  H328  1  0.33164458  0.95923065  0.71849947  1
  H+  H329  1  0.08431908  0.91662870  0.39610211  1
  H+  H330  1  0.40076694  0.07427980  0.26178954  1
  H+  H331  1  0.15770684  0.28187554  0.99000348  1
  H+  H332  1  0.57938996  0.41171440  0.73605582  1
  H+  H333  1  0.60503512  0.46702429  0.67351241  1
  H+  H334  1  0.08385719  0.67370898  0.43049509  1
  H+  H335  1  0.86529377  0.00611020  0.79502593  1
  H+  H336  1  0.76228017  0.13287947  0.17137766  1
  H+  H337  1  0.13511527  0.08997661  0.97097606  1
  H+  H338  1  0.36159891  0.45138779  0.67851726  1
  H+  H339  1  0.58532980  0.41685081  0.10383544  1
  H+  H340  1  0.42235570  0.35117608  0.24475749  1
  H+  H341  1  0.92200202  0.58260135  0.56470977  1
  H+  H342  1  0.42544265  0.57049457  0.56835643  1
  H+  H343  1  0.83363362  0.41645611  0.72855800  1
  H+  H344  1  0.59204863  0.67152412  0.06651230  1
  H+  H345  1  0.67198365  0.35095106  0.93169603  1
  H+  H346  1  0.65528775  0.81762423  0.58326017  1
  H+  H347  1  0.43162513  0.31957105  0.90656586  1
  H+  H348  1  0.32359995  0.91922858  0.39181428  1
  H+  H349  1  0.14212485  0.02663055  0.49439388  1
  H+  H350  1  0.92137362  0.84171329  0.93359757  1
  H+  H351  1  0.87889514  0.48416578  0.33427174  1
  H+  H352  1  0.18596445  0.08492243  0.58053710  1
  H+  H353  1  0.42230352  0.58744891  0.26774767  1
  H+  H354  1  0.82934203  0.65587298  0.39966639  1
  H+  H355  1  0.09135339  0.42170030  0.40003127  1
  H+  H356  1  0.23140015  0.11954010  0.49160594  1
  H+  H357  1  0.03240718  0.11295092  0.66274687  1
  H+  H358  1  0.60436412  0.45101138  0.40970016  1
  H+  H359  1  0.06535286  0.93879425  0.10415552  1
  H+  H360  1  0.31701481  0.64362748  0.76585738  1
  H+  H361  1  0.58110052  0.65151576  0.43402860  1
  H+  H362  1  0.16755601  0.83507642  0.56258795  1
  H+  H363  1  0.16260032  0.58505631  0.23551777  1
  H+  H364  1  0.36814843  0.12677821  -0.00442803  1
  H+  H365  1  0.91305322  0.08305201  0.23543701  1
  H+  H366  1  0.34126162  0.18323100  0.42616216  1
  H+  H367  1  0.34343275  0.42543765  0.09646763  1
  H+  H368  1  0.34273729  0.67694664  0.66076568  1
  H+  H369  1  0.58182056  0.15393459  0.08064522  1
  H+  H370  1  0.67138530  0.85427090  0.24666836  1
  H+  H371  1  0.09460936  0.67458796  0.73569803  1
  H+  H372  1  0.97203921  0.61108532  0.17520604  1
  H+  H373  1  0.21868908  0.85110458  0.89534352  1
  H+  H374  1  0.19472097  0.32986237  0.92742109  1
  H+  H375  1  0.92472177  0.59158901  0.89356687  1
  H+  H376  1  0.93755450  0.09495442  0.95236512  1
  H+  H377  1  0.11246539  0.71415069  1.02003100  1
  H+  H378  1  0.41916668  0.18203507  0.76455570  1
  H+  H379  1  0.16067973  0.59150808  0.58414685  1
  H+  H380  1  0.83946795  0.67194983  0.10287363  1
  H+  H381  1  0.66459076  0.08656034  0.94179085  1
  H+  H382  1  0.60079555  0.18886927  0.40173322  1
  H+  H383  1  0.82651287  0.91742356  0.10986854  1
  O2-  O384  1  0.07332174  0.19611371  0.14476596  1
  O2-  O385  1  0.07306403  0.15895721  0.47302826  1
  O2-  O386  1  0.06144338  0.09158983  0.79677889  1
  O2-  O387  1  0.07621735  0.42155539  0.14716149  1
  O2-  O388  1  0.08605637  0.42357503  0.47533142  1
  O2-  O389  1  0.07162852  0.41876335  0.83033249  1
  O2-  O390  1  0.07200955  0.65838299  0.14759513  1
  O2-  O391  1  0.08544350  0.67473016  0.47620920  1
  O2-  O392  1  0.09423179  0.66547408  0.80962783  1
  O2-  O393  1  0.05123391  0.96291325  0.13990344  1
  O2-  O394  1  0.08026509  0.91700718  0.47595544  1
  O2-  O395  1  0.07769489  0.95412377  0.79617451  1
  O2-  O396  1  0.31718741  0.13093290  0.13522525  1
  O2-  O397  1  0.33734662  0.18145563  0.47187150  1
  O2-  O398  1  0.41859227  0.16141653  0.80611000  1
  O2-  O399  1  0.34237920  0.43213452  0.14216889  1
  O2-  O400  1  0.32796104  0.41394378  0.48176195  1
  O2-  O401  1  0.33234828  0.43072060  0.81798827  1
  O2-  O402  1  0.32920297  0.66177867  0.14937873  1
  O2-  O403  1  0.31971887  0.67456530  0.47364863  1
  O2-  O404  1  0.32393276  0.64822356  0.81057825  1
  O2-  O405  1  0.33350879  0.88581510  0.14519426  1
  O2-  O406  1  0.32998034  0.93205927  0.46787304  1
  O2-  O407  1  0.34058474  0.98921797  0.79222559  1
  O2-  O408  1  0.58381736  0.16484507  0.16247016  1
  O2-  O409  1  0.58873426  0.18794548  0.47843914  1
  O2-  O410  1  0.57668762  0.17768136  0.81515790  1
  O2-  O411  1  0.58554636  0.41563636  0.14991760  1
  O2-  O412  1  0.65341183  0.49150863  0.47659982  1
  O2-  O413  1  0.58187259  0.41296817  0.81248768  1
  O2-  O414  1  0.58981680  0.66801758  0.13742889  1
  O2-  O415  1  0.58446727  0.64988546  0.47915283  1
  O2-  O416  1  0.58361537  0.65738272  0.81245811  1
  O2-  O417  1  0.58494906  0.91424070  0.14890005  1
  O2-  O418  1  0.58739015  0.92197533  0.44634745  1
  O2-  O419  1  0.61134039  0.92420610  0.87517839  1
  O2-  O420  1  0.82194666  0.16321787  0.15400798  1
  O2-  O421  1  0.83884611  0.17043916  0.48124893  1
  O2-  O422  1  0.82415407  0.17089077  0.80293589  1
  O2-  O423  1  0.83388761  0.41829349  0.14810275  1
  O2-  O424  1  0.83817262  0.41709324  0.47776829  1
  O2-  O425  1  0.83248408  0.42396213  0.80518601  1
  O2-  O426  1  0.83813758  0.67063564  0.14836616  1
  O2-  O427  1  0.81678875  0.64071638  0.47566925  1
  O2-  O428  1  0.84895246  0.68196594  0.80766498  1
  O2-  O429  1  0.82237571  0.91761128  0.15534651  1
  O2-  O430  1  0.82518838  0.90868435  0.47800649  1
  O2-  O431  1  0.81835218  0.89565752  0.80059943  1
  O2-  O432  1  0.17549802  0.10921218  0.18402780  1
  O2-  O433  1  0.17195258  0.08727367  0.50942827  1
  O2-  O434  1  0.04683032  0.08422238  0.92131335  1
  O2-  O435  1  0.20312603  0.40597575  0.20341316  1
  O2-  O436  1  0.15519308  0.31889175  0.50636780  1
  O2-  O437  1  0.16262751  0.34814665  0.85631527  1
  O2-  O438  1  0.16411978  0.58711996  0.18964632  1
  O2-  O439  1  0.16611859  0.59113578  0.51591952  1
  O2-  O440  1  0.14755164  0.57525242  0.85916203  1
  O2-  O441  1  0.16878523  0.82815644  0.17528682  1
  O2-  O442  1  0.16692148  0.83783592  0.51784597  1
  O2-  O443  1  0.23705683  0.84166313  0.85572409  1
  O2-  O444  1  0.40498191  0.05482366  0.18092650  1
  O2-  O445  1  0.42780431  0.10253008  0.50940318  1
  O2-  O446  1  0.43580732  0.04972540  0.91036353  1
  O2-  O447  1  0.41686325  0.34911623  0.19850063  1
  O2-  O448  1  0.42703025  0.34817793  0.52451327  1
  O2-  O449  1  0.43480499  0.31518924  0.86143790  1
  O2-  O450  1  0.42599058  0.59273980  0.18915667  1
  O2-  O451  1  0.42970485  0.57807021  0.52373812  1
  O2-  O452  1  0.42705785  0.58681875  0.85063183  1
  O2-  O453  1  0.42551777  0.82309581  0.19284472  1
  O2-  O454  1  0.41939085  0.85202955  0.49806672  1
  O2-  O455  1  0.37052343  0.80823345  0.86066648  1
  O2-  O456  1  0.66090362  0.07779992  0.20363992  1
  O2-  O457  1  0.66662940  0.10340821  0.50856032  1
  O2-  O458  1  0.67091488  0.10159918  0.86404559  1
  O2-  O459  1  0.67051479  0.33828486  0.19510190  1
  O2-  O460  1  0.67577584  0.36144797  0.51705859  1
  O2-  O461  1  0.67134227  0.33826138  0.85031527  1
  O2-  O462  1  0.67235492  0.58580645  0.18580807  1
  O2-  O463  1  0.59383494  0.50568531  0.51598193  1
  O2-  O464  1  0.69948130  0.56532302  0.87155851  1
  O2-  O465  1  0.67250271  0.85558005  0.19978561  1
  O2-  O466  1  0.65321505  0.82408960  0.50374029  1
  O2-  O467  1  0.69573346  0.79389952  0.87120478  1
  O2-  O468  1  0.90847847  0.08107634  0.18983318  1
  O2-  O469  1  0.91323203  0.07678230  0.52273378  1
  O2-  O470  1  0.90221730  0.06904171  0.78617498  1
  O2-  O471  1  0.91346507  0.33125982  0.19001101  1
  O2-  O472  1  0.92209637  0.33643783  0.52155056  1
  O2-  O473  1  0.90010898  0.33882733  0.85133880  1
  O2-  O474  1  0.91152166  0.58118468  0.19134852  1
  O2-  O475  1  0.92264892  0.58394132  0.51899395  1
  O2-  O476  1  0.92614926  0.59484967  0.84816449  1
  O2-  O477  1  0.90654241  0.83181375  0.19773636  1
  O2-  O478  1  0.90851854  0.82112225  0.51093789  1
  O2-  O479  1  0.92140466  0.84375530  0.85001423  1
  O2-  O480  1  0.17231793  0.08655052  0.30996550  1
  O2-  O481  1  0.19054912  0.08269700  0.62677089  1
  O2-  O482  1  0.16370894  0.07079976  1.00000777  1
  O2-  O483  1  0.17345918  0.33305973  0.31859644  1
  O2-  O484  1  0.17243319  0.31515229  0.66478422  1
  O2-  O485  1  0.21103756  0.31175245  0.96539748  1
  O2-  O486  1  0.16738361  0.58567871  0.31168513  1
  O2-  O487  1  0.15269346  0.58559232  0.63154672  1
  O2-  O488  1  0.14143492  0.56045761  0.97453736  1
  O2-  O489  1  0.16016942  0.82941304  0.30313380  1
  O2-  O490  1  0.17141588  0.83926463  0.64941037  1
  O2-  O491  1  0.17409137  0.82629784  1.03685998  1
  O2-  O492  1  0.40073845  0.08282481  0.30624768  1
  O2-  O493  1  0.49335995  0.11830208  0.65841434  1
  O2-  O494  1  0.42286097  0.06409328  0.97485479  1
  O2-  O495  1  0.42205838  0.34358361  0.31828886  1
  O2-  O496  1  0.41619483  0.32298086  0.64764307  1
  O2-  O497  1  0.42992371  0.33105006  0.98460708  1
  O2-  O498  1  0.42120047  0.58945924  0.31326591  1
  O2-  O499  1  0.40988162  0.55335614  0.65022459  1
  O2-  O500  1  0.43445378  0.58630934  0.97278026  1
  O2-  O501  1  0.42262071  0.83747380  0.31687803  1
  O2-  O502  1  0.42094860  0.88408723  0.62476025  1
  O2-  O503  1  0.41294929  0.80788350  0.97988581  1
  O2-  O504  1  0.66998165  0.07591543  0.32962459  1
  O2-  O505  1  0.66968375  0.10347481  0.63176814  1
  O2-  O506  1  0.66197902  0.07504884  0.98650928  1
  O2-  O507  1  0.66731923  0.34888587  0.32272163  1
  O2-  O508  1  0.66334501  0.33242565  0.64385345  1
  O2-  O509  1  0.66997906  0.35737247  0.97635931  1
  O2-  O510  1  0.67137354  0.58972573  0.30956637  1
  O2-  O511  1  0.64953740  0.56209272  0.63723232  1
  O2-  O512  1  0.67459529  0.58777540  0.98566560  1
  O2-  O513  1  0.67118583  0.84436759  0.31757761  1
  O2-  O514  1  0.65650641  0.81875066  0.62904918  1
  O2-  O515  1  0.67853406  0.83356302  0.97690723  1
  O2-  O516  1  0.91839409  0.08005115  0.31296007  1
  O2-  O517  1  0.91387840  0.07309683  0.64552101  1
  O2-  O518  1  0.91873611  0.09902915  0.99346120  1
  O2-  O519  1  0.93150779  0.33081025  0.31319481  1
  O2-  O520  1  0.92752629  0.33836436  0.64702114  1
  O2-  O521  1  0.89141754  0.31767023  0.99958611  1
  O2-  O522  1  0.91830497  0.58251566  0.31344760  1
  O2-  O523  1  0.91893234  0.57906166  0.64267428  1
  O2-  O524  1  0.91483883  0.58091387  0.97457195  1
  O2-  O525  1  0.91369443  0.83179426  0.31975472  1
  O2-  O526  1  0.92565278  0.85768509  0.63353185  1
  O2-  O527  1  0.92304942  0.83905746  0.97873259  1
  O2-  O528  1  0.05981991  0.24014774  0.03162747  1
  O2-  O529  1  0.08324356  0.16254165  0.35090049  1
  O2-  O530  1  0.09099524  0.13945538  0.68038206  1
  O2-  O531  1  0.05203537  0.39701426  0.02641322  1
  O2-  O532  1  0.09624631  0.42144632  0.35423560  1
  O2-  O533  1  0.07838451  0.39270521  0.70525327  1
  O2-  O534  1  0.07376925  0.65092762  0.02414501  1
  O2-  O535  1  0.08576072  0.66968397  0.35267504  1
  O2-  O536  1  0.09306268  0.68310321  0.68984552  1
  O2-  O537  1  0.08845981  0.90836095  0.02975109  1
  O2-  O538  1  0.08458655  0.91715542  0.35063940  1
  O2-  O539  1  0.09875441  0.92665268  0.67578930  1
  O2-  O540  1  0.34129289  0.15884411  0.01217311  1
  O2-  O541  1  0.33931758  0.17728080  0.34917919  1
  O2-  O542  1  0.35861517  0.16780520  0.68408774  1
  O2-  O543  1  0.34972046  0.41845700  0.02180353  1
  O2-  O544  1  0.33930229  0.42615311  0.35746808  1
  O2-  O545  1  0.33388856  0.39293061  0.69737557  1
  O2-  O546  1  0.31270587  0.62174192  0.03172020  1
  O2-  O547  1  0.33538651  0.67149985  0.34938981  1
  O2-  O548  1  0.30559236  0.62345886  0.68212899  1
  O2-  O549  1  0.34431482  0.90449159  0.02002265  1
  O2-  O550  1  0.32309339  0.91432985  0.34626010  1
  O2-  O551  1  0.31978379  0.94044677  0.67469095  1
  O2-  O552  1  0.58360184  0.14852876  0.03582963  1
  O2-  O553  1  0.61362371  0.19585588  0.35718673  1
  O2-  O554  1  0.57827262  0.17257717  0.68671402  1
  O2-  O555  1  0.59032116  0.42720055  0.02881417  1
  O2-  O556  1  0.58309276  0.43335280  0.36612273  1
  O2-  O557  1  0.57787408  0.40712741  0.69044656  1
  O2-  O558  1  0.59723252  0.67617811  0.01975761  1
  O2-  O559  1  0.58691393  0.66815204  0.35315904  1
  O2-  O560  1  0.57807405  0.65719161  0.68206923  1
  O2-  O561  1  0.58730345  0.90673693  0.02256068  1
  O2-  O562  1  0.58742520  0.91851523  0.37898853  1
  O2-  O563  1  0.58710238  0.93434374  0.62266428  1
  O2-  O564  1  0.81560776  0.16099148  0.02857731  1
  O2-  O565  1  0.84004959  0.16546187  0.35791727  1
  O2-  O566  1  0.83183187  0.16829024  0.67747782  1
  O2-  O567  1  0.83394011  0.41848191  0.02472574  1
  O2-  O568  1  0.85267275  0.42154954  0.34788479  1
  O2-  O569  1  0.83320391  0.41159126  0.68280562  1
  O2-  O570  1  0.84199259  0.67203202  0.02278509  1
  O2-  O571  1  0.83480824  0.66262675  0.35412773  1
  O2-  O572  1  0.82260133  0.64134543  0.67944720  1
  O2-  O573  1  0.84138943  0.92406027  0.03046907  1
  O2-  O574  1  0.83262210  0.91635571  0.35480822  1
  O2-  O575  1  0.82218933  0.90365415  0.67945715  1
