# generated using pymatgen
data_H2O
_symmetry_space_group_name_H-M   'P 1'
_cell_length_a   17.99427187
_cell_length_b   17.99043054
_cell_length_c   21.99465039
_cell_angle_alpha   90.01992376
_cell_angle_beta   89.97690255
_cell_angle_gamma   120.01012475
_symmetry_Int_Tables_number   1
_chemical_formula_structural   H2O
_chemical_formula_sum   'H384 O192'
_cell_volume   6165.65429769
_cell_formula_units_Z   192
loop_
 _symmetry_equiv_pos_site_id
 _symmetry_equiv_pos_as_xyz
  1  'x, y, z'
loop_
 _atom_type_symbol
 _atom_type_oxidation_number
  H+  1.0
  O2-  -2.0
loop_
 _atom_site_type_symbol
 _atom_site_label
 _atom_site_symmetry_multiplicity
 _atom_site_fract_x
 _atom_site_fract_y
 _atom_site_fract_z
 _atom_site_occupancy
  H+  H0  1  0.62097136  0.62893076  0.81466313  1
  H+  H1  1  0.73590968  0.25102746  0.55301903  1
  H+  H2  1  0.63633578  0.65539308  0.33434440  1
  H+  H3  1  0.08623555  0.62636513  0.81933717  1
  H+  H4  1  0.27174906  0.49990977  0.20989791  1
  H+  H5  1  0.53049867  0.15681041  0.68421916  1
  H+  H6  1  0.86605746  0.38986655  0.68048744  1
  H+  H7  1  0.04116668  0.43747143  0.77733845  1
  H+  H8  1  0.64505305  0.02788560  0.31729274  1
  H+  H9  1  0.27035557  0.62923785  0.67252265  1
  H+  H10  1  0.12283241  0.27413664  0.66819752  1
  H+  H11  1  0.12681131  0.98672759  0.83007009  1
  H+  H12  1  0.13550469  0.10576435  0.83449648  1
  H+  H13  1  0.85185903  0.47900566  0.83726890  1
  H+  H14  1  0.52145870  0.38266141  0.00533396  1
  H+  H15  1  0.39713369  0.12916216  0.51024627  1
  H+  H16  1  0.37466169  0.13407039  0.00397397  1
  H+  H17  1  0.36077080  0.38217048  0.33957814  1
  H+  H18  1  0.61730334  0.38507770  0.66913662  1
  H+  H19  1  0.47791694  0.11083098  0.16135917  1
  H+  H20  1  0.27794485  0.66846955  0.85795258  1
  H+  H21  1  0.60700970  0.22839031  0.00732001  1
  H+  H22  1  0.53500528  0.88934581  0.33880532  1
  H+  H23  1  0.38078785  0.23937704  0.34014939  1
  H+  H24  1  0.87456620  0.59011564  0.49400482  1
  H+  H25  1  0.33137268  0.66123839  0.09942509  1
  H+  H26  1  0.88331744  0.53058968  0.99803047  1
  H+  H27  1  0.71986461  0.87195904  0.53965055  1
  H+  H28  1  0.01488351  0.61813014  0.67028819  1
  H+  H29  1  0.38134263  0.66141821  0.00045467  1
  H+  H30  1  0.86413464  0.12486947  0.82338431  1
  H+  H31  1  0.98165611  0.36391199  0.99288055  1
  H+  H32  1  0.87583417  0.77015905  0.85099252  1
  H+  H33  1  0.33149561  0.66316985  0.39956081  1
  H+  H34  1  0.02032224  0.62554202  0.48778206  1
  H+  H35  1  0.86251342  0.14016338  0.50504321  1
  H+  H36  1  0.53408236  0.90250687  0.16187490  1
  H+  H37  1  0.12554219  0.10626908  -0.01208541  1
  H+  H38  1  0.15001029  0.86366482  0.99589431  1
  H+  H39  1  0.37330519  0.51838456  0.32939156  1
  H+  H40  1  0.85426084  0.73468109  0.01094590  1
  H+  H41  1  0.48104396  0.37348788  0.65620369  1
  H+  H42  1  0.11193466  0.71212249  0.47728100  1
  H+  H43  1  0.23358806  0.84218777  0.68504844  1
  H+  H44  1  0.76276038  0.38649846  0.83429372  1
  H+  H45  1  0.01108023  0.85118016  0.49112684  1
  H+  H46  1  0.37961285  0.10985103  0.15911894  1
  H+  H47  1  0.15477735  0.97962138  0.46803556  1
  H+  H48  1  0.95615203  0.11649689  0.51450473  1
  H+  H49  1  0.52413137  0.13223978  0.83731712  1
  H+  H50  1  0.65757114  0.78686104  0.32588239  1
  H+  H51  1  0.64102282  0.27788602  0.32673622  1
  H+  H52  1  0.89460719  0.04134143  0.33241039  1
  H+  H53  1  0.62611804  0.21750253  0.49450795  1
  H+  H54  1  0.41273233  0.67359014  0.81792455  1
  H+  H55  1  0.05711904  1.00003331  0.68627702  1
  H+  H56  1  0.08934573  0.94194364  0.30037913  1
  H+  H57  1  0.13064944  0.24566649  0.45404116  1
  H+  H58  1  0.73487682  0.36851525  0.66568532  1
  H+  H59  1  0.38038944  0.35030067  0.17334543  1
  H+  H60  1  0.11479883  0.88249525  0.16297433  1
  H+  H61  1  0.87471724  0.35630555  0.30841257  1
  H+  H62  1  0.83354317  0.66435334  0.73708840  1
  H+  H63  1  0.20686669  0.11452755  0.66605118  1
  H+  H64  1  0.40247221  0.03741874  0.31696725  1
  H+  H65  1  0.85366280  0.70506215  0.35068178  1
  H+  H66  1  0.88374397  0.02558865  0.66365459  1
  H+  H67  1  0.13650543  0.60513072  1.02522105  1
  H+  H68  1  0.52658610  0.89980922  0.83670523  1
  H+  H69  1  0.47889611  0.36642627  0.32426854  1
  H+  H70  1  0.63373582  0.36443084  0.32713539  1
  H+  H71  1  0.60975217  0.47184693  0.15930937  1
  H+  H72  1  0.93265369  0.34830464  0.62133723  1
  H+  H73  1  0.60766876  0.73300609  0.68241589  1
  H+  H74  1  0.29186023  0.85380320  0.45312017  1
  H+  H75  1  0.12943211  0.42236115  0.86458881  1
  H+  H76  1  0.61324407  0.76973059  0.98494487  1
  H+  H77  1  0.86186603  0.64887015  0.00501309  1
  H+  H78  1  0.76627367  0.63667186  0.82919370  1
  H+  H79  1  0.63187790  0.86594642  0.52855107  1
  H+  H80  1  0.53589768  0.64329034  0.48579321  1
  H+  H81  1  0.22684498  0.60757001  1.02714133  1
  H+  H82  1  0.72199881  0.10151927  0.99548794  1
  H+  H83  1  -0.05842314  0.34935453  0.82352934  1
  H+  H84  1  0.37583089  0.91249556  0.67520595  1
  H+  H85  1  0.85690492  -0.00104631  0.50666940  1
  H+  H86  1  0.64806817  0.60855279  0.67940336  1
  H+  H87  1  0.66674501  0.37155206  0.48122130  1
  H+  H88  1  0.61471397  0.22171736  0.83971638  1
  H+  H89  1  0.21302464  0.17714688  0.31656151  1
  H+  H90  1  0.72718287  0.60239672  0.32090725  1
  H+  H91  1  0.27671566  0.06284386  0.70682898  1
  H+  H92  1  0.31561011  0.14881031  0.74294502  1
  H+  H93  1  0.86477230  0.90544205  0.34976341  1
  H+  H94  1  0.12358919  0.47973514  0.34047160  1
  H+  H95  1  0.57498612  0.16964718  0.06666519  1
  H+  H96  1  0.89879611  0.82480250  0.40078558  1
  H+  H97  1  0.29302748  0.63669296  0.86289428  1
  H+  H98  1  0.87522049  0.47453970  0.49204723  1
  H+  H99  1  0.61663545  0.97811475  0.49064735  1
  H+  H100  1  0.41812199  0.12952077  0.33306642  1
  H+  H101  1  0.63625060  0.36514920  0.99526074  1
  H+  H102  1  0.39775537  0.77354369  0.50585737  1
  H+  H103  1  0.60990217  0.68626367  0.39496674  1
  H+  H104  1  0.10746187  0.63102539  0.15958273  1
  H+  H105  1  0.14181579  0.51875785  0.50777228  1
  H+  H106  1  0.53118782  0.63790476  0.18257587  1
  H+  H107  1  0.39782858  0.38340095  0.65795683  1
  H+  H108  1  1.02110796  0.62988590  0.33184414  1
  H+  H109  1  0.41529115  0.32896392  0.26611878  1
  H+  H110  1  0.89873679  0.27882044  0.51582708  1
  H+  H111  1  0.38905891  0.35708060  0.99314853  1
  H+  H112  1  0.11324544  0.72412191  0.00849659  1
  H+  H113  1  0.96946002  0.85250204  0.35004360  1
  H+  H114  1  -0.02175665  0.13413584  0.33948829  1
  H+  H115  1  0.26975797  0.37614074  0.48709891  1
  H+  H116  1  0.26249631  0.63369486  0.15297482  1
  H+  H117  1  0.47282509  0.35570882  0.17272579  1
  H+  H118  1  0.87639000  0.27372444  0.67151744  1
  H+  H119  1  0.37214554  0.76991606  0.65515270  1
  H+  H120  1  0.36494181  0.89015126  0.82983400  1
  H+  H121  1  0.01912791  0.63273288  0.16079942  1
  H+  H122  1  0.10625773  0.38006408  0.49587245  1
  H+  H123  1  0.08182437  0.16551321  0.06522968  1
  H+  H124  1  0.72580710  0.36514374  0.99394298  1
  H+  H125  1  0.63253346  0.03539677  0.66488668  1
  H+  H126  1  0.38455303  0.87059857  0.47031983  1
  H+  H127  1  0.02470315  0.38933519  0.49863500  1
  H+  H128  1  0.36500570  0.13963493  0.83233297  1
  H+  H129  1  0.02562598  0.88355074  0.16568158  1
  H+  H130  1  0.28386353  0.40602786  0.67912444  1
  H+  H131  1  0.13599153  0.76781341  0.16663010  1
  H+  H132  1  0.27419724  0.13132012  0.15976444  1
  H+  H133  1  0.15159138  0.54938569  0.83729932  1
  H+  H134  1  0.38711916  0.02545829  0.84024756  1
  H+  H135  1  0.33919931  0.45144517  0.16172650  1
  H+  H136  1  0.23014212  0.61552121  0.32379255  1
  H+  H137  1  0.88629707  0.60717967  0.16935689  1
  H+  H138  1  0.62133283  -0.01200000  0.15084164  1
  H+  H139  1  0.12885362  0.01889736  0.98878302  1
  H+  H140  1  0.63295157  0.35626573  0.84001591  1
  H+  H141  1  0.62631835  0.89403374  0.33510016  1
  H+  H142  1  0.11517192  0.20871646  0.82850795  1
  H+  H143  1  0.27340441  0.88565053  0.82822931  1
  H+  H144  1  0.40637750  0.04887584  0.66406421  1
  H+  H145  1  0.17051926  0.08538413  0.34532452  1
  H+  H146  1  0.96204082  0.61222075  0.84337000  1
  H+  H147  1  0.39952356  0.88010819  0.18447795  1
  H+  H148  1  0.63446326  0.10610282  0.48990880  1
  H+  H149  1  0.52647237  0.14385740  0.48924074  1
  H+  H150  1  0.38943058  0.28790959  0.50929384  1
  H+  H151  1  0.61252315  0.89238232  0.82834437  1
  H+  H152  1  0.01592101  0.37694460  0.15676909  1
  H+  H153  1  0.13859462  0.36954984  0.32954230  1
  H+  H154  1  1.00620251  0.88798051  0.47978990  1
  H+  H155  1  0.97539735  0.10161575  0.84281148  1
  H+  H156  1  0.60968228  0.47659433  0.32882593  1
  H+  H157  1  0.10260804  0.15993970  0.37008926  1
  H+  H158  1  0.92527605  0.86268012  0.66798665  1
  H+  H159  1  0.26359301  0.78461809  0.65587588  1
  H+  H160  1  0.79585204  0.75822300  0.52501423  1
  H+  H161  1  0.48273108  0.11004361  0.99315172  1
  H+  H162  1  0.38071128  0.01361541  0.15375486  1
  H+  H163  1  0.62679695  0.64964391  0.49089279  1
  H+  H164  1  0.27568709  0.37397509  1.00455443  1
  H+  H165  1  0.27322708  0.15010805  0.49501368  1
  H+  H166  1  0.48389096  0.65416182  0.64586529  1
  H+  H167  1  0.85467125  0.97103998  0.83544079  1
  H+  H168  1  0.17929563  0.87188438  0.46306980  1
  H+  H169  1  0.62909424  0.77586805  0.82551525  1
  H+  H170  1  0.78186894  0.88967435  0.15270645  1
  H+  H171  1  0.77815559  0.90660013  0.33855438  1
  H+  H172  1  0.73276735  0.60690093  0.66845699  1
  H+  H173  1  0.21899317  0.85637669  0.31787465  1
  H+  H174  1  0.36475548  0.64353859  0.66530094  1
  H+  H175  1  0.12863347  0.76835452  0.83909249  1
  H+  H176  1  0.90122661  0.85700460  -0.04591690  1
  H+  H177  1  0.79683904  0.37643218  0.49744724  1
  H+  H178  1  0.72479319  0.12316708  0.15671169  1
  H+  H179  1  0.90425958  0.36950245  0.51057423  1
  H+  H180  1  0.50688299  0.89322250  0.67509367  1
  H+  H181  1  0.60666106  0.77785496  0.61940081  1
  H+  H182  1  0.85076222  0.90762565  0.09758744  1
  H+  H183  1  0.40941196  0.60519567  0.90299638  1
  H+  H184  1  0.48279714  0.71103394  0.95222704  1
  H+  H185  1  0.86515162  0.39319867  1.00531107  1
  H+  H186  1  0.88363369  0.52284499  0.65946211  1
  H+  H187  1  0.16695937  0.93355785  0.69045772  1
  H+  H188  1  0.86459218  0.37039080  0.84818841  1
  H+  H189  1  0.60246287  0.50593339  0.48442771  1
  H+  H190  1  0.65187473  0.61729844  0.15991416  1
  H+  H191  1  0.38641716  0.53690422  0.84692692  1
  H+  H192  1  0.85485164  0.63764046  0.83471264  1
  H+  H193  1  0.02147102  0.13305005  0.16001893  1
  H+  H194  1  0.61864900  0.47451825  0.67423315  1
  H+  H195  1  0.63350012  0.38428652  0.47446699  1
  H+  H196  1  0.40209834  0.84922881  0.37051370  1
  H+  H197  1  0.70144395  0.74149235  0.10974805  1
  H+  H198  1  0.71863967  0.35656216  0.17189541  1
  H+  H199  1  0.73200381  0.60546965  0.16762028  1
  H+  H200  1  0.13668630  0.01931567  0.17421524  1
  H+  H201  1  0.81646130  0.88045799  0.67652181  1
  H+  H202  1  0.60243664  0.22382812  0.16570831  1
  H+  H203  1  0.41433285  0.79296014  0.83602070  1
  H+  H204  1  0.12256112  0.57149357  0.66207332  1
  H+  H205  1  0.63052184  0.01263640  0.84116303  1
  H+  H206  1  0.57554127  0.87726610  -0.00089373  1
  H+  H207  1  0.87831006  0.08343254  1.00480356  1
  H+  H208  1  0.11597325  0.69041373  0.67908439  1
  H+  H209  1  0.11339862  0.25123164  0.35596150  1
  H+  H210  1  0.12743371  0.26347982  0.17516633  1
  H+  H211  1  -0.03651945  0.85794387  0.85130017  1
  H+  H212  1  0.39712143  0.27117706  0.99119914  1
  H+  H213  1  0.10369194  0.07590584  0.50609739  1
  H+  H214  1  0.12146472  0.89938117  0.68304545  1
  H+  H215  1  0.77298311  0.38989815  0.33881191  1
  H+  H216  1  0.16754251  0.82574964  0.22603286  1
  H+  H217  1  0.84885805  0.87971850  0.83529924  1
  H+  H218  1  0.13137955  0.76151547  0.32291825  1
  H+  H219  1  0.16250190  0.57294637  0.76877612  1
  H+  H220  1  0.60033318  0.63104490  0.99359884  1
  H+  H221  1  0.87359846  0.26776657  0.31318285  1
  H+  H222  1  0.29555735  0.38411875  0.83027139  1
  H+  H223  1  0.38703123  0.76613505  0.33680476  1
  H+  H224  1  0.60671575  0.13630187  0.16123083  1
  H+  H225  1  0.36505518  0.22042177  0.16202252  1
  H+  H226  1  0.63076868  0.51586023  -0.00841750  1
  H+  H227  1  0.60804019  0.38180474  0.16184720  1
  H+  H228  1  0.77890418  0.12871095  0.82262085  1
  H+  H229  1  0.62937489  0.01333552  0.98977815  1
  H+  H230  1  0.27898181  0.63687887  0.49595201  1
  H+  H231  1  0.85139357  0.72117362  0.67698078  1
  H+  H232  1  0.31065562  0.13936227  0.33306221  1
  H+  H233  1  0.89777058  0.00551525  0.99687328  1
  H+  H234  1  0.15654600  0.43598030  0.83602034  1
  H+  H235  1  0.51278923  0.41702099  0.48579948  1
  H+  H236  1  0.39535803  0.27739887  0.84174244  1
  H+  H237  1  0.71664237  0.60759782  0.98955002  1
  H+  H238  1  0.64730951  0.11826597  0.31859489  1
  H+  H239  1  0.12591041  0.51593230  0.16990693  1
  H+  H240  1  0.27186183  0.88133125  0.15189972  1
  H+  H241  1  0.02340086  0.89101881  0.01454209  1
  H+  H242  1  0.88586191  0.60576366  0.32323215  1
  H+  H243  1  0.10295703  0.15333056  0.67611315  1
  H+  H244  1  0.86580181  0.72240415  0.15977018  1
  H+  H245  1  0.28980164  0.86713411  -0.00510058  1
  H+  H246  1  0.63783550  0.12548982  0.67093306  1
  H+  H247  1  0.34952902  0.73168021  0.01269503  1
  H+  H248  1  0.97323126  0.61899006  0.99819975  1
  H+  H249  1  0.85416723  0.38002103  0.15337341  1
  H+  H250  1  0.36838599  0.63725175  0.49250569  1
  H+  H251  1  0.19261230  0.83504439  0.52406971  1
  H+  H252  1  0.13348384  0.30369122  0.57066883  1
  H+  H253  1  0.35259554  0.94089269  0.73806570  1
  H+  H254  1  0.48760513  0.60586054  0.19435816  1
  H+  H255  1  0.88889958  0.51868145  0.32234479  1
  H+  H256  1  0.67005696  0.58217962  0.25996600  1
  H+  H257  1  0.86621576  0.14753166  0.34145932  1
  H+  H258  1  0.16098812  0.34057506  0.83801959  1
  H+  H259  1  0.00781811  0.14067786  0.67265184  1
  H+  H260  1  0.16496159  0.56353547  0.60121002  1
  H+  H261  1  0.40927902  0.55275462  0.66001970  1
  H+  H262  1  0.88011896  0.27275575  0.15037876  1
  H+  H263  1  0.63495022  0.51399629  0.83454429  1
  H+  H264  1  0.71763989  0.86191644  0.83699025  1
  H+  H265  1  0.02095013  0.13317679  0.00689597  1
  H+  H266  1  0.13418612  0.26681525  0.99277189  1
  H+  H267  1  0.63273857  0.11071767  0.84635437  1
  H+  H268  1  0.22442932  0.36108123  0.32779947  1
  H+  H269  1  0.13526913  0.86004901  0.84492622  1
  H+  H270  1  0.10470708  0.37567254  0.16275981  1
  H+  H271  1  0.11185478  0.13454974  0.15601390  1
  H+  H272  1  0.26122414  0.35976184  0.16090674  1
  H+  H273  1  0.38871297  0.52777751  0.50397716  1
  H+  H274  1  0.33362585  0.58391695  0.17219509  1
  H+  H275  1  0.73728349  0.60501555  0.50350608  1
  H+  H276  1  0.07537120  0.39564959  1.06564162  1
  H+  H277  1  0.48776879  0.86409719  0.50643333  1
  H+  H278  1  0.54119523  0.14236258  0.33384680  1
  H+  H279  1  0.11302188  0.46932828  0.01903654  1
  H+  H280  1  0.39732963  0.13137191  0.66269538  1
  H+  H281  1  0.52904684  0.38226718  0.82526032  1
  H+  H282  1  0.35458113  0.89399119  0.30891309  1
  H+  H283  1  0.35838411  0.63061596  0.33882031  1
  H+  H284  1  0.64203019  0.87748753  0.16708155  1
  H+  H285  1  0.13841516  0.60516336  0.50678690  1
  H+  H286  1  0.89661064  0.02517073  0.17628961  1
  H+  H287  1  0.77561054  0.14154474  0.33956961  1
  H+  H288  1  0.41952599  0.35050707  0.56829176  1
  H+  H289  1  0.13842745  0.94311714  0.40095315  1
  H+  H290  1  0.84076354  0.17888710  0.44333714  1
  H+  H291  1  0.88771848  0.61339032  0.65981022  1
  H+  H292  1  0.91249077  0.08342225  0.60145520  1
  H+  H293  1  0.76521766  0.53137801  0.45374547  1
  H+  H294  1  0.66346598  0.33217341  0.23372427  1
  H+  H295  1  0.27544303  0.13946342  0.83404146  1
  H+  H296  1  0.12417494  0.92798155  0.77440629  1
  H+  H297  1  0.43485401  0.10587799  0.56694434  1
  H+  H298  1  0.90808016  0.82532941  0.23413836  1
  H+  H299  1  0.40074961  0.01410513  0.98823972  1
  H+  H300  1  0.17660190  0.55480124  0.92186357  1
  H+  H301  1  0.57457434  0.42880272  0.39175229  1
  H+  H302  1  0.17883153  0.31522239  0.90252347  1
  H+  H303  1  0.14621980  0.85308560  0.59427959  1
  H+  H304  1  0.51745069  0.65009366  -0.00342101  1
  H+  H305  1  0.15281962  0.10007485  0.60492023  1
  H+  H306  1  0.91411025  0.57585935  0.22929542  1
  H+  H307  1  0.34709501  0.43257553  0.73571417  1
  H+  H308  1  0.16069832  0.07874975  0.89873862  1
  H+  H309  1  0.43237836  0.85560903  0.24462626  1
  H+  H310  1  0.15954067  0.17500838  0.51605680  1
  H+  H311  1  0.40271033  0.83248183  0.59633024  1
  H+  H312  1  0.58937720  0.91308454  0.43499278  1
  H+  H313  1  0.33643041  0.90189030  0.09505494  1
  H+  H314  1  0.88624770  0.86026734  0.17396105  1
  H+  H315  1  0.65719324  0.57200178  0.89525597  1
  H+  H316  1  0.14283503  0.43509188  0.65684317  1
  H+  H317  1  0.07686812  0.66765176  0.06907674  1
  H+  H318  1  0.86860818  0.81731435  0.60751572  1
  H+  H319  1  0.33116664  0.41176172  0.39972179  1
  H+  H320  1  0.08740800  0.91654391  0.06937885  1
  H+  H321  1  0.10612953  0.80959491  0.59465070  1
  H+  H322  1  0.69841937  0.30710200  0.58061496  1
  H+  H323  1  0.56632483  0.91802090  0.06183125  1
  H+  H324  1  0.63192015  0.82499756  0.92405971  1
  H+  H325  1  0.91638010  0.58132811  0.55920777  1
  H+  H326  1  0.09381122  0.42137405  0.40060185  1
  H+  H327  1  0.67850892  0.09401535  0.22292819  1
  H+  H328  1  0.64547724  0.27939486  0.66982709  1
  H+  H329  1  0.33809091  0.91740360  0.37257761  1
  H+  H330  1  0.66904897  0.07649904  0.90775525  1
  H+  H331  1  0.38669618  0.70719311  0.75916623  1
  H+  H332  1  0.90864972  0.58590752  0.90639605  1
  H+  H333  1  0.76807944  0.14912150  0.67276914  1
  H+  H334  1  0.67928896  0.84696724  0.26540966  1
  H+  H335  1  0.82992487  0.41686379  0.06471605  1
  H+  H336  1  0.13746586  0.35725536  0.98918869  1
  H+  H337  1  0.88917528  0.27936259  0.99553032  1
  H+  H338  1  0.58720734  0.40942045  0.76406442  1
  H+  H339  1  0.91666465  0.07528237  0.90305907  1
  H+  H340  1  0.83515277  0.66708409  0.09837989  1
  H+  H341  1  0.57944659  0.41244720  0.06619275  1
  H+  H342  1  0.64348389  0.78947186  0.16651104  1
  H+  H343  1  0.13924103  0.61210370  0.32247784  1
  H+  H344  1  0.59829721  0.17267757  0.39416028  1
  H+  H345  1  0.56764135  0.92154084  0.73235660  1
  H+  H346  1  0.81161266  0.92047016  0.73782928  1
  H+  H347  1  0.16410857  0.08687144  0.22939183  1
  H+  H348  1  0.15781709  0.32321589  0.23575108  1
  H+  H349  1  0.37980848  0.56575626  0.26811801  1
  H+  H350  1  0.68523133  0.59669507  0.56783118  1
  H+  H351  1  0.84286768  0.85951232  0.51675114  1
  H+  H352  1  0.42927700  0.33651464  0.90139580  1
  H+  H353  1  0.45120475  0.87889310  1.00158381  1
  H+  H354  1  0.36334315  0.39014050  0.49508739  1
  H+  H355  1  0.07226880  0.16020946  0.76632682  1
  H+  H356  1  0.05885425  0.65823366  0.76464510  1
  H+  H357  1  0.61103764  0.68270294  0.07943672  1
  H+  H358  1  0.17278636  0.59471296  0.92243236  1
  H+  H359  1  0.38829070  0.39813077  0.82742513  1
  H+  H360  1  0.92681389  0.08928216  0.23314642  1
  H+  H361  1  0.34510222  0.16595607  0.06155679  1
  H+  H362  1  0.15939103  0.57633922  0.22945546  1
  H+  H363  1  0.10682874  0.86709006  0.32161868  1
  H+  H364  1  0.83337853  0.42233190  0.73778003  1
  H+  H365  1  0.83442909  0.17135703  0.72833788  1
  H+  H366  1  0.32956962  0.39603904  0.06521416  1
  H+  H367  1  0.40912854  0.83775341  0.90099029  1
  H+  H368  1  0.07827148  0.65423446  0.39267539  1
  H+  H369  1  -0.02616564  0.36474894  0.73192051  1
  H+  H370  1  0.89906149  0.31928644  0.21695329  1
  H+  H371  1  0.66272806  0.33164225  0.90312693  1
  H+  H372  1  0.17125930  0.82957325  0.93527596  1
  H+  H373  1  0.72625594  0.11269309  0.49914756  1
  H+  H374  1  0.42191325  0.59143983  0.56124186  1
  H+  H375  1  0.02650582  0.94525620  0.74706297  1
  H+  H376  1  0.83858070  0.41456717  0.39513332  1
  H+  H377  1  0.58649936  0.17570478  0.74591861  1
  H+  H378  1  0.41858953  0.08169164  0.90097743  1
  H+  H379  1  0.85572457  0.46983968  0.15768550  1
  H+  H380  1  0.82489596  0.93674388  0.44642435  1
  H+  H381  1  0.81783940  0.62500618  0.40096738  1
  H+  H382  1  0.33709967  0.17662128  0.43842112  1
  H+  H383  1  0.91148060  0.33776983  0.90280476  1
  O2-  O384  1  0.08243050  0.16586585  0.14275428  1
  O2-  O385  1  0.16391049  0.26711116  0.49373255  1
  O2-  O386  1  0.07701784  0.15045699  0.81104499  1
  O2-  O387  1  0.07769458  0.40707890  0.14429701  1
  O2-  O388  1  0.08569438  0.41856618  0.48156968  1
  O2-  O389  1  -0.00142759  0.37586736  0.77397272  1
  O2-  O390  1  0.08000104  0.66534450  0.14589427  1
  O2-  O391  1  0.07983972  0.64933004  0.47005770  1
  O2-  O392  1  0.06232381  0.66421061  0.81038952  1
  O2-  O393  1  0.08621642  0.91618455  0.15136165  1
  O2-  O394  1  0.17841957  0.95996532  0.43611088  1
  O2-  O395  1  0.09613661  0.92469511  0.81314888  1
  O2-  O396  1  0.33545261  0.15947162  0.14636940  1
  O2-  O397  1  0.33420731  0.17854358  0.48348520  1
  O2-  O398  1  0.33518213  0.17018281  0.81673615  1
  O2-  O399  1  0.32258175  0.39217263  0.14743330  1
  O2-  O400  1  0.32988673  0.41668938  0.47661719  1
  O2-  O401  1  0.35315016  0.42389118  0.81351907  1
  O2-  O402  1  0.32405138  0.65477152  0.14467443  1
  O2-  O403  1  0.33790377  0.66851931  0.47837484  1
  O2-  O404  1  0.42288289  0.72725045  0.79585039  1
  O2-  O405  1  0.33342715  0.91488204  0.13839410  1
  O2-  O406  1  0.35127795  0.88059155  0.43721078  1
  O2-  O407  1  0.33418244  0.92042111  0.81478645  1
  O2-  O408  1  0.57131508  0.16315813  0.14960990  1
  O2-  O409  1  0.58501039  0.16756908  0.46990208  1
  O2-  O410  1  0.58646597  0.16041744  0.82524537  1
  O2-  O411  1  0.57640657  0.41040985  0.14605949  1
  O2-  O412  1  0.56578509  0.45240379  0.46176153  1
  O2-  O413  1  0.58990254  0.41090787  0.80983446  1
  O2-  O414  1  0.64275288  0.69959778  0.12091260  1
  O2-  O415  1  0.59422327  0.67181377  0.46856326  1
  O2-  O416  1  0.60025122  0.66349724  0.79096346  1
  O2-  O417  1  0.58922454  0.92645449  0.13828058  1
  O2-  O418  1  0.58413540  0.91412317  0.47970589  1
  O2-  O419  1  0.58639600  0.92987107  0.81961429  1
  O2-  O420  1  0.82057661  0.17316770  0.10028795  1
  O2-  O421  1  0.83787263  0.17933298  0.48824954  1
  O2-  O422  1  0.83706082  0.15646481  0.80597261  1
  O2-  O423  1  0.82184372  0.41007463  0.14118710  1
  O2-  O424  1  0.85036071  0.41483974  0.47476175  1
  O2-  O425  1  0.82509923  0.41854347  0.82132142  1
  O2-  O426  1  0.83714018  0.66269270  0.14382180  1
  O2-  O427  1  0.80280018  0.59238012  0.46188182  1
  O2-  O428  1  0.82869057  0.67104696  0.81818575  1
  O2-  O429  1  0.84334880  0.91076937  0.14315369  1
  O2-  O430  1  0.82683281  0.93479097  0.49102017  1
  O2-  O431  1  0.81927741  0.91037114  0.82068160  1
  O2-  O432  1  0.16860425  0.08212817  0.18515069  1
  O2-  O433  1  0.15906951  0.11935950  0.52221329  1
  O2-  O434  1  0.16946938  0.08045613  0.85215318  1
  O2-  O435  1  0.15906015  0.32438972  0.19022955  1
  O2-  O436  1  0.10590126  0.28537284  0.52954810  1
  O2-  O437  1  0.18560723  0.30885882  0.85715903  1
  O2-  O438  1  0.15395459  0.57669459  0.18417411  1
  O2-  O439  1  0.17132448  0.57914555  0.52426783  1
  O2-  O440  1  0.11982625  0.54920013  0.80120911  1
  O2-  O441  1  0.16933421  0.82960748  0.18071447  1
  O2-  O442  1  0.18668754  0.82423008  0.48032307  1
  O2-  O443  1  0.16422816  0.82724044  0.85656568  1
  O2-  O444  1  0.41133716  0.07588097  0.16895274  1
  O2-  O445  1  0.43104999  0.10208425  0.52198821  1
  O2-  O446  1  0.41897096  0.08612798  0.85513536  1
  O2-  O447  1  0.41261055  0.32144994  0.18874958  1
  O2-  O448  1  0.41570847  0.34899316  0.52169798  1
  O2-  O449  1  0.43130112  0.33802810  0.85538920  1
  O2-  O450  1  0.33112679  0.53239750  0.19624315  1
  O2-  O451  1  0.42117999  0.58914381  0.51561760  1
  O2-  O452  1  0.38498678  0.58830345  0.86018902  1
  O2-  O453  1  0.44544375  0.87209813  0.20186518  1
  O2-  O454  1  0.42528816  0.83445311  0.52004897  1
  O2-  O455  1  0.42227269  0.84790421  0.85723661  1
  O2-  O456  1  0.66891598  0.09320405  0.17769734  1
  O2-  O457  1  0.66336402  0.07559435  0.50571490  1
  O2-  O458  1  0.66403896  0.07821665  0.85870112  1
  O2-  O459  1  0.65851930  0.32720385  0.18813746  1
  O2-  O460  1  0.71515417  0.28975832  0.54128468  1
  O2-  O461  1  0.66357472  0.32692570  0.85743327  1
  O2-  O462  1  0.67026101  0.57914853  0.17970625  1
  O2-  O463  1  0.68725572  0.60761575  0.52372767  1
  O2-  O464  1  0.66125802  0.57467001  0.84970904  1
  O2-  O465  1  0.67325130  0.84835958  0.18336209  1
  O2-  O466  1  0.66123286  0.84552578  0.55610819  1
  O2-  O467  1  0.65384183  0.83222660  0.84571419  1
  O2-  O468  1  0.92871373  0.08615785  0.18818753  1
  O2-  O469  1  0.89718258  0.08804029  0.52894529  1
  O2-  O470  1  0.91490964  0.07327750  0.85794293  1
  O2-  O471  1  0.90785388  0.32897252  0.17088188  1
  O2-  O472  1  0.93256780  0.34036910  0.53067022  1
  O2-  O473  1  0.89413097  0.33477170  0.85852120  1
  O2-  O474  1  0.91485956  0.57486780  0.18350301  1
  O2-  O475  1  0.92018314  0.57746994  0.51438608  1
  O2-  O476  1  0.90274961  0.58100131  0.86085912  1
  O2-  O477  1  0.91661052  0.82924011  0.19024694  1
  O2-  O478  1  0.85087312  0.81055155  0.53132709  1
  O2-  O479  1  0.90525860  0.83030787  0.86793133  1
  O2-  O480  1  0.16403890  0.11897653  0.31304319  1
  O2-  O481  1  0.14852372  0.09554673  0.64971546  1
  O2-  O482  1  0.14985937  0.07403491  0.96728042  1
  O2-  O483  1  0.16296913  0.33157698  0.31420065  1
  O2-  O484  1  0.16069159  0.33546998  0.64876376  1
  O2-  O485  1  0.16713750  0.32606733  0.97483654  1
  O2-  O486  1  0.17014898  0.58273926  0.30723504  1
  O2-  O487  1  0.16250893  0.55305519  0.64630873  1
  O2-  O488  1  0.16398893  0.57094533  1.03476081  1
  O2-  O489  1  0.15736269  0.82149804  0.30508389  1
  O2-  O490  1  0.21095155  0.78392369  0.66895972  1
  O2-  O491  1  0.17899876  0.83267009  0.98046251  1
  O2-  O492  1  0.44239272  0.09938135  0.31040183  1
  O2-  O493  1  0.43544420  0.10984138  0.64903417  1
  O2-  O494  1  0.42229249  0.07386010  0.97537324  1
  O2-  O495  1  0.41606401  0.33081552  0.31177726  1
  O2-  O496  1  0.42228837  0.35008202  0.63929516  1
  O2-  O497  1  0.42512879  0.33252768  0.97646094  1
  O2-  O498  1  0.39603722  0.57645591  0.31174607  1
  O2-  O499  1  0.42278827  0.60524816  0.63713106  1
  O2-  O500  1  0.44647962  0.65241481  0.96728947  1
  O2-  O501  1  0.41719159  0.83127550  0.33207769  1
  O2-  O502  1  0.38847603  0.82925886  0.64073991  1
  O2-  O503  1  0.38926501  0.84774734  0.98571469  1
  O2-  O504  1  0.67594159  0.08769708  0.30051194  1
  O2-  O505  1  0.66814891  0.09714091  0.65409515  1
  O2-  O506  1  0.67061596  0.06920755  0.96992170  1
  O2-  O507  1  0.66783507  0.33857331  0.31114997  1
  O2-  O508  1  0.67627490  0.33515853  0.64669195  1
  O2-  O509  1  0.66547708  0.33424274  0.97862421  1
  O2-  O510  1  0.66714189  0.57885310  0.30513520  1
  O2-  O511  1  0.67121242  0.57896028  0.65438016  1
  O2-  O512  1  0.65807670  0.57427706  0.97234575  1
  O2-  O513  1  0.68272686  0.84935316  0.31045547  1
  O2-  O514  1  0.57033322  0.74084508  0.65330385  1
  O2-  O515  1  0.61589378  0.82210653  0.96754976  1
  O2-  O516  1  0.92559056  0.10125560  0.31524100  1
  O2-  O517  1  0.92856233  0.08064574  0.64534362  1
  O2-  O518  1  0.91529326  0.06629298  0.98367048  1
  O2-  O519  1  0.89280897  0.31956742  0.28706834  1
  O2-  O520  1  0.91512019  0.34143336  0.66448573  1
  O2-  O521  1  0.92042854  0.33704366  0.97693743  1
  O2-  O522  1  0.91918712  0.57903598  0.30594200  1
  O2-  O523  1  0.91591231  0.58226439  0.64223160  1
  O2-  O524  1  0.91220120  0.59131220  0.98322243  1
  O2-  O525  1  0.90650187  0.82674471  0.35670896  1
  O2-  O526  1  0.87020698  0.81408480  0.65309211  1
  O2-  O527  1  0.90799617  0.85583778  0.99893343  1
  O2-  O528  1  0.08229920  0.16604153  0.01963080  1
  O2-  O529  1  0.08447056  0.19962626  0.38507292  1
  O2-  O530  1  0.07068325  0.18115225  0.69160977  1
  O2-  O531  1  0.07923508  0.40399533  0.02039252  1
  O2-  O532  1  0.09821490  0.41992194  0.35569257  1
  O2-  O533  1  0.11630691  0.37747962  0.67589503  1
  O2-  O534  1  0.07581730  0.66452279  0.02344562  1
  O2-  O535  1  0.08201724  0.66182157  0.34729039  1
  O2-  O536  1  0.06966270  0.63259766  0.69223522  1
  O2-  O537  1  0.08463701  0.91260384  0.02424545  1
  O2-  O538  1  0.07897878  0.90301486  0.33423690  1
  O2-  O539  1  0.00925124  0.94900805  0.70560699  1
  O2-  O540  1  0.35291425  0.17225619  0.01722562  1
  O2-  O541  1  0.35540915  0.17980381  0.36003995  1
  O2-  O542  1  0.29989053  0.12416532  0.70036466  1
  O2-  O543  1  0.33491071  0.39873764  0.02035342  1
  O2-  O544  1  0.32687847  0.40859456  0.35419244  1
  O2-  O545  1  0.34499750  0.43728269  0.69035797  1
  O2-  O546  1  0.33627968  0.67350776  0.02382875  1
  O2-  O547  1  0.33123970  0.66564220  0.35408333  1
  O2-  O548  1  0.33129234  0.66995292  0.68300028  1
  O2-  O549  1  0.35064711  0.89694621  0.01073679  1
  O2-  O550  1  0.32706215  0.92342933  0.32839307  1
  O2-  O551  1  0.35478097  0.94936484  0.69308776  1
  O2-  O552  1  0.57355624  0.16806502  0.02179251  1
  O2-  O553  1  0.60259369  0.17482938  0.34853773  1
  O2-  O554  1  0.59013281  0.18441734  0.70117710  1
  O2-  O555  1  0.58284335  0.41428553  0.02086149  1
  O2-  O556  1  0.57755548  0.41725872  0.34697624  1
  O2-  O557  1  0.58601263  0.41257508  0.68716634  1
  O2-  O558  1  0.57923109  0.66605787  0.01385857  1
  O2-  O559  1  0.61944128  0.69631858  0.34991224  1
  O2-  O560  1  0.64720157  0.68482236  0.73703894  1
  O2-  O561  1  0.55442447  0.91525592  0.01700943  1
  O2-  O562  1  0.59633817  0.92532111  0.34973883  1
  O2-  O563  1  0.56648722  0.92984481  0.68834247  1
  O2-  O564  1  0.82322094  0.17067788  0.04109158  1
  O2-  O565  1  0.83435114  0.17564836  0.35712930  1
  O2-  O566  1  0.83043166  0.18449513  0.68494864  1
  O2-  O567  1  0.83305382  0.42180216  0.01901637  1
  O2-  O568  1  0.83505089  0.41810933  0.34999184  1
  O2-  O569  1  0.83486954  0.42233434  0.69274691  1
  O2-  O570  1  0.82665017  0.67309501  0.02181643  1
  O2-  O571  1  0.82590646  0.64221636  0.35337611  1
  O2-  O572  1  0.83435654  0.66118176  0.69187034  1
  O2-  O573  1  0.87039563  0.90694164  0.02294888  1
  O2-  O574  1  0.83743047  0.94013679  0.35749486  1
  O2-  O575  1  0.80593269  0.92502479  0.69356617  1
