# generated using pymatgen
data_H2O
_symmetry_space_group_name_H-M   'P 1'
_cell_length_a   17.98035309
_cell_length_b   17.98517680
_cell_length_c   21.99222153
_cell_angle_alpha   90.00888207
_cell_angle_beta   89.98815677
_cell_angle_gamma   119.97487845
_symmetry_Int_Tables_number   1
_chemical_formula_structural   H2O
_chemical_formula_sum   'H384 O192'
_cell_volume   6160.59320838
_cell_formula_units_Z   192
loop_
 _symmetry_equiv_pos_site_id
 _symmetry_equiv_pos_as_xyz
  1  'x, y, z'
loop_
 _atom_type_symbol
 _atom_type_oxidation_number
  H+  1.0
  O2-  -2.0
loop_
 _atom_site_type_symbol
 _atom_site_label
 _atom_site_symmetry_multiplicity
 _atom_site_fract_x
 _atom_site_fract_y
 _atom_site_fract_z
 _atom_site_occupancy
  H+  H0  1  0.53658520  0.76862474  0.07517663  1
  H+  H1  1  0.02018420  0.13652009  0.82992381  1
  H+  H2  1  0.39142466  0.83197577  0.53830670  1
  H+  H3  1  0.27729703  0.64657407  0.48582544  1
  H+  H4  1  0.86133772  0.39353535  0.15918080  1
  H+  H5  1  0.75641669  0.87621538  0.48897726  1
  H+  H6  1  0.17722442  0.61303189  0.89262770  1
  H+  H7  1  0.58458491  0.01811823  0.30424915  1
  H+  H8  1  0.28578723  0.36703244  1.02116881  1
  H+  H9  1  0.34773680  0.63424604  0.99978213  1
  H+  H10  1  0.09914805  0.54429613  0.63497514  1
  H+  H11  1  0.88831975  0.36758589  0.50785597  1
  H+  H12  1  0.13920535  0.02679827  0.17276659  1
  H+  H13  1  0.62008962  0.64682568  0.96535416  1
  H+  H14  1  0.07536894  0.42372331  0.67040184  1
  H+  H15  1  0.60041567  0.71339242  0.17142982  1
  H+  H16  1  0.08598856  0.17976417  0.39535548  1
  H+  H17  1  1.08092284  0.91829782  1.06868203  1
  H+  H18  1  0.89299702  0.37190475  0.83261443  1
  H+  H19  1  0.61805734  0.38836513  0.83764602  1
  H+  H20  1  0.85254844  0.46795216  0.49951362  1
  H+  H21  1  0.39478418  0.86978098  0.13779909  1
  H+  H22  1  0.47203444  0.65769341  0.99597209  1
  H+  H23  1  0.47867794  0.34540415  0.50311986  1
  H+  H24  1  0.90995228  0.25634697  0.69004356  1
  H+  H25  1  0.75509438  0.10494421  0.68034645  1
  H+  H26  1  0.60465553  0.46867328  0.49188924  1
  H+  H27  1  0.13121198  0.68954189  0.09040140  1
  H+  H28  1  0.61266732  0.22483055  0.49079177  1
  H+  H29  1  0.39074279  0.77418078  0.83588526  1
  H+  H30  1  0.14408145  0.77517160  1.00645502  1
  H+  H31  1  0.93767089  0.30041395  0.67657808  1
  H+  H32  1  0.12058669  0.51737504  0.32721825  1
  H+  H33  1  0.08718571  0.73794131  0.81447966  1
  H+  H34  1  0.76157897  0.45103314  0.70312621  1
  H+  H35  1  0.19362565  0.83814098  0.92482878  1
  H+  H36  1  0.66313151  0.07288659  0.59775107  1
  H+  H37  1  0.63162060  0.35978399  0.50109043  1
  H+  H38  1  0.77206123  0.39174033  0.16315197  1
  H+  H39  1  0.65019501  0.13115243  0.17661089  1
  H+  H40  1  0.52728404  0.88913201  0.83085977  1
  H+  H41  1  0.19847014  0.77410297  0.87890214  1
  H+  H42  1  0.37783918  0.05868978  0.48899193  1
  H+  H43  1  0.36672469  0.47782362  0.33824201  1
  H+  H44  1  0.63126832  0.76704117  0.50696331  1
  H+  H45  1  0.00702657  0.20078650  0.46023699  1
  H+  H46  1  0.37293420  0.76898247  -0.00390034  1
  H+  H47  1  0.78025272  0.15006292  0.34509163  1
  H+  H48  1  0.46655749  0.60692913  0.18039906  1
  H+  H49  1  0.21305334  0.59058617  0.17562272  1
  H+  H50  1  0.61389097  0.21926398  0.00675064  1
  H+  H51  1  0.67973189  0.81744365  0.25605938  1
  H+  H52  1  1.00343036  0.82670858  0.84244621  1
  H+  H53  1  0.88342364  0.63005197  0.65917215  1
  H+  H54  1  0.27623445  0.14284337  0.33349600  1
  H+  H55  1  0.13070572  0.79433164  0.64956996  1
  H+  H56  1  0.30215719  0.80743211  0.27837137  1
  H+  H57  1  0.04846985  0.70231380  0.47327070  1
  H+  H58  1  0.54300859  0.88478353  0.30226499  1
  H+  H59  1  0.22327270  0.87462439  0.65393257  1
  H+  H60  1  0.59463828  0.76824283  0.02191104  1
  H+  H61  1  0.90013001  0.06744918  0.93513321  1
  H+  H62  1  0.85580002  0.62347373  0.49201631  1
  H+  H63  1  0.97914157  0.62100879  0.32818232  1
  H+  H64  1  0.85785731  0.87833678  0.83266756  1
  H+  H65  1  0.63769803  0.86573528  0.84075292  1
  H+  H66  1  0.85651197  0.50175785  0.67990205  1
  H+  H67  1  0.86455141  0.63462382  0.33934766  1
  H+  H68  1  0.49837125  0.87853104  0.30021869  1
  H+  H69  1  0.64945837  0.35455493  0.65848563  1
  H+  H70  1  0.36703931  0.73144801  0.47869706  1
  H+  H71  1  0.96651191  0.58946807  0.51836408  1
  H+  H72  1  0.76567656  0.37824215  0.49272602  1
  H+  H73  1  0.87425048  0.19012673  0.43219454  1
  H+  H74  1  0.14166793  0.63537009  0.83176511  1
  H+  H75  1  0.36235730  0.47964975  0.17053081  1
  H+  H76  1  0.50553958  0.35622583  0.01506767  1
  H+  H77  1  0.85679704  -0.02936974  1.00848834  1
  H+  H78  1  0.14487333  0.64355857  0.49332545  1
  H+  H79  1  0.51710402  0.64255557  0.81851448  1
  H+  H80  1  0.27657629  0.12527239  0.82524761  1
  H+  H81  1  0.46984016  0.86176178  0.49196486  1
  H+  H82  1  0.52104216  0.63528678  0.49003086  1
  H+  H83  1  0.16945494  0.34300052  0.24046475  1
  H+  H84  1  0.12196395  0.35299165  0.99014841  1
  H+  H85  1  0.63528294  0.36012449  0.18081864  1
  H+  H86  1  0.72638945  0.87075449  0.99428203  1
  H+  H87  1  0.61403589  -0.03675142  0.67039504  1
  H+  H88  1  0.87744994  1.00916831  0.50537778  1
  H+  H89  1  0.88387991  0.00932975  0.66468558  1
  H+  H90  1  0.36252236  0.40595418  0.83487249  1
  H+  H91  1  0.72786066  0.36357586  0.32989407  1
  H+  H92  1  0.38668408  0.01521130  1.00689263  1
  H+  H93  1  0.41984102  0.59998487  0.89480387  1
  H+  H94  1  0.17604835  0.80421615  0.15937903  1
  H+  H95  1  0.85504771  0.47930234  1.00684146  1
  H+  H96  1  0.38267232  0.53452689  0.83822645  1
  H+  H97  1  0.62794936  0.65490621  -0.00079242  1
  H+  H98  1  0.12468188  0.63826348  0.99733496  1
  H+  H99  1  -0.02469109  0.63252779  0.66000771  1
  H+  H100  1  0.60470216  0.87858698  0.50340402  1
  H+  H101  1  1.03264707  0.89970259  0.34811554  1
  H+  H102  1  0.25428222  0.62485957  0.66162016  1
  H+  H103  1  0.59988611  0.44080612  0.01775218  1
  H+  H104  1  0.87204938  0.73402516  0.01524126  1
  H+  H105  1  0.35658764  0.75966753  0.63196655  1
  H+  H106  1  0.86683094  0.48316854  0.34350214  1
  H+  H107  1  0.37914551  0.86144014  1.00133212  1
  H+  H108  1  0.14156551  0.12187667  0.32313034  1
  H+  H109  1  0.63506913  0.52411786  0.82915399  1
  H+  H110  1  0.61467068  0.38544267  0.33972900  1
  H+  H111  1  0.88795927  0.77084013  0.33236525  1
  H+  H112  1  0.21538605  0.09788032  0.65671300  1
  H+  H113  1  0.60358452  0.17098697  0.10586987  1
  H+  H114  1  0.88866632  0.63053642  0.84241688  1
  H+  H115  1  0.36223715  1.00222094  0.36756026  1
  H+  H116  1  1.01845427  0.12845182  0.67423582  1
  H+  H117  1  0.35593821  0.84710435  0.63956578  1
  H+  H118  1  0.35881575  0.97132710  0.66634873  1
  H+  H119  1  0.03240793  0.89014906  0.16705120  1
  H+  H120  1  0.72665126  0.61867055  0.65799301  1
  H+  H121  1  0.38263274  0.34438472  0.66477651  1
  H+  H122  1  0.50325838  0.85226387  0.14198159  1
  H+  H123  1  0.96950478  0.85943311  0.99897970  1
  H+  H124  1  0.85868732  0.23261346  0.00260074  1
  H+  H125  1  0.11329270  0.14400664  0.82778665  1
  H+  H126  1  0.37796041  0.11447664  0.33910677  1
  H+  H127  1  0.86025069  0.87042901  0.34059760  1
  H+  H128  1  0.12364991  0.99074665  0.71711602  1
  H+  H129  1  0.29024860  0.88999468  0.83351705  1
  H+  H130  1  0.13964686  0.03129874  0.32358890  1
  H+  H131  1  0.63438391  0.51876384  0.17468657  1
  H+  H132  1  0.38430785  0.88776795  0.43672711  1
  H+  H133  1  0.51145702  0.88438573  -0.00443332  1
  H+  H134  1  0.98091272  0.37058566  0.82619764  1
  H+  H135  1  0.37522661  0.88595307  0.82454760  1
  H+  H136  1  0.41246689  0.82748419  0.89953399  1
  H+  H137  1  0.11039593  0.88295679  0.01281479  1
  H+  H138  1  0.19287690  0.89467965  0.49827203  1
  H+  H139  1  0.88054654  0.10693015  0.84125096  1
  H+  H140  1  0.09607990  0.23747622  0.49196325  1
  H+  H141  1  0.97387558  0.36540668  0.32824351  1
  H+  H142  1  0.79931479  0.91634982  0.16549721  1
  H+  H143  1  0.86052287  0.73622514  0.66514937  1
  H+  H144  1  0.13755615  0.37126965  0.51690857  1
  H+  H145  1  0.92104759  0.83644300  0.27542469  1
  H+  H146  1  0.67231571  1.01792496  0.36450457  1
  H+  H147  1  0.13955867  0.61340445  0.17555909  1
  H+  H148  1  0.42208121  0.55864700  0.99753952  1
  H+  H149  1  0.38244027  0.27393753  0.16949989  1
  H+  H150  1  0.38452522  0.36455982  0.17460407  1
  H+  H151  1  0.88147596  0.52559604  0.18039540  1
  H+  H152  1  0.86962966  0.14908249  0.16755748  1
  H+  H153  1  0.64167624  0.75870260  0.31717753  1
  H+  H154  1  0.63803223  0.52019828  0.32744542  1
  H+  H155  1  0.37710503  0.10091013  0.64923533  1
  H+  H156  1  0.38006339  0.51307540  0.65315983  1
  H+  H157  1  0.61099134  0.62970704  0.33895304  1
  H+  H158  1  0.13402624  0.28070634  0.83592222  1
  H+  H159  1  0.89125789  0.78242920  0.18281661  1
  H+  H160  1  0.38240815  0.61298212  0.32937499  1
  H+  H161  1  0.12253982  0.49168367  0.82669293  1
  H+  H162  1  0.46720057  0.10199889  0.64741568  1
  H+  H163  1  0.11147372  0.25903694  0.98394993  1
  H+  H164  1  0.90864496  0.04630544  0.16486974  1
  H+  H165  1  0.39772665  0.01018167  0.84436449  1
  H+  H166  1  0.88198429  0.85980492  0.65340994  1
  H+  H167  1  0.15325814  0.36010563  0.66585227  1
  H+  H168  1  0.63322481  0.76537583  0.65509706  1
  H+  H169  1  0.62985266  0.01731798  0.51220929  1
  H+  H170  1  1.03331401  0.41312128  0.49979190  1
  H+  H171  1  0.51128977  0.13406197  0.82967689  1
  H+  H172  1  0.42138569  0.33544848  0.26597167  1
  H+  H173  1  0.64168436  0.12202586  0.83168757  1
  H+  H174  1  0.38502077  0.09073182  0.84716784  1
  H+  H175  1  0.10001705  0.84857345  0.85317097  1
  H+  H176  1  0.47432553  0.61517950  0.32976579  1
  H+  H177  1  0.61149702  1.01164747  -0.01751664  1
  H+  H178  1  -0.02557257  0.36741312  0.17139855  1
  H+  H179  1  0.51361761  0.62654794  0.66154394  1
  H+  H180  1  0.66420904  0.57987757  0.98453138  1
  H+  H181  1  0.11252335  0.36837866  0.34819838  1
  H+  H182  1  0.36220837  0.32647150  0.99569983  1
  H+  H183  1  0.32819120  0.66484980  0.39275362  1
  H+  H184  1  0.76827190  0.87616795  0.67377409  1
  H+  H185  1  0.86434397  0.24161378  0.33745294  1
  H+  H186  1  0.12119066  0.40102887  0.83061413  1
  H+  H187  1  0.88480055  0.61569487  0.18502765  1
  H+  H188  1  0.90494943  0.62618148  0.00339111  1
  H+  H189  1  0.37196636  0.59835997  0.65055655  1
  H+  H190  1  0.93704792  0.32454597  0.91955906  1
  H+  H191  1  0.60458333  0.63972228  0.81160029  1
  H+  H192  1  0.76189839  0.14106824  0.17898919  1
  H+  H193  1  0.88875716  0.15008996  0.49354155  1
  H+  H194  1  0.36354903  0.64573103  0.81572211  1
  H+  H195  1  -0.00667462  0.13798021  0.16041681  1
  H+  H196  1  0.85609489  0.88026703  1.01201829  1
  H+  H197  1  0.95019651  0.84271184  0.48719434  1
  H+  H198  1  0.61243495  0.22741338  0.34115272  1
  H+  H199  1  0.34422181  0.75059134  0.29622857  1
  H+  H200  1  0.37293455  0.24394532  0.99472659  1
  H+  H201  1  0.96144025  0.09545893  0.99181241  1
  H+  H202  1  0.14007241  0.55114870  0.49980738  1
  H+  H203  1  0.37588423  0.19758574  0.81462691  1
  H+  H204  1  0.37805767  0.38648869  0.49018015  1
  H+  H205  1  0.28024262  0.14018016  0.15750565  1
  H+  H206  1  0.61738384  0.11201923  -0.00958067  1
  H+  H207  1  0.36444220  0.29562917  0.84234560  1
  H+  H208  1  0.51831765  0.38164685  0.17132435  1
  H+  H209  1  0.88867768  0.37504910  0.32882057  1
  H+  H210  1  0.10554357  0.65806187  0.66416894  1
  H+  H211  1  0.90387258  0.13588689  0.31873856  1
  H+  H212  1  0.86686507  0.75171731  0.49527368  1
  H+  H213  1  0.63041479  0.60260015  0.65749017  1
  H+  H214  1  0.34200104  0.61156046  0.15846504  1
  H+  H215  1  0.38109796  0.47730465  0.48723812  1
  H+  H216  1  0.26320442  0.62389312  0.33687288  1
  H+  H217  1  0.57139897  0.66077398  0.72149826  1
  H+  H218  1  0.12575153  0.48661777  1.01210277  1
  H+  H219  1  0.63298430  0.85409621  0.15624614  1
  H+  H220  1  0.10622615  0.38645578  0.16453825  1
  H+  H221  1  0.13224214  0.13993476  0.15802874  1
  H+  H222  1  0.03072902  0.32022197  0.38958844  1
  H+  H223  1  0.72651929  0.34095960  0.64997531  1
  H+  H224  1  0.32720810  0.15836536  1.06514086  1
  H+  H225  1  0.60557948  0.21011269  0.66504382  1
  H+  H226  1  0.27694422  0.37513454  0.67177492  1
  H+  H227  1  0.35428439  0.20801209  0.67138366  1
  H+  H228  1  0.90113723  0.87624080  0.18051932  1
  H+  H229  1  0.78005476  0.65922127  0.82286485  1
  H+  H230  1  0.94786057  0.43556835  0.65674230  1
  H+  H231  1  0.84488328  0.10522216  0.68330983  1
  H+  H232  1  0.03606079  0.15379355  0.33206662  1
  H+  H233  1  0.11373560  0.64380900  0.33396749  1
  H+  H234  1  0.38231881  0.15932550  0.15177260  1
  H+  H235  1  0.72529672  0.36046160  1.00025905  1
  H+  H236  1  0.39387296  0.36766972  0.32511447  1
  H+  H237  1  0.78206825  0.40115235  0.83718847  1
  H+  H238  1  -0.00520863  0.35576818  -0.02022519  1
  H+  H239  1  0.25269879  0.87519684  0.32939777  1
  H+  H240  1  0.75989108  0.86149345  0.32932906  1
  H+  H241  1  0.14830793  0.77091090  0.48722633  1
  H+  H242  1  0.77455383  0.64443608  0.16865783  1
  H+  H243  1  0.45601160  0.45517994  0.03122152  1
  H+  H244  1  0.38628197  0.61294010  0.49816439  1
  H+  H245  1  0.30011063  0.39984309  -0.00396307  1
  H+  H246  1  0.64648802  0.28242630  0.84954282  1
  H+  H247  1  0.52825944  0.38671779  0.82803934  1
  H+  H248  1  0.13129729  0.01059426  0.98751517  1
  H+  H249  1  0.09540834  0.92980293  0.50585386  1
  H+  H250  1  0.62681279  0.09474406  0.65737518  1
  H+  H251  1  0.84223302  0.87023466  0.48437756  1
  H+  H252  1  0.25834209  0.15718108  0.51369201  1
  H+  H253  1  0.85966148  0.22366456  0.82466499  1
  H+  H254  1  0.77061865  0.88162717  0.82794299  1
  H+  H255  1  0.15328425  0.04583791  0.81503066  1
  H+  H256  1  0.86675539  0.24053390  0.17073770  1
  H+  H257  1  0.14025096  0.26420335  0.66276902  1
  H+  H258  1  0.17271435  0.78492337  0.31154665  1
  H+  H259  1  0.23164707  0.86784338  1.01402546  1
  H+  H260  1  0.69337987  0.81915728  0.13363455  1
  H+  H261  1  0.26868713  0.39513768  0.83001625  1
  H+  H262  1  0.12623315  0.89860233  0.15883667  1
  H+  H263  1  0.46516309  0.10869757  0.33957193  1
  H+  H264  1  0.14891119  0.28064365  0.32921457  1
  H+  H265  1  0.73042262  0.12115159  0.83971105  1
  H+  H266  1  0.10224576  0.47341844  0.16327811  1
  H+  H267  1  0.62681906  0.34129800  0.00244715  1
  H+  H268  1  0.25720949  0.63140084  0.99787835  1
  H+  H269  1  0.12967192  0.10317725  0.65803456  1
  H+  H270  1  0.27765481  0.65207972  0.81544634  1
  H+  H271  1  0.61497216  0.97958669  0.82804325  1
  H+  H272  1  0.15322822  0.57279103  0.26610916  1
  H+  H273  1  0.88244169  0.01856219  0.83756306  1
  H+  H274  1  0.35912530  0.12280151  1.00859299  1
  H+  H275  1  0.60765159  0.89534782  0.99192019  1
  H+  H276  1  0.29319721  0.91149778  0.11768795  1
  H+  H277  1  0.62986064  0.60529985  0.17222269  1
  H+  H278  1  0.83091792  0.13961806  0.01819323  1
  H+  H279  1  0.86867739  0.74779931  0.82937556  1
  H+  H280  1  1.03739255  0.64396648  1.01386178  1
  H+  H281  1  0.09736491  0.91983573  0.77097275  1
  H+  H282  1  0.11493391  0.42901440  0.73530846  1
  H+  H283  1  0.07807338  0.16139449  0.73340013  1
  H+  H284  1  0.61678759  0.11141648  0.33101716  1
  H+  H285  1  0.79495753  0.63609728  1.02375414  1
  H+  H286  1  0.10441211  0.11841518  0.99412835  1
  H+  H287  1  0.17042041  1.02087758  0.48908291  1
  H+  H288  1  0.41244325  0.58060580  0.55846802  1
  H+  H289  1  0.91114863  0.83156244  0.93764051  1
  H+  H290  1  0.63259987  0.77450262  0.83626536  1
  H+  H291  1  0.92677372  0.59780535  0.94014994  1
  H+  H292  1  0.66578030  0.58003552  0.26798459  1
  H+  H293  1  0.88654308  0.53950556  0.84462899  1
  H+  H294  1  0.66496705  0.82689863  0.56729874  1
  H+  H295  1  0.56254592  0.67206422  0.10886832  1
  H+  H296  1  0.63358784  0.10724409  0.50883487  1
  H+  H297  1  0.21243603  0.86601401  0.21565601  1
  H+  H298  1  0.57360281  0.89978198  0.08853360  1
  H+  H299  1  0.16208277  0.32697119  0.56990749  1
  H+  H300  1  0.33570626  0.41557240  0.73040873  1
  H+  H301  1  0.34474530  0.41665400  0.39666807  1
  H+  H302  1  0.73666256  1.01761464  0.41284616  1
  H+  H303  1  0.39027529  0.81850195  0.19909819  1
  H+  H304  1  0.16827398  0.08842510  0.23244161  1
  H+  H305  1  0.84762701  0.92940470  0.10257709  1
  H+  H306  1  0.64548263  0.27607603  0.17621845  1
  H+  H307  1  0.65165492  0.59280535  0.88003387  1
  H+  H308  1  0.90322243  0.82673941  0.59200752  1
  H+  H309  1  0.96494839  0.90285144  0.86409942  1
  H+  H310  1  0.77385938  0.63371785  0.33813729  1
  H+  H311  1  0.60838445  0.63182763  0.49221417  1
  H+  H312  1  0.90889234  0.58275587  0.57530308  1
  H+  H313  1  0.16013334  0.61285200  0.58763649  1
  H+  H314  1  0.41776222  0.06970560  0.94434831  1
  H+  H315  1  0.59139697  0.90987016  0.73169855  1
  H+  H316  1  0.22072274  0.09841618  0.98682812  1
  H+  H317  1  0.96729665  0.40385219  0.59451000  1
  H+  H318  1  0.10036813  0.69460341  0.38832195  1
  H+  H319  1  0.07620465  0.68297636  0.72668064  1
  H+  H320  1  0.41033861  0.08934615  0.55712007  1
  H+  H321  1  0.27543862  0.39206200  0.15901489  1
  H+  H322  1  0.52113385  0.13079075  0.01237208  1
  H+  H323  1  0.65514655  0.48746463  0.67803297  1
  H+  H324  1  0.10576140  0.53979991  0.95103101  1
  H+  H325  1  0.58360879  0.16763552  0.40165977  1
  H+  H326  1  0.18876419  0.84937492  0.56167160  1
  H+  H327  1  0.67107673  0.33544208  0.91167928  1
  H+  H328  1  0.67391858  0.09697618  0.23860246  1
  H+  H329  1  0.40853905  0.58097462  0.24078673  1
  H+  H330  1  0.84335581  0.67916534  0.11430474  1
  H+  H331  1  0.33372591  0.91551410  0.72786253  1
  H+  H332  1  0.81578266  0.89859944  0.39821581  1
  H+  H333  1  0.71122359  0.53323365  0.95668500  1
  H+  H334  1  0.82453533  0.42268536  0.06711013  1
  H+  H335  1  0.71697413  0.60048888  0.50418418  1
  H+  H336  1  0.65012848  0.08357298  0.92248528  1
  H+  H337  1  0.83568182  0.68346197  0.72871359  1
  H+  H338  1  0.57917226  0.41175914  0.43049438  1
  H+  H339  1  0.66046186  0.32581971  0.55975134  1
  H+  H340  1  0.54577744  0.21774580  0.79010683  1
  H+  H341  1  0.93705807  0.11169340  0.25894399  1
  H+  H342  1  0.01545298  0.64426484  0.82423888  1
  H+  H343  1  0.83376124  0.43733834  0.77514755  1
  H+  H344  1  0.16762392  0.07618544  0.88735461  1
  H+  H345  1  0.41096343  0.31044328  0.60794472  1
  H+  H346  1  0.18582684  0.10116369  0.56293852  1
  H+  H347  1  0.66862861  0.33181197  0.27041964  1
  H+  H348  1  0.32289536  0.13663634  0.72454239  1
  H+  H349  1  0.82051624  0.14968593  0.77233134  1
  H+  H350  1  0.82870158  0.90418779  0.73368197  1
  H+  H351  1  0.91452516  0.58294598  0.27106104  1
  H+  H352  1  0.58465337  0.66587374  0.39699247  1
  H+  H353  1  0.10665271  0.93972948  0.39841296  1
  H+  H354  1  0.52572178  0.38705971  0.33716043  1
  H+  H355  1  0.91439450  0.29362537  0.51147734  1
  H+  H356  1  0.56927960  0.15082485  0.72371029  1
  H+  H357  1  0.66823683  0.83737898  0.93267087  1
  H+  H358  1  0.96712789  0.09761931  0.50837536  1
  H+  H359  1  0.66025329  0.57391761  0.56476571  1
  H+  H360  1  0.30797890  0.63718186  0.09795489  1
  H+  H361  1  0.91663377  0.34416906  0.23210815  1
  H+  H362  1  0.57435681  0.40008960  0.11220428  1
  H+  H363  1  0.39903811  0.46428082  0.08177480  1
  H+  H364  1  0.36676867  0.22905207  0.33642391  1
  H+  H365  1  0.62718453  0.42834046  0.73810351  1
  H+  H366  1  0.90972432  0.06848436  0.60554004  1
  H+  H367  1  0.63690820  0.85701489  0.66059121  1
  H+  H368  1  0.82636421  0.65134617  0.43019440  1
  H+  H369  1  0.53787481  0.15790987  0.16061719  1
  H+  H370  1  0.21958078  0.72298339  0.12453443  1
  H+  H371  1  0.39965236  0.19762238  0.50337814  1
  H+  H372  1  0.15991675  0.22244259  0.11609739  1
  H+  H373  1  0.41108099  0.32850436  0.90556144  1
  H+  H374  1  0.13518023  0.27882161  0.18413864  1
  H+  H375  1  0.15772683  0.33267851  0.89845142  1
  H+  H376  1  0.60730489  0.92985921  0.44540772  1
  H+  H377  1  0.09307241  0.43127074  0.44233271  1
  H+  H378  1  0.52198969  0.13938379  0.48988912  1
  H+  H379  1  0.07553289  0.14477876  0.05490435  1
  H+  H380  1  0.23713941  0.37292958  0.33122535  1
  H+  H381  1  0.08584967  0.42164412  0.06831398  1
  H+  H382  1  0.32205550  0.66123614  0.71591382  1
  H+  H383  1  0.83453720  0.41966451  0.40173248  1
  O2-  O384  1  0.11016048  0.17771298  0.13758798  1
  O2-  O385  1  0.05239236  0.18591139  0.46718569  1
  O2-  O386  1  0.07992237  0.17110432  0.81343842  1
  O2-  O387  1  0.07402059  0.41309083  0.14668287  1
  O2-  O388  1  0.09465834  0.44475522  0.48609904  1
  O2-  O389  1  0.09263879  0.43143517  0.81218905  1
  O2-  O390  1  0.15962320  0.70572212  0.13246072  1
  O2-  O391  1  0.10527294  0.70977464  0.46649376  1
  O2-  O392  1  0.07458639  0.67884183  0.80617628  1
  O2-  O393  1  0.08943044  0.92370867  0.14691135  1
  O2-  O394  1  0.14121688  0.95754965  0.47605085  1
  O2-  O395  1  0.05496307  0.82917082  0.82220822  1
  O2-  O396  1  0.33593781  0.17617360  0.13673441  1
  O2-  O397  1  0.37304382  0.23255356  0.49073017  1
  O2-  O398  1  0.33470910  0.13698901  0.80884917  1
  O2-  O399  1  0.33762641  0.42175163  0.14975407  1
  O2-  O400  1  0.35789386  0.42022690  0.46774472  1
  O2-  O401  1  0.32994602  0.42970644  0.81493563  1
  O2-  O402  1  0.29850982  0.62474039  0.14207218  1
  O2-  O403  1  0.33598067  0.66782648  0.46900896  1
  O2-  O404  1  0.33743822  0.67882554  0.79862122  1
  O2-  O405  1  0.35006701  0.92909294  0.09898132  1
  O2-  O406  1  0.39512020  0.91976002  0.39735107  1
  O2-  O407  1  0.34609886  0.91860408  0.81112216  1
  O2-  O408  1  0.60321905  0.17525813  0.15069661  1
  O2-  O409  1  0.58277439  0.16385572  0.47649029  1
  O2-  O410  1  0.56457387  0.17945958  0.80665299  1
  O2-  O411  1  0.57974907  0.41122931  0.15667770  1
  O2-  O412  1  0.57728137  0.40819759  0.47634694  1
  O2-  O413  1  0.58957001  0.41713028  0.81640116  1
  O2-  O414  1  0.57068608  0.65690444  0.15125106  1
  O2-  O415  1  0.58260245  0.66556719  0.47570554  1
  O2-  O416  1  0.57637933  0.67307708  0.80038162  1
  O2-  O417  1  0.56140368  0.86225254  0.12438477  1
  O2-  O418  1  0.57868301  0.91158288  0.48586119  1
  O2-  O419  1  0.58805455  0.91834227  0.81618864  1
  O2-  O420  1  0.83313615  0.17622060  0.16221193  1
  O2-  O421  1  0.90609834  0.20462748  0.47135894  1
  O2-  O422  1  0.82491151  0.16033459  0.81834776  1
  O2-  O423  1  0.83148084  0.42471082  0.14579311  1
  O2-  O424  1  0.82798407  0.41028442  0.48037577  1
  O2-  O425  1  0.84097590  0.43489774  0.82019189  1
  O2-  O426  1  0.83718097  0.67909282  0.15951375  1
  O2-  O427  1  0.82371742  0.65114846  0.47614248  1
  O2-  O428  1  0.84104863  0.68864616  0.81085265  1
  O2-  O429  1  0.85728143  0.93957737  0.14806377  1
  O2-  O430  1  0.81593645  0.90446526  0.46981966  1
  O2-  O431  1  0.83094923  0.90974989  0.81264010  1
  O2-  O432  1  0.16939395  0.08835527  0.18609279  1
  O2-  O433  1  0.19858534  0.11051270  0.51868169  1
  O2-  O434  1  0.17911271  0.09643708  0.84439670  1
  O2-  O435  1  0.16401624  0.34023009  0.19471912  1
  O2-  O436  1  0.15327379  0.32713569  0.52515411  1
  O2-  O437  1  0.16593552  0.34034966  0.85240536  1
  O2-  O438  1  0.15297642  0.57051611  0.19350634  1
  O2-  O439  1  0.17225951  0.61304986  0.51236646  1
  O2-  O440  1  0.17746631  0.61113006  0.84612317  1
  O2-  O441  1  0.19904256  0.86535109  0.17172617  1
  O2-  O442  1  0.20295816  0.85034707  0.51664671  1
  O2-  O443  1  0.20195870  0.82995731  0.87987054  1
  O2-  O444  1  0.45467457  0.14924016  0.16597109  1
  O2-  O445  1  0.41734570  0.10857970  0.51311571  1
  O2-  O446  1  0.42371581  0.07008314  0.86273031  1
  O2-  O447  1  0.41410871  0.33293755  0.18835039  1
  O2-  O448  1  0.42019279  0.31441794  0.52367192  1
  O2-  O449  1  0.41658378  0.34167579  0.86057861  1
  O2-  O450  1  0.40611705  0.57714706  0.19491597  1
  O2-  O451  1  0.41826062  0.58429000  0.51315682  1
  O2-  O452  1  0.41725091  0.59674214  0.84943397  1
  O2-  O453  1  0.41483589  0.83334525  0.15691491  1
  O2-  O454  1  0.40579795  0.83391044  0.49374653  1
  O2-  O455  1  0.42147428  0.83319842  0.85462591  1
  O2-  O456  1  0.68431622  0.10350317  0.19390960  1
  O2-  O457  1  0.66416296  0.07850025  0.52509505  1
  O2-  O458  1  0.66627798  0.09088351  0.85185243  1
  O2-  O459  1  0.67163604  0.33553835  0.19414042  1
  O2-  O460  1  0.66285778  0.32923006  0.51451551  1
  O2-  O461  1  0.67336984  0.34157466  0.86535696  1
  O2-  O462  1  0.66453689  0.58046565  0.18796694  1
  O2-  O463  1  0.65669145  0.57249526  0.51921377  1
  O2-  O464  1  0.66129385  0.58750905  0.83711389  1
  O2-  O465  1  0.67755409  0.83751041  0.17089969  1
  O2-  O466  1  0.66259848  0.82801085  0.52138542  1
  O2-  O467  1  0.66544936  0.83238345  0.85547196  1
  O2-  O468  1  0.93512064  0.10791435  0.17773888  1
  O2-  O469  1  0.90781309  0.06639163  0.52534049  1
  O2-  O470  1  0.91277910  0.07792634  0.85478114  1
  O2-  O471  1  0.91342670  0.33906547  0.18690630  1
  O2-  O472  1  0.93003583  0.35226462  0.52583685  1
  O2-  O473  1  0.91982288  0.33589689  0.83931661  1
  O2-  O474  1  0.91183061  0.58304976  0.20038874  1
  O2-  O475  1  0.90767243  0.57315204  0.52905201  1
  O2-  O476  1  0.91850324  0.60056885  0.85885114  1
  O2-  O477  1  0.92667078  0.84309232  0.19804209  1
  O2-  O478  1  0.89370810  0.81483344  0.50613215  1
  O2-  O479  1  0.92022126  0.84298351  0.86859905  1
  O2-  O480  1  0.16940654  0.09088192  0.30521739  1
  O2-  O481  1  0.15510056  0.06907550  0.64178669  1
  O2-  O482  1  0.16190811  0.06955930  0.96883972  1
  O2-  O483  1  0.17511061  0.34306459  0.31661573  1
  O2-  O484  1  0.17673353  0.32434432  0.64772764  1
  O2-  O485  1  0.14378576  0.31876078  0.96924111  1
  O2-  O486  1  0.15408066  0.57605806  0.31243678  1
  O2-  O487  1  0.14854733  0.60324333  0.63260413  1
  O2-  O488  1  0.15645079  0.59184601  0.96504431  1
  O2-  O489  1  0.22306288  0.83683310  0.29443804  1
  O2-  O490  1  0.16762562  0.85198771  0.63203737  1
  O2-  O491  1  0.17227845  0.83815372  0.99488088  1
  O2-  O492  1  0.40267554  0.07478293  0.33240002  1
  O2-  O493  1  0.40762603  0.07196176  0.63090673  1
  O2-  O494  1  0.41753951  0.07597508  0.98924372  1
  O2-  O495  1  0.42613326  0.33865523  0.31133040  1
  O2-  O496  1  0.40755977  0.30796180  0.65272965  1
  O2-  O497  1  0.40192933  0.30812183  0.98093430  1
  O2-  O498  1  0.41384587  0.58272171  0.31500690  1
  O2-  O499  1  0.40764852  0.57297156  0.63686754  1
  O2-  O500  1  0.42451190  0.60764538  0.97456552  1
  O2-  O501  1  0.34845940  0.79496754  0.26790221  1
  O2-  O502  1  0.37423889  0.81530934  0.61237328  1
  O2-  O503  1  0.40572717  0.82960560  0.98091921  1
  O2-  O504  1  0.63775066  0.07132429  0.31341620  1
  O2-  O505  1  0.65945493  0.06685113  0.64386451  1
  O2-  O506  1  0.64039019  0.07501235  0.96818986  1
  O2-  O507  1  0.66690686  0.33167660  0.31624989  1
  O2-  O508  1  0.66560876  0.31452834  0.63830095  1
  O2-  O509  1  0.66396779  0.32141781  0.98330729  1
  O2-  O510  1  0.66812660  0.58167582  0.31339535  1
  O2-  O511  1  0.66662856  0.57773879  0.64379084  1
  O2-  O512  1  0.68913974  0.54366774  0.99437664  1
  O2-  O513  1  0.68041419  0.81821008  0.30072854  1
  O2-  O514  1  0.66774539  0.82678289  0.64280370  1
  O2-  O515  1  0.66668421  0.84581075  0.97769002  1
  O2-  O516  1  0.93890191  0.11149809  0.30396370  1
  O2-  O517  1  0.91301292  0.07069574  0.65076568  1
  O2-  O518  1  0.89969357  0.06457675  0.98039559  1
  O2-  O519  1  0.91539571  0.34189234  0.31092864  1
  O2-  O520  1  0.99427230  0.44125655  0.63079663  1
  O2-  O521  1  0.94575693  0.30659208  0.96010112  1
  O2-  O522  1  0.91686816  0.58562471  0.31784664  1
  O2-  O523  1  0.91329871  0.59773286  0.64539996  1
  O2-  O524  1  0.92841155  0.59149655  0.98502308  1
  O2-  O525  1  0.91575497  0.83314684  0.32102392  1
  O2-  O526  1  0.90920869  0.82754878  0.63649053  1
  O2-  O527  1  0.90837867  0.82775347  0.98537473  1
  O2-  O528  1  0.07129822  0.14541803  0.01029123  1
  O2-  O529  1  0.09560610  0.18038369  0.35035866  1
  O2-  O530  1  0.07976622  0.15951160  0.68813396  1
  O2-  O531  1  0.09339990  0.42530851  0.02322245  1
  O2-  O532  1  0.06519466  0.37540820  0.36923729  1
  O2-  O533  1  0.12620491  0.42858206  0.69102787  1
  O2-  O534  1  0.10000625  0.67338390  0.02250037  1
  O2-  O535  1  0.09106970  0.68288623  0.34376971  1
  O2-  O536  1  0.07333980  0.68562843  0.68146104  1
  O2-  O537  1  0.07807939  0.91330941  0.02324326  1
  O2-  O538  1  0.09502570  0.93531694  0.35409101  1
  O2-  O539  1  0.13321420  0.98108045  0.75966107  1
  O2-  O540  1  0.32622524  0.15293793  0.01865509  1
  O2-  O541  1  0.33441653  0.16933580  0.35182400  1
  O2-  O542  1  0.32333360  0.14379574  0.68002923  1
  O2-  O543  1  0.44197090  0.49592015  0.04929300  1
  O2-  O544  1  0.33736933  0.41612965  0.35068716  1
  O2-  O545  1  0.33867948  0.40991565  0.68584469  1
  O2-  O546  1  0.31522371  0.66066916  0.01733768  1
  O2-  O547  1  0.32511126  0.65846544  0.34716583  1
  O2-  O548  1  0.31622481  0.65055899  0.67137830  1
  O2-  O549  1  0.33429675  0.91662980  0.03228659  1
  O2-  O550  1  0.32662187  0.94207603  0.39396072  1
  O2-  O551  1  0.32584888  0.91202049  0.68316289  1
  O2-  O552  1  0.58422042  0.15841012  0.02210842  1
  O2-  O553  1  0.58147965  0.16645174  0.35575410  1
  O2-  O554  1  0.57008252  0.14929662  0.67891439  1
  O2-  O555  1  0.56393684  0.38173248  0.03324614  1
  O2-  O556  1  0.58600023  0.41770006  0.35438977  1
  O2-  O557  1  0.65805742  0.43929794  0.69897632  1
  O2-  O558  1  0.54668145  0.72858994  0.04977904  1
  O2-  O559  1  0.58316715  0.66371288  0.35137719  1
  O2-  O560  1  0.57443611  0.65538733  0.67652649  1
  O2-  O561  1  0.57396780  0.92254237  0.00640919  1
  O2-  O562  1  0.68549917  0.97995429  0.38941915  1
  O2-  O563  1  0.59069467  0.90412179  0.68706449  1
  O2-  O564  1  0.81301426  0.18211278  0.02461339  1
  O2-  O565  1  0.84119147  0.18235970  0.35529052  1
  O2-  O566  1  0.81005874  0.12712134  0.70323878  1
  O2-  O567  1  0.81695895  0.42028826  0.02207042  1
  O2-  O568  1  0.83641466  0.42105569  0.35626968  1
  O2-  O569  1  0.81409289  0.44579129  0.69953971  1
  O2-  O570  1  0.85383401  0.67708262  0.03661098  1
  O2-  O571  1  0.83356584  0.66482788  0.35517705  1
  O2-  O572  1  0.82995655  0.67568527  0.68380045  1
  O2-  O573  1  0.82666193  0.91114257  0.02831439  1
  O2-  O574  1  0.82143372  0.89599959  0.35186675  1
  O2-  O575  1  0.82940484  0.90606059  0.68821608  1
