# generated using pymatgen
data_H2O
_symmetry_space_group_name_H-M   'P 1'
_cell_length_a   17.97800859
_cell_length_b   17.98292624
_cell_length_c   21.99764136
_cell_angle_alpha   89.95983840
_cell_angle_beta   90.01311009
_cell_angle_gamma   119.98006753
_symmetry_Int_Tables_number   1
_chemical_formula_structural   H2O
_chemical_formula_sum   'H384 O192'
_cell_volume   6160.21370448
_cell_formula_units_Z   192
loop_
 _symmetry_equiv_pos_site_id
 _symmetry_equiv_pos_as_xyz
  1  'x, y, z'
loop_
 _atom_type_symbol
 _atom_type_oxidation_number
  H+  1.0
  O2-  -2.0
loop_
 _atom_site_type_symbol
 _atom_site_label
 _atom_site_symmetry_multiplicity
 _atom_site_fract_x
 _atom_site_fract_y
 _atom_site_fract_z
 _atom_site_occupancy
  H+  H0  1  0.89271413  0.69213054  0.67761792  1
  H+  H1  1  0.36806367  0.84615961  0.50705211  1
  H+  H2  1  0.01165589  0.14058182  0.64928136  1
  H+  H3  1  0.38831644  0.51305125  0.64754571  1
  H+  H4  1  0.67990841  0.41909058  1.00307191  1
  H+  H5  1  0.77619277  0.88467254  0.16428139  1
  H+  H6  1  0.97971183  0.09922390  0.83328612  1
  H+  H7  1  0.44647232  0.30224468  0.20186322  1
  H+  H8  1  0.86714169  0.10618602  0.62625453  1
  H+  H9  1  0.01258156  0.87910849  0.67186321  1
  H+  H10  1  0.88228507  0.26353535  0.32664403  1
  H+  H11  1  0.82952782  0.16222054  0.39692072  1
  H+  H12  1  0.39538534  0.91834612  0.81908937  1
  H+  H13  1  0.39532660  0.13352179  0.49069760  1
  H+  H14  1  0.89196306  0.02481909  0.32706125  1
  H+  H15  1  0.13020174  0.24016035  0.82295437  1
  H+  H16  1  0.87553403  0.88284046  0.65378610  1
  H+  H17  1  0.11607153  0.07373819  0.17653557  1
  H+  H18  1  0.60095331  0.71360899  0.00780368  1
  H+  H19  1  0.35744697  -0.00413915  0.19835266  1
  H+  H20  1  0.63686020  0.84023603  0.32629848  1
  H+  H21  1  0.47762260  0.09934481  0.33584076  1
  H+  H22  1  0.21404593  0.12459077  0.66563573  1
  H+  H23  1  0.37263548  0.36216977  0.50703070  1
  H+  H24  1  0.50173979  0.84725496  0.50943305  1
  H+  H25  1  0.60958038  0.72150815  0.83897011  1
  H+  H26  1  0.10499972  0.37939906  0.50840667  1
  H+  H27  1  0.85065417  0.23332044  0.64404776  1
  H+  H28  1  0.86763225  0.14474420  0.14860520  1
  H+  H29  1  0.27953096  0.65861977  0.85833122  1
  H+  H30  1  0.72001998  0.36479860  0.84612129  1
  H+  H31  1  0.40004878  0.31763376  0.35397404  1
  H+  H32  1  0.65377625  0.27529657  0.14432860  1
  H+  H33  1  0.35118559  -0.03143476  0.35827017  1
  H+  H34  1  0.10543899  0.72482616  0.35308821  1
  H+  H35  1  0.12493416  0.84838335  0.66189514  1
  H+  H36  1  0.93459427  0.32053533  0.85093974  1
  H+  H37  1  0.25039283  0.13133006  0.00541162  1
  H+  H38  1  0.54760584  0.95464026  0.02373190  1
  H+  H39  1  0.41926275  0.88524314  0.17110677  1
  H+  H40  1  0.38212859  0.78943313  0.82361339  1
  H+  H41  1  1.11634111  0.72520469  0.67471328  1
  H+  H42  1  0.86392334  0.78753047  0.66015890  1
  H+  H43  1  0.73834626  0.11488780  0.82048953  1
  H+  H44  1  0.89294551  0.86955994  0.16481555  1
  H+  H45  1  0.73854873  0.36526346  0.50317054  1
  H+  H46  1  0.95011721  0.10042282  0.48005812  1
  H+  H47  1  0.67449641  0.03868518  0.66601973  1
  H+  H48  1  0.35914991  0.12025783  1.00155546  1
  H+  H49  1  0.04034806  0.29443810  0.82151885  1
  H+  H50  1  0.93658101  0.60059450  0.83287693  1
  H+  H51  1  0.14188869  0.61169165  0.66225150  1
  H+  H52  1  0.64358493  0.75911856  0.48873421  1
  H+  H53  1  0.62038594  0.96441986  0.49260270  1
  H+  H54  1  0.85724193  -0.02427851  0.48536096  1
  H+  H55  1  0.04751241  0.47304475  0.85973353  1
  H+  H56  1  0.35136442  0.22850669  0.68171146  1
  H+  H57  1  0.87252671  0.86503717  0.81422045  1
  H+  H58  1  0.61502886  0.50554132  0.00279661  1
  H+  H59  1  0.22659224  0.84697195  0.51403339  1
  H+  H60  1  0.53133862  0.62345103  0.47736469  1
  H+  H61  1  0.51260012  0.38134913  0.82550904  1
  H+  H62  1  0.38297100  0.28014341  0.50322922  1
  H+  H63  1  0.23221661  0.11364206  0.32138513  1
  H+  H64  1  0.89287608  1.03422633  -0.00343286  1
  H+  H65  1  0.86601611  0.32729883  0.65854644  1
  H+  H66  1  0.97457550  0.62361143  0.33452941  1
  H+  H67  1  0.36992872  0.12400095  0.33654656  1
  H+  H68  1  0.53523837  0.92266244  0.68299366  1
  H+  H69  1  0.63854755  0.76721459  0.17157693  1
  H+  H70  1  0.87803988  0.20282868  0.78632405  1
  H+  H71  1  0.36124105  0.70772102  1.04931336  1
  H+  H72  1  0.01328551  0.86131595  0.15733684  1
  H+  H73  1  0.58954369  0.07910643  -0.00260490  1
  H+  H74  1  0.22683470  0.35988345  0.65831125  1
  H+  H75  1  0.88240464  0.85728353  0.32220273  1
  H+  H76  1  0.93520483  0.08395891  0.89954801  1
  H+  H77  1  0.46981542  0.82237015  1.00838025  1
  H+  H78  1  0.11456754  0.88780848  0.82334908  1
  H+  H79  1  0.13536735  0.60469122  0.50769653  1
  H+  H80  1  0.61551774  0.51253584  0.34431050  1
  H+  H81  1  0.37996077  0.39195084  0.15999908  1
  H+  H82  1  0.85252411  0.64657024  0.17090881  1
  H+  H83  1  0.47933094  0.60361120  1.00146798  1
  H+  H84  1  0.86211265  0.50866921  0.84829618  1
  H+  H85  1  0.49734968  0.86757656  0.16670510  1
  H+  H86  1  0.86794805  0.47397053  0.50227503  1
  H+  H87  1  0.37675352  0.21997855  0.84170879  1
  H+  H88  1  0.89200501  0.40217350  0.34691133  1
  H+  H89  1  0.22662082  0.10903704  0.83959075  1
  H+  H90  1  0.10645368  0.19205688  0.17636673  1
  H+  H91  1  0.61313732  0.84478243  0.99588798  1
  H+  H92  1  0.32739109  0.17106127  0.74162018  1
  H+  H93  1  0.21776010  0.63132758  0.17098143  1
  H+  H94  1  0.67508893  0.57752871  0.56408668  1
  H+  H95  1  0.57302770  0.41071923  0.18345694  1
  H+  H96  1  0.72169274  0.85845483  0.64098989  1
  H+  H97  1  0.01814488  0.90411393  -0.03353474  1
  H+  H98  1  0.62573603  0.12187910  0.80286344  1
  H+  H99  1  0.48996257  0.40225441  0.34492939  1
  H+  H100  1  0.89743930  0.77993279  0.50829816  1
  H+  H101  1  0.52981081  0.90443885  0.83397430  1
  H+  H102  1  0.87860759  0.77409342  0.16738610  1
  H+  H103  1  0.85594426  0.62819043  1.01570790  1
  H+  H104  1  0.64291151  0.48979294  0.49446055  1
  H+  H105  1  0.10409172  0.47259668  0.50565757  1
  H+  H106  1  0.26572979  0.39990434  0.33024608  1
  H+  H107  1  0.38573160  0.03999354  0.64578276  1
  H+  H108  1  0.80959961  0.73434184  0.98380753  1
  H+  H109  1  0.68712847  0.09013499  0.88535830  1
  H+  H110  1  0.13144643  0.27508410  0.65477742  1
  H+  H111  1  0.37321306  0.60232537  0.14895036  1
  H+  H112  1  -0.08707820  0.08579644  0.23294418  1
  H+  H113  1  0.10917891  0.63810139  0.34858231  1
  H+  H114  1  0.39505179  0.88366447  0.88424582  1
  H+  H115  1  0.66665973  0.02544448  0.97827489  1
  H+  H116  1  0.39645244  0.04707913  0.48249478  1
  H+  H117  1  0.64770891  0.27605995  0.50114193  1
  H+  H118  1  0.47806762  0.60009862  0.84385077  1
  H+  H119  1  0.85621622  0.21503967  0.48868665  1
  H+  H120  1  0.11102502  0.71702188  0.50064682  1
  H+  H121  1  0.37604494  0.51001571  1.00249848  1
  H+  H122  1  0.59430827  0.08919287  0.15766688  1
  H+  H123  1  0.37968102  0.34865950  0.83319946  1
  H+  H124  1  0.38463541  0.58808553  0.84645225  1
  H+  H125  1  0.41961519  0.72744264  0.81711781  1
  H+  H126  1  0.61624903  0.46608110  0.67001862  1
  H+  H127  1  0.34764135  0.10553817  0.16589665  1
  H+  H128  1  0.30316311  0.85952126  0.24174651  1
  H+  H129  1  0.53294085  0.87671555  0.33360465  1
  H+  H130  1  0.60912726  0.22014233  0.65662073  1
  H+  H131  1  0.07539712  0.64851130  0.83997714  1
  H+  H132  1  0.88842909  0.57735205  0.67805364  1
  H+  H133  1  0.83766340  0.67013975  0.43878967  1
  H+  H134  1  0.17057307  0.26934006  0.88725955  1
  H+  H135  1  0.88467458  0.14935774  -0.00693069  1
  H+  H136  1  0.88733589  0.35917824  0.50797071  1
  H+  H137  1  0.28171384  0.92772977  0.81316647  1
  H+  H138  1  0.87522824  0.23264433  -0.01649833  1
  H+  H139  1  0.91295721  0.84200843  0.75960122  1
  H+  H140  1  -0.01926615  0.11535786  0.32440897  1
  H+  H141  1  0.62730819  -0.02187164  0.83086379  1
  H+  H142  1  0.60637997  0.63523187  0.16380253  1
  H+  H143  1  0.36222097  0.70900155  0.48605065  1
  H+  H144  1  0.88078524  1.02322082  0.17463540  1
  H+  H145  1  0.74742884  0.11983269  -0.01842777  1
  H+  H146  1  0.27992029  0.84901496  -0.04619466  1
  H+  H147  1  0.81967098  0.37824933  0.13652814  1
  H+  H148  1  0.37684774  0.21018317  0.31436002  1
  H+  H149  1  0.65025986  0.73364663  0.67576589  1
  H+  H150  1  0.61432619  0.12940479  0.33859548  1
  H+  H151  1  0.20577963  0.07553632  0.17309423  1
  H+  H152  1  0.86444994  0.13442756  0.33840148  1
  H+  H153  1  0.13456905  0.28049471  0.31496440  1
  H+  H154  1  0.73961465  0.42676283  0.31931319  1
  H+  H155  1  0.67944574  0.07666299  0.56191146  1
  H+  H156  1  0.65420204  0.25350385  1.01585875  1
  H+  H157  1  0.72558029  0.10433068  0.49821838  1
  H+  H158  1  0.86967816  0.89090742  0.48976453  1
  H+  H159  1  0.10230561  0.13964945  0.65448383  1
  H+  H160  1  0.14466087  0.86148654  0.50960626  1
  H+  H161  1  0.83190665  0.62591747  0.82993576  1
  H+  H162  1  0.09159740  0.17822332  0.39254602  1
  H+  H163  1  0.16507163  0.79094540  0.83285850  1
  H+  H164  1  0.40477011  1.08154718  -0.07776428  1
  H+  H165  1  0.35857803  0.47727564  0.48790295  1
  H+  H166  1  0.16783904  0.66277505  0.83714100  1
  H+  H167  1  0.61611883  0.60278944  0.84950821  1
  H+  H168  1  0.74170716  0.61501651  0.50704177  1
  H+  H169  1  0.36291640  0.38105924  0.66758764  1
  H+  H170  1  0.38418472  0.81169532  0.98246158  1
  H+  H171  1  -0.01010295  0.11494917  -0.00017897  1
  H+  H172  1  0.85207709  0.80849378  0.93776626  1
  H+  H173  1  0.73120961  0.11336881  0.16807228  1
  H+  H174  1  0.15883967  0.92148287  0.02043131  1
  H+  H175  1  0.64171955  0.01410314  0.32255831  1
  H+  H176  1  0.13050207  0.77943654  0.99263297  1
  H+  H177  1  0.55676010  0.34655795  0.04784705  1
  H+  H178  1  0.33311710  0.18620640  0.16076670  1
  H+  H179  1  0.71496389  0.85570386  0.85451353  1
  H+  H180  1  0.15109323  0.11845381  0.50520407  1
  H+  H181  1  0.89592181  0.49753610  0.00210001  1
  H+  H182  1  0.35798257  0.94365676  -0.04190459  1
  H+  H183  1  0.80807460  0.15357825  0.73428038  1
  H+  H184  1  0.86192618  0.99903398  0.63420284  1
  H+  H185  1  0.25782698  0.39260792  1.01768529  1
  H+  H186  1  0.12938573  0.65829890  1.02839196  1
  H+  H187  1  0.62151427  0.59757827  0.99946842  1
  H+  H188  1  0.35031547  0.45172916  0.82709756  1
  H+  H189  1  0.74792237  0.89710930  1.01295251  1
  H+  H190  1  0.78040738  0.88740063  0.33767024  1
  H+  H191  1  0.53684170  0.14407564  0.49137409  1
  H+  H192  1  0.72313851  0.43331105  0.17511393  1
  H+  H193  1  0.21820324  0.40220792  0.15496672  1
  H+  H194  1  0.04099433  0.89364162  0.50116968  1
  H+  H195  1  0.05085823  0.14367453  0.53373343  1
  H+  H196  1  0.87115173  0.63939756  0.49739600  1
  H+  H197  1  0.12440080  0.47707492  0.70026279  1
  H+  H198  1  0.13546594  0.33997358  0.96233818  1
  H+  H199  1  0.63116864  0.97317733  0.16243781  1
  H+  H200  1  0.33391026  0.96009268  0.75057165  1
  H+  H201  1  0.88250324  0.61832631  0.33503422  1
  H+  H202  1  0.62510985  0.87643539  0.48844303  1
  H+  H203  1  0.36299897  0.63780130  0.32960487  1
  H+  H204  1  0.63454413  0.35261668  0.65708262  1
  H+  H205  1  0.85187062  0.72583453  0.34190239  1
  H+  H206  1  0.39073235  0.39571017  -0.01481322  1
  H+  H207  1  0.37819146  0.52628625  0.31093117  1
  H+  H208  1  0.99583922  0.63205979  1.00329741  1
  H+  H209  1  0.64460480  0.50713428  0.17667000  1
  H+  H210  1  0.58364592  0.91403243  0.07196760  1
  H+  H211  1  0.15072123  0.35355739  0.26449295  1
  H+  H212  1  0.90438057  0.32148588  0.26720198  1
  H+  H213  1  0.26729129  0.90140608  0.66453932  1
  H+  H214  1  0.89206635  0.49252176  0.34876420  1
  H+  H215  1  0.15285409  0.12989452  0.01227416  1
  H+  H216  1  0.65981693  0.21541666  0.78245208  1
  H+  H217  1  0.42236508  0.34814801  0.89634269  1
  H+  H218  1  0.27509022  0.64073859  0.33681162  1
  H+  H219  1  0.62774051  0.88092659  0.16245741  1
  H+  H220  1  0.45101906  0.06987079  0.17630025  1
  H+  H221  1  0.72342045  0.63274626  0.18734342  1
  H+  H222  1  0.73164228  0.85027262  0.49558951  1
  H+  H223  1  0.47107602  0.60549630  0.64867817  1
  H+  H224  1  0.35592495  0.75106699  0.14274652  1
  H+  H225  1  0.22652619  0.61419280  1.03720094  1
  H+  H226  1  0.64534434  0.75418250  0.32273320  1
  H+  H227  1  0.08518328  0.82271052  0.95868689  1
  H+  H228  1  0.02299635  0.88461497  0.82018503  1
  H+  H229  1  0.16689656  0.34226435  0.57202525  1
  H+  H230  1  0.41023478  0.33019712  0.59830363  1
  H+  H231  1  0.58619423  0.25374826  0.32645632  1
  H+  H232  1  0.13830426  0.53504313  0.33118718  1
  H+  H233  1  0.78957274  0.42567565  0.98968399  1
  H+  H234  1  0.86050687  -0.01916333  0.84070649  1
  H+  H235  1  0.74650131  0.38958044  0.31237066  1
  H+  H236  1  0.62007108  0.62309494  0.48395396  1
  H+  H237  1  0.75832350  0.60677298  0.01275405  1
  H+  H238  1  0.21369658  0.85607374  0.34067788  1
  H+  H239  1  0.45152340  0.06476715  -0.02094698  1
  H+  H240  1  0.22135211  0.59825981  0.50207219  1
  H+  H241  1  0.66986267  0.26492832  0.17315298  1
  H+  H242  1  0.28233236  0.66433576  0.67235772  1
  H+  H243  1  0.83854252  0.16724284  0.08532835  1
  H+  H244  1  0.11323919  0.89148466  0.35003271  1
  H+  H245  1  0.73306927  0.60060625  0.65510185  1
  H+  H246  1  0.89755308  0.37144104  0.95387560  1
  H+  H247  1  0.11228930  0.36368865  0.02499755  1
  H+  H248  1  0.67065630  0.82100197  0.23393699  1
  H+  H249  1  0.15233138  0.02893048  0.50643550  1
  H+  H250  1  0.98507002  0.59798346  0.67149937  1
  H+  H251  1  0.38983817  0.80578389  0.66470519  1
  H+  H252  1  0.85308042  0.12178288  0.48305832  1
  H+  H253  1  0.37332179  0.47696535  0.15371300  1
  H+  H254  1  0.72824697  0.10561660  0.32485278  1
  H+  H255  1  1.02407046  0.39912875  0.33753987  1
  H+  H256  1  0.00297174  0.37371222  0.50914516  1
  H+  H257  1  0.60368731  0.41067922  0.33803191  1
  H+  H258  1  0.28031725  0.14249644  0.48530208  1
  H+  H259  1  0.33006824  0.41451346  0.06965974  1
  H+  H260  1  0.08981320  0.47387773  0.03633326  1
  H+  H261  1  0.86806583  0.54292602  0.18515975  1
  H+  H262  1  0.86171921  0.44803786  0.68120028  1
  H+  H263  1  0.47365657  0.35733295  0.65623459  1
  H+  H264  1  0.22004212  0.37128614  0.50761517  1
  H+  H265  1  0.11147834  0.40070176  0.34354857  1
  H+  H266  1  0.24321405  0.85044254  0.18583717  1
  H+  H267  1  0.65007045  0.60636789  0.66117481  1
  H+  H268  1  0.97904107  0.60871244  0.51361661  1
  H+  H269  1  0.08049975  0.45893968  0.85831831  1
  H+  H270  1  0.36224357  0.91266940  0.66629308  1
  H+  H271  1  0.84492351  0.37652964  0.83981932  1
  H+  H272  1  0.11188891  0.12401230  0.80287638  1
  H+  H273  1  0.16220268  0.03805434  1.01998670  1
  H+  H274  1  0.46726481  0.37860072  0.99389366  1
  H+  H275  1  0.37562158  0.06912827  0.82224774  1
  H+  H276  1  0.61285360  0.24588660  0.00198426  1
  H+  H277  1  0.35905898  0.40809480  0.33772633  1
  H+  H278  1  0.16079137  0.07142781  0.26940063  1
  H+  H279  1  1.00214359  0.86274996  0.94896050  1
  H+  H280  1  0.15185009  0.53450576  0.18891115  1
  H+  H281  1  0.60572158  0.38934172  0.83055004  1
  H+  H282  1  0.11250234  0.23132788  0.02432054  1
  H+  H283  1  0.63679957  0.55962481  0.91320805  1
  H+  H284  1  0.62973975  0.28475963  0.86799104  1
  H+  H285  1  0.60846499  0.50217121  0.84403955  1
  H+  H286  1  0.39748378  0.77488942  0.32338595  1
  H+  H287  1  0.37579984  0.93126912  0.52843217  1
  H+  H288  1  0.59260755  0.90570374  0.39298315  1
  H+  H289  1  0.59244364  0.93334284  0.74066444  1
  H+  H290  1  0.34054482  0.70691831  0.73079629  1
  H+  H291  1  0.77097206  0.98415973  0.04372972  1
  H+  H292  1  0.90320399  0.08219652  0.56308087  1
  H+  H293  1  0.11463735  0.81631505  0.15043694  1
  H+  H294  1  0.07085145  0.38270379  0.19122434  1
  H+  H295  1  0.84392359  0.71876239  0.81747009  1
  H+  H296  1  0.82580770  0.92717625  0.10329694  1
  H+  H297  1  0.07837725  0.65805310  0.44102630  1
  H+  H298  1  0.60587814  0.43468051  0.42788946  1
  H+  H299  1  0.42455057  0.09697015  0.58435222  1
  H+  H300  1  0.16996955  0.59970062  0.27436589  1
  H+  H301  1  0.82833050  0.66487180  0.73590934  1
  H+  H302  1  0.47374340  0.60253616  0.30020234  1
  H+  H303  1  0.10851827  0.71236667  0.07708854  1
  H+  H304  1  0.58110287  0.14906282  0.71191529  1
  H+  H305  1  0.50489927  0.12830454  0.65052618  1
  H+  H306  1  0.10511267  0.93927971  0.17200083  1
  H+  H307  1  0.11776125  0.23407863  0.50854299  1
  H+  H308  1  0.03330160  0.35115959  0.77043048  1
  H+  H309  1  0.33091175  0.41010529  0.72579675  1
  H+  H310  1  0.39497206  0.60764878  0.49254690  1
  H+  H311  1  0.44788398  0.36507520  0.25120827  1
  H+  H312  1  0.07284401  0.15349702  0.74562161  1
  H+  H313  1  0.32644012  0.90269683  0.41377004  1
  H+  H314  1  0.62490009  0.85347462  0.85055747  1
  H+  H315  1  0.92128013  0.84226885  0.56532828  1
  H+  H316  1  0.17726125  0.84792133  0.89094986  1
  H+  H317  1  0.91414915  0.60642189  0.23879851  1
  H+  H318  1  0.67672732  0.07942566  0.23166498  1
  H+  H319  1  0.08345449  0.16117059  0.07805093  1
  H+  H320  1  0.42689071  0.57808764  0.55118821  1
  H+  H321  1  0.90493156  0.31583787  0.56796876  1
  H+  H322  1  0.41439194  0.06596191  0.27769790  1
  H+  H323  1  0.67014863  0.33029964  0.59645509  1
  H+  H324  1  0.88379083  0.28292789  0.12912084  1
  H+  H325  1  0.33041850  0.65445475  0.42518688  1
  H+  H326  1  0.58201071  0.40846283  0.72959379  1
  H+  H327  1  0.19006103  0.60101647  0.97016937  1
  H+  H328  1  0.90389673  0.82182057  0.26247833  1
  H+  H329  1  0.77480978  0.41583740  0.22518597  1
  H+  H330  1  0.81448057  0.66216097  0.10886155  1
  H+  H331  1  0.43500631  0.86504793  0.60759057  1
  H+  H332  1  0.60604669  0.30636300  0.26673271  1
  H+  H333  1  0.07465761  0.90346720  0.73019867  1
  H+  H334  1  0.53878106  0.06893096  0.05929441  1
  H+  H335  1  0.10125721  0.92468638  0.44226370  1
  H+  H336  1  0.12370007  0.98501361  0.35134965  1
  H+  H337  1  0.17236831  0.57726012  0.60676645  1
  H+  H338  1  0.76064018  0.64182210  0.35138529  1
  H+  H339  1  0.12328349  0.14494785  0.33665471  1
  H+  H340  1  0.70455147  0.71275673  0.72258266  1
  H+  H341  1  0.33783258  0.17509393  0.42391494  1
  H+  H342  1  0.41793800  0.56732835  0.93779971  1
  H+  H343  1  0.16163450  0.82336378  0.60312724  1
  H+  H344  1  0.11910073  0.68002913  0.19681245  1
  H+  H345  1  0.59116378  0.16048213  0.40060951  1
  H+  H346  1  0.59789637  0.63548640  0.38468220  1
  H+  H347  1  0.91988301  0.57685776  0.57292635  1
  H+  H348  1  0.81858646  0.40000964  0.77508430  1
  H+  H349  1  0.85293446  0.42334552  0.43973363  1
  H+  H350  1  0.63919604  0.39116762  0.48741618  1
  H+  H351  1  0.00959902  0.11692554  0.16792934  1
  H+  H352  1  0.65304545  0.81903565  0.94114458  1
  H+  H353  1  0.19718217  0.56525416  0.86192802  1
  H+  H354  1  0.31578334  0.85503299  0.08273516  1
  H+  H355  1  0.85233962  0.40481574  0.04469053  1
  H+  H356  1  0.79512484  0.93067734  0.78760710  1
  H+  H357  1  0.43354472  0.83191709  0.26392770  1
  H+  H358  1  0.13680217  1.02454620  0.83365483  1
  H+  H359  1  0.26267265  0.36081525  0.82181920  1
  H+  H360  1  0.82266824  0.95889692  0.69803226  1
  H+  H361  1  0.57456233  0.65551595  0.06832418  1
  H+  H362  1  0.93441911  0.59801038  0.94288843  1
  H+  H363  1  0.61013050  0.42571902  0.09194269  1
  H+  H364  1  0.17440556  0.09657803  0.59952002  1
  H+  H365  1  0.66226537  0.80138096  0.58780410  1
  H+  H366  1  0.45037917  0.77121976  0.55773931  1
  H+  H367  1  0.83866013  0.91778937  0.39721416  1
  H+  H368  1  0.10151322  0.66933714  0.73493711  1
  H+  H369  1  0.33815286  0.14701382  0.06537417  1
  H+  H370  1  0.35520007  0.89483651  0.09379666  1
  H+  H371  1  0.12949186  0.39333364  0.69269295  1
  H+  H372  1  0.15540871  0.81334787  0.28078862  1
  H+  H373  1  0.11752957  0.93105361  0.08313757  1
  H+  H374  1  0.40165106  0.58266971  0.21467864  1
  H+  H375  1  0.62103373  0.13368168  0.49625972  1
  H+  H376  1  0.76611058  0.36801691  0.67787262  1
  H+  H377  1  0.59614625  0.66856706  0.77709686  1
  H+  H378  1  0.01028230  0.39545441  0.06929194  1
  H+  H379  1  0.51715464  0.63570709  0.15486132  1
  H+  H380  1  0.65849978  0.60054096  0.24689986  1
  H+  H381  1  0.69652692  0.39412938  0.93469101  1
  H+  H382  1  0.31581789  0.41948431  0.43008234  1
  H+  H383  1  0.57666389  0.16190629  0.13647576  1
  O2-  O384  1  0.07180979  0.13850644  0.15432121  1
  O2-  O385  1  0.08889109  0.17078482  0.49900934  1
  O2-  O386  1  0.07662299  0.15113238  0.79102610  1
  O2-  O387  1  0.13286804  0.41620318  0.19911409  1
  O2-  O388  1  0.07034448  0.40837009  0.49571205  1
  O2-  O389  1  -0.00117988  0.30668736  0.80197073  1
  O2-  O390  1  0.11022826  0.72929377  0.20434140  1
  O2-  O391  1  0.08087972  0.65582779  0.48697161  1
  O2-  O392  1  0.12931042  0.68212966  0.81810848  1
  O2-  O393  1  0.07680639  0.88447433  0.14861578  1
  O2-  O394  1  0.10246978  0.92245777  0.48886742  1
  O2-  O395  1  0.08443744  0.91857718  0.80956817  1
  O2-  O396  1  0.31270134  0.12850355  0.14524635  1
  O2-  O397  1  0.34123759  0.17614345  0.46880390  1
  O2-  O398  1  0.34512021  0.15873091  0.82724806  1
  O2-  O399  1  0.34538633  0.41483431  0.14193733  1
  O2-  O400  1  0.31745842  0.41645869  0.47510598  1
  O2-  O401  1  0.32385037  0.39504273  0.80737415  1
  O2-  O402  1  0.30061078  0.70592028  0.12405518  1
  O2-  O403  1  0.32833246  0.64957332  0.47109077  1
  O2-  O404  1  0.36513974  0.72675211  0.81514055  1
  O2-  O405  1  0.29310897  0.89192328  0.21058127  1
  O2-  O406  1  0.34327032  0.88377757  0.50049694  1
  O2-  O407  1  0.33969872  0.96696770  0.79608688  1
  O2-  O408  1  0.54935780  0.09922848  0.13760667  1
  O2-  O409  1  0.59806470  0.17015215  0.47901809  1
  O2-  O410  1  0.60690335  0.16015473  0.78282838  1
  O2-  O411  1  0.62947089  0.44654828  0.16356218  1
  O2-  O412  1  0.61375223  0.42918368  0.47420518  1
  O2-  O413  1  0.57532576  0.41797503  0.81287132  1
  O2-  O414  1  0.57845912  0.66428196  0.14175036  1
  O2-  O415  1  0.59185890  0.65063238  0.46184425  1
  O2-  O416  1  0.58159985  0.66100214  0.82162547  1
  O2-  O417  1  0.59926932  0.91314062  0.14602858  1
  O2-  O418  1  0.59032110  0.90414586  0.47673252  1
  O2-  O419  1  0.58738856  0.91453794  0.82280031  1
  O2-  O420  1  0.83547878  0.17112196  0.13045953  1
  O2-  O421  1  0.82320666  0.15728870  0.47021993  1
  O2-  O422  1  0.81628715  0.17255704  0.77815511  1
  O2-  O423  1  0.83366688  0.35038304  0.10240408  1
  O2-  O424  1  0.83941353  0.41450067  0.48529836  1
  O2-  O425  1  0.81605856  0.40629366  0.82062264  1
  O2-  O426  1  0.81728109  0.67221826  0.15351101  1
  O2-  O427  1  0.84072713  0.67054203  0.48469682  1
  O2-  O428  1  0.81063321  0.65736852  0.80554694  1
  O2-  O429  1  0.83533393  0.92222715  0.14731141  1
  O2-  O430  1  0.83207136  0.91172956  0.47291603  1
  O2-  O431  1  0.81609015  0.91900387  0.82514410  1
  O2-  O432  1  0.14857564  0.04681401  0.19322554  1
  O2-  O433  1  0.18618378  0.09190511  0.51647546  1
  O2-  O434  1  0.16455346  0.08653793  0.84391044  1
  O2-  O435  1  0.16395170  0.39783069  0.14143009  1
  O2-  O436  1  0.16061108  0.33919668  0.52570238  1
  O2-  O437  1  0.16169192  0.29354227  0.85013676  1
  O2-  O438  1  0.16549630  0.59427989  0.19546266  1
  O2-  O439  1  0.16342844  0.57117500  0.52143514  1
  O2-  O440  1  0.22113764  0.62385700  0.87723142  1
  O2-  O441  1  0.14451398  0.78082848  0.14837047  1
  O2-  O442  1  0.16582393  0.82259018  0.52571286  1
  O2-  O443  1  0.18307713  0.85054993  0.84602261  1
  O2-  O444  1  0.39815171  0.05954629  0.19821926  1
  O2-  O445  1  0.42586678  0.10119106  0.50458217  1
  O2-  O446  1  0.40067445  0.12422198  0.84631509  1
  O2-  O447  1  0.45825421  0.36099936  0.20687868  1
  O2-  O448  1  0.40609112  0.33656157  0.52341587  1
  O2-  O449  1  0.41683479  0.32841834  0.85312147  1
  O2-  O450  1  0.40680809  0.57994066  0.16909693  1
  O2-  O451  1  0.42842890  0.57970146  0.50540693  1
  O2-  O452  1  0.41895902  0.56406243  0.86218403  1
  O2-  O453  1  0.43502205  0.84137820  0.17881350  1
  O2-  O454  1  0.44294824  0.80974675  0.53025179  1
  O2-  O455  1  0.41754106  0.88528100  0.84253756  1
  O2-  O456  1  0.67309524  0.07597814  0.18574288  1
  O2-  O457  1  0.66651172  0.07232398  0.51750534  1
  O2-  O458  1  0.67982106  0.08027026  0.84081830  1
  O2-  O459  1  0.77567307  0.42902159  0.18193288  1
  O2-  O460  1  0.67566614  0.33711148  0.51577223  1
  O2-  O461  1  0.66294294  0.34744254  0.86714871  1
  O2-  O462  1  0.66144276  0.59791097  0.20068757  1
  O2-  O463  1  0.67863804  0.57844108  0.51861984  1
  O2-  O464  1  0.63521828  0.56175189  0.86623530  1
  O2-  O465  1  0.67235635  0.82670437  0.18824839  1
  O2-  O466  1  0.66937175  0.81648786  0.50862198  1
  O2-  O467  1  0.65281464  0.82002412  0.86570218  1
  O2-  O468  1  0.91323927  0.08541688  0.18716214  1
  O2-  O469  1  0.89385286  0.07090130  0.49922802  1
  O2-  O470  1  0.92392498  0.07190001  0.85552392  1
  O2-  O471  1  0.91011629  0.34700565  0.12402699  1
  O2-  O472  1  0.91637399  0.32645351  0.52155520  1
  O2-  O473  1  0.88634511  0.32119444  0.87443314  1
  O2-  O474  1  0.90571807  0.60433969  0.19375023  1
  O2-  O475  1  0.91770221  0.58037520  0.52812583  1
  O2-  O476  1  0.89105011  0.57012441  0.86261352  1
  O2-  O477  1  0.91886252  0.83542031  0.17994777  1
  O2-  O478  1  0.92801189  0.84152820  0.52073836  1
  O2-  O479  1  0.90414978  0.83406855  0.80357633  1
  O2-  O480  1  0.16976693  0.08760100  0.31344174  1
  O2-  O481  1  0.15889221  0.09821423  0.64234545  1
  O2-  O482  1  0.18359569  0.09860625  0.99814888  1
  O2-  O483  1  0.16324934  0.34314913  0.30622789  1
  O2-  O484  1  0.16653650  0.33768755  0.64381213  1
  O2-  O485  1  0.14584112  0.33807897  1.00574011  1
  O2-  O486  1  0.17149371  0.59805447  0.31964566  1
  O2-  O487  1  0.17659889  0.58451928  0.65151032  1
  O2-  O488  1  0.17281495  0.59486144  1.01315423  1
  O2-  O489  1  0.15328882  0.82339155  0.32437527  1
  O2-  O490  1  0.16383382  0.82536212  0.64863549  1
  O2-  O491  1  0.14244566  0.83225485  0.96835643  1
  O2-  O492  1  0.41550005  0.06980325  0.32294604  1
  O2-  O493  1  0.42786425  0.09856596  0.62947631  1
  O2-  O494  1  0.39527421  0.05426145  0.96293696  1
  O2-  O495  1  0.42854242  0.36809216  0.32788768  1
  O2-  O496  1  0.41249015  0.33013848  0.64429582  1
  O2-  O497  1  0.44149506  0.39932732  0.96434261  1
  O2-  O498  1  0.41359304  0.58385962  0.29005747  1
  O2-  O499  1  0.41810895  0.57006600  0.62654202  1
  O2-  O500  1  0.41649513  0.57112679  0.98368073  1
  O2-  O501  1  0.43491021  0.83466074  0.30869057  1
  O2-  O502  1  0.42359870  0.86843269  0.65086262  1
  O2-  O503  1  0.41106070  0.77824458  0.99590544  1
  O2-  O504  1  0.66824407  0.07490152  0.30792417  1
  O2-  O505  1  0.70864913  0.09148977  0.64023871  1
  O2-  O506  1  0.68668171  0.08495506  0.96615372  1
  O2-  O507  1  0.57917997  0.29947248  0.30634137  1
  O2-  O508  1  0.66512612  0.32244461  0.64157668  1
  O2-  O509  1  0.72469625  0.42966626  0.97195283  1
  O2-  O510  1  0.64985849  0.59497857  0.32153286  1
  O2-  O511  1  0.67216884  0.57108041  0.64170233  1
  O2-  O512  1  0.64558661  0.56200446  0.98265872  1
  O2-  O513  1  0.67117511  0.81481332  0.30958641  1
  O2-  O514  1  0.66614777  0.80542863  0.63301166  1
  O2-  O515  1  0.64871373  0.81855948  0.98691777  1
  O2-  O516  1  0.92005721  0.08527235  0.31044129  1
  O2-  O517  1  0.90807621  0.08689789  0.61172595  1
  O2-  O518  1  0.93302255  0.09144334  0.97918213  1
  O2-  O519  1  0.91315534  0.32473361  0.31096195  1
  O2-  O520  1  0.88876196  0.29656632  0.63497746  1
  O2-  O521  1  0.91587271  0.33179569  0.93768207  1
  O2-  O522  1  0.91547869  0.59304793  0.31661464  1
  O2-  O523  1  0.92442545  0.55967990  0.65644540  1
  O2-  O524  1  0.93588021  0.59529941  0.98786268  1
  O2-  O525  1  0.89827152  0.81514451  0.30715747  1
  O2-  O526  1  0.90461214  0.84739670  0.64898983  1
  O2-  O527  1  0.79622844  0.76690957  0.95403982  1
  O2-  O528  1  0.09137047  0.16923652  0.03296266  1
  O2-  O529  1  0.09197241  0.17633205  0.34804692  1
  O2-  O530  1  0.06927793  0.16936802  0.66885573  1
  O2-  O531  1  0.05452682  0.41084604  0.03784269  1
  O2-  O532  1  0.08329805  0.43424941  0.35282830  1
  O2-  O533  1  0.11189005  0.42393273  0.72167856  1
  O2-  O534  1  0.09924178  0.69228211  0.03425055  1
  O2-  O535  1  0.07524733  0.66310742  0.36657008  1
  O2-  O536  1  0.08818833  0.66432088  0.69109629  1
  O2-  O537  1  0.15448438  0.96309926  0.04715685  1
  O2-  O538  1  0.09607305  0.92859061  0.37185649  1
  O2-  O539  1  0.06467473  0.88123951  0.68802523  1
  O2-  O540  1  0.34116048  0.15876232  0.02112286  1
  O2-  O541  1  0.34312273  0.16225039  0.34170839  1
  O2-  O542  1  0.31273594  0.17063390  0.69862334  1
  O2-  O543  1  0.32119261  0.42079034  0.02475460  1
  O2-  O544  1  0.32461939  0.43574646  0.34790766  1
  O2-  O545  1  0.33252092  0.41290188  0.68073685  1
  O2-  O546  1  0.32555936  0.66025764  0.08025889  1
  O2-  O547  1  0.33683148  0.66784041  0.35068316  1
  O2-  O548  1  0.34089846  0.70846452  0.68609822  1
  O2-  O549  1  0.34232695  0.88239422  -0.04890201  1
  O2-  O550  1  0.30725783  0.91197924  0.37430959  1
  O2-  O551  1  0.32881758  0.94232525  0.67587139  1
  O2-  O552  1  0.53189650  0.04814386  0.01658403  1
  O2-  O553  1  0.58158139  0.15599692  0.35557851  1
  O2-  O554  1  0.57383515  0.15651193  0.66666799  1
  O2-  O555  1  0.59600177  0.40848840  0.04732895  1
  O2-  O556  1  0.58735703  0.44636434  0.36255821  1
  O2-  O557  1  0.58473356  0.40543878  0.68469277  1
  O2-  O558  1  0.57049878  0.65196666  0.02210365  1
  O2-  O559  1  0.59630143  0.63427177  0.33888810  1
  O2-  O560  1  0.64616346  0.68727678  0.70673600  1
  O2-  O561  1  0.57129519  0.91514026  0.02727363  1
  O2-  O562  1  0.59502736  0.90528878  0.34787496  1
  O2-  O563  1  0.59515734  0.94707146  0.69692480  1
  O2-  O564  1  0.84986857  0.17669109  0.00512357  1
  O2-  O565  1  0.83148440  0.16323289  0.35068069  1
  O2-  O566  1  0.79864157  0.12940872  0.66165595  1
  O2-  O567  1  0.85524776  0.43206757  0.00249302  1
  O2-  O568  1  0.88360875  0.44213415  0.37287152  1
  O2-  O569  1  0.82250616  0.39089762  0.69911113  1
  O2-  O570  1  0.81525922  0.64596426  0.03042973  1
  O2-  O571  1  0.82193162  0.66758992  0.36338030  1
  O2-  O572  1  0.83352999  0.67275820  0.68932332  1
  O2-  O573  1  0.79675839  0.94965433  0.03225310  1
  O2-  O574  1  0.84070639  0.92293534  0.35146828  1
  O2-  O575  1  0.82785608  0.93968180  0.65780351  1
