# generated using pymatgen
data_H2O
_symmetry_space_group_name_H-M   'P 1'
_cell_length_a   17.99109044
_cell_length_b   17.99133751
_cell_length_c   22.00642263
_cell_angle_alpha   90.00549156
_cell_angle_beta   89.98106300
_cell_angle_gamma   120.01184996
_symmetry_Int_Tables_number   1
_chemical_formula_structural   H2O
_chemical_formula_sum   'H384 O192'
_cell_volume   6168.06757318
_cell_formula_units_Z   192
loop_
 _symmetry_equiv_pos_site_id
 _symmetry_equiv_pos_as_xyz
  1  'x, y, z'
loop_
 _atom_type_symbol
 _atom_type_oxidation_number
  H+  1.0
  O2-  -2.0
loop_
 _atom_site_type_symbol
 _atom_site_label
 _atom_site_symmetry_multiplicity
 _atom_site_fract_x
 _atom_site_fract_y
 _atom_site_fract_z
 _atom_site_occupancy
  H+  H0  1  0.38703882  0.11495856  0.65582361  1
  H+  H1  1  0.61416039  0.39181133  0.81882616  1
  H+  H2  1  0.14714507  0.07862518  0.94564405  1
  H+  H3  1  0.14805496  0.37974827  0.17704903  1
  H+  H4  1  0.10618476  0.21761167  0.68451547  1
  H+  H5  1  0.39483104  1.02479378  -0.00159561  1
  H+  H6  1  0.30451674  0.14253392  0.81932027  1
  H+  H7  1  0.72600580  0.40029115  0.31186398  1
  H+  H8  1  0.88382780  1.01694783  0.66080661  1
  H+  H9  1  0.12834236  0.85409955  0.68407234  1
  H+  H10  1  0.65122403  0.11945878  0.16956554  1
  H+  H11  1  0.11896964  0.47842901  0.34244717  1
  H+  H12  1  0.76979438  0.88377134  0.66171032  1
  H+  H13  1  0.43743146  0.95443675  0.44094355  1
  H+  H14  1  0.29349405  0.14276229  0.34165794  1
  H+  H15  1  0.72359235  0.36105556  0.65644106  1
  H+  H16  1  1.01983602  0.63609119  0.17394113  1
  H+  H17  1  0.44738639  0.33142490  0.50006402  1
  H+  H18  1  0.83652325  0.89345521  0.35173604  1
  H+  H19  1  0.52505863  0.15020948  0.00222587  1
  H+  H20  1  0.16356333  0.85507883  0.13891776  1
  H+  H21  1  0.13057693  0.48977269  0.00626797  1
  H+  H22  1  0.11877634  0.64064236  0.99225076  1
  H+  H23  1  0.12396071  0.26788654  0.84382132  1
  H+  H24  1  0.82396576  0.91258886  0.72315073  1
  H+  H25  1  0.12726490  0.76200421  0.68392933  1
  H+  H26  1  0.08476950  0.95962130  0.83150444  1
  H+  H27  1  0.87057227  0.56588236  0.84499374  1
  H+  H28  1  0.02847254  0.89780708  0.49326408  1
  H+  H29  1  0.13652972  0.61049127  0.32415133  1
  H+  H30  1  0.42407540  0.63046608  0.83349751  1
  H+  H31  1  0.12992794  0.76562842  0.17328243  1
  H+  H32  1  0.86362238  0.62387520  0.16579263  1
  H+  H33  1  0.97327594  0.10765577  0.66811856  1
  H+  H34  1  0.63932191  0.28069600  0.50534472  1
  H+  H35  1  0.35557487  0.89233978  0.67895338  1
  H+  H36  1  0.23112315  0.61988600  0.17134237  1
  H+  H37  1  0.90803121  0.03971426  0.17624681  1
  H+  H38  1  0.39259443  0.85987173  0.50562808  1
  H+  H39  1  0.35870057  0.62694785  0.33591662  1
  H+  H40  1  0.85190520  0.66551857  0.83311958  1
  H+  H41  1  0.12899276  0.26259794  0.50808492  1
  H+  H42  1  0.72169685  0.59852428  0.99016109  1
  H+  H43  1  0.28094629  0.88271756  0.17006923  1
  H+  H44  1  0.61247080  0.37755693  1.00536493  1
  H+  H45  1  0.58094649  0.39931823  0.06833906  1
  H+  H46  1  0.12691003  0.60034713  0.66583242  1
  H+  H47  1  0.48169081  0.61187065  -0.00761428  1
  H+  H48  1  0.61530097  0.14361802  0.49401487  1
  H+  H49  1  0.88267820  0.34277739  0.82553793  1
  H+  H50  1  0.11763869  0.13311926  0.49042969  1
  H+  H51  1  0.64021773  1.02259420  0.66801018  1
  H+  H52  1  0.99556057  0.38834476  1.00899206  1
  H+  H53  1  0.24055717  0.37416967  -0.01169327  1
  H+  H54  1  0.86475206  0.45169175  0.82356286  1
  H+  H55  1  0.40972286  0.63172849  0.51088603  1
  H+  H56  1  0.12809886  0.24814808  0.17113677  1
  H+  H57  1  0.88592744  0.77664825  0.50365571  1
  H+  H58  1  0.50770221  0.87730252  0.35009235  1
  H+  H59  1  0.62689464  0.17016637  0.34202973  1
  H+  H60  1  0.39034765  0.35951349  0.83596351  1
  H+  H61  1  0.08109129  0.09160228  0.85322387  1
  H+  H62  1  0.14190407  0.87292199  0.47402710  1
  H+  H63  1  -0.03051365  0.06051104  -0.00946525  1
  H+  H64  1  0.78836431  0.16890810  0.01624891  1
  H+  H65  1  0.22044338  0.35008793  0.66269584  1
  H+  H66  1  0.87694694  0.86407689  0.79622996  1
  H+  H67  1  0.86513861  0.75253217  0.17602462  1
  H+  H68  1  0.39158641  0.76532095  0.84967674  1
  H+  H69  1  0.63182706  0.50917263  -0.00263030  1
  H+  H70  1  0.09533956  0.89783954  0.18114383  1
  H+  H71  1  1.01470862  0.62489291  0.82992933  1
  H+  H72  1  0.14009908  0.88339807  0.99853615  1
  H+  H73  1  0.39926234  0.86494842  0.17171186  1
  H+  H74  1  0.53018176  0.63308228  0.67394854  1
  H+  H75  1  0.76775486  0.64073169  0.50188167  1
  H+  H76  1  0.47656157  0.35265307  0.99092340  1
  H+  H77  1  0.61625565  0.37054905  0.15653883  1
  H+  H78  1  0.61064756  0.96352620  -0.00029497  1
  H+  H79  1  0.85707707  0.14441190  -0.00340246  1
  H+  H80  1  0.61865026  0.71865510  0.66808795  1
  H+  H81  1  0.48947688  0.86796983  0.16668976  1
  H+  H82  1  0.88457618  0.77097213  0.65300016  1
  H+  H83  1  0.89171842  0.72154952  0.34876506  1
  H+  H84  1  0.23481280  0.61907791  0.98623139  1
  H+  H85  1  0.58461271  0.42547914  0.71940839  1
  H+  H86  1  0.87311836  0.89332875  0.16150746  1
  H+  H87  1  0.37225697  0.72716748  0.15443795  1
  H+  H88  1  0.22091042  0.35390513  0.33222436  1
  H+  H89  1  0.56221230  0.68846841  0.83925267  1
  H+  H90  1  0.75698672  0.36637580  -0.00636462  1
  H+  H91  1  0.59618380  0.37983899  0.49354893  1
  H+  H92  1  0.77198251  0.12236278  0.49623104  1
  H+  H93  1  0.76814296  0.88670816  0.82753276  1
  H+  H94  1  0.60695992  0.88160862  0.49987578  1
  H+  H95  1  0.63442804  0.36229417  0.65719364  1
  H+  H96  1  0.76180413  0.87272766  0.01057323  1
  H+  H97  1  0.04381855  0.14627631  0.77567796  1
  H+  H98  1  0.02358512  0.12757058  0.49290228  1
  H+  H99  1  0.37481848  0.47848029  0.82609323  1
  H+  H100  1  0.22656269  0.61054861  0.32578470  1
  H+  H101  1  0.37931888  1.02392196  0.66445787  1
  H+  H102  1  0.65547275  0.03508153  0.17096777  1
  H+  H103  1  0.38475785  0.22964057  0.33593212  1
  H+  H104  1  0.98266375  0.61483789  0.98842457  1
  H+  H105  1  0.63012552  0.58949090  0.16173311  1
  H+  H106  1  0.76738681  0.12295029  0.67404899  1
  H+  H107  1  0.88989222  0.62829674  0.51133724  1
  H+  H108  1  0.72219559  0.59493222  0.16440829  1
  H+  H109  1  0.80199288  0.04384837  0.92360860  1
  H+  H110  1  0.61927076  0.52318151  0.32341749  1
  H+  H111  1  0.86001639  0.47508419  0.66289086  1
  H+  H112  1  0.42236628  0.85773250  0.59764983  1
  H+  H113  1  0.08262123  0.92886807  0.11707745  1
  H+  H114  1  0.38931397  0.27751241  0.65524938  1
  H+  H115  1  0.11463973  0.38463237  0.82366294  1
  H+  H116  1  0.12978320  0.40023566  1.00722962  1
  H+  H117  1  0.36731577  0.72491860  0.49047774  1
  H+  H118  1  0.88214174  0.61112093  0.65512914  1
  H+  H119  1  0.86919706  0.63191824  0.98605578  1
  H+  H120  1  0.85571732  0.38739481  0.16358327  1
  H+  H121  1  0.36001538  0.62844286  0.68005192  1
  H+  H122  1  0.48228385  0.36536222  0.83370034  1
  H+  H123  1  0.47301080  0.60925222  0.32616211  1
  H+  H124  1  0.46784627  0.10789571  0.17386436  1
  H+  H125  1  0.36929465  0.72408339  1.00391974  1
  H+  H126  1  0.90138169  0.12548902  0.17784744  1
  H+  H127  1  0.86516659  0.14807369  0.34220244  1
  H+  H128  1  0.60956179  0.45696635  0.15101706  1
  H+  H129  1  0.61152773  0.10496689  0.98483247  1
  H+  H130  1  -0.02839505  0.59729011  0.32759434  1
  H+  H131  1  0.86979931  0.98133755  0.50066182  1
  H+  H132  1  0.76091424  0.38387862  0.16454649  1
  H+  H133  1  1.00407478  0.87283741  0.80663905  1
  H+  H134  1  0.84712935  0.92854817  0.10276312  1
  H+  H135  1  0.51372336  0.38942506  0.33780680  1
  H+  H136  1  0.81269400  0.77793126  0.21850812  1
  H+  H137  1  0.61261711  0.62491463  0.01254455  1
  H+  H138  1  0.38735769  0.52541490  0.65955157  1
  H+  H139  1  0.64240172  0.53693368  0.50443169  1
  H+  H140  1  0.11077311  0.47139395  0.82048981  1
  H+  H141  1  0.63920360  0.62739356  0.85097609  1
  H+  H142  1  0.26791513  0.62383619  0.68279470  1
  H+  H143  1  0.48249485  0.11739612  0.50619816  1
  H+  H144  1  0.64002046  0.60846144  0.65052710  1
  H+  H145  1  0.10716979  0.12977235  0.68554669  1
  H+  H146  1  0.15097771  0.13214502  0.18177626  1
  H+  H147  1  0.50244183  0.63963229  0.51596434  1
  H+  H148  1  0.87276693  0.23967356  0.34484220  1
  H+  H149  1  0.84718321  0.96196083  0.00141358  1
  H+  H150  1  0.39310911  0.86076257  0.99967744  1
  H+  H151  1  0.25604313  0.88536473  0.82462347  1
  H+  H152  1  0.33248031  0.16265436  0.09919197  1
  H+  H153  1  0.50893949  0.61801057  0.16329907  1
  H+  H154  1  0.47953683  0.85274805  0.84698118  1
  H+  H155  1  0.63210438  0.84688521  0.99318200  1
  H+  H156  1  0.13111431  0.34983538  0.66098120  1
  H+  H157  1  0.63848448  0.85922980  0.65524904  1
  H+  H158  1  0.55523485  0.02528947  0.94490903  1
  H+  H159  1  0.62850051  1.01881238  0.51072260  1
  H+  H160  1  0.39436935  0.52360525  0.98544065  1
  H+  H161  1  0.39748452  0.99185409  0.48846629  1
  H+  H162  1  0.89817741  0.28375159  0.17530411  1
  H+  H163  1  0.60508097  0.63641729  0.33243438  1
  H+  H164  1  0.90783993  0.30006526  1.00917370  1
  H+  H165  1  0.11763844  0.98839429  0.49896101  1
  H+  H166  1  0.73670487  0.29169588  0.94879178  1
  H+  H167  1  0.61704280  0.48161728  0.65783014  1
  H+  H168  1  0.25374948  0.87391542  0.68989570  1
  H+  H169  1  0.77086482  0.37198918  0.81533801  1
  H+  H170  1  0.10432988  0.97604272  0.01921340  1
  H+  H171  1  0.86483832  0.77067701  0.79069142  1
  H+  H172  1  0.63308374  0.75760550  0.99897852  1
  H+  H173  1  0.98257436  0.03386097  1.00921992  1
  H+  H174  1  0.62413998  0.23182127  0.00367731  1
  H+  H175  1  0.78809939  0.13117605  0.82162039  1
  H+  H176  1  0.36266051  0.21921711  0.00115380  1
  H+  H177  1  -0.03985024  0.34729791  0.52901936  1
  H+  H178  1  0.27981553  0.38970449  0.15586183  1
  H+  H179  1  0.35417054  0.46651038  0.34025870  1
  H+  H180  1  0.62015011  0.25521972  0.34278360  1
  H+  H181  1  0.10544350  0.46133854  0.50171539  1
  H+  H182  1  0.37080601  0.38586772  -0.00032950  1
  H+  H183  1  0.87994827  0.40446621  0.02064845  1
  H+  H184  1  0.64631764  0.28163180  0.17926919  1
  H+  H185  1  0.26468926  0.37484077  0.48936376  1
  H+  H186  1  0.63196834  0.90784992  0.15808801  1
  H+  H187  1  0.35399798  -0.02592864  0.82794809  1
  H+  H188  1  0.27492691  0.14005648  0.16051282  1
  H+  H189  1  0.89153059  0.52521505  0.00029506  1
  H+  H190  1  0.13902549  0.86468025  0.32915771  1
  H+  H191  1  0.47581843  0.85312731  0.51409783  1
  H+  H192  1  0.88172626  0.03236997  0.33362900  1
  H+  H193  1  0.78938670  0.14627136  0.16305196  1
  H+  H194  1  0.88151931  0.85307515  1.03461288  1
  H+  H195  1  0.38655811  0.76390170  0.32115737  1
  H+  H196  1  0.37771616  0.35675583  0.32382853  1
  H+  H197  1  0.71647603  0.87615363  0.33767293  1
  H+  H198  1  0.36777149  0.63428553  0.00023371  1
  H+  H199  1  0.73351438  0.13990057  0.32961762  1
  H+  H200  1  0.26089061  0.88583719  0.33720205  1
  H+  H201  1  0.76514440  0.63040735  0.65651646  1
  H+  H202  1  0.85822381  0.97763816  0.82094324  1
  H+  H203  1  0.88699420  0.76814409  1.02860530  1
  H+  H204  1  0.67051981  0.58568982  0.58429013  1
  H+  H205  1  0.75673612  0.89723692  0.17493943  1
  H+  H206  1  0.40265021  0.11229441  0.83723531  1
  H+  H207  1  0.46608369  0.95085555  0.62378636  1
  H+  H208  1  0.52894123  0.89416037  0.67375047  1
  H+  H209  1  0.09675426  0.42736561  0.10342746  1
  H+  H210  1  0.88794058  0.10750380  0.50703667  1
  H+  H211  1  0.64175773  0.77082190  0.50312895  1
  H+  H212  1  0.60520914  0.39612832  0.33493670  1
  H+  H213  1  0.62202219  0.96359081  0.82636561  1
  H+  H214  1  0.28214539  0.39230172  0.82849796  1
  H+  H215  1  0.27239131  0.13069345  1.00414027  1
  H+  H216  1  0.38493789  0.12381866  0.33107501  1
  H+  H217  1  0.53046860  0.05553708  0.12253490  1
  H+  H218  1  0.28947744  0.18375279  0.51465478  1
  H+  H219  1  0.60942122  0.47845994  0.82246469  1
  H+  H220  1  0.75087473  0.62904632  0.82644967  1
  H+  H221  1  0.53287099  0.12776418  0.82344762  1
  H+  H222  1  0.17194404  0.10552263  0.84464518  1
  H+  H223  1  0.10471932  0.71863963  0.33403179  1
  H+  H224  1  0.11625767  0.72753940  0.99128673  1
  H+  H225  1  0.22669879  0.86697447  0.47764133  1
  H+  H226  1  0.91952237  0.84945659  0.32907262  1
  H+  H227  1  0.10643882  0.23480468  0.34384838  1
  H+  H228  1  0.36956303  1.01437397  0.32763011  1
  H+  H229  1  0.38643112  0.23545489  0.82202397  1
  H+  H230  1  0.64931728  0.57139722  0.26004362  1
  H+  H231  1  0.88519331  0.36064392  0.64557813  1
  H+  H232  1  0.14215232  1.03895864  0.18215498  1
  H+  H233  1  0.60109096  0.68384903  0.18782979  1
  H+  H234  1  0.15305419  0.28795371  0.99867894  1
  H+  H235  1  0.63523498  0.26933640  0.83116541  1
  H+  H236  1  0.10747824  0.72927024  0.47308039  1
  H+  H237  1  0.77486951  0.35016182  0.36660107  1
  H+  H238  1  0.66824700  0.81229563  0.16780678  1
  H+  H239  1  0.28288013  0.89022696  0.01776857  1
  H+  H240  1  0.01234949  0.62533233  0.66997270  1
  H+  H241  1  0.41302888  0.33433634  0.26320360  1
  H+  H242  1  0.91966304  0.83865435  0.56101019  1
  H+  H243  1  0.14512678  0.12134246  0.00862621  1
  H+  H244  1  1.02100004  0.88604538  0.66932788  1
  H+  H245  1  0.59421939  0.66835132  0.43727629  1
  H+  H246  1  0.47731452  0.36803065  0.65136798  1
  H+  H247  1  0.38289932  0.51792221  0.16641458  1
  H+  H248  1  0.11086648  0.46628262  0.66688484  1
  H+  H249  1  0.05226614  0.16044631  0.02545484  1
  H+  H250  1  0.61408732  0.22670277  0.67056913  1
  H+  H251  1  0.86898765  0.37676190  0.34511905  1
  H+  H252  1  0.08592194  0.41801506  0.40287800  1
  H+  H253  1  0.12611578  0.60959342  0.83470960  1
  H+  H254  1  0.97278651  0.35845027  0.64545613  1
  H+  H255  1  0.30619296  0.59542409  0.82832760  1
  H+  H256  1  0.72652031  0.86501214  0.50553257  1
  H+  H257  1  0.33291009  0.66156741  0.39474098  1
  H+  H258  1  0.98370751  0.37488573  0.17304457  1
  H+  H259  1  0.27966835  0.63946869  0.49006994  1
  H+  H260  1  0.36367357  0.97690008  0.17036763  1
  H+  H261  1  0.59885139  0.88582432  0.35362783  1
  H+  H262  1  0.10747939  0.37448294  0.49876120  1
  H+  H263  1  0.11140224  0.64036603  0.17025966  1
  H+  H264  1  1.01950836  0.88330782  1.03413622  1
  H+  H265  1  0.01910372  0.64134357  0.49004015  1
  H+  H266  1  0.61229521  0.86979174  0.82823015  1
  H+  H267  1  0.64976677  0.10817243  0.82680232  1
  H+  H268  1  0.38480354  0.60921622  0.16774065  1
  H+  H269  1  0.05242734  0.90246275  0.33863435  1
  H+  H270  1  0.21875350  0.62029703  0.83026845  1
  H+  H271  1  0.12030209  0.85567644  0.83422676  1
  H+  H272  1  0.13771462  1.02555302  0.66226968  1
  H+  H273  1  0.58817145  0.16292689  0.76227339  1
  H+  H274  1  0.14098227  0.64161779  0.50942228  1
  H+  H275  1  0.38632276  0.27344170  0.16834199  1
  H+  H276  1  0.36138607  0.38507230  0.66801764  1
  H+  H277  1  0.77459240  0.40414835  0.50039057  1
  H+  H278  1  0.36794957  0.38719852  0.15367104  1
  H+  H279  1  0.86656485  0.62520575  0.35186695  1
  H+  H280  1  0.88573328  0.86023992  0.65539348  1
  H+  H281  1  0.87814825  0.51527654  0.17661061  1
  H+  H282  1  0.47789088  0.35785769  0.16668959  1
  H+  H283  1  0.63193157  0.64089754  0.49737695  1
  H+  H284  1  0.84441211  0.69318816  -0.04928573  1
  H+  H285  1  0.86302067  0.11933304  0.67219287  1
  H+  H286  1  0.12072552  0.48636558  0.16262349  1
  H+  H287  1  0.22315621  0.69533143  0.54891764  1
  H+  H288  1  0.07787677  0.40537520  0.72454969  1
  H+  H289  1  0.86735600  0.88997007  0.49435992  1
  H+  H290  1  0.32363993  0.40406794  0.39949469  1
  H+  H291  1  0.92768775  0.34410507  0.26805035  1
  H+  H292  1  0.42137653  0.83027059  0.93800775  1
  H+  H293  1  0.15792653  0.31748176  0.56959713  1
  H+  H294  1  0.56489701  0.40827911  0.43517831  1
  H+  H295  1  0.90599317  0.57118574  0.23832588  1
  H+  H296  1  0.66915721  0.07919024  0.88890297  1
  H+  H297  1  0.42697150  0.82594320  0.26447420  1
  H+  H298  1  0.34461544  0.17216314  0.72411684  1
  H+  H299  1  0.34210022  0.41836542  0.05848422  1
  H+  H300  1  0.67204257  0.33301025  0.88771874  1
  H+  H301  1  0.10145720  0.93343850  0.40216879  1
  H+  H302  1  0.33254042  0.65234174  0.76479901  1
  H+  H303  1  0.42734751  0.59884290  0.60764378  1
  H+  H304  1  0.58455276  0.90727594  0.73379607  1
  H+  H305  1  0.38599711  0.10902179  0.99210036  1
  H+  H306  1  0.98813319  0.37196225  0.32815180  1
  H+  H307  1  0.16547740  0.04162705  0.33343670  1
  H+  H308  1  0.67907300  0.11040023  0.26911460  1
  H+  H309  1  0.07751657  0.65896407  0.39330659  1
  H+  H310  1  0.41364653  0.57610482  0.26659714  1
  H+  H311  1  0.66468359  0.08199488  0.56734354  1
  H+  H312  1  0.91675517  0.12959825  0.81917895  1
  H+  H313  1  0.60621160  0.72634330  0.33871707  1
  H+  H314  1  0.27453505  0.13907355  0.67020475  1
  H+  H315  1  0.65830612  0.80220765  0.90394008  1
  H+  H316  1  0.67107563  0.85207237  0.27326751  1
  H+  H317  1  0.16736769  0.09062923  0.60535122  1
  H+  H318  1  0.20187188  0.91085471  0.57901102  1
  H+  H319  1  0.91894868  0.58789253  0.59656556  1
  H+  H320  1  0.52573848  0.13603953  0.67099229  1
  H+  H321  1  0.83417095  0.15995856  0.43906689  1
  H+  H322  1  0.83394947  0.41199945  0.72026232  1
  H+  H323  1  0.93188744  0.82231447  0.26444485  1
  H+  H324  1  0.07697421  0.91784922  0.73021608  1
  H+  H325  1  0.03889973  0.15663048  0.17085048  1
  H+  H326  1  0.85227239  0.17587757  0.10557876  1
  H+  H327  1  0.92297605  0.08457842  0.56789420  1
  H+  H328  1  0.91202907  0.85123155  0.91674408  1
  H+  H329  1  0.82640256  0.92984654  0.41489552  1
  H+  H330  1  0.64230843  0.11393936  0.66626686  1
  H+  H331  1  0.66632028  0.83040104  0.59409067  1
  H+  H332  1  0.16662049  0.58602995  0.60638311  1
  H+  H333  1  0.84366222  0.65684499  0.10339770  1
  H+  H334  1  0.32876149  0.92016443  0.39297771  1
  H+  H335  1  0.15945529  0.83523633  0.26591989  1
  H+  H336  1  0.66792006  0.35272163  0.25304451  1
  H+  H337  1  0.42041282  0.32706199  0.92978299  1
  H+  H338  1  0.39764900  0.31773584  0.56116054  1
  H+  H339  1  0.41013015  0.07864570  0.26764123  1
  H+  H340  1  0.87519871  0.22707460  0.81827013  1
  H+  H341  1  0.83253355  0.42535772  0.07556897  1
  H+  H342  1  0.42076673  0.07542535  0.89845921  1
  H+  H343  1  0.58297200  0.65667263  0.07126496  1
  H+  H344  1  0.15468811  0.83147829  0.89348826  1
  H+  H345  1  0.32184346  0.91524076  0.75788797  1
  H+  H346  1  0.56839802  0.90787185  0.44270113  1
  H+  H347  1  0.09985335  0.71873363  0.82521197  1
  H+  H348  1  0.06724194  0.64792729  0.73199173  1
  H+  H349  1  0.17303562  0.58776643  0.23196368  1
  H+  H350  1  0.88275771  0.50796984  0.33305327  1
  H+  H351  1  0.52390058  0.87587985  0.00670567  1
  H+  H352  1  0.84408723  0.42750243  0.44853266  1
  H+  H353  1  0.65467856  0.57620407  0.90404414  1
  H+  H354  1  0.10949647  0.19110750  0.08441972  1
  H+  H355  1  -0.02487386  0.35032858  0.82885467  1
  H+  H356  1  0.34168615  0.91739854  0.07714565  1
  H+  H357  1  0.19329616  0.10235933  0.27568945  1
  H+  H358  1  0.17540494  0.34654173  0.23666968  1
  H+  H359  1  0.38131541  0.11364698  0.17395966  1
  H+  H360  1  0.57205457  0.14653927  0.09326054  1
  H+  H361  1  0.17243441  0.58635179  0.92744793  1
  H+  H362  1  0.92668877  0.81907259  0.91220175  1
  H+  H363  1  0.19781465  0.86716298  0.57969169  1
  H+  H364  1  0.88837553  0.53764513  0.50866875  1
  H+  H365  1  0.81908753  0.65771749  0.71841420  1
  H+  H366  1  0.90020085  0.08787130  0.91281507  1
  H+  H367  1  0.33397426  0.41420789  0.72841314  1
  H+  H368  1  0.33684180  0.66462853  0.09651560  1
  H+  H369  1  0.22029517  0.93003773  0.95632680  1
  H+  H370  1  0.16724329  0.33180820  0.89961101  1
  H+  H371  1  0.83519822  0.15520451  0.73622744  1
  H+  H372  1  1.00962995  0.14000883  0.34426765  1
  H+  H373  1  0.91527680  0.56017482  0.90585085  1
  H+  H374  1  0.34657695  0.36415732  0.48702755  1
  H+  H375  1  0.59091578  0.18303582  0.43629374  1
  H+  H376  1  0.66396487  0.33749534  0.56476110  1
  H+  H377  1  0.07610091  0.16514833  0.40771995  1
  H+  H378  1  0.41846698  0.07655433  0.56275502  1
  H+  H379  1  0.59582767  0.92468271  0.09648796  1
  H+  H380  1  0.91919044  0.08873869  0.27135719  1
  H+  H381  1  0.13426456  0.36030033  0.33317747  1
  H+  H382  1  0.44351922  0.59643196  0.89474009  1
  H+  H383  1  0.83529705  0.66943567  0.44436257  1
  O2-  O384  1  0.09977674  0.18689562  0.15610755  1
  O2-  O385  1  0.08210290  0.15842929  0.47325026  1
  O2-  O386  1  0.03704229  0.14834608  0.82187395  1
  O2-  O387  1  0.09206791  0.42476009  0.14884507  1
  O2-  O388  1  0.07803688  0.40531132  0.48197825  1
  O2-  O389  1  0.08241195  0.41111235  0.80591465  1
  O2-  O390  1  0.08078585  0.67246891  0.16159010  1
  O2-  O391  1  0.07836293  0.66492644  0.47138740  1
  O2-  O392  1  0.07309248  0.65783923  0.81176624  1
  O2-  O393  1  0.07815190  0.93572988  0.16152714  1
  O2-  O394  1  0.08917479  0.93062092  0.47875411  1
  O2-  O395  1  0.06925056  0.90527636  0.81058132  1
  O2-  O396  1  0.33557244  0.16654727  0.14425949  1
  O2-  O397  1  0.25528186  0.12084889  0.50803556  1
  O2-  O398  1  0.36385287  0.17461955  0.80570468  1
  O2-  O399  1  0.33823241  0.41776703  0.13712745  1
  O2-  O400  1  0.32185433  0.39875363  0.47031022  1
  O2-  O401  1  0.34166957  0.41776722  0.81288692  1
  O2-  O402  1  0.33797251  0.66543202  0.14192240  1
  O2-  O403  1  0.33798507  0.66587975  0.47270393  1
  O2-  O404  1  0.33734061  0.65435872  0.81351808  1
  O2-  O405  1  0.34077221  0.91690319  0.15443915  1
  O2-  O406  1  0.38535875  0.93609012  0.46487511  1
  O2-  O407  1  0.31767266  0.91486181  0.80971044  1
  O2-  O408  1  0.55801173  0.11618621  0.13343838  1
  O2-  O409  1  0.58571685  0.17555920  0.48213879  1
  O2-  O410  1  0.59259704  0.16195996  0.80809397  1
  O2-  O411  1  0.57930256  0.39589142  0.13705084  1
  O2-  O412  1  0.55788764  0.40182386  0.48006103  1
  O2-  O413  1  0.58103941  0.41954341  0.80528159  1
  O2-  O414  1  0.57339705  0.64767770  0.15259747  1
  O2-  O415  1  0.60132401  0.67509293  0.48182422  1
  O2-  O416  1  0.62640301  0.71934127  0.83451731  1
  O2-  O417  1  0.59724143  0.93233254  0.14160078  1
  O2-  O418  1  0.57257464  0.90964014  0.48952072  1
  O2-  O419  1  0.58567648  0.90302829  0.81311672  1
  O2-  O420  1  0.85166681  0.17598786  0.15064939  1
  O2-  O421  1  0.83121428  0.14205364  0.48204207  1
  O2-  O422  1  0.84686516  0.16219222  0.80358351  1
  O2-  O423  1  0.82535889  0.41715654  0.14853997  1
  O2-  O424  1  0.83679260  0.44077337  0.49059602  1
  O2-  O425  1  0.83142300  0.39658239  0.80150805  1
  O2-  O426  1  0.83388866  0.65487420  0.14706545  1
  O2-  O427  1  0.83303405  0.67442469  0.48948692  1
  O2-  O428  1  0.80745665  0.65551951  0.80386280  1
  O2-  O429  1  0.85486916  0.93450597  0.14785835  1
  O2-  O430  1  0.83623892  0.92174320  0.48262343  1
  O2-  O431  1  0.82207792  0.91958924  0.80424302  1
  O2-  O432  1  0.18111570  0.10062225  0.19382019  1
  O2-  O433  1  0.16795382  0.09347708  0.52958923  1
  O2-  O434  1  0.11887128  0.06809125  0.86622371  1
  O2-  O435  1  0.17946721  0.34969987  0.19147168  1
  O2-  O436  1  0.15625320  0.32203208  0.52438347  1
  O2-  O437  1  0.16455460  0.32834079  0.85397522  1
  O2-  O438  1  0.17075711  0.58943870  0.18646408  1
  O2-  O439  1  0.18722700  0.63715294  0.53346956  1
  O2-  O440  1  0.16116926  0.58267373  0.84739921  1
  O2-  O441  1  0.16592896  0.83287830  0.17883234  1
  O2-  O442  1  0.16729204  0.83609197  0.46416498  1
  O2-  O443  1  0.15487080  0.82857705  0.84863682  1
  O2-  O444  1  0.40903060  0.08120646  0.19089846  1
  O2-  O445  1  0.42166299  0.07554613  0.51798716  1
  O2-  O446  1  0.42144457  0.07217698  0.85304185  1
  O2-  O447  1  0.41748159  0.33475385  0.18162811  1
  O2-  O448  1  0.38781882  0.30259522  0.51728139  1
  O2-  O449  1  0.42182189  0.32976536  0.84983917  1
  O2-  O450  1  0.41396995  0.57776807  0.18350453  1
  O2-  O451  1  0.44708655  0.62086004  0.53752905  1
  O2-  O452  1  0.45464761  0.60177340  0.84977393  1
  O2-  O453  1  0.42885111  0.83181981  0.18010644  1
  O2-  O454  1  0.41295452  0.82430322  0.52750061  1
  O2-  O455  1  0.42173852  0.82426063  0.86586232  1
  O2-  O456  1  0.68711382  0.09613916  0.18487931  1
  O2-  O457  1  0.66142506  0.08079218  0.52252938  1
  O2-  O458  1  0.67966624  0.07888612  0.84469417  1
  O2-  O459  1  0.67174705  0.34304672  0.18579513  1
  O2-  O460  1  0.66602128  0.34163066  0.51959037  1
  O2-  O461  1  0.66481860  0.33142253  0.84318786  1
  O2-  O462  1  0.66089695  0.56035640  0.17668469  1
  O2-  O463  1  0.67444725  0.59553978  0.52063465  1
  O2-  O464  1  0.65636442  0.58376076  0.85880297  1
  O2-  O465  1  0.69448191  0.86770994  0.18831792  1
  O2-  O466  1  0.66566988  0.83231845  0.51893471  1
  O2-  O467  1  0.65882560  0.80720734  0.85792438  1
  O2-  O468  1  0.93381510  0.09785967  0.19481175  1
  O2-  O469  1  0.92427457  0.08189241  0.52288687  1
  O2-  O470  1  0.94414634  0.09552443  0.83503253  1
  O2-  O471  1  0.92380385  0.34430321  0.18940865  1
  O2-  O472  1  0.89859297  0.32859763  0.53537047  1
  O2-  O473  1  0.91382094  0.31375586  0.84100917  1
  O2-  O474  1  0.90842770  0.57615708  0.19280726  1
  O2-  O475  1  0.92425252  0.59997199  0.52268310  1
  O2-  O476  1  0.91416755  0.55327161  0.85963533  1
  O2-  O477  1  0.86951077  0.80242520  0.20006517  1
  O2-  O478  1  0.91959723  0.83996591  0.51555173  1
  O2-  O479  1  0.90697739  0.83213135  0.78612667  1
  O2-  O480  1  0.19856446  0.10267095  0.32049588  1
  O2-  O481  1  0.16719936  0.08797329  0.65169049  1
  O2-  O482  1  0.16235907  0.08180955  0.98933581  1
  O2-  O483  1  0.15907285  0.32481838  0.31720596  1
  O2-  O484  1  0.15885830  0.31506437  0.65000365  1
  O2-  O485  1  0.17823689  0.34361551  0.97651292  1
  O2-  O486  1  0.16585723  0.57881506  0.30985627  1
  O2-  O487  1  0.16085967  0.57362984  0.65061372  1
  O2-  O488  1  0.17340519  0.58915934  0.97270944  1
  O2-  O489  1  0.15770570  0.82591369  0.30997312  1
  O2-  O490  1  0.16203211  0.82482919  0.69240076  1
  O2-  O491  1  0.18293978  0.87376685  0.97435257  1
  O2-  O492  1  0.40824450  0.07776716  0.31299338  1
  O2-  O493  1  0.41646770  0.08122960  0.64650953  1
  O2-  O494  1  0.42076591  0.08213918  0.97823291  1
  O2-  O495  1  0.41255510  0.33132439  0.30836866  1
  O2-  O496  1  0.41486642  0.33763907  0.64035164  1
  O2-  O497  1  0.41645415  0.32412536  0.97510485  1
  O2-  O498  1  0.41169732  0.57542031  0.31163886  1
  O2-  O499  1  0.41845355  0.58842102  0.65320106  1
  O2-  O500  1  0.42461424  0.58508456  0.97196265  1
  O2-  O501  1  0.42085498  0.82501642  0.30899961  1
  O2-  O502  1  0.43652000  0.89118473  0.63748190  1
  O2-  O503  1  0.42373265  0.83138409  0.98445660  1
  O2-  O504  1  0.67528280  0.11929683  0.31275585  1
  O2-  O505  1  0.67323073  0.08332241  0.65295313  1
  O2-  O506  1  0.61352188  0.05805705  0.96108675  1
  O2-  O507  1  0.66701727  0.35941895  0.30049317  1
  O2-  O508  1  0.66128541  0.32741545  0.64495534  1
  O2-  O509  1  0.70811847  0.32027692  0.96712101  1
  O2-  O510  1  0.64458174  0.58083428  0.30357032  1
  O2-  O511  1  0.67038507  0.57897046  0.63345365  1
  O2-  O512  1  0.65894330  0.56970748  0.98179449  1
  O2-  O513  1  0.66047135  0.84007111  0.31705844  1
  O2-  O514  1  0.67058092  0.83157694  0.63992550  1
  O2-  O515  1  0.66315537  0.81643440  0.97997674  1
  O2-  O516  1  0.91701352  0.09163678  0.31690965  1
  O2-  O517  1  0.91421720  0.08032251  0.65011696  1
  O2-  O518  1  0.85637601  0.06947218  0.94548857  1
  O2-  O519  1  0.92712570  0.34198382  0.31355080  1
  O2-  O520  1  0.91119695  0.32509623  0.63385194  1
  O2-  O521  1  0.93310029  0.36130243  0.99938122  1
  O2-  O522  1  0.90961384  0.56608390  0.31499543  1
  O2-  O523  1  0.91455476  0.58170624  0.64246010  1
  O2-  O524  1  0.91929048  0.58121407  0.97674540  1
  O2-  O525  1  0.95346981  0.82993759  0.30718844  1
  O2-  O526  1  0.91809404  0.83255155  0.63995918  1
  O2-  O527  1  0.91474571  0.82550279  1.04745352  1
  O2-  O528  1  0.11242349  0.19045418  0.03792635  1
  O2-  O529  1  0.07144778  0.17225329  0.36029157  1
  O2-  O530  1  0.07452145  0.15742446  0.70162360  1
  O2-  O531  1  0.10250169  0.43149929  0.02544641  1
  O2-  O532  1  0.08862027  0.41750086  0.35743967  1
  O2-  O533  1  0.07956480  0.40444832  0.67936645  1
  O2-  O534  1  0.08299618  0.66726749  0.00244855  1
  O2-  O535  1  0.07730172  0.65753991  0.34770521  1
  O2-  O536  1  0.07271155  0.65148685  0.68698287  1
  O2-  O537  1  0.08433294  0.91748547  0.03588148  1
  O2-  O538  1  0.11031222  0.93408311  0.35702289  1
  O2-  O539  1  0.08151566  0.91756075  0.68517062  1
  O2-  O540  1  0.33384839  0.15882095  0.01698224  1
  O2-  O541  1  0.35754840  0.16994672  0.35231285  1
  O2-  O542  1  0.33788721  0.16967127  0.67944821  1
  O2-  O543  1  0.34360245  0.41990324  0.01292285  1
  O2-  O544  1  0.32206741  0.40504559  0.35270141  1
  O2-  O545  1  0.32806913  0.41233138  0.68368033  1
  O2-  O546  1  0.33622772  0.66249091  0.01670292  1
  O2-  O547  1  0.32784720  0.65751978  0.34945875  1
  O2-  O548  1  0.32696390  0.65385595  0.69978975  1
  O2-  O549  1  0.34329944  0.91868166  0.03133443  1
  O2-  O550  1  0.32150097  0.92553621  0.34911468  1
  O2-  O551  1  0.32040186  0.91420701  0.69920330  1
  O2-  O552  1  0.58436910  0.17253521  0.01895004  1
  O2-  O553  1  0.60097360  0.20044088  0.36397706  1
  O2-  O554  1  0.58593180  0.16569703  0.68655142  1
  O2-  O555  1  0.58089069  0.40447117  0.02098140  1
  O2-  O556  1  0.57331353  0.42194430  0.35448196  1
  O2-  O557  1  0.58383523  0.42033100  0.67469885  1
  O2-  O558  1  0.58437912  0.65796833  0.02627431  1
  O2-  O559  1  0.57545423  0.66565935  0.35208495  1
  O2-  O560  1  0.59221874  0.65926413  0.68369396  1
  O2-  O561  1  0.58689135  0.90630419  0.01860165  1
  O2-  O562  1  0.56391915  0.90753699  0.37274700  1
  O2-  O563  1  0.58825202  0.91600875  0.68885226  1
  O2-  O564  1  0.84648111  0.18126521  0.02514421  1
  O2-  O565  1  0.83843248  0.17962474  0.36008903  1
  O2-  O566  1  0.82978766  0.14875241  0.68925321  1
  O2-  O567  1  0.84060922  0.42910088  0.02958364  1
  O2-  O568  1  0.83266223  0.39974606  0.36341138  1
  O2-  O569  1  0.83001576  0.41312987  0.67534161  1
  O2-  O570  1  0.83486479  0.66324198  -0.01055679  1
  O2-  O571  1  0.85080290  0.66697699  0.36788466  1
  O2-  O572  1  0.82670567  0.66276294  0.67413209  1
  O2-  O573  1  0.82197623  0.90971437  0.02624692  1
  O2-  O574  1  0.82009279  0.93330555  0.36807597  1
  O2-  O575  1  0.83071484  0.91506198  0.67841598  1
