# generated using pymatgen
data_H2O
_symmetry_space_group_name_H-M   'P 1'
_cell_length_a   17.99317007
_cell_length_b   17.99790260
_cell_length_c   21.99894576
_cell_angle_alpha   90.04651690
_cell_angle_beta   89.96952639
_cell_angle_gamma   119.99773540
_symmetry_Int_Tables_number   1
_chemical_formula_structural   H2O
_chemical_formula_sum   'H384 O192'
_cell_volume   6169.81077810
_cell_formula_units_Z   192
loop_
 _symmetry_equiv_pos_site_id
 _symmetry_equiv_pos_as_xyz
  1  'x, y, z'
loop_
 _atom_type_symbol
 _atom_type_oxidation_number
  H+  1.0
  O2-  -2.0
loop_
 _atom_site_type_symbol
 _atom_site_label
 _atom_site_symmetry_multiplicity
 _atom_site_fract_x
 _atom_site_fract_y
 _atom_site_fract_z
 _atom_site_occupancy
  H+  H0  1  0.63688547  0.23719443  -0.00125837  1
  H+  H1  1  0.01568467  0.88611706  0.82507891  1
  H+  H2  1  0.86493931  0.38510308  0.49573029  1
  H+  H3  1  0.34662445  0.61366117  0.31794252  1
  H+  H4  1  0.02780523  0.90094509  -0.00201662  1
  H+  H5  1  0.86842322  0.40122774  0.34064945  1
  H+  H6  1  0.73007070  0.11306289  0.65909535  1
  H+  H7  1  0.36196384  0.47847846  0.83400932  1
  H+  H8  1  0.85353870  0.72685678  0.34715617  1
  H+  H9  1  0.08129399  0.58832607  -0.00702260  1
  H+  H10  1  0.08247858  0.38459359  0.09377096  1
  H+  H11  1  0.14591299  0.52307818  0.51414740  1
  H+  H12  1  0.37058442  0.14941984  0.83280193  1
  H+  H13  1  0.89648920  0.75470661  0.20055881  1
  H+  H14  1  0.28304099  0.14274038  0.68105972  1
  H+  H15  1  0.88667354  0.26995120  0.51075680  1
  H+  H16  1  0.86952333  0.58216232  0.15547072  1
  H+  H17  1  0.78900329  0.63182192  0.49643515  1
  H+  H18  1  0.37320459  0.23292808  0.68270684  1
  H+  H19  1  0.61404076  0.12979832  0.67258578  1
  H+  H20  1  0.69705973  0.57930863  1.03001586  1
  H+  H21  1  0.59748210  0.85627597  0.34380087  1
  H+  H22  1  0.62778611  0.60932019  0.66341336  1
  H+  H23  1  0.78670867  0.38402656  0.00218732  1
  H+  H24  1  0.64274811  0.35098642  0.50223309  1
  H+  H25  1  0.92157623  0.79324845  0.50515305  1
  H+  H26  1  0.61135716  0.39414480  0.83330291  1
  H+  H27  1  0.22340206  0.87543238  0.34782277  1
  H+  H28  1  0.45479814  0.83489045  0.33530031  1
  H+  H29  1  0.38573583  0.61375076  0.84023683  1
  H+  H30  1  0.11520422  0.10599098  0.31180602  1
  H+  H31  1  0.14351936  0.11979203  0.66925901  1
  H+  H32  1  0.39271066  0.26515494  0.33296969  1
  H+  H33  1  0.85571898  0.12600108  0.82678259  1
  H+  H34  1  0.38328386  0.97840687  0.01406063  1
  H+  H35  1  0.59878109  0.41468093  0.42494837  1
  H+  H36  1  0.39993972  0.35591497  0.49702652  1
  H+  H37  1  0.22101945  0.04944210  0.27443714  1
  H+  H38  1  0.63562474  0.76738678  0.66269187  1
  H+  H39  1  0.38238074  0.85466808  0.51623076  1
  H+  H40  1  0.38813937  0.04196391  0.83895351  1
  H+  H41  1  0.48174379  0.35544736  0.32788160  1
  H+  H42  1  0.84846545  0.95988525  0.49358121  1
  H+  H43  1  0.13946273  0.36563259  0.17779081  1
  H+  H44  1  0.88945176  0.50487539  0.69221238  1
  H+  H45  1  0.17231776  0.58303044  0.60698714  1
  H+  H46  1  0.36970120  0.21795005  0.15910236  1
  H+  H47  1  0.92259433  0.66071199  0.48722749  1
  H+  H48  1  0.36567181  0.72487909  0.82959130  1
  H+  H49  1  0.00789992  0.62472281  0.81678468  1
  H+  H50  1  0.13956543  0.77696618  0.51301548  1
  H+  H51  1  0.05573381  0.19883891  0.51030356  1
  H+  H52  1  0.13213550  0.79272725  0.32984202  1
  H+  H53  1  0.52517776  0.13133527  0.67561083  1
  H+  H54  1  0.02838185  0.10951579  0.30109283  1
  H+  H55  1  0.10191137  0.88231133  0.82699319  1
  H+  H56  1  0.47910290  0.35894745  0.67149611  1
  H+  H57  1  0.98539862  0.86837316  0.34682360  1
  H+  H58  1  0.36397899  0.39063544  0.83254715  1
  H+  H59  1  0.11387190  0.89344753  0.36082162  1
  H+  H60  1  0.38167909  0.89061268  0.00187487  1
  H+  H61  1  0.10401325  0.13215992  1.00386927  1
  H+  H62  1  0.47798751  0.10688725  0.32643961  1
  H+  H63  1  0.88076714  0.28826815  0.66931940  1
  H+  H64  1  0.62230176  0.88781957  0.67446138  1
  H+  H65  1  0.50744145  0.37293357  0.00510484  1
  H+  H66  1  0.67617258  0.33703510  0.26569639  1
  H+  H67  1  0.08698794  0.40429120  0.34587876  1
  H+  H68  1  0.63154992  0.85162635  0.51174656  1
  H+  H69  1  0.61337244  0.47332932  0.33064514  1
  H+  H70  1  0.63477000  0.36025414  -0.00841477  1
  H+  H71  1  -0.02346166  0.11292384  -0.01275315  1
  H+  H72  1  0.03526967  0.63962136  0.50631694  1
  H+  H73  1  0.38979882  0.27824555  0.83822181  1
  H+  H74  1  0.15125062  0.86842480  0.66534935  1
  H+  H75  1  0.46507787  0.84617534  0.51575791  1
  H+  H76  1  0.72687801  0.85513780  0.66028741  1
  H+  H77  1  0.41977524  0.06772334  0.13320141  1
  H+  H78  1  0.26508279  0.61037935  0.24371114  1
  H+  H79  1  0.52621666  0.63940786  0.82324007  1
  H+  H80  1  0.27269013  0.36420620  0.49342167  1
  H+  H81  1  0.62342996  0.50162378  0.84857451  1
  H+  H82  1  0.98038063  0.62542425  0.97072781  1
  H+  H83  1  0.73104274  0.86802813  -0.00448472  1
  H+  H84  1  0.13917344  0.61227318  0.66461490  1
  H+  H85  1  0.16438858  0.34803960  0.91209608  1
  H+  H86  1  -0.01840910  0.62684156  0.66127658  1
  H+  H87  1  0.49171397  0.89914934  0.18222149  1
  H+  H88  1  0.89379854  0.79957948  0.98997493  1
  H+  H89  1  0.27760921  0.65400042  -0.02413305  1
  H+  H90  1  0.39334748  0.11859242  0.66495073  1
  H+  H91  1  0.87742054  0.52791861  0.32472086  1
  H+  H92  1  0.89176174  0.52211263  0.51121780  1
  H+  H93  1  0.78111885  0.88690209  0.82407980  1
  H+  H94  1  0.88627952  0.17373586  0.68594545  1
  H+  H95  1  0.09481758  0.92230611  0.73183339  1
  H+  H96  1  0.73183282  0.39455933  0.83948005  1
  H+  H97  1  0.48984388  0.35563747  0.49091764  1
  H+  H98  1  0.11462299  0.14133686  0.82699423  1
  H+  H99  1  0.23696338  0.42673751  1.01653222  1
  H+  H100  1  0.16409933  0.32696635  0.23650562  1
  H+  H101  1  0.97547905  0.35772820  0.51461647  1
  H+  H102  1  0.62893652  -0.01178760  0.16127031  1
  H+  H103  1  0.61818853  0.72380343  0.82391905  1
  H+  H104  1  0.26705618  0.98762924  0.78636565  1
  H+  H105  1  0.87030250  0.75828934  0.66370829  1
  H+  H106  1  0.31839616  0.09048074  0.19700903  1
  H+  H107  1  0.86112657  0.99103030  0.00297547  1
  H+  H108  1  0.12543775  0.64567759  0.50629932  1
  H+  H109  1  0.13918298  0.23740156  0.31524749  1
  H+  H110  1  0.66713625  0.32248824  0.56516220  1
  H+  H111  1  -0.01897813  0.35336859  0.83310646  1
  H+  H112  1  0.62388944  0.60356630  0.31950444  1
  H+  H113  1  0.39227799  0.68139499  0.13032449  1
  H+  H114  1  0.26768379  0.14863753  1.00239411  1
  H+  H115  1  0.64397473  0.10518151  0.50293162  1
  H+  H116  1  0.60777018  0.71928464  0.49269704  1
  H+  H117  1  0.61682051  0.63617401  0.15671389  1
  H+  H118  1  0.89150523  0.88727845  0.99387712  1
  H+  H119  1  0.03597939  0.34422074  0.00085609  1
  H+  H120  1  0.13996930  0.15215720  0.17530280  1
  H+  H121  1  0.48566696  0.85068022  0.83405617  1
  H+  H122  1  0.13562103  0.31616247  0.34210484  1
  H+  H123  1  0.86311548  0.37314212  0.16376548  1
  H+  H124  1  0.21044552  0.86435479  0.82986649  1
  H+  H125  1  0.39154456  0.61439609  0.66225450  1
  H+  H126  1  0.84656218  0.71853663  0.83018811  1
  H+  H127  1  0.26300269  0.74065358  0.11669544  1
  H+  H128  1  0.86983058  0.93704340  0.16034176  1
  H+  H129  1  0.64994783  0.85952137  0.83828946  1
  H+  H130  1  0.79181769  0.66511322  -0.01998761  1
  H+  H131  1  0.66130334  0.12335712  0.99753815  1
  H+  H132  1  0.82684707  0.66163249  0.40021612  1
  H+  H133  1  0.03692661  0.91328104  0.50991540  1
  H+  H134  1  0.86534757  -0.03835144  0.66559725  1
  H+  H135  1  0.61332851  0.96484187  0.49649654  1
  H+  H136  1  0.14122390  1.02831331  -0.01415558  1
  H+  H137  1  0.37942872  0.36647115  0.98988320  1
  H+  H138  1  0.90374100  0.36760866  -0.01173795  1
  H+  H139  1  0.85899731  0.86972322  0.67293084  1
  H+  H140  1  0.83973484  0.16108615  0.42763196  1
  H+  H141  1  0.03973081  0.46095084  0.95346024  1
  H+  H142  1  0.77732778  0.12757094  0.48678599  1
  H+  H143  1  0.02013623  0.13053073  0.67624469  1
  H+  H144  1  0.39471496  0.11515904  0.50942280  1
  H+  H145  1  0.11240694  0.74688431  0.98038872  1
  H+  H146  1  0.91373162  0.82531303  0.60905252  1
  H+  H147  1  0.88240438  0.66953220  -0.01879864  1
  H+  H148  1  0.76659754  0.12708464  0.83116470  1
  H+  H149  1  0.38887681  0.34658871  0.17629940  1
  H+  H150  1  0.59289936  0.92439019  0.10463598  1
  H+  H151  1  0.86665867  0.07586667  0.62562147  1
  H+  H152  1  0.11496396  0.47569133  0.66975110  1
  H+  H153  1  0.86884367  0.61176599  0.32104166  1
  H+  H154  1  0.39944977  0.70414553  0.16044542  1
  H+  H155  1  0.63134028  0.60939791  1.00605074  1
  H+  H156  1  0.52526872  0.63958662  1.00670990  1
  H+  H157  1  0.61970761  0.38674117  0.33224408  1
  H+  H158  1  0.10600525  0.37358560  0.49372463  1
  H+  H159  1  0.39997888  0.78029232  0.68506157  1
  H+  H160  1  0.88640020  0.41526886  0.70040255  1
  H+  H161  1  0.13127058  0.47782409  0.96702943  1
  H+  H162  1  0.36633034  0.75663485  0.31393495  1
  H+  H163  1  0.10004063  0.65214889  0.32773409  1
  H+  H164  1  0.52398767  0.63745732  0.67266738  1
  H+  H165  1  0.02160988  0.39068923  0.66997822  1
  H+  H166  1  0.00890024  0.14472698  0.16937938  1
  H+  H167  1  0.09748208  0.62491673  0.82172965  1
  H+  H168  1  0.37991826  0.53716749  0.99812058  1
  H+  H169  1  0.89141156  0.11103275  0.48794869  1
  H+  H170  1  0.87296124  0.04613088  0.19343012  1
  H+  H171  1  0.75753190  0.62311266  0.67028272  1
  H+  H172  1  0.53804052  0.50050957  0.53908500  1
  H+  H173  1  0.63824148  0.16782530  0.82522035  1
  H+  H174  1  0.75059336  0.12267745  0.99443971  1
  H+  H175  1  0.60116202  0.71314960  0.33542396  1
  H+  H176  1  0.09633677  0.23134020  0.15854552  1
  H+  H177  1  0.88904080  0.86138977  0.51131095  1
  H+  H178  1  0.73257812  0.36854753  0.32729295  1
  H+  H179  1  0.01552321  0.62754179  0.14543414  1
  H+  H180  1  0.73494920  0.36412764  0.17027734  1
  H+  H181  1  0.21258947  0.52681954  0.20355948  1
  H+  H182  1  0.84093588  0.62581497  0.82387481  1
  H+  H183  1  0.63596610  0.86607236  0.17572252  1
  H+  H184  1  0.84787543  0.87111628  0.34429409  1
  H+  H185  1  0.97694352  0.11611225  0.83424719  1
  H+  H186  1  0.26043934  0.62068603  0.33173992  1
  H+  H187  1  0.46611062  0.59820871  0.50735782  1
  H+  H188  1  0.98436950  0.38081330  0.34810678  1
  H+  H189  1  0.35994753  0.86651025  0.15323793  1
  H+  H190  1  0.11967203  0.35349697  0.64599524  1
  H+  H191  1  0.64522945  0.02059815  0.65982271  1
  H+  H192  1  0.27086821  0.15698076  0.15549010  1
  H+  H193  1  0.40081736  0.86959602  0.68931505  1
  H+  H194  1  0.37851944  0.22928972  0.49350790  1
  H+  H195  1  0.37405019  0.47922020  0.67874733  1
  H+  H196  1  0.07449912  0.93902142  0.14800038  1
  H+  H197  1  0.12758081  0.76690374  0.82806532  1
  H+  H198  1  0.86618214  0.46365501  0.15824842  1
  H+  H199  1  0.37034099  0.13369825  0.35046251  1
  H+  H200  1  0.48163158  0.11014064  0.50853224  1
  H+  H201  1  0.74635553  0.61549426  0.51170538  1
  H+  H202  1  0.13128205  0.51947335  0.82033382  1
  H+  H203  1  0.95570669  0.07955960  0.46361568  1
  H+  H204  1  0.90401253  0.58083223  0.88241951  1
  H+  H205  1  0.89064674  0.02290750  0.83091409  1
  H+  H206  1  0.54309252  0.15002841  0.14761356  1
  H+  H207  1  0.13486368  0.98548819  0.67538279  1
  H+  H208  1  0.97441915  0.35236260  0.18360757  1
  H+  H209  1  0.17007505  0.89941254  0.15603856  1
  H+  H210  1  0.62531840  0.89165045  1.00956848  1
  H+  H211  1  0.86750049  0.22420669  0.15781553  1
  H+  H212  1  0.36542592  0.97613385  0.50147141  1
  H+  H213  1  0.52647280  0.63007017  0.15930211  1
  H+  H214  1  0.66175588  0.82002375  0.57021431  1
  H+  H215  1  0.62738583  0.51473537  0.16630003  1
  H+  H216  1  0.11567789  0.66046283  0.13485242  1
  H+  H217  1  0.38370521  0.50540040  0.51220962  1
  H+  H218  1  0.62875419  0.96836077  0.83037095  1
  H+  H219  1  0.22977287  0.36370936  0.85677277  1
  H+  H220  1  0.33807091  0.16403735  0.40876547  1
  H+  H221  1  0.61458160  0.46528859  0.48825042  1
  H+  H222  1  0.26935314  0.36772934  0.16595357  1
  H+  H223  1  0.37925715  0.50339797  0.32868107  1
  H+  H224  1  0.11939184  0.73092307  0.67272631  1
  H+  H225  1  0.65392762  0.12581749  0.16538406  1
  H+  H226  1  0.71316743  0.84641152  0.33049901  1
  H+  H227  1  0.36805941  0.37315666  0.34066622  1
  H+  H228  1  0.88265034  0.23882507  0.99779290  1
  H+  H229  1  0.62804696  0.14623313  0.33243560  1
  H+  H230  1  0.22749969  0.11566075  0.83488946  1
  H+  H231  1  0.94388209  0.87458455  0.19083585  1
  H+  H232  1  0.27520238  0.36397748  0.33904216  1
  H+  H233  1  0.27869502  0.63783547  0.67597467  1
  H+  H234  1  0.10705414  0.52401108  0.34809845  1
  H+  H235  1  0.76950689  0.90677673  0.16471637  1
  H+  H236  1  0.38535620  0.49404558  0.17156632  1
  H+  H237  1  0.14133819  0.86891035  0.51475913  1
  H+  H238  1  0.09822119  0.46379516  0.13401063  1
  H+  H239  1  0.58118616  0.93550067  0.34814928  1
  H+  H240  1  0.71515372  0.61038565  0.32193624  1
  H+  H241  1  0.67863065  0.83191005  0.89887072  1
  H+  H242  1  0.61967930  0.22910805  0.33669047  1
  H+  H243  1  0.36801883  0.98116596  0.67297036  1
  H+  H244  1  0.89609907  0.09459648  0.30220465  1
  H+  H245  1  0.64513199  0.36617132  0.17008121  1
  H+  H246  1  0.35524667  0.87915662  0.34879218  1
  H+  H247  1  0.75267644  0.59897918  0.13455903  1
  H+  H248  1  0.89918419  0.21855679  0.33021651  1
  H+  H249  1  0.72112730  0.60628173  0.84934501  1
  H+  H250  1  0.65136985  0.29718613  0.83131802  1
  H+  H251  1  0.64295370  0.77641646  0.99522164  1
  H+  H252  1  0.92442916  0.76241320  0.17283594  1
  H+  H253  1  0.77473255  0.38113161  0.49687565  1
  H+  H254  1  0.27977677  0.88931975  0.67305580  1
  H+  H255  1  0.25700798  0.87571371  0.15397909  1
  H+  H256  1  0.99596001  0.70579840  0.93773544  1
  H+  H257  1  0.88269071  0.85876102  0.83316680  1
  H+  H258  1  0.49477279  0.86840869  0.99441165  1
  H+  H259  1  0.59080818  0.42240258  0.73635062  1
  H+  H260  1  0.86516297  0.29501443  0.34590959  1
  H+  H261  1  0.27484407  0.88866783  0.50071042  1
  H+  H262  1  0.15705910  0.14490787  0.51675993  1
  H+  H263  1  0.39092379  0.62848698  -0.00827788  1
  H+  H264  1  0.62910087  0.24081082  0.15821703  1
  H+  H265  1  0.11315779  0.97973074  0.35044581  1
  H+  H266  1  0.59564136  0.46094167  1.00739286  1
  H+  H267  1  0.57748530  0.66123606  0.43109373  1
  H+  H268  1  0.91204815  0.83738508  0.89562598  1
  H+  H269  1  0.39114153  0.36164816  0.67440547  1
  H+  H270  1  0.42618879  0.03965469  0.15548968  1
  H+  H271  1  0.67732234  0.05211727  0.30774583  1
  H+  H272  1  0.06665923  0.15855323  0.06100053  1
  H+  H273  1  0.61951659  0.21669881  0.49392776  1
  H+  H274  1  0.58425280  0.66650665  0.73297359  1
  H+  H275  1  0.24247491  0.10873654  0.33020450  1
  H+  H276  1  0.76081768  0.86950474  0.50060251  1
  H+  H277  1  0.48402948  0.12274296  0.84082140  1
  H+  H278  1  0.59569863  0.05331662  0.86701036  1
  H+  H279  1  0.52442697  0.37606890  0.16216802  1
  H+  H280  1  0.40212051  0.78160500  -0.00906188  1
  H+  H281  1  0.59431471  0.59018461  0.50776136  1
  H+  H282  1  0.13642208  0.02596905  0.83464102  1
  H+  H283  1  0.80398277  0.14390399  0.32415288  1
  H+  H284  1  0.11945181  0.26348462  0.65341398  1
  H+  H285  1  0.63068388  0.98332664  0.01077203  1
  H+  H286  1  0.23780454  0.64805237  0.14461902  1
  H+  H287  1  0.51279152  0.62236258  0.33836296  1
  H+  H288  1  0.41192012  0.55813869  0.26748067  1
  H+  H289  1  0.31903151  0.40053833  0.10389252  1
  H+  H290  1  0.43259252  0.08549746  0.94537402  1
  H+  H291  1  0.13385624  0.80722637  0.92123321  1
  H+  H292  1  0.90855685  0.34124905  0.60786209  1
  H+  H293  1  0.38744606  0.58364200  0.17084742  1
  H+  H294  1  0.37152249  0.27199722  0.99497771  1
  H+  H295  1  0.57495462  0.89540271  0.44272008  1
  H+  H296  1  0.84050749  0.40267174  0.06265042  1
  H+  H297  1  0.98020491  0.96334717  0.22350602  1
  H+  H298  1  0.81159488  0.89175626  0.40334657  1
  H+  H299  1  0.06910142  0.41131101  0.44304241  1
  H+  H300  1  0.08081708  0.66699239  0.72986163  1
  H+  H301  1  0.09241403  0.94018740  0.44954137  1
  H+  H302  1  0.42140372  0.32082141  0.23631509  1
  H+  H303  1  0.11449502  0.22952027  0.83575079  1
  H+  H304  1  0.66648908  0.56915996  0.91476389  1
  H+  H305  1  0.88657823  0.61783403  0.66298225  1
  H+  H306  1  0.89015786  0.26742565  0.83915666  1
  H+  H307  1  0.83499358  0.42367317  0.40202735  1
  H+  H308  1  0.35345758  0.69705045  0.44922099  1
  H+  H309  1  0.63529385  0.26803162  0.65722104  1
  H+  H310  1  0.08913058  0.40588190  0.75757843  1
  H+  H311  1  0.01378837  0.65213853  0.31271418  1
  H+  H312  1  0.67183183  0.08034320  0.91390008  1
  H+  H313  1  0.42560848  0.86442252  0.23867270  1
  H+  H314  1  0.38673736  0.69064041  0.41719801  1
  H+  H315  1  0.87857419  0.14692739  -0.00221023  1
  H+  H316  1  0.58392402  0.66820728  0.06683714  1
  H+  H317  1  0.57601890  0.40343269  0.09918400  1
  H+  H318  1  0.97285770  0.72697303  0.43535777  1
  H+  H319  1  0.74359999  0.12402199  0.16108322  1
  H+  H320  1  0.17892155  0.10038417  0.60879434  1
  H+  H321  1  0.82069485  0.63948120  0.07900594  1
  H+  H322  1  0.33727911  0.42022733  0.73724322  1
  H+  H323  1  0.91583103  0.08379415  0.92648227  1
  H+  H324  1  0.14589258  1.04943986  0.51516837  1
  H+  H325  1  0.34085709  0.17284076  0.76972275  1
  H+  H326  1  0.33566246  0.66215590  0.73569980  1
  H+  H327  1  0.35080468  0.06051119  0.25713352  1
  H+  H328  1  0.32808417  0.87982147  0.08403803  1
  H+  H329  1  0.13745952  0.55706223  0.88459696  1
  H+  H330  1  0.43379424  0.83195254  0.89554287  1
  H+  H331  1  0.84398238  0.17594199  0.09307403  1
  H+  H332  1  0.59695968  0.17854484  0.76416525  1
  H+  H333  1  0.12062173  0.38491876  0.82142168  1
  H+  H334  1  0.69777756  0.11067367  0.25048739  1
  H+  H335  1  0.82930315  0.17143246  0.74068228  1
  H+  H336  1  0.93621856  0.82107664  0.28630469  1
  H+  H337  1  0.67600133  0.07815268  0.56221895  1
  H+  H338  1  0.42051013  0.58963436  0.89933163  1
  H+  H339  1  0.91384643  0.32639713  0.24313708  1
  H+  H340  1  0.10282218  0.87931255  -0.00746203  1
  H+  H341  1  0.06218076  0.63589036  0.04965236  1
  H+  H342  1  0.28836259  0.67095441  0.04675136  1
  H+  H343  1  0.41452098  0.33463700  0.89960936  1
  H+  H344  1  0.90351204  0.57584676  0.22219551  1
  H+  H345  1  0.67105120  0.34303314  0.93042084  1
  H+  H346  1  0.38978692  0.01710541  0.33852109  1
  H+  H347  1  0.93161814  0.07233580  0.58171700  1
  H+  H348  1  0.64249105  0.56907885  0.60280333  1
  H+  H349  1  0.31589681  0.94348623  0.75791086  1
  H+  H350  1  0.18242893  0.12799476  0.23093021  1
  H+  H351  1  0.81093097  0.65356636  0.73215495  1
  H+  H352  1  0.63806597  0.77734913  0.17326399  1
  H+  H353  1  0.17484525  0.83462597  0.60455797  1
  H+  H354  1  0.14549570  0.57360704  0.28678155  1
  H+  H355  1  0.07846277  0.17035752  0.73639524  1
  H+  H356  1  0.33652193  0.91577898  0.41047118  1
  H+  H357  1  0.41829611  0.57805777  0.60395128  1
  H+  H358  1  0.14990834  0.31071604  0.56655057  1
  H+  H359  1  0.42232539  0.08842139  0.60432574  1
  H+  H360  1  0.63776605  0.35732029  0.65723111  1
  H+  H361  1  0.91992369  0.58236381  0.57130831  1
  H+  H362  1  0.60441332  0.91855117  0.76631146  1
  H+  H363  1  0.33097104  0.39993283  0.43433179  1
  H+  H364  1  0.61439513  0.18386787  0.06084813  1
  H+  H365  1  0.29322313  0.49105854  0.06908652  1
  H+  H366  1  0.27199594  0.63732084  0.82776632  1
  H+  H367  1  0.66262285  0.57836679  0.22328777  1
  H+  H368  1  0.83082251  0.94075795  0.06654839  1
  H+  H369  1  0.53516819  0.89168250  0.68791154  1
  H+  H370  1  0.83786503  0.91459899  0.76251892  1
  H+  H371  1  0.58914109  0.15942745  0.43369770  1
  H+  H372  1  0.16676322  0.08974973  0.92823124  1
  H+  H373  1  0.32779510  0.17452365  0.06175796  1
  H+  H374  1  0.09564813  0.91451745  0.08309413  1
  H+  H375  1  0.22992598  0.61918270  0.51214195  1
  H+  H376  1  0.28506639  0.14529208  0.50077349  1
  H+  H377  1  0.51816427  0.39251421  0.83491487  1
  H+  H378  1  0.65805051  0.82626060  0.26842035  1
  H+  H379  1  0.25519904  0.95399664  0.20060726  1
  H+  H380  1  0.86126437  0.46778020  0.78622612  1
  H+  H381  1  0.50185643  0.11368093  -0.00268422  1
  H+  H382  1  0.61538352  0.47593759  0.67526266  1
  H+  H383  1  0.93077268  0.33658761  0.92539730  1
  O2-  O384  1  0.06312481  0.17026094  0.14568561  1
  O2-  O385  1  0.11533677  0.22128105  0.49706001  1
  O2-  O386  1  0.08398174  0.17268850  0.81474963  1
  O2-  O387  1  0.08095307  0.40331296  0.13696396  1
  O2-  O388  1  0.07698230  0.40760638  0.48791661  1
  O2-  O389  1  0.08793810  0.41022248  0.80296424  1
  O2-  O390  1  0.06632081  0.66373102  0.11971744  1
  O2-  O391  1  0.09543572  0.67653351  0.49294059  1
  O2-  O392  1  0.06992347  0.65876508  0.80761147  1
  O2-  O393  1  0.09734709  0.90596729  0.12830308  1
  O2-  O394  1  0.09752340  0.94478207  0.49491726  1
  O2-  O395  1  0.07742899  0.91846281  0.81305405  1
  O2-  O396  1  0.32673396  0.16027855  0.14319599  1
  O2-  O397  1  0.34251380  0.16550672  0.48216710  1
  O2-  O398  1  0.33694263  0.17503689  0.81590572  1
  O2-  O399  1  0.32837190  0.39362277  0.14764589  1
  O2-  O400  1  0.33300549  0.39802696  0.47952463  1
  O2-  O401  1  0.32799010  0.41649306  0.82219830  1
  O2-  O402  1  0.23687118  0.67796948  0.10711746  1
  O2-  O403  1  0.31878436  0.70369500  0.48251398  1
  O2-  O404  1  0.33282994  0.66277938  0.81534479  1
  O2-  O405  1  0.30739831  0.84887341  0.12643834  1
  O2-  O406  1  0.33527720  0.91639482  0.48531527  1
  O2-  O407  1  0.29784701  0.95823185  0.79860238  1
  O2-  O408  1  0.60456482  0.18145673  0.13910419  1
  O2-  O409  1  0.58881248  0.15564990  0.47876409  1
  O2-  O410  1  0.60206631  0.19010760  0.80961292  1
  O2-  O411  1  0.58359629  0.40956377  0.14426851  1
  O2-  O412  1  0.59941407  0.40892331  0.47016305  1
  O2-  O413  1  0.58169024  0.42785182  0.82245792  1
  O2-  O414  1  0.58567074  0.66729830  0.14402126  1
  O2-  O415  1  0.57567672  0.65932269  0.47637977  1
  O2-  O416  1  0.58463758  0.66593793  0.80553273  1
  O2-  O417  1  0.59420604  0.92598168  0.15015900  1
  O2-  O418  1  0.58071098  0.90221428  0.48756470  1
  O2-  O419  1  0.60150214  0.91073674  0.81213001  1
  O2-  O420  1  0.83560923  0.16730132  0.13779222  1
  O2-  O421  1  0.83902196  0.15955846  0.47270894  1
  O2-  O422  1  0.82445164  0.15680637  0.81336714  1
  O2-  O423  1  0.83358369  0.40200152  0.14496001  1
  O2-  O424  1  0.83518154  0.41582473  0.48100546  1
  O2-  O425  1  0.84615491  0.47508415  0.83145819  1
  O2-  O426  1  0.79286130  0.59128068  0.10785735  1
  O2-  O427  1  0.92313275  0.70770621  0.46177351  1
  O2-  O428  1  0.80897124  0.65729430  0.81672117  1
  O2-  O429  1  0.82624212  0.95261118  0.14873250  1
  O2-  O430  1  0.82136387  0.89850272  0.48340727  1
  O2-  O431  1  0.84171871  0.91851279  0.80813150  1
  O2-  O432  1  0.19435286  0.15858297  0.19215096  1
  O2-  O433  1  0.18174558  0.10985520  0.53083093  1
  O2-  O434  1  0.16642217  0.08700431  0.84878639  1
  O2-  O435  1  0.16838070  0.33384168  0.19145112  1
  O2-  O436  1  0.15797294  0.31224017  0.51684345  1
  O2-  O437  1  0.16771851  0.33284346  0.86910824  1
  O2-  O438  1  0.22073903  0.58385739  0.21015339  1
  O2-  O439  1  0.17230224  0.58132684  0.53166764  1
  O2-  O440  1  0.15324341  0.57596156  0.84146438  1
  O2-  O441  1  0.21827552  0.89616482  0.17968813  1
  O2-  O442  1  0.17168588  0.83869688  0.52801590  1
  O2-  O443  1  0.15227136  0.82511542  0.84665308  1
  O2-  O444  1  0.30078453  0.04551390  0.22990421  1
  O2-  O445  1  0.42294748  0.08360770  0.52637283  1
  O2-  O446  1  0.42648866  0.09770182  0.85941085  1
  O2-  O447  1  0.42399190  0.32162375  0.19066576  1
  O2-  O448  1  0.43150173  0.32601662  0.50889139  1
  O2-  O449  1  0.42132537  0.33894970  0.85430353  1
  O2-  O450  1  0.41778911  0.55554016  0.18682537  1
  O2-  O451  1  0.41130219  0.56417111  0.52913542  1
  O2-  O452  1  0.41842263  0.58504612  0.85437809  1
  O2-  O453  1  0.43781615  0.89365031  0.19863545  1
  O2-  O454  1  0.40974672  0.82544293  0.53700843  1
  O2-  O455  1  0.42691933  0.82344555  0.85086361  1
  O2-  O456  1  0.68356438  0.09552829  0.18117154  1
  O2-  O457  1  0.67669257  0.07649775  0.51669596  1
  O2-  O458  1  0.65744563  0.07540095  0.86800993  1
  O2-  O459  1  0.67421370  0.33545718  0.18670093  1
  O2-  O460  1  0.67100747  0.31981629  0.51901550  1
  O2-  O461  1  0.67113853  0.35459677  0.85061031  1
  O2-  O462  1  0.66008139  0.57707321  0.17784026  1
  O2-  O463  1  0.59765269  0.54195629  0.52957834  1
  O2-  O464  1  0.66230531  0.56818324  0.86972883  1
  O2-  O465  1  0.66694024  0.83606319  0.19098213  1
  O2-  O466  1  0.66203830  0.81995654  0.52434450  1
  O2-  O467  1  0.68169675  0.83049747  0.85368308  1
  O2-  O468  1  0.91430861  0.09952441  0.21623344  1
  O2-  O469  1  0.92546701  0.08179817  0.49979626  1
  O2-  O470  1  0.91511770  0.08300472  0.84686272  1
  O2-  O471  1  0.91430016  0.32317142  0.19738411  1
  O2-  O472  1  0.91340929  0.32877194  0.52739392  1
  O2-  O473  1  0.92402544  0.32734492  0.85335619  1
  O2-  O474  1  0.90917629  0.56815814  0.17786608  1
  O2-  O475  1  0.92524104  0.58249043  0.52590775  1
  O2-  O476  1  0.89211582  0.56940049  0.83763192  1
  O2-  O477  1  0.96598582  0.93579837  0.18365747  1
  O2-  O478  1  0.93031566  0.84476928  0.52782999  1
  O2-  O479  1  0.90821688  0.82495775  0.85116649  1
  O2-  O480  1  0.19207561  0.06991406  0.30339584  1
  O2-  O481  1  0.17763610  0.09409882  0.65398462  1
  O2-  O482  1  0.16645913  0.08962778  0.97362094  1
  O2-  O483  1  0.16820420  0.30306671  0.31296787  1
  O2-  O484  1  0.14079971  0.31613025  0.62819371  1
  O2-  O485  1  0.15937486  0.40549153  0.98340498  1
  O2-  O486  1  0.14735062  0.58261023  0.33084417  1
  O2-  O487  1  0.16986440  0.58115504  0.65284010  1
  O2-  O488  1  0.09943340  0.50911037  0.95508706  1
  O2-  O489  1  0.16351399  0.85655569  0.33532708  1
  O2-  O490  1  0.17773392  0.83343046  0.65011185  1
  O2-  O491  1  0.10557560  0.79323946  0.96204867  1
  O2-  O492  1  0.41489724  0.07637899  0.32024987  1
  O2-  O493  1  0.42267641  0.08701576  0.64987169  1
  O2-  O494  1  0.43942348  0.07979126  0.98926556  1
  O2-  O495  1  0.42037907  0.32380153  0.31397173  1
  O2-  O496  1  0.41697521  0.32535456  0.66260843  1
  O2-  O497  1  0.40780554  0.33506120  0.97690422  1
  O2-  O498  1  0.40708410  0.56355796  0.31211389  1
  O2-  O499  1  0.42392950  0.58517891  0.64946700  1
  O2-  O500  1  0.41982692  0.59539544  0.98132507  1
  O2-  O501  1  0.40033212  0.82051109  0.31437989  1
  O2-  O502  1  0.43727188  0.84304136  0.69110181  1
  O2-  O503  1  0.43683262  0.84062627  0.97487527  1
  O2-  O504  1  0.70337411  0.11252777  0.29733824  1
  O2-  O505  1  0.67171480  0.08028511  0.64173649  1
  O2-  O506  1  0.68746138  0.08809579  0.98328515  1
  O2-  O507  1  0.67234129  0.33529627  0.31108368  1
  O2-  O508  1  0.66344260  0.32550651  0.63812273  1
  O2-  O509  1  0.67212511  0.33859144  0.97542082  1
  O2-  O510  1  0.65747713  0.57720828  0.30274031  1
  O2-  O511  1  0.65559417  0.57622910  0.64710277  1
  O2-  O512  1  0.66138543  0.57570735  0.99500866  1
  O2-  O513  1  0.65237753  0.81857469  0.31367608  1
  O2-  O514  1  0.66605171  0.82777106  0.64585463  1
  O2-  O515  1  0.67083168  0.83597636  0.97915282  1
  O2-  O516  1  0.91956410  0.06572716  0.27588926  1
  O2-  O517  1  0.91831793  0.07112978  0.62555721  1
  O2-  O518  1  0.91444743  0.08539522  0.97176325  1
  O2-  O519  1  0.91054315  0.33720825  0.32005258  1
  O2-  O520  1  0.91374859  0.34734885  0.65295222  1
  O2-  O521  1  0.94103268  0.34496432  0.97114958  1
  O2-  O522  1  0.89982289  0.58421985  0.30332852  1
  O2-  O523  1  0.92014765  0.59115133  0.64785259  1
  O2-  O524  1  0.94756147  0.64646707  0.94496785  1
  O2-  O525  1  0.92558252  0.83216143  0.32777848  1
  O2-  O526  1  0.90211625  0.82042850  0.65327429  1
  O2-  O527  1  0.92305161  0.86010541  0.97531764  1
  O2-  O528  1  0.06740854  0.15651610  0.01620532  1
  O2-  O529  1  0.08503895  0.13747784  0.32175626  1
  O2-  O530  1  0.07931720  0.16643087  0.69091147  1
  O2-  O531  1  0.08611971  0.34857486  0.02337093  1
  O2-  O532  1  0.05142149  0.42101240  0.36875861  1
  O2-  O533  1  0.08320654  0.41276154  0.68056765  1
  O2-  O534  1  0.06340227  0.63030515  0.00395012  1
  O2-  O535  1  0.07699606  0.68866830  0.31359355  1
  O2-  O536  1  0.08406913  0.66863339  0.68456125  1
  O2-  O537  1  0.08901534  0.92241975  0.00976274  1
  O2-  O538  1  0.07985185  0.92486588  0.37275958  1
  O2-  O539  1  0.11198654  0.92534108  0.68881682  1
  O2-  O540  1  0.32773477  0.18515967  0.01748330  1
  O2-  O541  1  0.33934072  0.16464716  0.36254790  1
  O2-  O542  1  0.34313490  0.16904160  0.69645248  1
  O2-  O543  1  0.29704865  0.45144264  0.04064853  1
  O2-  O544  1  0.33455396  0.40120319  0.35451345  1
  O2-  O545  1  0.34558481  0.41871757  0.69303108  1
  O2-  O546  1  0.32003523  0.67179128  0.00829665  1
  O2-  O547  1  0.31530132  0.64525512  0.30847743  1
  O2-  O548  1  0.33933800  0.66613175  0.69046402  1
  O2-  O549  1  0.34928369  0.91498728  0.02227539  1
  O2-  O550  1  0.33426538  0.91721919  0.36456578  1
  O2-  O551  1  0.33754502  0.92376582  0.69326034  1
  O2-  O552  1  0.61399897  0.17794694  0.01581867  1
  O2-  O553  1  0.59157183  0.16764144  0.34981406  1
  O2-  O554  1  0.58620485  0.16069429  0.69052127  1
  O2-  O555  1  0.56836591  0.40019433  0.02014546  1
  O2-  O556  1  0.58673413  0.41416114  0.34815575  1
  O2-  O557  1  0.59121540  0.41640388  0.69192177  1
  O2-  O558  1  0.58601777  0.66595448  0.02120832  1
  O2-  O559  1  0.57420347  0.65304605  0.35150277  1
  O2-  O560  1  0.58587889  0.66678603  0.68662773  1
  O2-  O561  1  0.59653393  0.92299375  0.02587827  1
  O2-  O562  1  0.56065390  0.87805791  0.36384527  1
  O2-  O563  1  0.60104033  0.92488558  0.69224839  1
  O2-  O564  1  0.85036770  0.17920823  0.01435756  1
  O2-  O565  1  0.86062229  0.15868348  0.34298742  1
  O2-  O566  1  0.83648499  0.17962795  0.69494213  1
  O2-  O567  1  0.84548209  0.40581088  0.01767429  1
  O2-  O568  1  0.83403248  0.42732744  0.35652416  1
  O2-  O569  1  0.87289933  0.45588136  0.72091247  1
  O2-  O570  1  0.84631483  0.69086683  0.00203052  1
  O2-  O571  1  0.81607250  0.66464813  0.35660670  1
  O2-  O572  1  0.81735206  0.65302503  0.68754673  1
  O2-  O573  1  0.83205344  0.93173466  0.02200521  1
  O2-  O574  1  0.80884764  0.89114340  0.35817324  1
  O2-  O575  1  0.83128241  0.90599003  0.68596617  1
