# generated using pymatgen
data_H2O
_symmetry_space_group_name_H-M   'P 1'
_cell_length_a   17.97196307
_cell_length_b   17.96944088
_cell_length_c   21.99482589
_cell_angle_alpha   90.00891153
_cell_angle_beta   90.01170414
_cell_angle_gamma   120.03828390
_symmetry_Int_Tables_number   1
_chemical_formula_structural   H2O
_chemical_formula_sum   'H384 O192'
_cell_volume   6149.12816447
_cell_formula_units_Z   192
loop_
 _symmetry_equiv_pos_site_id
 _symmetry_equiv_pos_as_xyz
  1  'x, y, z'
loop_
 _atom_type_symbol
 _atom_type_oxidation_number
  H+  1.0
  O2-  -2.0
loop_
 _atom_site_type_symbol
 _atom_site_label
 _atom_site_symmetry_multiplicity
 _atom_site_fract_x
 _atom_site_fract_y
 _atom_site_fract_z
 _atom_site_occupancy
  H+  H0  1  0.67857110  0.33628770  0.23351333  1
  H+  H1  1  0.86903307  0.48147551  0.15010317  1
  H+  H2  1  0.91033730  0.30513756  0.66219823  1
  H+  H3  1  0.13169603  0.35930021  0.33240068  1
  H+  H4  1  1.02674957  0.39365255  0.33165761  1
  H+  H5  1  0.02653794  0.13835765  0.84079850  1
  H+  H6  1  0.12136574  0.86068802  0.98811951  1
  H+  H7  1  0.16634188  0.09080602  0.93539908  1
  H+  H8  1  0.13374372  0.26970766  0.33761941  1
  H+  H9  1  0.96379928  0.62114697  0.46698720  1
  H+  H10  1  0.88462040  0.86693086  0.84280159  1
  H+  H11  1  0.73356615  0.11966146  0.00294704  1
  H+  H12  1  0.62218634  0.39293315  0.49460668  1
  H+  H13  1  0.52850071  0.88994331  0.48689924  1
  H+  H14  1  0.52611656  0.63732248  0.34531244  1
  H+  H15  1  0.79091428  0.50039582  0.26694182  1
  H+  H16  1  0.40905881  0.64038446  0.99544017  1
  H+  H17  1  0.03836892  0.39667164  0.49118579  1
  H+  H18  1  0.64123206  0.52301063  0.83674822  1
  H+  H19  1  0.63562692  0.11981294  1.00358810  1
  H+  H20  1  0.47895653  0.10588545  0.84303019  1
  H+  H21  1  0.10527207  0.11958794  0.67342310  1
  H+  H22  1  0.35141584  0.11640868  0.67260032  1
  H+  H23  1  0.89616679  0.61099134  0.99317067  1
  H+  H24  1  0.62072999  0.82301868  0.71445670  1
  H+  H25  1  0.34935145  0.42593374  0.26260077  1
  H+  H26  1  0.60304672  0.22683416  0.66915501  1
  H+  H27  1  0.72330502  0.36007782  0.66357610  1
  H+  H28  1  0.39320816  0.35918863  0.33242607  1
  H+  H29  1  0.61758641  0.96939092  0.33336739  1
  H+  H30  1  0.38613945  0.27773902  0.99488630  1
  H+  H31  1  0.13700592  0.28470367  -0.00673886  1
  H+  H32  1  0.09435397  0.97963566  0.68178322  1
  H+  H33  1  0.85127419  0.88348581  0.00082802  1
  H+  H34  1  0.52540298  0.87491367  0.16207412  1
  H+  H35  1  0.89564224  0.52404539  0.83850344  1
  H+  H36  1  0.79291888  0.40208154  0.49867865  1
  H+  H37  1  0.63238100  0.10698835  0.16690659  1
  H+  H38  1  0.85288873  0.13451652  1.00614274  1
  H+  H39  1  0.22158975  0.34295322  0.66748068  1
  H+  H40  1  0.63442957  0.52274363  0.51024270  1
  H+  H41  1  0.12381376  0.71896454  0.55151551  1
  H+  H42  1  0.11344609  0.22824458  0.83945691  1
  H+  H43  1  0.12625894  0.64132260  0.30610462  1
  H+  H44  1  0.11321231  0.73233494  0.00536373  1
  H+  H45  1  0.64928962  0.61493150  0.16821690  1
  H+  H46  1  0.23250624  0.37015287  0.19706827  1
  H+  H47  1  0.84471176  0.73026700  0.68526322  1
  H+  H48  1  0.39332742  0.04762013  0.60691022  1
  H+  H49  1  0.15199678  0.11557102  0.32608698  1
  H+  H50  1  0.13160994  0.77037133  0.83275343  1
  H+  H51  1  0.63261394  0.60820596  0.83658029  1
  H+  H52  1  0.33002694  0.17005886  0.06364412  1
  H+  H53  1  0.64884430  0.52463091  0.16949045  1
  H+  H54  1  0.14727407  0.77561199  0.29758361  1
  H+  H55  1  0.46537609  0.59119078  0.62872300  1
  H+  H56  1  0.34594877  0.97230532  0.50461272  1
  H+  H57  1  0.36402835  0.96780784  0.83472914  1
  H+  H58  1  0.71300941  0.85640302  -0.00983940  1
  H+  H59  1  0.77474588  0.62448898  -0.00023431  1
  H+  H60  1  0.85835703  0.13785897  0.14620967  1
  H+  H61  1  0.10443070  0.88312575  0.83219773  1
  H+  H62  1  0.22792623  0.11400165  0.16534484  1
  H+  H63  1  0.02530964  0.63351484  0.82106245  1
  H+  H64  1  0.72913242  0.86047690  0.17362550  1
  H+  H65  1  0.10454185  0.21069222  0.68710528  1
  H+  H66  1  0.59482839  0.61637237  0.66476611  1
  H+  H67  1  0.13889567  1.02922783  0.85022320  1
  H+  H68  1  0.60497270  0.12396287  0.33199141  1
  H+  H69  1  0.20891365  0.86533736  0.51644522  1
  H+  H70  1  -0.01052521  0.61586981  -0.00348265  1
  H+  H71  1  0.47967652  0.35812556  -0.00254072  1
  H+  H72  1  0.88161265  0.74535936  0.16443835  1
  H+  H73  1  0.85290582  0.93518578  0.35371633  1
  H+  H74  1  0.12548994  0.48129102  0.16835818  1
  H+  H75  1  0.39840173  0.36585521  0.19234161  1
  H+  H76  1  0.97217607  0.86075693  0.84389907  1
  H+  H77  1  0.63831404  0.85649791  0.17326814  1
  H+  H78  1  0.88315876  0.24645642  0.82477320  1
  H+  H79  1  0.11797021  0.48959764  0.99540913  1
  H+  H80  1  0.61539374  0.64072936  0.33712710  1
  H+  H81  1  0.12682818  0.39361817  0.68712373  1
  H+  H82  1  0.86274164  0.38828692  0.83040418  1
  H+  H83  1  0.77334100  0.88365976  0.83630410  1
  H+  H84  1  0.14130699  0.11868539  0.84911344  1
  H+  H85  1  0.55553300  0.17071700  0.49054636  1
  H+  H86  1  0.61126497  0.23117890  1.01169170  1
  H+  H87  1  0.19879992  0.54418891  0.66897789  1
  H+  H88  1  0.87235696  0.76390566  0.52245110  1
  H+  H89  1  0.01198299  0.88723413  0.00399054  1
  H+  H90  1  0.63457739  0.12538666  0.65714952  1
  H+  H91  1  0.83676810  0.61139587  0.32200995  1
  H+  H92  1  0.85926854  -0.02100795  0.83740629  1
  H+  H93  1  0.89028206  1.02410987  0.49501009  1
  H+  H94  1  0.88269906  0.28966649  0.31288254  1
  H+  H95  1  0.12658353  0.39540674  0.48129145  1
  H+  H96  1  0.85638182  0.71225860  0.32547561  1
  H+  H97  1  -0.02178261  0.84692734  0.31731835  1
  H+  H98  1  0.38870109  0.10778578  0.32541091  1
  H+  H99  1  0.03862502  0.11954133  0.35931343  1
  H+  H100  1  0.87505611  0.64034342  0.15846018  1
  H+  H101  1  0.61455856  0.62856045  1.00595324  1
  H+  H102  1  0.12771092  0.65064673  0.00458117  1
  H+  H103  1  0.84605174  0.88575958  0.68464760  1
  H+  H104  1  0.97911778  0.11815502  0.15093994  1
  H+  H105  1  0.08759635  0.73392781  0.67852099  1
  H+  H106  1  0.84901314  0.49526308  0.31781582  1
  H+  H107  1  0.27852242  0.40559348  0.00594790  1
  H+  H108  1  0.87730044  0.02443298  0.99736203  1
  H+  H109  1  0.77131405  0.63435656  0.50702866  1
  H+  H110  1  0.38336641  0.25791274  0.65510008  1
  H+  H111  1  0.84672951  0.64122898  0.68699489  1
  H+  H112  1  0.12819229  0.63126428  0.54236112  1
  H+  H113  1  0.59121857  0.16452409  0.39311678  1
  H+  H114  1  0.51537983  0.13348341  0.67124700  1
  H+  H115  1  0.52071920  0.84585865  0.79529696  1
  H+  H116  1  0.64290109  0.05917398  0.25557040  1
  H+  H117  1  0.88672669  0.11806639  0.84289377  1
  H+  H118  1  0.90517815  0.07415631  0.30609593  1
  H+  H119  1  0.36412056  0.62269246  0.34601264  1
  H+  H120  1  0.59857319  0.71782739  0.51949929  1
  H+  H121  1  0.12550114  0.38356573  0.17932639  1
  H+  H122  1  0.11708368  0.14118915  0.15616497  1
  H+  H123  1  0.22840596  0.61063086  0.16163776  1
  H+  H124  1  0.35551539  0.36637333  0.66024229  1
  H+  H125  1  0.39167795  0.54150717  0.99708872  1
  H+  H126  1  0.63259600  0.86417939  0.51721852  1
  H+  H127  1  0.87971357  0.39326019  1.00173618  1
  H+  H128  1  0.53044756  0.14588089  0.16086550  1
  H+  H129  1  0.11049916  0.97644146  0.15925037  1
  H+  H130  1  0.88480824  0.49337245  0.00265594  1
  H+  H131  1  0.17145712  0.08867520  0.22519723  1
  H+  H132  1  0.63564972  0.03668286  0.65173425  1
  H+  H133  1  0.49349515  0.62331871  0.16966697  1
  H+  H134  1  0.60454714  0.63118620  0.51611299  1
  H+  H135  1  0.63752919  0.51770296  0.32359711  1
  H+  H136  1  0.35250258  0.11328177  0.49490953  1
  H+  H137  1  0.39046956  0.84915831  0.82043592  1
  H+  H138  1  0.22854019  0.86632005  0.14302273  1
  H+  H139  1  0.38155772  0.75883248  0.32493390  1
  H+  H140  1  0.53142485  0.38868595  0.16661168  1
  H+  H141  1  0.25007659  0.64649102  0.98552106  1
  H+  H142  1  0.62831261  0.51101238  0.66695953  1
  H+  H143  1  0.62859283  0.87795636  0.33868677  1
  H+  H144  1  0.13936092  0.62053471  0.83492852  1
  H+  H145  1  0.14337531  0.53112542  0.49310355  1
  H+  H146  1  0.41999826  0.80906997  0.73261821  1
  H+  H147  1  0.12689788  0.14204381  0.50244356  1
  H+  H148  1  0.14897022  1.02635465  0.31336757  1
  H+  H149  1  0.22023290  0.85891184  0.84022451  1
  H+  H150  1  0.62357655  0.23198236  0.16158224  1
  H+  H151  1  0.63167608  0.76394444  0.32683562  1
  H+  H152  1  0.72896589  0.11252758  0.51460825  1
  H+  H153  1  0.72353496  0.37106735  0.84077272  1
  H+  H154  1  -0.01704942  0.11270221  0.49502900  1
  H+  H155  1  0.75627929  0.63904706  0.83494377  1
  H+  H156  1  0.22157459  0.10776231  0.66627950  1
  H+  H157  1  0.34740751  0.60250390  0.64935749  1
  H+  H158  1  0.36064016  0.85771869  0.68782594  1
  H+  H159  1  0.75275763  0.16728368  0.84556211  1
  H+  H160  1  0.38150321  0.84930476  0.49298861  1
  H+  H161  1  0.16081734  0.32778888  0.24665716  1
  H+  H162  1  0.62486045  0.72381100  0.15787799  1
  H+  H163  1  0.36250227  0.72635010  0.15468071  1
  H+  H164  1  0.89466175  0.28562144  0.99243982  1
  H+  H165  1  0.85108433  0.18580640  0.60622323  1
  H+  H166  1  0.39001607  0.50698637  0.33752656  1
  H+  H167  1  0.37418458  0.48733830  0.20516861  1
  H+  H168  1  0.26799688  0.14143654  1.00532492  1
  H+  H169  1  0.27158254  0.85775528  0.68272031  1
  H+  H170  1  0.37422922  0.22381889  0.34494068  1
  H+  H171  1  0.13138050  0.03114699  0.99483266  1
  H+  H172  1  0.88516815  0.48866023  0.49307245  1
  H+  H173  1  0.36602860  0.13839556  0.15737537  1
  H+  H174  1  0.37521003  0.71626190  0.49801288  1
  H+  H175  1  0.97367029  0.16926952  0.29104526  1
  H+  H176  1  0.51839038  0.37623169  0.67624635  1
  H+  H177  1  0.38508576  0.12334043  0.99203358  1
  H+  H178  1  0.13120458  0.23447701  0.49862585  1
  H+  H179  1  0.63314377  0.02223970  1.00024233  1
  H+  H180  1  0.02977802  0.38513282  0.16787047  1
  H+  H181  1  0.85136023  0.47904311  0.68149445  1
  H+  H182  1  0.38055987  0.99874216  0.66908293  1
  H+  H183  1  0.21686303  0.92653674  0.67071874  1
  H+  H184  1  0.28461359  0.13627051  0.33815262  1
  H+  H185  1  0.64644739  0.36722653  0.17592125  1
  H+  H186  1  0.86387385  0.64137757  0.50589900  1
  H+  H187  1  0.77799949  0.15332849  0.65364141  1
  H+  H188  1  0.38401912  0.84876587  0.32152583  1
  H+  H189  1  0.05991192  0.65664894  0.34265669  1
  H+  H190  1  0.28033043  0.88755599  0.32503260  1
  H+  H191  1  0.25479287  0.89323333  0.00896467  1
  H+  H192  1  0.34496516  0.16604747  0.72965663  1
  H+  H193  1  0.92341276  0.35162040  0.25676574  1
  H+  H194  1  0.47158912  0.11817724  0.99555372  1
  H+  H195  1  0.62820379  0.76471423  0.99286648  1
  H+  H196  1  1.00194283  0.61781201  0.53005998  1
  H+  H197  1  0.87731802  0.13983664  0.50863411  1
  H+  H198  1  0.74679087  0.62121900  0.32383773  1
  H+  H199  1  0.24879125  0.37522317  0.49095339  1
  H+  H200  1  0.64300228  0.51074388  -0.00986631  1
  H+  H201  1  0.12523723  0.88311159  0.31061948  1
  H+  H202  1  0.11731950  0.48819276  0.83527073  1
  H+  H203  1  0.63180843  0.28597070  0.83784920  1
  H+  H204  1  0.78032297  0.39104973  0.15447749  1
  H+  H205  1  0.10572571  0.14077222  0.00168065  1
  H+  H206  1  0.59203851  0.70395883  0.66695953  1
  H+  H207  1  0.63088614  0.14779585  0.49199204  1
  H+  H208  1  0.90664117  0.38153039  0.51239463  1
  H+  H209  1  0.76494557  0.88209430  0.50700808  1
  H+  H210  1  0.89127155  0.27855320  0.16493719  1
  H+  H211  1  0.37791699  0.75263281  0.81295534  1
  H+  H212  1  0.08140742  0.66183424  0.75947761  1
  H+  H213  1  0.41158574  0.03292947  0.16221752  1
  H+  H214  1  0.05265643  0.41647062  0.68028744  1
  H+  H215  1  0.47535869  0.61849589  0.84092382  1
  H+  H216  1  0.52775577  0.38181204  0.49181604  1
  H+  H217  1  0.39962341  0.14963937  0.82190813  1
  H+  H218  1  0.89068335  0.11474220  0.66369814  1
  H+  H219  1  0.66582514  0.57704526  0.26029412  1
  H+  H220  1  0.87177655  0.39494593  0.33977954  1
  H+  H221  1  0.87866974  0.76907283  0.99175427  1
  H+  H222  1  0.85527822  0.73855196  0.83472279  1
  H+  H223  1  0.44012830  0.04313991  0.51350954  1
  H+  H224  1  0.63594811  0.83976344  0.83302863  1
  H+  H225  1  0.36007293  0.38150691  0.82249509  1
  H+  H226  1  0.58985509  0.41167415  0.10662708  1
  H+  H227  1  0.39106987  0.35300474  0.49965957  1
  H+  H228  1  0.76228779  0.85424127  0.34143585  1
  H+  H229  1  0.37772035  0.47096555  0.49026996  1
  H+  H230  1  0.14537681  0.52660557  0.31933481  1
  H+  H231  1  -0.01654592  0.85791121  0.16855784  1
  H+  H232  1  -0.04469605  0.86406732  0.67359796  1
  H+  H233  1  0.36900245  -0.02360563  0.33485753  1
  H+  H234  1  0.40986610  0.28793786  0.84250501  1
  H+  H235  1  0.34243553  0.98478887  0.00796160  1
  H+  H236  1  0.89737622  0.37051910  0.16094449  1
  H+  H237  1  0.52014546  0.88710388  0.66500222  1
  H+  H238  1  0.60066618  0.88304469  0.00052266  1
  H+  H239  1  0.38865492  0.26257654  0.50250679  1
  H+  H240  1  0.40313371  0.86167677  0.16815270  1
  H+  H241  1  0.86958595  0.40086978  0.67862107  1
  H+  H242  1  0.08226794  0.65999651  0.63784861  1
  H+  H243  1  0.71325597  0.85690409  0.68554798  1
  H+  H244  1  0.36710571  0.22737421  0.16225738  1
  H+  H245  1  -0.04223088  0.62055949  0.66632383  1
  H+  H246  1  0.45298764  0.94919187  0.09664574  1
  H+  H247  1  0.62262025  0.38888034  0.34102619  1
  H+  H248  1  0.11912857  0.23120537  0.16162822  1
  H+  H249  1  0.12730169  0.01551128  0.51376139  1
  H+  H250  1  0.99580243  0.87260248  0.51780848  1
  H+  H251  1  0.61212327  0.89758984  0.65631026  1
  H+  H252  1  0.86590650  0.88605195  0.15417372  1
  H+  H253  1  0.98695046  0.37746473  0.83965826  1
  H+  H254  1  0.78098189  0.63923890  0.16207575  1
  H+  H255  1  0.11552217  0.39962967  0.99700087  1
  H+  H256  1  0.35109893  0.45199378  0.64942511  1
  H+  H257  1  0.66449491  0.29430798  0.50565081  1
  H+  H258  1  0.61701473  0.97990831  0.49182867  1
  H+  H259  1  0.47725741  0.10766494  0.32404232  1
  H+  H260  1  0.87966332  0.02062849  0.67711346  1
  H+  H261  1  0.63880900  0.26894381  0.32536047  1
  H+  H262  1  0.70460763  0.10001860  0.31142004  1
  H+  H263  1  0.14145492  0.37121186  0.84370019  1
  H+  H264  1  0.11700592  0.63765127  0.15673832  1
  H+  H265  1  0.53082649  0.40100380  0.83117492  1
  H+  H266  1  0.41869544  0.77580501  0.01061675  1
  H+  H267  1  0.63241541  0.01602058  0.16505412  1
  H+  H268  1  0.88525484  0.84076276  0.32443397  1
  H+  H269  1  0.72913313  0.35605451  0.33298137  1
  H+  H270  1  0.36073015  0.63816480  0.14228257  1
  H+  H271  1  0.61265335  0.71373135  0.81813760  1
  H+  H272  1  0.00416832  0.11727506  0.67808120  1
  H+  H273  1  0.36091737  0.62906320  0.82849949  1
  H+  H274  1  0.23387362  0.61601752  0.50258839  1
  H+  H275  1  0.60647579  0.99901836  0.85001928  1
  H+  H276  1  0.25769952  0.81178365  0.45641495  1
  H+  H277  1  0.57618373  -0.01268560  0.87656172  1
  H+  H278  1  0.84518480  0.15541843  0.31414167  1
  H+  H279  1  0.62568440  0.16673563  0.83071645  1
  H+  H280  1  0.98676424  0.62038412  0.16637420  1
  H+  H281  1  0.90718130  0.83044974  0.93390002  1
  H+  H282  1  0.47962612  0.60552682  0.53352828  1
  H+  H283  1  0.87049191  0.85402014  0.52052044  1
  H+  H284  1  0.22655007  0.36295833  0.83819886  1
  H+  H285  1  0.08939211  0.88997762  0.68520978  1
  H+  H286  1  0.23700376  0.61261153  0.32364419  1
  H+  H287  1  0.63493935  0.36180248  0.66210691  1
  H+  H288  1  0.82928699  0.41584017  0.77217022  1
  H+  H289  1  0.82058913  0.67444605  0.77195399  1
  H+  H290  1  0.17139151  0.34332701  0.93423704  1
  H+  H291  1  0.07350925  0.91614882  0.06205936  1
  H+  H292  1  0.42929993  0.32589854  0.24150261  1
  H+  H293  1  0.33195559  0.15019342  0.43485546  1
  H+  H294  1  0.42527284  0.34354502  0.90307154  1
  H+  H295  1  0.17127811  0.86338204  0.61493076  1
  H+  H296  1  0.42484129  0.57675711  0.28167631  1
  H+  H297  1  0.88823886  0.58521403  0.61341898  1
  H+  H298  1  0.31882992  0.63044928  0.76336014  1
  H+  H299  1  0.18343138  0.60831514  0.93061102  1
  H+  H300  1  0.66725223  0.57289052  0.93248032  1
  H+  H301  1  0.81485896  0.88836418  0.44563454  1
  H+  H302  1  0.96737013  0.11543332  0.99837709  1
  H+  H303  1  0.04748024  0.89064651  0.45687075  1
  H+  H304  1  0.66060332  0.08764389  0.56662658  1
  H+  H305  1  0.41803642  0.31990646  0.59667758  1
  H+  H306  1  0.76879587  0.13704570  0.15618200  1
  H+  H307  1  0.90698034  0.08619891  0.90556949  1
  H+  H308  1  0.48306689  0.35906081  0.33376323  1
  H+  H309  1  0.91900076  0.82252370  0.22858240  1
  H+  H310  1  0.08107054  0.17280010  0.06155805  1
  H+  H311  1  0.11694165  0.85658333  0.52520250  1
  H+  H312  1  0.58796880  0.17247068  0.07012459  1
  H+  H313  1  0.18656540  0.84557084  0.24513289  1
  H+  H314  1  0.91315082  0.09162858  0.20470356  1
  H+  H315  1  0.35980879  0.93074769  0.08783853  1
  H+  H316  1  0.82443699  0.17023661  0.06428085  1
  H+  H317  1  0.20449065  0.38264674  0.54962336  1
  H+  H318  1  0.71259458  0.60593802  0.67130848  1
  H+  H319  1  0.36666700  0.62426746  0.50827878  1
  H+  H320  1  0.84932658  0.19804220  0.47304912  1
  H+  H321  1  0.08915919  0.66765002  0.09600578  1
  H+  H322  1  0.36741780  0.40821717  0.00759871  1
  H+  H323  1  0.41440933  0.82027695  0.23175642  1
  H+  H324  1  0.58037108  0.16952327  0.76775931  1
  H+  H325  1  0.35371850  0.42100390  0.42397545  1
  H+  H326  1  0.61913475  0.39636599  0.82809256  1
  H+  H327  1  0.59929796  0.91730668  0.40209136  1
  H+  H328  1  0.83389976  0.66062299  0.05854202  1
  H+  H329  1  0.22301097  0.09869800  0.50816859  1
  H+  H330  1  0.52708865  0.63412198  0.00850420  1
  H+  H331  1  0.08535071  0.42178543  0.39218583  1
  H+  H332  1  0.41672976  0.83631197  0.55578751  1
  H+  H333  1  0.28855001  0.38628916  0.34447214  1
  H+  H334  1  0.66216486  0.57465364  0.57327170  1
  H+  H335  1  0.45051431  0.66156216  0.21140508  1
  H+  H336  1  0.89555985  0.82902886  0.61422826  1
  H+  H337  1  0.84453941  0.42215520  0.40331409  1
  H+  H338  1  0.10776702  0.91752377  0.37097465  1
  H+  H339  1  0.94641483  0.37335312  0.61001456  1
  H+  H340  1  0.10478076  0.16917426  0.41079325  1
  H+  H341  1  0.59510707  0.42283180  0.40009481  1
  H+  H342  1  0.07094119  0.91925501  0.77832128  1
  H+  H343  1  0.91106271  0.29631597  0.52769680  1
  H+  H344  1  0.33171569  0.90870757  0.77554020  1
  H+  H345  1  0.42003221  0.08028924  0.22641282  1
  H+  H346  1  0.41644093  0.08184330  0.90112962  1
  H+  H347  1  0.82561279  0.91982729  0.74628315  1
  H+  H348  1  0.60272292  0.92019190  0.76363592  1
  H+  H349  1  0.38270849  0.74435433  0.67706323  1
  H+  H350  1  0.42568477  0.60436432  0.90430965  1
  H+  H351  1  0.98726170  0.37719583  0.99004977  1
  H+  H352  1  0.17828066  0.58500384  0.22613273  1
  H+  H353  1  0.35778993  0.70221737  0.05608006  1
  H+  H354  1  0.91516700  0.57923176  0.22117243  1
  H+  H355  1  0.11548749  0.69258197  0.43425111  1
  H+  H356  1  0.84916370  0.18534957  0.76649229  1
  H+  H357  1  0.57045120  0.64912250  0.76057761  1
  H+  H358  1  0.82103184  0.91016279  0.06047111  1
  H+  H359  1  0.46480413  0.22897124  0.78424441  1
  H+  H360  1  0.09537672  0.72057799  0.43133755  1
  H+  H361  1  0.16477220  0.07937359  0.60463878  1
  H+  H362  1  0.59405788  0.66314972  0.09777723  1
  H+  H363  1  0.33334061  0.65311258  0.40360787  1
  H+  H364  1  0.58271070  0.90722050  0.10228097  1
  H+  H365  1  0.68846665  0.12704612  0.90076952  1
  H+  H366  1  0.65610712  0.83697606  0.58028829  1
  H+  H367  1  0.86620387  0.97532412  0.14911940  1
  H+  H368  1  0.15270928  0.82876275  0.92997400  1
  H+  H369  1  0.65827236  0.81516572  0.89834816  1
  H+  H370  1  0.93503298  0.58497374  0.89560577  1
  H+  H371  1  0.80820404  0.17558391  0.37290159  1
  H+  H372  1  0.92413342  0.34282377  0.89754737  1
  H+  H373  1  0.57873240  0.41219464  0.73666529  1
  H+  H374  1  0.68058204  0.34600549  0.56806717  1
  H+  H375  1  0.32619945  0.39947535  0.76067721  1
  H+  H376  1  0.66746733  0.82895687  0.26724696  1
  H+  H377  1  0.31763482  0.89250529  0.41507217  1
  H+  H378  1  0.84250538  0.42268286  0.06277452  1
  H+  H379  1  0.14499514  0.77572814  0.15632694  1
  H+  H380  1  0.09612608  0.43219071  0.77486267  1
  H+  H381  1  0.14085090  0.30317578  0.62253122  1
  H+  H382  1  0.11518319  0.88902605  0.15407891  1
  H+  H383  1  0.22604337  0.61429985  0.83600688  1
  O2-  O384  1  0.08723672  0.17307115  0.14310744  1
  O2-  O385  1  0.09993051  0.17406374  0.48411379  1
  O2-  O386  1  0.08669996  0.16701090  0.82682086  1
  O2-  O387  1  0.09443478  0.41516811  0.16104117  1
  O2-  O388  1  0.09317205  0.42285958  0.46772740  1
  O2-  O389  1  0.08817868  0.42710990  0.81982397  1
  O2-  O390  1  0.08795634  0.66920245  0.14217539  1
  O2-  O391  1  0.09444013  0.65755458  0.56257447  1
  O2-  O392  1  0.08659131  0.66745271  0.80409368  1
  O2-  O393  1  0.07787010  0.91452504  0.14592470  1
  O2-  O394  1  0.05765865  0.90126815  0.50035817  1
  O2-  O395  1  0.07203003  0.91387627  0.82325088  1
  O2-  O396  1  0.33412370  0.16812827  0.14502017  1
  O2-  O397  1  0.32706687  0.14762785  0.48057022  1
  O2-  O398  1  0.40462314  0.19921167  0.79685891  1
  O2-  O399  1  0.34354460  0.42633839  0.21741104  1
  O2-  O400  1  0.34724826  0.41389308  0.47032899  1
  O2-  O401  1  0.32110368  0.39994965  0.80499384  1
  O2-  O402  1  0.32929135  0.66873208  0.13323918  1
  O2-  O403  1  0.34229306  0.65531950  0.48574532  1
  O2-  O404  1  0.32241248  0.64828817  0.80608501  1
  O2-  O405  1  0.40392112  0.94203423  0.12118226  1
  O2-  O406  1  0.30331816  0.87195231  0.46015998  1
  O2-  O407  1  0.33142227  0.90650034  0.82061499  1
  O2-  O408  1  0.59125421  0.17181493  0.14574659  1
  O2-  O409  1  0.61105055  0.18619867  0.47263061  1
  O2-  O410  1  0.57787577  0.17362631  0.81262406  1
  O2-  O411  1  0.59250921  0.41976831  0.15162775  1
  O2-  O412  1  0.58842210  0.41831431  0.47752694  1
  O2-  O413  1  0.58942487  0.42876090  0.81163212  1
  O2-  O414  1  0.59523496  0.66252677  0.14399342  1
  O2-  O415  1  0.56562416  0.65553890  0.51069761  1
  O2-  O416  1  0.57916861  0.65216299  0.80523964  1
  O2-  O417  1  0.58656143  0.90860103  0.14744210  1
  O2-  O418  1  0.59050340  0.92009571  0.47502352  1
  O2-  O419  1  0.58022654  0.86263957  0.78048230  1
  O2-  O420  1  0.82877622  0.17189027  0.13975596  1
  O2-  O421  1  0.84734162  0.17623539  0.51398526  1
  O2-  O422  1  0.84941716  0.18413078  0.81074467  1
  O2-  O423  1  0.83989519  0.42038064  0.13637776  1
  O2-  O424  1  0.85236332  0.42660598  0.48114181  1
  O2-  O425  1  0.83094127  0.41797118  0.81743450  1
  O2-  O426  1  0.84342376  0.67299371  0.14713184  1
  O2-  O427  1  0.83289738  0.67149208  0.49480040  1
  O2-  O428  1  0.82048295  0.67577661  0.81879920  1
  O2-  O429  1  0.83168761  0.91206020  0.14088718  1
  O2-  O430  1  0.82355763  0.90629798  0.48873967  1
  O2-  O431  1  0.83396156  0.91863308  0.82105828  1
  O2-  O432  1  0.16658830  0.08388374  0.18000269  1
  O2-  O433  1  0.16441067  0.07636219  0.52647942  1
  O2-  O434  1  0.17230797  0.08897949  0.86484709  1
  O2-  O435  1  0.16837586  0.33606758  0.20060703  1
  O2-  O436  1  0.18972726  0.35233120  0.51076124  1
  O2-  O437  1  0.16863211  0.33815450  0.85854392  1
  O2-  O438  1  0.16948756  0.57801602  0.18069776  1
  O2-  O439  1  0.17077185  0.59242850  0.50500726  1
  O2-  O440  1  0.16774919  0.59108100  0.85514433  1
  O2-  O441  1  0.17566442  0.83894091  0.16701621  1
  O2-  O442  1  0.15722977  0.83820634  0.54200812  1
  O2-  O443  1  0.15795493  0.82939319  0.85102424  1
  O2-  O444  1  0.42550961  0.08871389  0.18147988  1
  O2-  O445  1  0.38172051  0.02928367  0.52366590  1
  O2-  O446  1  0.41701922  0.07553867  0.85574374  1
  O2-  O447  1  0.42831845  0.33233662  0.19606220  1
  O2-  O448  1  0.42058021  0.32301662  0.51697677  1
  O2-  O449  1  0.42969228  0.34683688  0.85754150  1
  O2-  O450  1  0.43696910  0.60893181  0.18948912  1
  O2-  O451  1  0.41201094  0.56615848  0.54428457  1
  O2-  O452  1  0.42013043  0.60555012  0.85936130  1
  O2-  O453  1  0.42044962  0.82136303  0.18563287  1
  O2-  O454  1  0.42189797  0.83305532  0.51178461  1
  O2-  O455  1  0.41913411  0.81638431  0.80784686  1
  O2-  O456  1  0.66249866  0.07616391  0.18186512  1
  O2-  O457  1  0.66589075  0.08511828  0.52054252  1
  O2-  O458  1  0.70676694  0.17007093  0.86861268  1
  O2-  O459  1  0.68089009  0.33975166  0.18816735  1
  O2-  O460  1  0.68884628  0.35297527  0.52265716  1
  O2-  O461  1  0.66189462  0.34640012  0.85183653  1
  O2-  O462  1  0.68139067  0.58611963  0.18470264  1
  O2-  O463  1  0.66475678  0.58173920  0.52800201  1
  O2-  O464  1  0.66860661  0.58450757  0.85378858  1
  O2-  O465  1  0.66937403  0.82740363  0.19000389  1
  O2-  O466  1  0.66049152  0.83374381  0.53597947  1
  O2-  O467  1  0.66803699  0.81475951  0.85336717  1
  O2-  O468  1  0.91562345  0.08522053  0.16040616  1
  O2-  O469  1  0.91987912  0.08775436  0.49354406  1
  O2-  O470  1  0.90881008  0.08180362  0.86042582  1
  O2-  O471  1  0.92592358  0.33983165  0.17876347  1
  O2-  O472  1  0.94279774  0.35947657  0.53173549  1
  O2-  O473  1  0.92442487  0.34283347  0.85229016  1
  O2-  O474  1  0.92314721  0.59006557  0.17677842  1
  O2-  O475  1  0.94503699  0.59743544  0.50769922  1
  O2-  O476  1  0.93363008  0.58525428  0.85090223  1
  O2-  O477  1  0.92001927  0.82163885  0.18252270  1
  O2-  O478  1  0.90148287  0.82585867  0.53869454  1
  O2-  O479  1  0.90928099  0.83022326  0.85677157  1
  O2-  O480  1  0.18154391  0.08894359  0.30455833  1
  O2-  O481  1  0.16094123  0.07965023  0.65014113  1
  O2-  O482  1  0.16306635  0.09234325  0.98219500  1
  O2-  O483  1  0.16133595  0.32734681  0.31872082  1
  O2-  O484  1  0.15555470  0.31188366  0.66560657  1
  O2-  O485  1  0.16876891  0.34564013  0.97995341  1
  O2-  O486  1  0.17958241  0.58598345  0.30240155  1
  O2-  O487  1  0.23744430  0.60109166  0.64961984  1
  O2-  O488  1  0.18811574  0.61192839  0.97622630  1
  O2-  O489  1  0.18000494  0.84009630  0.29026387  1
  O2-  O490  1  0.17220616  0.86798258  0.66061506  1
  O2-  O491  1  0.15194343  0.82953448  0.97549935  1
  O2-  O492  1  0.41695516  0.07611135  0.30844443  1
  O2-  O493  1  0.40106596  0.05702294  0.65122562  1
  O2-  O494  1  0.41344568  0.09043072  0.97762373  1
  O2-  O495  1  0.42266987  0.32497513  0.31950562  1
  O2-  O496  1  0.41460399  0.31934780  0.64209442  1
  O2-  O497  1  0.42166450  0.33885008  0.98122096  1
  O2-  O498  1  0.42077871  0.57460021  0.32606387  1
  O2-  O499  1  0.40463731  0.55891776  0.61176292  1
  O2-  O500  1  0.43208945  0.60237362  0.98284797  1
  O2-  O501  1  0.41023080  0.81616727  0.30496723  1
  O2-  O502  1  0.41504910  0.80694672  0.68677145  1
  O2-  O503  1  0.49652794  0.89079889  1.02457533  1
  O2-  O504  1  0.64346784  0.05831538  0.30177495  1
  O2-  O505  1  0.66781504  0.09889341  0.63973838  1
  O2-  O506  1  0.66642522  0.08729931  0.98928211  1
  O2-  O507  1  0.67138241  0.33104226  0.31349370  1
  O2-  O508  1  0.66464931  0.33178637  0.64475145  1
  O2-  O509  1  0.63470684  0.35253938  1.01422703  1
  O2-  O510  1  0.66750065  0.57891266  0.30631265  1
  O2-  O511  1  0.65564734  0.57160985  0.65107711  1
  O2-  O512  1  0.67095704  0.57193992  0.97780513  1
  O2-  O513  1  0.66725557  0.82842145  0.31314158  1
  O2-  O514  1  0.64959140  0.82342352  0.67590901  1
  O2-  O515  1  0.65207556  0.82397769  0.97572018  1
  O2-  O516  1  0.91398846  0.12482549  0.28362820  1
  O2-  O517  1  0.91919133  0.07986922  0.66049411  1
  O2-  O518  1  0.90519724  0.08635136  0.98539747  1
  O2-  O519  1  0.92240740  0.35067032  0.30227308  1
  O2-  O520  1  0.94242401  0.36803630  0.65531723  1
  O2-  O521  1  0.92260906  0.34561128  0.97781872  1
  O2-  O522  1  0.84585287  0.53677637  0.28735030  1
  O2-  O523  1  0.89380615  0.58723755  0.65763981  1
  O2-  O524  1  0.92782264  0.58023700  0.98208218  1
  O2-  O525  1  0.91671238  0.81457701  0.30388990  1
  O2-  O526  1  0.89398509  0.83044851  0.65993590  1
  O2-  O527  1  0.90541460  0.83052241  0.97948735  1
  O2-  O528  1  0.07378145  0.17003342  0.01675694  1
  O2-  O529  1  0.09878246  0.16304961  0.36471660  1
  O2-  O530  1  0.07127556  0.14594754  0.69162872  1
  O2-  O531  1  0.08233218  0.42901718  0.00792162  1
  O2-  O532  1  0.08711903  0.42060176  0.34646779  1
  O2-  O533  1  0.11191571  0.43855565  0.69622051  1
  O2-  O534  1  0.08940131  0.67189174  0.02156196  1
  O2-  O535  1  0.09128377  0.67081911  0.30436359  1
  O2-  O536  1  0.06281952  0.67148965  0.67801072  1
  O2-  O537  1  0.07356035  0.91725030  0.01705898  1
  O2-  O538  1  0.09244476  0.91157724  0.32799084  1
  O2-  O539  1  0.05904341  0.92033503  0.69878688  1
  O2-  O540  1  0.33004199  0.17133981  0.01840542  1
  O2-  O541  1  0.34219074  0.16133325  0.35779937  1
  O2-  O542  1  0.32642457  0.15227634  0.68617247  1
  O2-  O543  1  0.33887729  0.44024600  0.02043466  1
  O2-  O544  1  0.35132063  0.41641381  0.34866739  1
  O2-  O545  1  0.32266523  0.39619356  0.67105634  1
  O2-  O546  1  0.37377614  0.71357566  0.01247252  1
  O2-  O547  1  0.33286172  0.65365814  0.35841622  1
  O2-  O548  1  0.32197586  0.62831783  0.67693813  1
  O2-  O549  1  0.30562615  0.93375507  0.03340181  1
  O2-  O550  1  0.33601544  0.91396584  0.34777177  1
  O2-  O551  1  0.33207464  0.89321278  0.69482650  1
  O2-  O552  1  0.58885234  0.17087319  0.02417037  1
  O2-  O553  1  0.58341239  0.16149974  0.34826387  1
  O2-  O554  1  0.57586365  0.16658610  0.68528401  1
  O2-  O555  1  0.59635258  0.39675209  0.02565833  1
  O2-  O556  1  0.59585789  0.42334149  0.35430596  1
  O2-  O557  1  0.57906316  0.40808796  0.69081305  1
  O2-  O558  1  0.58916414  0.66184182  0.02329514  1
  O2-  O559  1  0.58971700  0.67468713  0.35145357  1
  O2-  O560  1  0.55710197  0.64144466  0.67453796  1
  O2-  O561  1  0.59020544  0.92670922  0.02187355  1
  O2-  O562  1  0.60012293  0.91270019  0.35571844  1
  O2-  O563  1  0.58108737  0.92997858  0.65640416  1
  O2-  O564  1  0.82124812  0.16609378  0.01843906  1
  O2-  O565  1  0.80915263  0.17972318  0.32869812  1
  O2-  O566  1  0.84237905  0.18335423  0.65041336  1
  O2-  O567  1  0.85054234  0.42759749  0.01683969  1
  O2-  O568  1  0.83537959  0.41694557  0.35809064  1
  O2-  O569  1  0.82705023  0.41751746  0.69256493  1
  O2-  O570  1  0.83635891  0.65892359  0.01396035  1
  O2-  O571  1  0.81677212  0.65109069  0.33911632  1
  O2-  O572  1  0.81485959  0.66990889  0.70231553  1
  O2-  O573  1  0.82051363  0.91377530  0.01534664  1
  O2-  O574  1  0.82078323  0.87328150  0.36041211  1
  O2-  O575  1  0.81815358  0.91819113  0.70064135  1
