# generated using pymatgen
data_H2O
_symmetry_space_group_name_H-M   'P 1'
_cell_length_a   17.93390681
_cell_length_b   17.92857506
_cell_length_c   21.95927293
_cell_angle_alpha   90.04976537
_cell_angle_beta   89.87123614
_cell_angle_gamma   119.97633442
_symmetry_Int_Tables_number   1
_chemical_formula_structural   H2O
_chemical_formula_sum   'H384 O192'
_cell_volume   6116.05908243
_cell_formula_units_Z   192
loop_
 _symmetry_equiv_pos_site_id
 _symmetry_equiv_pos_as_xyz
  1  'x, y, z'
loop_
 _atom_type_symbol
 _atom_type_oxidation_number
  H+  1.0
  O2-  -2.0
loop_
 _atom_site_type_symbol
 _atom_site_label
 _atom_site_symmetry_multiplicity
 _atom_site_fract_x
 _atom_site_fract_y
 _atom_site_fract_z
 _atom_site_occupancy
  H+  H0  1  0.27073627  0.57706324  0.82545729  1
  H+  H1  1  0.77271246  0.13265798  0.67086612  1
  H+  H2  1  0.38987064  0.50759037  0.31701948  1
  H+  H3  1  0.11004773  0.87953293  0.82570460  1
  H+  H4  1  0.40416130  0.51282435  0.51097230  1
  H+  H5  1  0.38894616  0.27926266  0.99853295  1
  H+  H6  1  0.11610601  0.96523519  0.66757115  1
  H+  H7  1  0.12677525  0.35448604  0.99923432  1
  H+  H8  1  0.62941640  0.85742685  0.67676938  1
  H+  H9  1  0.64378862  0.11823994  0.85056618  1
  H+  H10  1  0.35251378  0.10235536  0.67667135  1
  H+  H11  1  0.60419462  0.47661682  0.33550983  1
  H+  H12  1  0.08183520  0.72888993  0.15412230  1
  H+  H13  1  0.89420835  0.86762319  0.99226158  1
  H+  H14  1  0.87243645  0.21914441  0.29384424  1
  H+  H15  1  0.98619726  0.86995647  0.99317723  1
  H+  H16  1  0.24955843  0.38622801  0.84148609  1
  H+  H17  1  0.77434851  0.48944273  0.42826636  1
  H+  H18  1  0.44198601  0.83163495  0.25560974  1
  H+  H19  1  0.61385474  0.49337388  0.15356425  1
  H+  H20  1  0.50417189  0.65081921  0.86411780  1
  H+  H21  1  0.88836731  0.34798614  0.31591790  1
  H+  H22  1  0.38054326  0.81624561  0.16802395  1
  H+  H23  1  0.64366015  0.27989631  0.49318395  1
  H+  H24  1  0.27561369  0.12935238  0.83627523  1
  H+  H25  1  -0.09369964  0.34852006  0.08738393  1
  H+  H26  1  0.13300316  0.52670519  0.98504868  1
  H+  H27  1  0.76211822  0.12814836  0.51509394  1
  H+  H28  1  0.84685815  0.13945015  0.09209436  1
  H+  H29  1  0.49636297  0.62122792  0.67003564  1
  H+  H30  1  0.12995762  0.36333379  0.50321632  1
  H+  H31  1  0.13214438  0.50352988  0.84145296  1
  H+  H32  1  0.36075880  0.73095865  1.00375728  1
  H+  H33  1  0.99018411  0.87322221  0.83835651  1
  H+  H34  1  0.09359654  0.66244485  0.53491671  1
  H+  H35  1  0.15049044  0.11409038  0.84495005  1
  H+  H36  1  0.03351825  0.12654186  0.16257164  1
  H+  H37  1  0.72588352  0.62569413  1.00923835  1
  H+  H38  1  0.64905427  0.64592622  1.00471868  1
  H+  H39  1  0.48688577  0.11283357  0.67124036  1
  H+  H40  1  0.38171896  0.60050346  0.16145011  1
  H+  H41  1  0.60244617  0.62772380  0.68893348  1
  H+  H42  1  0.09205291  0.16154328  0.10150685  1
  H+  H43  1  0.13563399  0.85937002  0.18276530  1
  H+  H44  1  1.02188968  0.87755612  0.16131855  1
  H+  H45  1  0.70695426  0.35705848  0.84103869  1
  H+  H46  1  0.67114581  0.82886892  0.91101781  1
  H+  H47  1  0.61194780  0.22936200  0.83686293  1
  H+  H48  1  0.17306252  0.62092271  0.47957696  1
  H+  H49  1  0.11118009  0.47375212  0.18108189  1
  H+  H50  1  0.37643413  0.61300479  1.00584519  1
  H+  H51  1  0.09123987  0.32844554  0.09483804  1
  H+  H52  1  0.12683015  0.26737087  0.84430576  1
  H+  H53  1  0.25486501  0.24841903  0.61457892  1
  H+  H54  1  0.13378905  0.79951035  0.52751267  1
  H+  H55  1  0.59518093  0.38399117  0.82879379  1
  H+  H56  1  0.87524677  0.54648112  0.49816535  1
  H+  H57  1  0.85236461  0.65255960  0.49530324  1
  H+  H58  1  0.17018398  0.71955191  0.22662920  1
  H+  H59  1  0.89711554  0.54971488  0.92491249  1
  H+  H60  1  0.65959495  0.31222057  1.00282469  1
  H+  H61  1  -0.03450030  0.11000066  0.87342312  1
  H+  H62  1  0.26532800  0.35963025  0.63443844  1
  H+  H63  1  0.02609640  0.52156662  0.77248449  1
  H+  H64  1  0.78890091  0.44552264  0.99245437  1
  H+  H65  1  0.71957209  0.37817139  0.49501711  1
  H+  H66  1  0.85588982  0.63522692  0.67394591  1
  H+  H67  1  0.85903962  0.49964148  0.82907216  1
  H+  H68  1  0.71833609  0.60750185  0.83699921  1
  H+  H69  1  1.02509178  0.13407695  0.33456797  1
  H+  H70  1  0.54474084  0.88839845  0.33679611  1
  H+  H71  1  0.74192149  0.87147845  0.32844750  1
  H+  H72  1  0.36896650  0.93291662  0.16402695  1
  H+  H73  1  0.40869675  0.14671366  0.30342144  1
  H+  H74  1  0.12138708  0.48152465  0.33564692  1
  H+  H75  1  0.89114868  0.87396113  0.84475563  1
  H+  H76  1  0.14705771  0.23224670  0.17553404  1
  H+  H77  1  0.60399732  0.72195444  0.68474287  1
  H+  H78  1  0.61603681  0.98711332  0.15379196  1
  H+  H79  1  0.85492329  0.70693537  0.33648681  1
  H+  H80  1  0.87866077  0.89130102  0.34431749  1
  H+  H81  1  0.13896043  0.85762581  0.99996074  1
  H+  H82  1  0.10582427  0.21906873  0.01419676  1
  H+  H83  1  0.64956520  1.03405784  -0.00009984  1
  H+  H84  1  0.29419689  0.19769321  0.48547419  1
  H+  H85  1  0.27562073  0.61949573  0.67358742  1
  H+  H86  1  0.14259457  0.11528003  0.32896957  1
  H+  H87  1  0.49820340  0.78891843  0.26612885  1
  H+  H88  1  0.63405922  0.23605969  0.31129439  1
  H+  H89  1  0.72418652  0.61948997  0.17096614  1
  H+  H90  1  0.39734743  0.24539000  0.65563446  1
  H+  H91  1  0.87852592  1.01367845  0.66649258  1
  H+  H92  1  0.38488458  0.27699694  0.32042180  1
  H+  H93  1  0.36153020  0.38280848  0.33882207  1
  H+  H94  1  0.12798403  0.92108451  0.53458802  1
  H+  H95  1  0.61904451  0.65649705  0.14847056  1
  H+  H96  1  0.93647060  0.68351597  0.12635740  1
  H+  H97  1  0.85528147  0.12410296  0.83167151  1
  H+  H98  1  0.11343381  -0.03520031  0.16541283  1
  H+  H99  1  0.26413410  0.38136821  0.00516593  1
  H+  H100  1  0.61235624  0.62688163  0.49773084  1
  H+  H101  1  1.00914732  0.12290186  0.49305121  1
  H+  H102  1  0.15101660  0.77736925  0.67148924  1
  H+  H103  1  0.87283175  0.25367009  0.82223056  1
  H+  H104  1  0.08565556  0.91095991  0.06851624  1
  H+  H105  1  0.87204454  0.72580420  -0.00758620  1
  H+  H106  1  0.64599345  0.17337827  0.01977868  1
  H+  H107  1  0.73036974  0.36291351  0.64792620  1
  H+  H108  1  0.48021932  0.88978705  0.17040793  1
  H+  H109  1  0.71302504  0.61336736  0.32410098  1
  H+  H110  1  0.14271093  0.61084328  0.65036999  1
  H+  H111  1  0.65674777  0.88019751  0.33184588  1
  H+  H112  1  0.70863273  0.60563371  0.67772906  1
  H+  H113  1  0.24752479  0.61738666  0.33508663  1
  H+  H114  1  0.60867514  0.88128921  0.50156763  1
  H+  H115  1  0.39639594  0.12125253  0.84729362  1
  H+  H116  1  0.11649763  0.13682036  0.49135448  1
  H+  H117  1  0.26173688  0.85705988  0.49895660  1
  H+  H118  1  0.35851151  0.46474355  0.15178917  1
  H+  H119  1  0.62457772  0.15769313  0.16995559  1
  H+  H120  1  -0.14744862  0.30466286  -0.02719708  1
  H+  H121  1  0.34235920  0.83992570  0.49202862  1
  H+  H122  1  0.83514116  0.44034008  0.17926087  1
  H+  H123  1  0.86802691  0.76118626  0.66221585  1
  H+  H124  1  0.24375562  0.70131701  0.15495949  1
  H+  H125  1  1.00218121  0.37256523  0.81702311  1
  H+  H126  1  0.33290075  0.38822781  0.53846449  1
  H+  H127  1  0.24856437  0.60603893  0.49719393  1
  H+  H128  1  0.63781124  0.37929865  0.29785275  1
  H+  H129  1  0.89221001  0.10294284  0.30512668  1
  H+  H130  1  0.61394811  0.89695903  0.16079190  1
  H+  H131  1  0.89468952  0.08056987  0.92463863  1
  H+  H132  1  0.50138574  0.14771764  1.00163242  1
  H+  H133  1  0.52451575  0.39809408  0.15490307  1
  H+  H134  1  0.51612650  0.40387357  1.00659158  1
  H+  H135  1  0.64156677  0.11731099  0.31460559  1
  H+  H136  1  0.51826665  0.38616934  0.33293254  1
  H+  H137  1  0.47438115  0.85212734  0.50955973  1
  H+  H138  1  0.23600244  0.84044836  1.01587560  1
  H+  H139  1  0.92740617  0.33488059  0.25346743  1
  H+  H140  1  0.95561494  0.85011531  0.65813938  1
  H+  H141  1  0.11545457  0.47787371  0.48360910  1
  H+  H142  1  0.64474817  0.77454333  0.84972682  1
  H+  H143  1  0.34871512  0.85473342  1.01723928  1
  H+  H144  1  0.84999334  0.96832198  0.01589744  1
  H+  H145  1  0.88697720  0.52811442  0.65498488  1
  H+  H146  1  0.34425184  0.40150153  0.83472451  1
  H+  H147  1  0.52717195  0.68457185  0.36269446  1
  H+  H148  1  0.36654231  0.98550529  0.83515351  1
  H+  H149  1  0.71661635  0.85433423  0.67454104  1
  H+  H150  1  0.17727861  0.67354637  0.38020469  1
  H+  H151  1  0.23031058  0.08438177  0.17639400  1
  H+  H152  1  0.85271613  0.21469324  0.51550970  1
  H+  H153  1  0.37918910  0.62157997  0.49319325  1
  H+  H154  1  0.83088960  0.66601334  0.73527818  1
  H+  H155  1  0.48971835  0.60692030  0.50966613  1
  H+  H156  1  0.09161044  0.92794030  0.77236217  1
  H+  H157  1  0.07834945  0.64357237  0.72095119  1
  H+  H158  1  0.22157194  0.61813318  0.98989341  1
  H+  H159  1  0.37926849  0.97061978  0.35322739  1
  H+  H160  1  0.86352079  0.63011449  0.82799305  1
  H+  H161  1  0.64139519  0.39094645  0.99793043  1
  H+  H162  1  0.17723775  0.61630653  0.28995939  1
  H+  H163  1  0.22970094  0.11483934  1.00315060  1
  H+  H164  1  0.37730891  0.15051936  0.00903646  1
  H+  H165  1  0.81523489  0.43288235  0.41268884  1
  H+  H166  1  0.13961772  0.36388043  0.31824352  1
  H+  H167  1  0.72451591  0.84720661  1.00729042  1
  H+  H168  1  -0.04893172  0.11716387  0.01783622  1
  H+  H169  1  -0.00591071  0.84305775  0.32151429  1
  H+  H170  1  0.39320455  0.87561119  0.85225681  1
  H+  H171  1  0.60387529  0.00400353  0.51298665  1
  H+  H172  1  0.60032125  0.37425454  0.48588376  1
  H+  H173  1  0.82776655  0.33876690  0.80117197  1
  H+  H174  1  0.62225182  0.74619949  0.34098353  1
  H+  H175  1  0.61928207  0.89120482  0.83986995  1
  H+  H176  1  0.11217038  0.22626473  0.34042001  1
  H+  H177  1  0.14972698  0.31981769  0.94122493  1
  H+  H178  1  0.24706274  0.86149182  0.67526551  1
  H+  H179  1  0.85171762  0.87919420  0.68273898  1
  H+  H180  1  0.09945977  0.62759436  1.00338018  1
  H+  H181  1  0.16157162  0.79387574  0.34653962  1
  H+  H182  1  0.46818716  0.30731874  0.49149965  1
  H+  H183  1  0.11502427  0.46771340  0.66804714  1
  H+  H184  1  1.01387362  0.12165291  0.68487818  1
  H+  H185  1  0.21386418  0.35530984  0.50494308  1
  H+  H186  1  0.26414079  0.16991835  0.63961749  1
  H+  H187  1  0.52312566  0.88228331  0.68527043  1
  H+  H188  1  0.09720629  0.58681518  0.81520828  1
  H+  H189  1  0.50936448  0.17899189  0.20302411  1
  H+  H190  1  0.61580028  0.38186629  0.67194002  1
  H+  H191  1  0.76753645  0.35238276  0.21066616  1
  H+  H192  1  0.62917125  0.77168033  0.51800564  1
  H+  H193  1  0.37713825  0.62167895  0.33114566  1
  H+  H194  1  0.25382866  0.06417610  0.69382860  1
  H+  H195  1  0.83873169  0.15318977  0.23912344  1
  H+  H196  1  0.15905104  0.91079262  0.68785289  1
  H+  H197  1  0.39173037  0.75891656  0.66784945  1
  H+  H198  1  0.62671839  0.52139965  0.83433403  1
  H+  H199  1  0.76650061  0.12429127  0.82925240  1
  H+  H200  1  0.46112288  0.36604596  0.83994824  1
  H+  H201  1  0.60583702  0.88357969  0.00902390  1
  H+  H202  1  0.39034479  0.71578108  0.33037516  1
  H+  H203  1  0.39088486  0.60589473  0.66050355  1
  H+  H204  1  0.87278348  0.35131784  0.17540105  1
  H+  H205  1  0.39463033  0.75690330  0.51094667  1
  H+  H206  1  0.87424781  0.77962884  0.50316993  1
  H+  H207  1  0.61684404  -0.02097301  0.84062152  1
  H+  H208  1  0.87054689  -0.01387473  0.49790860  1
  H+  H209  1  0.50197227  0.12244311  0.50186373  1
  H+  H210  1  0.05883892  0.31356496  0.12015684  1
  H+  H211  1  0.02529345  0.63831817  0.66276971  1
  H+  H212  1  0.17106251  0.83959195  0.24447120  1
  H+  H213  1  0.28003972  0.14201638  0.33877104  1
  H+  H214  1  0.73050266  0.11407017  0.16207602  1
  H+  H215  1  0.70848398  0.59798383  0.50320792  1
  H+  H216  1  0.37712222  0.87910916  0.68141150  1
  H+  H217  1  0.62119955  0.14649955  0.47313826  1
  H+  H218  1  0.77754262  0.88043225  0.84437925  1
  H+  H219  1  0.87105397  0.88817064  0.49751030  1
  H+  H220  1  0.62008828  0.51558338  0.67753673  1
  H+  H221  1  0.04567295  0.39394939  -0.05017934  1
  H+  H222  1  0.10803014  0.34697119  0.84492009  1
  H+  H223  1  0.87909602  0.10365084  0.52066085  1
  H+  H224  1  0.83199187  0.61039725  0.34344505  1
  H+  H225  1  0.88067596  0.98091490  0.33579275  1
  H+  H226  1  0.94481536  0.58242674  0.17986685  1
  H+  H227  1  0.89437154  0.76841849  0.16251232  1
  H+  H228  1  0.87479609  0.21263530  0.14640813  1
  H+  H229  1  0.10171141  0.69079932  0.46551047  1
  H+  H230  1  0.11984788  -0.02425081  1.01149864  1
  H+  H231  1  0.35713430  0.35940211  0.63606372  1
  H+  H232  1  0.37746596  0.52399755  -0.00317308  1
  H+  H233  1  0.47848933  0.86837186  0.85412034  1
  H+  H234  1  0.61335885  0.63379268  0.83748303  1
  H+  H235  1  0.55581722  0.05165414  0.53800748  1
  H+  H236  1  0.77525935  0.88616588  0.16285071  1
  H+  H237  1  0.53955978  0.15683201  0.31704647  1
  H+  H238  1  0.52879572  0.65102299  0.14537451  1
  H+  H239  1  0.85820444  0.57930548  0.17384294  1
  H+  H240  1  0.84953286  0.49242869  0.32852221  1
  H+  H241  1  0.43801929  0.08024913  0.60824071  1
  H+  H242  1  0.40024435  0.62377931  0.85514400  1
  H+  H243  1  0.07366464  0.40483454  0.76347037  1
  H+  H244  1  0.37410314  0.13156829  0.17530401  1
  H+  H245  1  0.10678603  0.13005701  0.01344477  1
  H+  H246  1  0.10250031  0.97387750  0.34436692  1
  H+  H247  1  0.02371691  0.38065958  0.66844822  1
  H+  H248  1  0.84034699  0.37640884  0.94566208  1
  H+  H249  1  1.03233511  0.39091281  0.32711899  1
  H+  H250  1  0.85717652  0.62883070  -0.00945907  1
  H+  H251  1  0.96509194  0.63333283  0.50987998  1
  H+  H252  1  0.32814806  0.15328067  0.77386746  1
  H+  H253  1  0.26955377  0.90206157  0.16617193  1
  H+  H254  1  0.95779769  0.56831329  0.82778488  1
  H+  H255  1  0.22710277  0.36125620  0.32750119  1
  H+  H256  1  0.14833947  0.79405383  0.86580282  1
  H+  H257  1  0.63866378  0.78707321  0.17290385  1
  H+  H258  1  0.24423440  0.33890749  0.17517250  1
  H+  H259  1  0.41999407  0.28135345  0.58860456  1
  H+  H260  1  0.41043879  0.03951912  0.50708080  1
  H+  H261  1  0.48410939  0.11780622  0.84591645  1
  H+  H262  1  0.86450549  0.97256932  0.84694249  1
  H+  H263  1  0.14860567  0.09965843  0.17352889  1
  H+  H264  1  0.63367198  0.02014227  0.67081411  1
  H+  H265  1  0.06859330  0.15580384  0.42706544  1
  H+  H266  1  0.40496988  0.28131174  0.17086928  1
  H+  H267  1  0.13712461  0.01866861  0.85018842  1
  H+  H268  1  0.08541077  0.48177922  0.15748402  1
  H+  H269  1  0.88630564  0.26872651  0.65844621  1
  H+  H270  1  0.62375051  -0.01559415  0.33958106  1
  H+  H271  1  0.12220009  0.75975316  0.99556192  1
  H+  H272  1  0.72839146  0.11197038  0.30405353  1
  H+  H273  1  0.89825705  0.01290710  0.16690969  1
  H+  H274  1  0.22654315  0.86717127  0.82875107  1
  H+  H275  1  0.88849675  0.35814240  0.50361319  1
  H+  H276  1  0.17857506  0.58305035  0.59344295  1
  H+  H277  1  0.86855204  0.38827784  0.65866440  1
  H+  H278  1  0.97947065  0.36343010  0.49903778  1
  H+  H279  1  0.37500078  0.27651730  0.84241694  1
  H+  H280  1  0.86763723  0.72101621  0.83296309  1
  H+  H281  1  0.58640179  0.91550371  0.43894026  1
  H+  H282  1  0.13084559  0.34519734  0.66106142  1
  H+  H283  1  0.00603013  0.61835114  0.00052407  1
  H+  H284  1  0.19742682  0.22859361  0.79354804  1
  H+  H285  1  0.62058484  0.13925014  0.68083137  1
  H+  H286  1  0.82413228  0.40615218  0.71473007  1
  H+  H287  1  0.90127334  0.10395438  0.16607851  1
  H+  H288  1  0.87947467  0.55436961  0.27335191  1
  H+  H289  1  0.27791685  0.76686645  0.09862571  1
  H+  H290  1  0.92086013  0.81468915  0.22742717  1
  H+  H291  1  0.16897051  0.57587286  0.89467394  1
  H+  H292  1  0.62682790  0.61812635  0.32367278  1
  H+  H293  1  0.62008452  0.22873865  0.67473942  1
  H+  H294  1  0.91444253  0.23590114  0.40910784  1
  H+  H295  1  0.81800853  0.67239011  0.43382958  1
  H+  H296  1  0.59235700  0.17264096  0.77546157  1
  H+  H297  1  0.87782253  0.31879314  0.87410918  1
  H+  H298  1  0.15225360  1.05730941  0.51542210  1
  H+  H299  1  0.38076569  0.97088135  0.67872606  1
  H+  H300  1  -0.09953056  0.41437865  0.04154475  1
  H+  H301  1  0.48388928  0.58786785  0.30561160  1
  H+  H302  1  0.34856632  0.19133676  0.39174458  1
  H+  H303  1  0.90897923  0.59271340  0.59940335  1
  H+  H304  1  0.66069243  0.34665171  0.90563256  1
  H+  H305  1  0.10555591  0.17063039  0.76375288  1
  H+  H306  1  0.35045261  0.35084131  0.47956811  1
  H+  H307  1  0.66144388  0.59177110  0.22845666  1
  H+  H308  1  0.16903121  0.08221678  0.94470394  1
  H+  H309  1  0.61882334  0.50841742  0.49916927  1
  H+  H310  1  0.67930954  0.09228896  0.90998977  1
  H+  H311  1  0.05317069  0.66543968  0.09565568  1
  H+  H312  1  0.41110119  0.33505889  0.93632717  1
  H+  H313  1  0.97521546  0.37464723  0.16692791  1
  H+  H314  1  0.57735662  0.43510565  0.08340023  1
  H+  H315  1  0.31209990  0.89435703  0.07736919  1
  H+  H316  1  1.03967673  0.91839935  0.52190798  1
  H+  H317  1  0.88282597  0.10483719  0.66061005  1
  H+  H318  1  0.22487002  0.75903125  0.42479185  1
  H+  H319  1  0.18517358  0.85262201  0.58531275  1
  H+  H320  1  0.10322484  0.20767229  0.67571595  1
  H+  H321  1  0.78383544  0.31541569  0.37584087  1
  H+  H322  1  0.52258588  0.36913588  0.66657589  1
  H+  H323  1  0.74825577  0.10726233  0.99980624  1
  H+  H324  1  0.41965308  0.81692768  0.60753317  1
  H+  H325  1  0.32600517  0.91982437  0.41153725  1
  H+  H326  1  0.65196141  0.82933851  0.57737890  1
  H+  H327  1  0.89810049  0.83244274  0.56637202  1
  H+  H328  1  0.56844937  0.40786529  0.76577051  1
  H+  H329  1  0.41593319  0.84655336  0.93970662  1
  H+  H330  1  0.66879171  0.08481063  0.22139084  1
  H+  H331  1  0.14737474  0.31336958  0.59754225  1
  H+  H332  1  0.33666911  0.15922251  0.06985621  1
  H+  H333  1  0.84929696  0.92835905  0.43219374  1
  H+  H334  1  0.32457119  0.40419305  0.09256983  1
  H+  H335  1  0.56794995  0.40097089  0.42590583  1
  H+  H336  1  0.64314676  0.24835151  0.19229147  1
  H+  H337  1  0.91656914  0.07093245  0.57308489  1
  H+  H338  1  0.61029795  0.72923908  0.05475495  1
  H+  H339  1  0.11410092  0.89319760  0.35107116  1
  H+  H340  1  0.41627144  0.34129159  0.26286379  1
  H+  H341  1  0.65059872  0.07225861  0.60845919  1
  H+  H342  1  0.60522104  0.50180000  0.01389916  1
  H+  H343  1  0.91944150  0.32708976  0.59802995  1
  H+  H344  1  0.57435012  0.66473995  0.78275117  1
  H+  H345  1  0.31565397  0.52069179  0.80923354  1
  H+  H346  1  0.73798710  0.29922065  0.76755102  1
  H+  H347  1  0.43187710  0.57986542  0.60102205  1
  H+  H348  1  0.93050742  0.84476372  0.90588148  1
  H+  H349  1  0.17182572  0.07868858  0.27249741  1
  H+  H350  1  0.47322669  0.87305354  1.00238568  1
  H+  H351  1  0.41648811  0.57235017  0.21821508  1
  H+  H352  1  0.18096535  0.30926535  0.23998463  1
  H+  H353  1  0.66300552  0.32875356  0.59375688  1
  H+  H354  1  0.19678432  0.14585264  0.55377632  1
  H+  H355  1  0.32343541  0.04665923  0.13807940  1
  H+  H356  1  0.83116230  0.15777363  0.73005633  1
  H+  H357  1  0.35645007  0.38558925  0.00339060  1
  H+  H358  1  0.58172832  0.91952652  0.06709234  1
  H+  H359  1  0.59717071  0.18121385  0.41282470  1
  H+  H360  1  0.85960146  0.67068090  0.08394538  1
  H+  H361  1  0.01670371  0.39937485  0.01583581  1
  H+  H362  1  0.34574224  0.92400166  0.77641655  1
  H+  H363  1  0.43364781  0.61744383  0.92900263  1
  H+  H364  1  0.38867645  0.36099591  0.16270911  1
  H+  H365  1  0.93179059  0.06871988  0.25744522  1
  H+  H366  1  0.58190082  0.91743618  0.74586752  1
  H+  H367  1  0.59097123  0.67122926  0.44161112  1
  H+  H368  1  0.35687116  0.65628308  0.43167331  1
  H+  H369  1  0.61651017  0.20662424  0.07710047  1
  H+  H370  1  0.32930298  0.62497024  0.73391565  1
  H+  H371  1  0.43984371  0.10694089  0.94411374  1
  H+  H372  1  0.83071843  0.91365803  0.74410873  1
  H+  H373  1  0.10892620  0.63230212  0.19763319  1
  H+  H374  1  0.94460918  0.21840776  0.40954333  1
  H+  H375  1  0.33510847  0.41838101  0.39760746  1
  H+  H376  1  0.97318098  0.75694338  0.28767498  1
  H+  H377  1  0.31466615  0.68123471  0.06321560  1
  H+  H378  1  0.83352186  0.90505547  0.07054333  1
  H+  H379  1  0.76039936  0.34857338  0.31266936  1
  H+  H380  1  0.08201432  0.41653970  0.42505873  1
  H+  H381  1  0.85987306  0.87494996  0.16310735  1
  H+  H382  1  0.23644264  0.88988802  0.33875379  1
  H+  H383  1  0.67304636  0.84511071  0.23391052  1
  O2-  O384  1  0.09567564  0.15759683  0.14803345  1
  O2-  O385  1  0.06812127  0.15224087  0.47341158  1
  O2-  O386  1  0.13778097  0.18965163  0.80563456  1
  O2-  O387  1  -0.07917154  0.37272544  0.04603342  1
  O2-  O388  1  0.07839127  0.41701841  0.47045243  1
  O2-  O389  1  0.06596599  0.40422065  0.80891050  1
  O2-  O390  1  0.03812782  0.67178520  0.13865365  1
  O2-  O391  1  0.07336217  0.68931831  0.50559440  1
  O2-  O392  1  0.04633697  0.57851122  0.79025399  1
  O2-  O393  1  0.08376329  0.90446440  0.14851788  1
  O2-  O394  1  0.09778798  0.95483864  0.53824373  1
  O2-  O395  1  0.07887498  0.91341918  0.81654810  1
  O2-  O396  1  0.32527716  0.10193140  0.14556266  1
  O2-  O397  1  0.34785524  0.24497124  0.46670979  1
  O2-  O398  1  0.33438802  0.16464970  0.81828758  1
  O2-  O399  1  0.32971245  0.40310365  0.13896176  1
  O2-  O400  1  0.33833220  0.39660438  0.49276775  1
  O2-  O401  1  0.30596788  0.42329186  0.82165353  1
  O2-  O402  1  0.29280536  0.73295836  0.12648521  1
  O2-  O403  1  0.35074499  0.65357965  0.47679357  1
  O2-  O404  1  0.32392070  0.58072341  0.80792390  1
  O2-  O405  1  0.32370335  0.93956079  0.14285589  1
  O2-  O406  1  0.29763321  0.84634390  0.46904873  1
  O2-  O407  1  0.33532252  0.92405839  0.82100863  1
  O2-  O408  1  0.60374977  0.19973473  0.16611642  1
  O2-  O409  1  0.59747174  0.18252546  0.45857528  1
  O2-  O410  1  0.59187522  0.17007767  0.82097169  1
  O2-  O411  1  0.58287911  0.43371789  0.13494923  1
  O2-  O412  1  0.56061483  0.39442462  0.47117508  1
  O2-  O413  1  0.56573516  0.41347211  0.81097219  1
  O2-  O414  1  0.59053392  0.68933404  0.13608196  1
  O2-  O415  1  0.58622420  0.66469640  0.48616419  1
  O2-  O416  1  0.58462631  0.66994670  0.82736775  1
  O2-  O417  1  0.58156857  0.92401922  0.14361015  1
  O2-  O418  1  0.57740224  0.91089326  0.48373641  1
  O2-  O419  1  0.58682008  0.91874058  0.82453906  1
  O2-  O420  1  0.84392211  0.14950355  0.14100530  1
  O2-  O421  1  0.82328764  0.15192474  0.52294105  1
  O2-  O422  1  0.82549304  0.14990504  0.80969329  1
  O2-  O423  1  0.80928885  0.37689852  0.17546830  1
  O2-  O424  1  0.80337517  0.46166094  0.44737894  1
  O2-  O425  1  0.78343587  0.35350778  0.78444881  1
  O2-  O426  1  0.87763369  0.67528743  0.12792920  1
  O2-  O427  1  0.81933127  0.67966267  0.47901017  1
  O2-  O428  1  0.83591147  0.66346233  0.81458416  1
  O2-  O429  1  0.83506389  0.90982538  0.14640092  1
  O2-  O430  1  0.84450967  0.92542686  0.47810137  1
  O2-  O431  1  0.84003703  0.91326764  0.82964795  1
  O2-  O432  1  0.17129954  0.06530505  0.19326612  1
  O2-  O433  1  0.17897376  0.12174438  0.51009263  1
  O2-  O434  1  0.17137425  0.07838453  0.86605165  1
  O2-  O435  1  0.19506552  0.29124961  0.19943296  1
  O2-  O436  1  0.15565687  0.33123799  0.52201477  1
  O2-  O437  1  0.13899637  0.32118281  0.86619243  1
  O2-  O438  1  0.16532125  0.66361804  0.21758104  1
  O2-  O439  1  0.18600940  0.58571442  0.50685055  1
  O2-  O440  1  0.17040404  0.56640326  0.84986595  1
  O2-  O441  1  0.16786324  0.83070800  0.19905546  1
  O2-  O442  1  0.17912032  0.85791804  0.54021910  1
  O2-  O443  1  0.16189825  0.83051279  0.82990042  1
  O2-  O444  1  0.45927538  0.18094041  0.22261861  1
  O2-  O445  1  0.46236333  0.07601978  0.53038486  1
  O2-  O446  1  0.42462558  0.08930780  0.86307923  1
  O2-  O447  1  0.42702948  0.34142537  0.18223420  1
  O2-  O448  1  0.41614584  0.25389594  0.50881365  1
  O2-  O449  1  0.40201060  0.33637147  0.85830964  1
  O2-  O450  1  0.41616939  0.57426070  0.17257742  1
  O2-  O451  1  0.42835881  0.57260205  0.52611301  1
  O2-  O452  1  0.45106796  0.64799652  0.88489487  1
  O2-  O453  1  0.42275509  0.86849553  0.19079501  1
  O2-  O454  1  0.41472580  0.81608066  0.52673644  1
  O2-  O455  1  0.41964931  0.84408639  0.87140614  1
  O2-  O456  1  0.66984921  0.09043750  0.17594824  1
  O2-  O457  1  0.61416414  0.06035591  0.53139909  1
  O2-  O458  1  0.67331924  0.08649987  0.86433732  1
  O2-  O459  1  0.69884574  0.31900372  0.26840630  1
  O2-  O460  1  0.66418918  0.33644577  0.51426104  1
  O2-  O461  1  0.65034662  0.33483759  0.86095290  1
  O2-  O462  1  0.66341830  0.59182443  0.18241748  1
  O2-  O463  1  0.64769051  0.56723063  0.51650853  1
  O2-  O464  1  0.65825911  0.58100442  0.85114953  1
  O2-  O465  1  0.67060669  0.84757172  0.18864970  1
  O2-  O466  1  0.65183329  0.83156980  0.53232981  1
  O2-  O467  1  0.67755693  0.83499845  0.86589320  1
  O2-  O468  1  0.93246708  0.07411943  0.18191317  1
  O2-  O469  1  0.91417318  0.07402409  0.52686774  1
  O2-  O470  1  0.90350663  0.07547183  0.87981999  1
  O2-  O471  1  0.91666719  0.32714761  0.17360630  1
  O2-  O472  1  0.92020664  0.33066788  0.51805894  1
  O2-  O473  1  0.89593959  0.31701307  0.83051593  1
  O2-  O474  1  0.88479474  0.54936978  0.19437321  1
  O2-  O475  1  0.90292870  0.60089069  0.52172038  1
  O2-  O476  1  0.90124737  0.55500484  0.84651120  1
  O2-  O477  1  0.91560816  0.82519347  0.18333145  1
  O2-  O478  1  0.90553021  0.83987168  0.52126777  1
  O2-  O479  1  0.92734012  0.84378616  0.85800509  1
  O2-  O480  1  0.17321458  0.08378175  0.31783402  1
  O2-  O481  1  0.22729312  0.18524272  0.61563069  1
  O2-  O482  1  0.16781752  0.08191680  0.99027431  1
  O2-  O483  1  0.16862283  0.32953544  0.30850437  1
  O2-  O484  1  0.15453499  0.31071410  0.64285239  1
  O2-  O485  1  0.15640033  0.32273682  0.98679635  1
  O2-  O486  1  0.18518838  0.59961970  0.33142735  1
  O2-  O487  1  0.17394612  0.57995684  0.63836293  1
  O2-  O488  1  0.16142049  0.58881392  0.97334264  1
  O2-  O489  1  0.17733379  0.84647605  0.32285310  1
  O2-  O490  1  0.18593565  0.83979162  0.66145367  1
  O2-  O491  1  0.16535269  0.82187117  0.98726909  1
  O2-  O492  1  0.44307503  0.12789132  0.27837888  1
  O2-  O493  1  0.42818200  0.07722177  0.65293023  1
  O2-  O494  1  0.44056890  0.11500896  0.98892168  1
  O2-  O495  1  0.41314527  0.33965451  0.30805425  1
  O2-  O496  1  0.42330999  0.29883677  0.63204662  1
  O2-  O497  1  0.41569633  0.33940241  0.98210138  1
  O2-  O498  1  0.42296521  0.56527624  0.29562187  1
  O2-  O499  1  0.43083869  0.58384624  0.64711816  1
  O2-  O500  1  0.41012877  0.58715896  0.98907672  1
  O2-  O501  1  0.46290916  0.80701128  0.28869786  1
  O2-  O502  1  0.42107590  0.81928519  0.65304845  1
  O2-  O503  1  0.41213249  0.84184378  0.98720975  1
  O2-  O504  1  0.66458617  0.07936308  0.30030787  1
  O2-  O505  1  0.66353567  0.07966201  0.65288957  1
  O2-  O506  1  0.68880739  0.09469659  0.98757897  1
  O2-  O507  1  0.67216493  0.38453299  0.26098568  1
  O2-  O508  1  0.66738771  0.32893975  0.63909046  1
  O2-  O509  1  0.67956428  0.36955921  0.98299813  1
  O2-  O510  1  0.65369391  0.58689789  0.30566582  1
  O2-  O511  1  0.64578116  0.57887680  0.67242174  1
  O2-  O512  1  0.66346763  0.60156987  1.01637996  1
  O2-  O513  1  0.68118803  0.84471497  0.31432139  1
  O2-  O514  1  0.65542184  0.82287792  0.66105022  1
  O2-  O515  1  0.66301925  0.82174532  0.99250950  1
  O2-  O516  1  0.92652178  0.07281867  0.30303698  1
  O2-  O517  1  0.91190842  0.07201416  0.64765266  1
  O2-  O518  1  0.89029435  0.08300678  1.00400381  1
  O2-  O519  1  0.92808073  0.32910945  0.29863012  1
  O2-  O520  1  0.91816132  0.32974499  0.64330094  1
  O2-  O521  1  0.83146181  0.31879000  0.93591243  1
  O2-  O522  1  0.87495988  0.55337794  0.31854000  1
  O2-  O523  1  0.91555243  0.59081918  0.64447510  1
  O2-  O524  1  0.89571712  0.55665676  0.97050952  1
  O2-  O525  1  0.94619770  0.79111097  0.29787706  1
  O2-  O526  1  0.89543512  0.82280092  0.64583347  1
  O2-  O527  1  0.92742446  0.84170803  0.97364514  1
  O2-  O528  1  0.07609794  0.15896891  0.03096729  1
  O2-  O529  1  0.08271346  0.16534409  0.35509724  1
  O2-  O530  1  0.07413238  0.15321039  0.69967069  1
  O2-  O531  1  0.06916546  0.41456695  -0.00963342  1
  O2-  O532  1  0.09153409  0.41879056  0.34500569  1
  O2-  O533  1  0.08325429  0.40906348  0.68594748  1
  O2-  O534  1  0.06455388  0.65404191  0.01804539  1
  O2-  O535  1  0.16868943  0.71330651  0.40757707  1
  O2-  O536  1  0.08585841  0.66216200  0.67773459  1
  O2-  O537  1  0.08757099  0.91280669  0.02290222  1
  O2-  O538  1  0.07177148  0.91276894  0.35782031  1
  O2-  O539  1  0.14722477  0.95796897  0.70132912  1
  O2-  O540  1  0.33904195  0.17287376  0.02601556  1
  O2-  O541  1  0.34319488  0.17853054  0.34760641  1
  O2-  O542  1  0.30953512  0.11892907  0.69124995  1
  O2-  O543  1  0.32498745  0.41440430  0.02013282  1
  O2-  O544  1  0.33200453  0.41580936  0.35293499  1
  O2-  O545  1  0.31999196  0.37450170  0.61262175  1
  O2-  O546  1  0.32453585  0.67119744  0.02026886  1
  O2-  O547  1  0.35627072  0.65829909  0.35031103  1
  O2-  O548  1  0.33500119  0.64408020  0.69056116  1
  O2-  O549  1  0.29530823  0.85110016  0.04242403  1
  O2-  O550  1  0.32648285  0.95441188  0.37566750  1
  O2-  O551  1  0.34927448  0.91190373  0.69682062  1
  O2-  O552  1  0.61935892  0.20796332  0.03207618  1
  O2-  O553  1  0.59843737  0.18037156  0.33469409  1
  O2-  O554  1  0.59243601  0.17198351  0.69644206  1
  O2-  O555  1  0.57615068  0.43728654  0.02432075  1
  O2-  O556  1  0.57905290  0.41544480  0.34793124  1
  O2-  O557  1  0.57860894  0.40439316  0.68758865  1
  O2-  O558  1  0.61912286  0.73016131  0.00988974  1
  O2-  O559  1  0.58137073  0.68527937  0.35576207  1
  O2-  O560  1  0.56869387  0.66010685  0.69929320  1
  O2-  O561  1  0.57968691  0.91848117  0.02139246  1
  O2-  O562  1  0.60046224  0.92535268  0.35756121  1
  O2-  O563  1  0.58359797  0.91711296  0.70018671  1
  O2-  O564  1  0.84951511  0.13355313  0.02679046  1
  O2-  O565  1  0.83852607  0.15594344  0.28383813  1
  O2-  O566  1  0.83406371  0.16307126  0.68475950  1
  O2-  O567  1  0.85303763  0.46803467  -0.00565380  1
  O2-  O568  1  0.81005492  0.36615354  0.34941618  1
  O2-  O569  1  0.83770188  0.41989546  0.67077476  1
  O2-  O570  1  0.83850802  0.66700738  0.00979786  1
  O2-  O571  1  0.81135980  0.65172279  0.35544625  1
  O2-  O572  1  0.82581599  0.66560563  0.69001195  1
  O2-  O573  1  0.83171209  0.90709353  0.02466170  1
  O2-  O574  1  0.84933771  0.92229003  0.35701267  1
  O2-  O575  1  0.82459203  0.91184811  0.69926401  1
