# generated using pymatgen
data_H2O
_symmetry_space_group_name_H-M   'P 1'
_cell_length_a   17.98241568
_cell_length_b   17.97411089
_cell_length_c   21.97561243
_cell_angle_alpha   89.96401653
_cell_angle_beta   90.02725937
_cell_angle_gamma   120.03064972
_symmetry_Int_Tables_number   1
_chemical_formula_structural   H2O
_chemical_formula_sum   'H384 O192'
_cell_volume   6149.40025562
_cell_formula_units_Z   192
loop_
 _symmetry_equiv_pos_site_id
 _symmetry_equiv_pos_as_xyz
  1  'x, y, z'
loop_
 _atom_type_symbol
 _atom_type_oxidation_number
  H+  1.0
  O2-  -2.0
loop_
 _atom_site_type_symbol
 _atom_site_label
 _atom_site_symmetry_multiplicity
 _atom_site_fract_x
 _atom_site_fract_y
 _atom_site_fract_z
 _atom_site_occupancy
  H+  H0  1  0.98508269  0.61067484  1.00040958  1
  H+  H1  1  0.37690699  0.61389217  1.00050521  1
  H+  H2  1  0.13518503  0.88284848  0.99674046  1
  H+  H3  1  0.38697970  0.86831897  -0.01267187  1
  H+  H4  1  0.64408067  0.26716279  0.52322203  1
  H+  H5  1  0.89027606  0.02210558  0.33448843  1
  H+  H6  1  0.88896694  0.36180259  0.50849718  1
  H+  H7  1  0.88408787  0.40820066  0.67694119  1
  H+  H8  1  0.52501543  0.38276076  0.33353002  1
  H+  H9  1  0.74839635  0.64470835  0.68539633  1
  H+  H10  1  0.34432878  0.49137582  1.01668954  1
  H+  H11  1  0.59624472  0.13603068  0.00021343  1
  H+  H12  1  -0.01957841  0.87159543  0.83740153  1
  H+  H13  1  1.04975020  0.64339267  0.66961030  1
  H+  H14  1  0.23131064  0.62131980  0.17090354  1
  H+  H15  1  0.02436029  0.63062528  0.16295806  1
  H+  H16  1  0.16940451  0.18244313  0.71231162  1
  H+  H17  1  0.60608160  0.64566186  0.01023566  1
  H+  H18  1  0.98900957  0.37068215  0.84840684  1
  H+  H19  1  0.11129153  0.70091766  0.00328927  1
  H+  H20  1  0.78415712  0.63932266  0.33786949  1
  H+  H21  1  0.43132528  0.36406948  0.17410010  1
  H+  H22  1  0.35268762  0.97881955  0.00714140  1
  H+  H23  1  0.36859910  0.65530853  0.16074640  1
  H+  H24  1  0.62921923  0.11910697  0.67124577  1
  H+  H25  1  0.62643641  0.51344501  0.68004216  1
  H+  H26  1  0.23021296  0.00431916  0.25867770  1
  H+  H27  1  0.11853937  0.48166186  0.15345934  1
  H+  H28  1  0.31184621  0.90002743  0.42809882  1
  H+  H29  1  0.61766482  0.68483520  0.45052956  1
  H+  H30  1  0.39876952  0.61028379  0.36404840  1
  H+  H31  1  0.38817567  0.11730639  0.15969727  1
  H+  H32  1  0.45778877  0.84704618  0.33604933  1
  H+  H33  1  0.04174049  0.18871815  0.73920884  1
  H+  H34  1  0.77288165  0.37982825  0.49789077  1
  H+  H35  1  0.40779281  0.87327947  0.17711373  1
  H+  H36  1  0.86393474  0.67943836  0.00360606  1
  H+  H37  1  0.64839644  0.87691530  0.97760623  1
  H+  H38  1  0.85632941  0.07599680  0.63000820  1
  H+  H39  1  0.41476976  0.83556440  0.92760856  1
  H+  H40  1  0.89471834  0.53039743  0.84781544  1
  H+  H41  1  0.28850696  0.62831262  0.50218223  1
  H+  H42  1  0.11273369  0.28089638  0.65967854  1
  H+  H43  1  0.27266879  0.64072799  0.82433415  1
  H+  H44  1  0.03322050  0.88177029  0.66865030  1
  H+  H45  1  0.08877310  0.43042479  0.44086671  1
  H+  H46  1  0.09829750  0.67071626  0.73271769  1
  H+  H47  1  0.62472524  0.77149016  -0.01074080  1
  H+  H48  1  0.57937482  0.95254404  0.07767787  1
  H+  H49  1  0.62997117  0.76399869  0.65959804  1
  H+  H50  1  0.07447460  0.91351073  0.39597490  1
  H+  H51  1  0.63488698  0.48874593  0.17671489  1
  H+  H52  1  0.36900458  0.73035051  0.67229842  1
  H+  H53  1  0.88139599  0.34899453  0.00240638  1
  H+  H54  1  0.48784982  0.32021758  0.47681798  1
  H+  H55  1  0.13714507  0.01554591  0.49801770  1
  H+  H56  1  0.98099963  0.09521936  0.98817989  1
  H+  H57  1  0.52314234  0.12523818  0.49649504  1
  H+  H58  1  0.38497404  0.77365376  0.83475757  1
  H+  H59  1  0.13230800  0.37541546  0.17763743  1
  H+  H60  1  0.40132505  1.01354133  0.66453916  1
  H+  H61  1  0.12536186  0.48540282  0.82921457  1
  H+  H62  1  0.14130778  0.37665224  0.33365335  1
  H+  H63  1  0.87737541  0.11259814  0.83308514  1
  H+  H64  1  0.87128165  0.23758692  0.16197340  1
  H+  H65  1  0.86973245  0.73187497  0.32728167  1
  H+  H66  1  0.79988165  0.15508885  0.69053650  1
  H+  H67  1  0.13549157  -0.04894295  0.28327602  1
  H+  H68  1  0.39748580  0.27278430  0.32424825  1
  H+  H69  1  0.01881272  0.14451381  0.34055422  1
  H+  H70  1  0.53068842  0.65628693  0.48144684  1
  H+  H71  1  0.64655198  0.36671588  0.82478844  1
  H+  H72  1  1.02051499  0.14701095  0.83258829  1
  H+  H73  1  0.47371450  0.35646046  0.82655706  1
  H+  H74  1  0.87332293  0.87067453  0.65614581  1
  H+  H75  1  0.16598369  0.92079561  -0.02204462  1
  H+  H76  1  0.87702852  0.13715298  0.48764931  1
  H+  H77  1  0.11594451  0.72755528  0.82562186  1
  H+  H78  1  0.61986592  0.71793403  0.82569739  1
  H+  H79  1  0.13833942  0.61162578  0.16909494  1
  H+  H80  1  0.36357965  0.64275659  0.81781379  1
  H+  H81  1  0.75466425  0.39808680  0.33718605  1
  H+  H82  1  0.13457077  0.13262789  0.33225127  1
  H+  H83  1  0.59238761  0.15576545  0.44290930  1
  H+  H84  1  0.11859736  0.94437792  0.18287628  1
  H+  H85  1  0.62718114  0.36909258  0.15521671  1
  H+  H86  1  0.13759610  0.37610661  0.83498306  1
  H+  H87  1  0.15605012  0.11136251  0.15312792  1
  H+  H88  1  0.89084197  0.36683486  0.32682256  1
  H+  H89  1  0.37457264  0.21294932  0.67530225  1
  H+  H90  1  0.64873366  0.38977120  0.33066226  1
  H+  H91  1  0.35741394  0.38547440  0.83116942  1
  H+  H92  1  0.14673457  0.07453928  1.00411536  1
  H+  H93  1  0.86390357  0.77179052  0.65364865  1
  H+  H94  1  0.49795226  0.87812211  0.14942274  1
  H+  H95  1  0.49258669  0.36683200  0.98916670  1
  H+  H96  1  0.96121673  0.73493158  0.45372779  1
  H+  H97  1  0.71305855  0.44989269  0.62926230  1
  H+  H98  1  0.88119160  0.90750344  0.13662323  1
  H+  H99  1  0.90548200  0.62398225  0.33133261  1
  H+  H100  1  0.60089793  0.46682532  0.79080539  1
  H+  H101  1  0.03437739  0.94463160  0.01771754  1
  H+  H102  1  0.09571307  -0.00822729  0.35292459  1
  H+  H103  1  0.91733067  1.09849332  0.77486417  1
  H+  H104  1  0.23781689  0.83341395  -0.01450355  1
  H+  H105  1  0.90598705  0.53734429  0.66456357  1
  H+  H106  1  0.10190193  0.24609780  0.15265585  1
  H+  H107  1  0.47437356  0.35429478  0.68375725  1
  H+  H108  1  0.88884437  0.83896735  0.99491720  1
  H+  H109  1  0.61095316  0.88019533  0.67504782  1
  H+  H110  1  0.58634745  0.90926188  0.76922451  1
  H+  H111  1  0.34114632  0.08931848  0.31322190  1
  H+  H112  1  0.27144151  0.14818814  0.34502523  1
  H+  H113  1  0.51460965  0.66372501  0.16948467  1
  H+  H114  1  0.85736884  0.97104524  0.81317175  1
  H+  H115  1  0.23477893  0.40778542  0.02019602  1
  H+  H116  1  0.86169185  -0.03152737  0.66308040  1
  H+  H117  1  0.87047383  0.88432799  0.34417855  1
  H+  H118  1  0.79292809  0.90682170  0.12710658  1
  H+  H119  1  0.60063032  0.62630081  0.66901955  1
  H+  H120  1  0.27042364  0.10344794  0.48751531  1
  H+  H121  1  0.39998588  0.77667831  0.15789019  1
  H+  H122  1  0.38271659  0.53303586  0.83453355  1
  H+  H123  1  0.56133739  0.90921009  0.40695222  1
  H+  H124  1  0.61347790  0.62624440  0.82724019  1
  H+  H125  1  0.69148816  0.08469972  0.60916948  1
  H+  H126  1  0.13399334  0.76385538  0.51025247  1
  H+  H127  1  0.74112830  0.61875614  0.85153642  1
  H+  H128  1  0.63568637  0.34851158  0.51677437  1
  H+  H129  1  0.64909877  0.77495161  0.35254688  1
  H+  H130  1  0.29368538  0.16354747  0.15239933  1
  H+  H131  1  0.66580554  0.55426274  0.61548904  1
  H+  H132  1  0.58537245  0.66194045  0.73129469  1
  H+  H133  1  0.62180597  0.86668529  0.51131488  1
  H+  H134  1  0.38817567  0.08987646  0.50693474  1
  H+  H135  1  0.34979816  0.91681192  0.23352628  1
  H+  H136  1  0.82656340  0.69569237  0.06304389  1
  H+  H137  1  0.61251124  0.14042952  0.14880615  1
  H+  H138  1  0.39287284  0.24600787  0.15925151  1
  H+  H139  1  0.40906877  0.10656491  0.66394562  1
  H+  H140  1  0.62185308  0.91503959  0.12498506  1
  H+  H141  1  0.01447834  0.15646960  0.15360972  1
  H+  H142  1  0.37471405  0.11851700  0.99784151  1
  H+  H143  1  0.11440067  0.48361684  0.34255072  1
  H+  H144  1  0.57800505  0.14801498  0.82402859  1
  H+  H145  1  0.61933085  0.96213775  0.83204099  1
  H+  H146  1  0.93093865  0.58491159  0.24497553  1
  H+  H147  1  0.87666628  0.48986580  0.34770071  1
  H+  H148  1  0.88746255  0.58120425  0.57086136  1
  H+  H149  1  0.75143181  0.35156942  0.18624360  1
  H+  H150  1  0.14095124  0.61371282  0.84380554  1
  H+  H151  1  0.47670935  0.11718617  0.16569398  1
  H+  H152  1  0.38576909  0.77542609  0.50645731  1
  H+  H153  1  0.21654794  0.85528275  0.50446637  1
  H+  H154  1  0.12522235  0.63980127  0.33810730  1
  H+  H155  1  0.72054540  0.85281909  0.65875622  1
  H+  H156  1  0.85074588  0.47355689  0.49874223  1
  H+  H157  1  0.81274738  0.59816988  0.11985559  1
  H+  H158  1  0.44211341  0.10457264  0.85028164  1
  H+  H159  1  0.87252658  0.73797104  0.83880159  1
  H+  H160  1  0.38429762  0.26994543  0.83497164  1
  H+  H161  1  0.26337971  0.37890387  0.67503984  1
  H+  H162  1  0.37769152  0.85893932  0.50586816  1
  H+  H163  1  0.17345168  0.78150119  0.33884284  1
  H+  H164  1  0.17467303  0.81797461  0.23638020  1
  H+  H165  1  0.47674652  0.85999170  0.83765538  1
  H+  H166  1  0.53121840  0.36185786  0.16392401  1
  H+  H167  1  0.47310304  0.61712725  0.82825751  1
  H+  H168  1  0.46057579  0.60497412  0.00021660  1
  H+  H169  1  0.61264926  -0.01882982  0.50386928  1
  H+  H170  1  -0.01399898  0.36976770  0.16843687  1
  H+  H171  1  0.78750266  0.88742539  0.36574496  1
  H+  H172  1  0.07295995  0.60778384  0.50325102  1
  H+  H173  1  0.11340141  0.89233921  0.82959813  1
  H+  H174  1  0.12691292  0.14289450  0.49065430  1
  H+  H175  1  0.10394481  0.87518501  0.49395057  1
  H+  H176  1  0.37943037  0.54592756  0.18836339  1
  H+  H177  1  0.63735268  0.85244915  0.83599657  1
  H+  H178  1  0.34678389  0.41326058  0.16682465  1
  H+  H179  1  0.79122023  0.39986672  0.82861056  1
  H+  H180  1  0.39871651  0.54749534  0.45630876  1
  H+  H181  1  0.99532152  0.62300742  0.33590937  1
  H+  H182  1  0.46847011  0.61094672  0.68385234  1
  H+  H183  1  0.25580910  0.40683748  0.17373443  1
  H+  H184  1  0.51795163  0.89460038  0.50437457  1
  H+  H185  1  0.89731789  0.61854218  0.19080377  1
  H+  H186  1  0.91250114  0.07632794  0.27136123  1
  H+  H187  1  0.37254235  0.42836715  0.49391804  1
  H+  H188  1  0.36325813  0.37838096  0.33752639  1
  H+  H189  1  0.33777848  0.68056800  0.09712929  1
  H+  H190  1  0.98628799  0.14429561  0.67810266  1
  H+  H191  1  0.35546473  0.96207452  0.48602425  1
  H+  H192  1  0.52928369  0.11588580  0.67148603  1
  H+  H193  1  0.54564958  0.63711699  0.36691571  1
  H+  H194  1  0.75408631  0.61848678  0.16006429  1
  H+  H195  1  0.40550847  0.63802792  0.46076563  1
  H+  H196  1  -0.01869388  0.86340302  0.16258983  1
  H+  H197  1  0.83690872  0.42369404  0.40538780  1
  H+  H198  1  0.34552887  0.30450742  0.44832748  1
  H+  H199  1  0.77660815  0.39172299  0.00684503  1
  H+  H200  1  0.99088908  0.10599990  0.50102376  1
  H+  H201  1  0.40426997  0.61206385  0.24441386  1
  H+  H202  1  0.36056533  0.73107855  1.00338961  1
  H+  H203  1  0.64087659  1.03902010  0.15863405  1
  H+  H204  1  0.38776902  0.85838669  0.66333999  1
  H+  H205  1  0.74636440  0.11776079  0.51290663  1
  H+  H206  1  0.64254792  0.52152702  0.33708811  1
  H+  H207  1  0.13355410  0.59038173  -0.00497483  1
  H+  H208  1  0.16978137  0.83017696  0.60239983  1
  H+  H209  1  0.29233157  0.11923748  0.66822611  1
  H+  H210  1  0.92879242  0.34256934  0.23022383  1
  H+  H211  1  0.65350941  0.01994162  0.66674807  1
  H+  H212  1  0.61728611  0.38814961  0.69974645  1
  H+  H213  1  0.71913292  0.62800346  1.00058109  1
  H+  H214  1  0.87705581  0.61873825  0.50631747  1
  H+  H215  1  0.86724898  0.13903798  0.33647793  1
  H+  H216  1  0.13276603  0.36496045  0.50619712  1
  H+  H217  1  0.12952749  0.13865978  0.71545241  1
  H+  H218  1  0.12438741  0.09408188  0.17899752  1
  H+  H219  1  0.02201046  0.89020685  0.49299073  1
  H+  H220  1  0.64834687  0.24454558  0.81478557  1
  H+  H221  1  0.88528945  0.51824095  0.99891704  1
  H+  H222  1  0.11531544  0.71755933  0.15929348  1
  H+  H223  1  0.12145342  0.23033524  0.49506687  1
  H+  H224  1  0.92251166  0.93750097  0.97532294  1
  H+  H225  1  0.89179387  1.03246667  0.17054672  1
  H+  H226  1  0.87682574  0.22637835  0.49376033  1
  H+  H227  1  0.22668386  0.60978699  0.32234956  1
  H+  H228  1  0.88693839  0.78252361  0.16079118  1
  H+  H229  1  0.11027907  0.14850919  0.83083098  1
  H+  H230  1  0.72935471  0.85620359  0.83531848  1
  H+  H231  1  0.61437576  0.48090459  1.01174902  1
  H+  H232  1  0.34237891  0.13004000  0.83118167  1
  H+  H233  1  0.70124660  0.26919134  0.23161300  1
  H+  H234  1  0.88306226  0.11590916  0.17966169  1
  H+  H235  1  0.85671512  0.12348199  0.02053207  1
  H+  H236  1  0.89365083  0.27955052  0.32479551  1
  H+  H237  1  0.90054699  0.19085092  0.70703253  1
  H+  H238  1  0.16422692  0.50790108  0.53281737  1
  H+  H239  1  0.86874227  1.00609777  0.05398551  1
  H+  H240  1  0.39210760  0.27027705  -0.00869918  1
  H+  H241  1  0.60652096  0.55739119  0.18155019  1
  H+  H242  1  0.12532685  0.48982027  0.66312552  1
  H+  H243  1  0.36951570  0.63018014  0.68582476  1
  H+  H244  1  0.22494790  0.37395460  0.50491365  1
  H+  H245  1  0.66224479  0.52492513  0.51731812  1
  H+  H246  1  0.52097385  0.91574910  -0.01141426  1
  H+  H247  1  0.86944895  0.47703057  0.16594130  1
  H+  H248  1  0.90330418  0.37597518  0.85005545  1
  H+  H249  1  0.36160729  0.88375981  0.82579068  1
  H+  H250  1  0.63871471  0.80494683  0.14839816  1
  H+  H251  1  0.27115653  0.63860852  0.00628351  1
  H+  H252  1  0.22277641  0.86090541  0.83340107  1
  H+  H253  1  0.75195978  0.54014505  0.54261643  1
  H+  H254  1  0.27908083  0.88572917  0.67058425  1
  H+  H255  1  0.52552075  0.88617298  0.67459843  1
  H+  H256  1  0.64328327  0.37097345  0.98645282  1
  H+  H257  1  0.22359206  0.75546433  0.94545261  1
  H+  H258  1  0.63008656  0.18452860  0.31538912  1
  H+  H259  1  0.10854084  0.86388874  0.15120535  1
  H+  H260  1  0.63104765  0.63576949  0.34913422  1
  H+  H261  1  0.63984203  0.28116880  0.98381581  1
  H+  H262  1  0.23714168  0.61388888  0.63034635  1
  H+  H263  1  -0.00892095  0.38438035  0.66114893  1
  H+  H264  1  0.89993912  0.29905575  0.66980010  1
  H+  H265  1  0.35372334  0.38058014  0.67924319  1
  H+  H266  1  0.60928207  0.67867601  0.16993096  1
  H+  H267  1  0.91831444  0.63106986  0.66756914  1
  H+  H268  1  0.46198558  0.11479524  -0.00478938  1
  H+  H269  1  0.02722986  0.39561505  0.49948338  1
  H+  H270  1  0.59264911  0.87408529  0.35416163  1
  H+  H271  1  0.86721821  0.23523897  0.85356448  1
  H+  H272  1  0.27383186  0.38041872  0.34012092  1
  H+  H273  1  1.02932640  0.63808927  0.83035892  1
  H+  H274  1  0.21789073  0.12194341  0.83592260  1
  H+  H275  1  0.13412666  0.28459722  0.32939773  1
  H+  H276  1  0.13074537  1.03295311  0.84125998  1
  H+  H277  1  0.89450510  0.62077244  0.85042193  1
  H+  H278  1  0.23353666  0.84878541  0.17941686  1
  H+  H279  1  0.73662583  0.10275118  0.86282907  1
  H+  H280  1  0.74460044  0.14008789  0.31454394  1
  H+  H281  1  0.62294556  0.76593350  0.50778185  1
  H+  H282  1  0.13042630  0.27678535  0.84084798  1
  H+  H283  1  0.14878816  0.77291648  0.66370767  1
  H+  H284  1  0.35653589  0.19104498  0.48533964  1
  H+  H285  1  0.15300476  0.00804992  0.65341090  1
  H+  H286  1  0.36406777  0.83920059  0.33008488  1
  H+  H287  1  0.37409865  0.52102132  0.68616536  1
  H+  H288  1  0.66744399  0.57096608  0.27431875  1
  H+  H289  1  0.33199743  0.28991593  0.51847727  1
  H+  H290  1  0.83432032  0.42006836  0.06859750  1
  H+  H291  1  0.27791148  0.16632978  0.00264644  1
  H+  H292  1  0.86622121  0.88611624  0.82048508  1
  H+  H293  1  0.57381537  0.39268719  0.39663674  1
  H+  H294  1  0.42396685  0.06340136  0.56565712  1
  H+  H295  1  0.83723040  0.91060475  0.72715529  1
  H+  H296  1  0.77746826  0.15026874  0.15805869  1
  H+  H297  1  0.30431909  0.43447996  0.08117941  1
  H+  H298  1  0.12024797  0.87728740  0.67211880  1
  H+  H299  1  0.85815717  0.43526517  0.77390374  1
  H+  H300  1  0.33457531  0.91232301  0.73222878  1
  H+  H301  1  0.16039018  0.33380423  0.59904850  1
  H+  H302  1  0.65903679  0.59025322  0.94356648  1
  H+  H303  1  0.58879307  0.41046756  0.06555108  1
  H+  H304  1  0.43472734  0.32820623  0.26268742  1
  H+  H305  1  0.06625257  0.19264384  0.05534977  1
  H+  H306  1  0.91663466  0.84038200  0.25729240  1
  H+  H307  1  0.31814030  0.66444680  0.43269246  1
  H+  H308  1  0.17704989  0.07312797  0.55725080  1
  H+  H309  1  0.12128959  0.40070385  0.67063161  1
  H+  H310  1  0.37576484  0.97997718  0.17845244  1
  H+  H311  1  0.79812773  0.41574145  0.68022274  1
  H+  H312  1  0.17281844  0.58074006  0.90203560  1
  H+  H313  1  0.68282469  0.35688784  0.61218609  1
  H+  H314  1  0.69012672  0.35556153  0.27273083  1
  H+  H315  1  0.66080729  0.12381957  0.51902645  1
  H+  H316  1  0.83939837  0.17170124  0.39461909  1
  H+  H317  1  0.77124371  0.72598564  0.72412843  1
  H+  H318  1  0.91804608  0.06545241  0.58496058  1
  H+  H319  1  0.09580902  0.43006581  0.76715839  1
  H+  H320  1  0.69062111  0.88704943  0.18914394  1
  H+  H321  1  0.16598850  0.58241671  0.26331309  1
  H+  H322  1  0.38637647  0.07156170  0.90940372  1
  H+  H323  1  0.43225544  0.33348001  0.92446969  1
  H+  H324  1  0.92184393  0.33766619  0.56840081  1
  H+  H325  1  0.87088353  0.22900125  1.01004813  1
  H+  H326  1  0.92392989  0.85694963  0.89723981  1
  H+  H327  1  0.43268834  0.33638742  0.61934090  1
  H+  H328  1  0.32689678  0.67216673  0.73572187  1
  H+  H329  1  0.57546221  0.68274078  0.06558463  1
  H+  H330  1  0.16218167  0.34539346  0.23931658  1
  H+  H331  1  0.97380702  0.86876019  0.31875785  1
  H+  H332  1  0.67320661  0.34333524  0.88942464  1
  H+  H333  1  0.32612054  0.91378126  0.06269222  1
  H+  H334  1  0.64435663  0.08682371  0.87685968  1
  H+  H335  1  0.33174019  0.42195136  0.42752138  1
  H+  H336  1  0.33693184  0.15287707  0.39538749  1
  H+  H337  1  0.86530558  0.89200269  0.44813401  1
  H+  H338  1  0.17432892  0.11460410  0.93695038  1
  H+  H339  1  0.37375836  0.06329820  0.25310634  1
  H+  H340  1  0.16440671  0.07740625  0.28896938  1
  H+  H341  1  0.66564709  0.82483632  0.92029188  1
  H+  H342  1  0.16771254  0.82400377  0.89330899  1
  H+  H343  1  0.14998648  0.50859039  0.99481488  1
  H+  H344  1  0.11409298  0.31645493  1.00337129  1
  H+  H345  1  0.83707238  0.67655130  0.78120446  1
  H+  H346  1  0.22883900  0.36809997  0.83948551  1
  H+  H347  1  0.65597093  0.83387290  0.57092844  1
  H+  H348  1  0.88810501  0.79364014  0.49380680  1
  H+  H349  1  0.91965402  0.32667655  0.94435845  1
  H+  H350  1  0.35981094  0.72624357  0.33543150  1
  H+  H351  1  0.87756247  0.39241522  0.15992046  1
  H+  H352  1  0.32345311  0.40957779  0.77129470  1
  H+  H353  1  0.08727759  0.92030702  0.76850947  1
  H+  H354  1  0.09639679  0.41786948  0.09511563  1
  H+  H355  1  0.67397668  0.52448154  0.87150522  1
  H+  H356  1  0.41465515  0.62127198  0.57302989  1
  H+  H357  1  0.38887482  0.57313038  0.57294281  1
  H+  H358  1  0.30995317  0.94519924  0.32656140  1
  H+  H359  1  0.02703821  0.39411512  0.34567434  1
  H+  H360  1  0.07362054  0.65163634  0.06822309  1
  H+  H361  1  0.10486477  0.66663369  0.40225364  1
  H+  H362  1  0.11596911  0.18217810  -0.00074381  1
  H+  H363  1  0.87315898  0.69282084  0.41904317  1
  H+  H364  1  0.67301655  0.09968521  0.21915299  1
  H+  H365  1  0.61404634  0.22766784  0.15550726  1
  H+  H366  1  0.84123580  0.17343677  0.07894363  1
  H+  H367  1  0.91956811  0.58314838  0.93621206  1
  H+  H368  1  0.68086976  0.84397593  0.30069289  1
  H+  H369  1  0.66307597  0.00207936  0.94312225  1
  H+  H370  1  0.08132932  0.17648358  0.39916286  1
  H+  H371  1  0.53225545  0.26959715  0.45292935  1
  H+  H372  1  0.33050632  0.16066959  0.76584945  1
  H+  H373  1  0.57801847  0.17360408  0.05970323  1
  H+  H374  1  0.83090501  0.18556808  0.79198386  1
  H+  H375  1  0.89996214  0.83265258  0.58890747  1
  H+  H376  1  0.17114589  0.65668667  0.49309041  1
  H+  H377  1  0.35140291  0.96783164  0.82896355  1
  H+  H378  1  0.41487977  0.82940189  0.60236277  1
  H+  H379  1  0.34317069  0.19180019  0.06245645  1
  H+  H380  1  0.60453952  0.16405623  0.72969938  1
  H+  H381  1  0.16647209  0.10144027  0.65472123  1
  H+  H382  1  0.90901475  0.01013124  0.50170563  1
  H+  H383  1  0.09176769  0.96072948  0.07680154  1
  O2-  O384  1  0.06548551  0.19380661  0.12864595  1
  O2-  O385  1  0.09315043  0.17048392  0.47829473  1
  O2-  O386  1  0.08134370  0.18243477  0.81948113  1
  O2-  O387  1  0.08654596  0.42008271  0.14087697  1
  O2-  O388  1  0.08875353  0.42642809  0.48645035  1
  O2-  O389  1  0.09544837  0.42457600  0.81247066  1
  O2-  O390  1  0.08140571  0.65778887  0.14220317  1
  O2-  O391  1  0.11900332  0.65873413  0.48371914  1
  O2-  O392  1  0.08873794  0.66538997  0.81422698  1
  O2-  O393  1  0.08675549  0.90436007  0.14842183  1
  O2-  O394  1  0.08014387  0.91036755  0.47615970  1
  O2-  O395  1  0.08403587  0.92312942  0.81350576  1
  O2-  O396  1  0.35144282  0.18536270  0.13595706  1
  O2-  O397  1  0.33259063  0.13025864  0.47403737  1
  O2-  O398  1  0.32425708  0.16774769  0.81041858  1
  O2-  O399  1  0.31818717  0.44547900  0.15657297  1
  O2-  O400  1  0.33195155  0.43981914  0.47218594  1
  O2-  O401  1  0.32376537  0.41221852  0.81693785  1
  O2-  O402  1  0.34238232  0.68848684  0.14300389  1
  O2-  O403  1  0.33495940  0.67354221  0.47644103  1
  O2-  O404  1  0.33089529  0.67337445  0.80474071  1
  O2-  O405  1  0.35120961  0.91691748  0.18894389  1
  O2-  O406  1  0.31727497  0.90129065  0.47303789  1
  O2-  O407  1  0.32753309  0.91013090  0.81004438  1
  O2-  O408  1  0.58073433  0.17099940  0.13562605  1
  O2-  O409  1  0.58564476  0.16567696  0.48570414  1
  O2-  O410  1  0.62873677  0.18454711  0.79978364  1
  O2-  O411  1  0.59578784  0.39817886  0.14338613  1
  O2-  O412  1  0.54330132  0.32730978  0.46321652  1
  O2-  O413  1  0.57898014  0.40513346  0.78231131  1
  O2-  O414  1  0.57200955  0.69463921  0.14814569  1
  O2-  O415  1  0.59400063  0.68652947  0.49108625  1
  O2-  O416  1  0.58943288  0.65897866  0.80779734  1
  O2-  O417  1  0.58387688  0.94078275  0.12221388  1
  O2-  O418  1  0.57899950  0.92060056  0.48994184  1
  O2-  O419  1  0.58578982  0.90320883  0.81460799  1
  O2-  O420  1  0.83971500  0.17647266  0.14669666  1
  O2-  O421  1  0.84457435  0.16651716  0.47718676  1
  O2-  O422  1  0.83201233  0.17561182  0.83650277  1
  O2-  O423  1  0.84095871  0.41846042  0.14781680  1
  O2-  O424  1  0.83221440  0.41556751  0.48140865  1
  O2-  O425  1  0.85386889  0.43238444  0.81949759  1
  O2-  O426  1  0.81254301  0.64594080  0.14094538  1
  O2-  O427  1  0.89964681  0.70932201  0.46131805  1
  O2-  O428  1  0.84188437  0.67524024  0.82591780  1
  O2-  O429  1  0.85572302  0.94247135  0.12206519  1
  O2-  O430  1  0.86268544  0.89124164  0.49428757  1
  O2-  O431  1  0.83070458  0.90914244  0.80092414  1
  O2-  O432  1  0.16986378  -0.01119683  0.24931773  1
  O2-  O433  1  0.17402391  0.07651147  0.51206322  1
  O2-  O434  1  0.15909576  0.09439930  0.85387240  1
  O2-  O435  1  0.16573631  0.34799502  0.19358287  1
  O2-  O436  1  0.16563774  0.33639651  0.52050232  1
  O2-  O437  1  0.16530859  0.34127792  0.85233685  1
  O2-  O438  1  0.17135877  0.58445581  0.18496533  1
  O2-  O439  1  0.21765305  0.55275652  0.55397651  1
  O2-  O440  1  0.17329203  0.58420948  0.85614372  1
  O2-  O441  1  0.17237186  0.81504397  0.19119904  1
  O2-  O442  1  0.15707250  0.82462351  0.52213491  1
  O2-  O443  1  0.16245959  0.83314454  0.84942472  1
  O2-  O444  1  0.41480328  0.08472998  0.17748803  1
  O2-  O445  1  0.42280170  0.06288368  0.52041803  1
  O2-  O446  1  0.38278133  0.06864832  0.86329482  1
  O2-  O447  1  0.44937780  0.32442485  0.18875298  1
  O2-  O448  1  0.37340343  0.30126673  0.48587036  1
  O2-  O449  1  0.41974096  0.33085958  0.85029902  1
  O2-  O450  1  0.41420732  0.60804118  0.20046505  1
  O2-  O451  1  0.43565626  0.60875239  0.44342974  1
  O2-  O452  1  0.41298368  0.59575979  0.84031879  1
  O2-  O453  1  0.44077813  0.84113474  0.17273722  1
  O2-  O454  1  0.41199921  0.83467615  0.52391384  1
  O2-  O455  1  0.41579462  0.83398376  0.85128914  1
  O2-  O456  1  0.67155974  0.09965867  0.17339547  1
  O2-  O457  1  0.68831376  0.09119078  0.53315205  1
  O2-  O458  1  0.67708310  0.05700337  0.87553905  1
  O2-  O459  1  0.69572098  0.31417290  0.20865347  1
  O2-  O460  1  0.67238889  0.32846798  0.53566420  1
  O2-  O461  1  0.67983569  0.34289496  0.84409128  1
  O2-  O462  1  0.65442977  0.54940578  0.19326626  1
  O2-  O463  1  0.68976121  0.51766042  0.55329960  1
  O2-  O464  1  0.67920599  0.58050925  0.86426211  1
  O2-  O465  1  0.67962309  0.86827165  0.14675869  1
  O2-  O466  1  0.65273321  0.83450744  0.52494467  1
  O2-  O467  1  0.66964827  0.82386230  0.85242093  1
  O2-  O468  1  0.91391141  0.08642088  0.19461929  1
  O2-  O469  1  0.92916493  0.07034281  0.51420470  1
  O2-  O470  1  0.90695643  0.08126730  0.81771412  1
  O2-  O471  1  0.92540818  0.34061802  0.18473202  1
  O2-  O472  1  0.92055047  0.33288051  0.52304943  1
  O2-  O473  1  0.93029146  0.34310703  0.86610994  1
  O2-  O474  1  0.92473776  0.58416020  0.19916430  1
  O2-  O475  1  0.85451597  0.56582029  0.53175754  1
  O2-  O476  1  0.92352953  0.58980389  0.86671476  1
  O2-  O477  1  0.91940705  0.84266681  0.17363489  1
  O2-  O478  1  0.91220011  0.85022972  0.51613546  1
  O2-  O479  1  0.91936237  0.84218289  0.85263500  1
  O2-  O480  1  0.16702198  0.10044305  0.33033828  1
  O2-  O481  1  0.18971858  0.06774527  0.63615099  1
  O2-  O482  1  0.18370073  0.13003808  0.98075888  1
  O2-  O483  1  0.16920207  0.34557253  0.31543955  1
  O2-  O484  1  0.15999349  0.33628113  0.64479479  1
  O2-  O485  1  0.15497360  0.37903830  0.99663794  1
  O2-  O486  1  0.16498901  0.58287480  0.30883131  1
  O2-  O487  1  0.18393797  0.57802401  0.60666660  1
  O2-  O488  1  0.17382540  0.57357072  0.97833690  1
  O2-  O489  1  0.20213340  0.83928178  0.31815985  1
  O2-  O490  1  0.17515221  0.83461048  0.64763758  1
  O2-  O491  1  0.19293868  0.78262371  0.96260494  1
  O2-  O492  1  0.33391854  0.03929909  0.28832826  1
  O2-  O493  1  0.43829260  0.07471910  0.64910873  1
  O2-  O494  1  0.39978216  0.08261817  0.98371147  1
  O2-  O495  1  0.42982992  0.33303148  0.30857348  1
  O2-  O496  1  0.41759842  0.32502343  0.66231965  1
  O2-  O497  1  0.43232415  0.33403552  0.97085587  1
  O2-  O498  1  0.37516166  0.62052611  0.32594062  1
  O2-  O499  1  0.40526501  0.58477106  0.69073379  1
  O2-  O500  1  0.39864337  0.57382587  0.99091011  1
  O2-  O501  1  0.39816539  0.81273149  0.31763147  1
  O2-  O502  1  0.41832470  0.82800227  0.64794472  1
  O2-  O503  1  0.41824134  0.83884924  0.97343018  1
  O2-  O504  1  0.68862276  0.12411377  0.29342107  1
  O2-  O505  1  0.68738809  0.08234537  0.65502720  1
  O2-  O506  1  0.64936409  -0.03354206  0.98128909  1
  O2-  O507  1  0.69100307  0.36933580  0.31769396  1
  O2-  O508  1  0.69797434  0.39505913  0.64874280  1
  O2-  O509  1  0.67349329  0.34171648  0.96937646  1
  O2-  O510  1  0.67456267  0.58044075  0.31900474  1
  O2-  O511  1  0.65610335  0.56903720  0.65787623  1
  O2-  O512  1  0.65756113  0.59031656  0.98880208  1
  O2-  O513  1  0.67683321  0.83827735  0.34483460  1
  O2-  O514  1  0.66008220  0.82561381  0.64511390  1
  O2-  O515  1  0.66213852  0.82946776  0.96764945  1
  O2-  O516  1  0.91487473  0.08074278  0.31702349  1
  O2-  O517  1  0.90236126  0.06212638  0.63039363  1
  O2-  O518  1  0.92910082  0.03871429  0.97564250  1
  O2-  O519  1  0.92373480  0.34076294  0.31047367  1
  O2-  O520  1  0.92932873  0.35462624  0.64762505  1
  O2-  O521  1  0.90679179  0.31441632  0.98852896  1
  O2-  O522  1  0.93428288  0.59027286  0.32071902  1
  O2-  O523  1  0.93303053  0.59504218  0.64307178  1
  O2-  O524  1  0.91945372  0.58127759  0.98359818  1
  O2-  O525  1  0.91369960  0.83343805  0.30230754  1
  O2-  O526  1  0.90153150  0.83145576  0.63568061  1
  O2-  O527  1  0.93160862  0.88722046  0.97061738  1
  O2-  O528  1  0.06913874  0.19402489  0.00913152  1
  O2-  O529  1  0.08024115  0.17987518  0.35391835  1
  O2-  O530  1  0.00852778  0.19489720  0.70544435  1
  O2-  O531  1  0.11238407  0.42424781  0.02216558  1
  O2-  O532  1  0.08652345  0.42571341  0.36257876  1
  O2-  O533  1  0.09537781  0.43500998  0.68633016  1
  O2-  O534  1  0.06873889  0.64472165  0.02224422  1
  O2-  O535  1  0.10088356  0.67395658  0.35794403  1
  O2-  O536  1  0.10721838  0.67683066  0.68797953  1
  O2-  O537  1  0.08363281  0.98874482  0.04080592  1
  O2-  O538  1  0.06904056  0.92804902  0.35317241  1
  O2-  O539  1  0.09149409  0.91130266  0.68552465  1
  O2-  O540  1  0.34120632  0.19053587  0.01605765  1
  O2-  O541  1  0.33409766  0.16789299  0.35220366  1
  O2-  O542  1  0.34972941  0.15203676  0.68848360  1
  O2-  O543  1  0.30080887  0.42959114  0.03544403  1
  O2-  O544  1  0.33002543  0.39908268  0.36073566  1
  O2-  O545  1  0.32221679  0.40937548  0.69345527  1
  O2-  O546  1  0.33151915  0.67356439  0.02317602  1
  O2-  O547  1  0.32558609  0.65946794  0.35088539  1
  O2-  O548  1  0.33378460  0.66884349  0.68876602  1
  O2-  O549  1  0.32974787  0.91678801  0.01839255  1
  O2-  O550  1  0.29114914  0.88566739  0.34265328  1
  O2-  O551  1  0.33966661  0.91385258  0.68674807  1
  O2-  O552  1  0.57255825  0.17172960  0.01378147  1
  O2-  O553  1  0.68792482  0.20587629  0.29872115  1
  O2-  O554  1  0.59446180  0.14862768  0.68436957  1
  O2-  O555  1  0.58738425  0.41795128  0.02018726  1
  O2-  O556  1  0.58470359  0.41379991  0.35388875  1
  O2-  O557  1  0.57591299  0.40693547  0.71461534  1
  O2-  O558  1  0.57726871  0.67965336  0.02058782  1
  O2-  O559  1  0.60822063  0.66995345  0.37021787  1
  O2-  O560  1  0.57803787  0.66256009  0.68588691  1
  O2-  O561  1  0.57350941  0.96922044  0.00492933  1
  O2-  O562  1  0.55515033  0.89806630  0.36272926  1
  O2-  O563  1  0.58580909  0.91510417  0.69047723  1
  O2-  O564  1  0.83896414  0.16695055  0.03172416  1
  O2-  O565  1  0.84054031  0.17398056  0.34939150  1
  O2-  O566  1  0.85093119  0.19988744  0.71247766  1
  O2-  O567  1  0.83661273  0.42337405  0.02294624  1
  O2-  O568  1  0.83761093  0.42779485  0.35946756  1
  O2-  O569  1  0.85799731  0.44117152  0.69577387  1
  O2-  O570  1  0.82647690  0.70065674  0.01816852  1
  O2-  O571  1  0.84673314  0.67393806  0.34741978  1
  O2-  O572  1  0.79902833  0.69814212  0.70340684  1
  O2-  O573  1  0.86135050  1.03311057  0.01639380  1
  O2-  O574  1  0.85055141  0.91447216  0.37244186  1
  O2-  O575  1  0.83542410  0.90805393  0.68050095  1
