# generated using pymatgen
data_H2O
_symmetry_space_group_name_H-M   'P 1'
_cell_length_a   17.98657010
_cell_length_b   17.99010516
_cell_length_c   22.00266470
_cell_angle_alpha   90.01646201
_cell_angle_beta   89.96190991
_cell_angle_gamma   119.99430082
_symmetry_Int_Tables_number   1
_chemical_formula_structural   H2O
_chemical_formula_sum   'H384 O192'
_cell_volume   6166.13189781
_cell_formula_units_Z   192
loop_
 _symmetry_equiv_pos_site_id
 _symmetry_equiv_pos_as_xyz
  1  'x, y, z'
loop_
 _atom_type_symbol
 _atom_type_oxidation_number
  H+  1.0
  O2-  -2.0
loop_
 _atom_site_type_symbol
 _atom_site_label
 _atom_site_symmetry_multiplicity
 _atom_site_fract_x
 _atom_site_fract_y
 _atom_site_fract_z
 _atom_site_occupancy
  H+  H0  1  0.11931044  0.13646246  0.16201977  1
  H+  H1  1  0.76886717  0.37774836  0.83738562  1
  H+  H2  1  0.23687751  0.61861783  0.67163657  1
  H+  H3  1  0.25200469  0.90562726  0.47667054  1
  H+  H4  1  0.89069171  0.02068054  0.15804072  1
  H+  H5  1  0.14920381  0.53552908  0.34074266  1
  H+  H6  1  0.15445572  0.28863895  -0.01000602  1
  H+  H7  1  0.61667970  0.47893747  0.15541737  1
  H+  H8  1  0.21955382  0.84981020  0.17148385  1
  H+  H9  1  0.97574059  0.86566068  0.16235108  1
  H+  H10  1  0.10234303  0.37757239  0.52007573  1
  H+  H11  1  0.24458888  0.37290605  -0.01863777  1
  H+  H12  1  0.90155254  0.37953170  0.99148734  1
  H+  H13  1  0.62735189  0.30045439  0.31569593  1
  H+  H14  1  0.40356524  0.15336465  0.67447760  1
  H+  H15  1  0.37025417  0.47912560  0.16864847  1
  H+  H16  1  0.08957705  0.64608790  0.49348071  1
  H+  H17  1  0.50888354  0.86308237  0.50614094  1
  H+  H18  1  0.65969179  0.59024448  0.23662843  1
  H+  H19  1  0.64457967  0.10865806  0.66717954  1
  H+  H20  1  0.86990576  0.90046083  0.51849633  1
  H+  H21  1  0.87829314  0.49563606  0.85228183  1
  H+  H22  1  0.53790262  0.10147433  0.45098481  1
  H+  H23  1  0.09778859  0.21589059  0.33020952  1
  H+  H24  1  0.61029516  0.51862312  0.33153585  1
  H+  H25  1  0.26629805  0.36053061  0.67680822  1
  H+  H26  1  0.61228652  0.62146123  0.49705710  1
  H+  H27  1  0.86112093  0.63741462  0.16268821  1
  H+  H28  1  0.91403850  0.56279842  0.92399615  1
  H+  H29  1  0.87884591  0.59193869  0.33107389  1
  H+  H30  1  0.98928042  0.11971234  0.15781338  1
  H+  H31  1  0.66699587  0.61133853  0.82630727  1
  H+  H32  1  0.41400468  0.49805494  0.83588859  1
  H+  H33  1  0.14161307  0.27539559  0.17976726  1
  H+  H34  1  0.85914309  0.70583423  1.00607406  1
  H+  H35  1  0.11832874  0.77596618  0.83130397  1
  H+  H36  1  0.18603980  0.57115503  0.51369468  1
  H+  H37  1  0.08815887  0.93694751  -0.01996346  1
  H+  H38  1  0.86172520  0.36873040  0.49233304  1
  H+  H39  1  0.38667795  0.13788957  1.00915929  1
  H+  H40  1  0.04843662  0.39481422  0.35261980  1
  H+  H41  1  0.24228033  0.65500813  0.81202487  1
  H+  H42  1  0.74433072  0.88982733  0.18136728  1
  H+  H43  1  0.75288512  0.18466714  0.03039317  1
  H+  H44  1  0.52937317  0.39113361  0.15275744  1
  H+  H45  1  0.11534612  0.71854039  0.00551248  1
  H+  H46  1  0.47875453  0.57409782  0.32569242  1
  H+  H47  1  -0.03335182  0.83077372  -0.00328111  1
  H+  H48  1  0.41069153  0.26615844  -0.03634019  1
  H+  H49  1  0.18818854  0.81162312  0.63193364  1
  H+  H50  1  0.37077785  0.24310967  0.68522889  1
  H+  H51  1  0.88538209  0.77711960  0.16306393  1
  H+  H52  1  1.02660973  0.38652434  0.16208131  1
  H+  H53  1  -0.02229405  0.86977528  0.31848334  1
  H+  H54  1  0.34627420  0.83839888  0.45866538  1
  H+  H55  1  0.48411037  0.12975013  0.51645236  1
  H+  H56  1  0.34349001  0.46088284  0.66974881  1
  H+  H57  1  0.63658784  0.85982339  0.84044366  1
  H+  H58  1  0.11300046  0.94451251  0.41807978  1
  H+  H59  1  0.36742115  0.74579941  0.33805868  1
  H+  H60  1  0.40423498  0.60970331  0.50226060  1
  H+  H61  1  0.13672143  0.87031736  0.83882291  1
  H+  H62  1  0.85317512  0.87188097  0.33208658  1
  H+  H63  1  0.77047072  0.39154764  0.15514040  1
  H+  H64  1  0.84795295  0.83904976  0.64396760  1
  H+  H65  1  0.81372434  0.14862378  1.01096624  1
  H+  H66  1  0.28337456  0.39062220  0.17008212  1
  H+  H67  1  0.61983311  0.97934069  0.68132925  1
  H+  H68  1  -0.02568751  0.61233769  0.17330735  1
  H+  H69  1  0.89169752  0.38819466  0.34784257  1
  H+  H70  1  0.48301917  0.08143853  0.98883210  1
  H+  H71  1  -0.04889522  0.08913015  0.30733826  1
  H+  H72  1  0.13404585  0.15981124  0.51308160  1
  H+  H73  1  0.62999562  0.86028405  0.99139164  1
  H+  H74  1  0.65148897  0.61218142  0.97147891  1
  H+  H75  1  0.52055477  0.13990794  0.83563784  1
  H+  H76  1  0.63285626  0.77431732  0.66073504  1
  H+  H77  1  0.62099384  0.09223808  0.94685551  1
  H+  H78  1  0.14047986  0.36313623  0.17936707  1
  H+  H79  1  0.11108996  0.63314407  0.16473989  1
  H+  H80  1  0.75915559  0.13181044  0.34584713  1
  H+  H81  1  0.60061667  0.84673197  0.34482032  1
  H+  H82  1  0.61330746  0.88733505  0.68319262  1
  H+  H83  1  0.23066646  0.85362546  -0.00858238  1
  H+  H84  1  0.36874448  0.14487038  0.49187415  1
  H+  H85  1  0.13231189  0.59353254  0.86153966  1
  H+  H86  1  0.09144849  0.69645400  0.67607397  1
  H+  H87  1  0.72700815  0.59869047  0.67816225  1
  H+  H88  1  0.66530579  0.82744335  0.89821386  1
  H+  H89  1  0.43083004  0.10472287  0.24256853  1
  H+  H90  1  0.52271922  0.15552129  0.32215095  1
  H+  H91  1  0.93155510  0.08819018  0.84867475  1
  H+  H92  1  0.15506933  0.52404699  1.02350616  1
  H+  H93  1  0.35699511  0.46805851  0.51099727  1
  H+  H94  1  0.50864695  0.39721687  0.33265615  1
  H+  H95  1  0.26748144  0.38741016  0.52975593  1
  H+  H96  1  0.11456303  0.88602526  0.15783275  1
  H+  H97  1  0.42335715  0.58985699  0.84452141  1
  H+  H98  1  0.13943948  0.14609448  0.67336261  1
  H+  H99  1  0.39165796  0.12167755  0.30637045  1
  H+  H100  1  0.38806753  0.36328596  0.65998162  1
  H+  H101  1  0.11961648  0.89621079  0.33192297  1
  H+  H102  1  0.37960766  0.99564632  0.31104856  1
  H+  H103  1  0.41162404  0.73416150  0.49222916  1
  H+  H104  1  0.35992367  0.86226356  0.16185860  1
  H+  H105  1  0.37854971  0.70908491  0.98125828  1
  H+  H106  1  0.89752292  0.37252108  0.84069236  1
  H+  H107  1  0.78914183  0.91152573  0.50821566  1
  H+  H108  1  0.82949520  0.90516209  0.72755129  1
  H+  H109  1  0.60404621  0.16984664  0.10297903  1
  H+  H110  1  0.64105678  0.37252349  0.16034932  1
  H+  H111  1  0.77132492  0.64382337  0.49992364  1
  H+  H112  1  0.85395688  0.63396567  0.50278812  1
  H+  H113  1  0.23083259  0.51928234  0.53103084  1
  H+  H114  1  0.86685121  0.97592588  0.67457567  1
  H+  H115  1  0.38571835  0.75806557  0.17011499  1
  H+  H116  1  0.14417869  0.52239106  0.82423348  1
  H+  H117  1  0.26950813  0.13805582  0.99864616  1
  H+  H118  1  0.40852936  0.60207088  0.97959766  1
  H+  H119  1  0.60212082  0.40381973  0.32935863  1
  H+  H120  1  0.34032077  0.62055748  0.85516907  1
  H+  H121  1  0.47928363  0.62031072  0.18373512  1
  H+  H122  1  0.62695573  0.68332262  0.33819018  1
  H+  H123  1  0.63431063  0.83984056  0.50486877  1
  H+  H124  1  0.08154403  0.45297657  0.52317772  1
  H+  H125  1  0.02390334  0.91984750  0.66459544  1
  H+  H126  1  0.25055622  0.13039715  0.66735610  1
  H+  H127  1  0.60524113  -0.00605330  0.48185518  1
  H+  H128  1  0.97645929  0.86296386  0.84504105  1
  H+  H129  1  0.05910840  0.14653517  0.00687188  1
  H+  H130  1  0.39300985  0.37172573  0.16840260  1
  H+  H131  1  0.90116528  0.16062708  0.85788988  1
  H+  H132  1  0.38084968  0.23463734  0.85031410  1
  H+  H133  1  0.38105970  0.74010271  0.67110514  1
  H+  H134  1  0.84469209  0.24374264  0.82271275  1
  H+  H135  1  0.36231890  0.96427799  0.00944428  1
  H+  H136  1  0.88208594  0.72652627  0.82025412  1
  H+  H137  1  0.83114357  -0.01198243  1.01332021  1
  H+  H138  1  1.05882860  0.14535697  0.81665580  1
  H+  H139  1  0.12531501  0.18968328  0.76361678  1
  H+  H140  1  0.40287578  0.87691408  0.65432077  1
  H+  H141  1  0.12099655  -0.00174908  0.83336315  1
  H+  H142  1  0.86956474  0.13757855  0.68482855  1
  H+  H143  1  0.14324861  0.78251002  0.32553013  1
  H+  H144  1  0.63716731  0.33972598  0.65053731  1
  H+  H145  1  0.53332259  0.62654499  0.00464712  1
  H+  H146  1  0.76318356  0.89048059  0.01122427  1
  H+  H147  1  0.62255637  0.75299786  0.17508722  1
  H+  H148  1  0.86294815  0.94796405  0.82058192  1
  H+  H149  1  0.88107413  0.47231074  0.34306292  1
  H+  H150  1  0.03168442  0.37492540  0.65765392  1
  H+  H151  1  0.63709483  0.36114295  0.85593518  1
  H+  H152  1  0.77422592  0.38049100  0.00696185  1
  H+  H153  1  0.27501328  0.14014524  0.33340891  1
  H+  H154  1  0.24067549  0.12215716  0.16311962  1
  H+  H155  1  0.62383438  0.11227634  0.85410888  1
  H+  H156  1  -0.00980198  0.12902731  0.51915968  1
  H+  H157  1  0.38445718  0.27611677  0.32095891  1
  H+  H158  1  0.41552337  0.06864410  0.15054623  1
  H+  H159  1  0.72880534  0.34609901  0.66201335  1
  H+  H160  1  0.80537987  0.63110412  0.81624218  1
  H+  H161  1  0.63565844  0.77388499  -0.00482636  1
  H+  H162  1  0.87993463  0.84434045  0.83919745  1
  H+  H163  1  0.31724461  0.64865047  0.49535091  1
  H+  H164  1  0.15412477  0.36382664  0.33836731  1
  H+  H165  1  0.15864822  0.89414751  0.68459858  1
  H+  H166  1  0.42225095  0.33668141  0.22481597  1
  H+  H167  1  0.27763734  0.63525907  0.16509080  1
  H+  H168  1  0.94291837  0.19231904  0.84234487  1
  H+  H169  1  0.08689843  0.41280074  0.10366709  1
  H+  H170  1  0.36793399  0.37337174  0.97049511  1
  H+  H171  1  0.26635900  0.92271280  0.50839035  1
  H+  H172  1  0.06221887  0.71686725  0.49269771  1
  H+  H173  1  0.86652078  0.09179957  0.31746369  1
  H+  H174  1  0.49020053  0.19804887  0.63822410  1
  H+  H175  1  0.87882629  0.59663176  0.66275838  1
  H+  H176  1  0.62640030  0.72056664  0.82249649  1
  H+  H177  1  0.38975977  0.87427112  0.84319729  1
  H+  H178  1  0.72146362  0.86449511  0.66268675  1
  H+  H179  1  0.73172500  0.60068045  -0.01595858  1
  H+  H180  1  0.10643604  0.61693977  0.68798864  1
  H+  H181  1  0.41419700  0.58060269  0.60287361  1
  H+  H182  1  0.38241139  0.65837822  0.84529998  1
  H+  H183  1  0.16015330  0.13309321  0.84727271  1
  H+  H184  1  0.63994145  0.11506329  0.17219428  1
  H+  H185  1  0.85603625  0.38569219  0.16101659  1
  H+  H186  1  0.93193659  0.34381954  0.89711196  1
  H+  H187  1  0.51621182  0.96297002  0.44891733  1
  H+  H188  1  -0.03593274  0.59855582  0.84922260  1
  H+  H189  1  0.89107629  0.28907307  -0.00366444  1
  H+  H190  1  0.52108657  0.36575325  0.65759999  1
  H+  H191  1  0.15227410  0.15877590  0.01209056  1
  H+  H192  1  0.99420453  0.12310906  0.67063761  1
  H+  H193  1  0.19725446  0.97594829  0.45554254  1
  H+  H194  1  0.85573914  0.25111565  0.18877661  1
  H+  H195  1  0.27513809  0.89126874  0.82318167  1
  H+  H196  1  0.83807317  0.95162622  0.32953360  1
  H+  H197  1  0.01740543  0.80614053  0.52953381  1
  H+  H198  1  -0.03545864  0.34861548  0.51344326  1
  H+  H199  1  0.53444418  0.15207316  0.15852157  1
  H+  H200  1  0.38917914  0.12083329  0.84877453  1
  H+  H201  1  -0.05820049  0.59139490  0.50735903  1
  H+  H202  1  0.12772860  0.39797441  0.81953502  1
  H+  H203  1  0.62609368  0.46423639  0.83834634  1
  H+  H204  1  0.16730690  0.58292969  0.23821607  1
  H+  H205  1  0.38708313  0.27685795  0.50513256  1
  H+  H206  1  0.17902293  1.03488612  0.66517469  1
  H+  H207  1  0.75753812  0.61223340  0.34883326  1
  H+  H208  1  0.47542815  0.85998409  0.99044562  1
  H+  H209  1  0.38260608  0.85057996  0.99407935  1
  H+  H210  1  0.96368574  0.58777469  0.66501880  1
  H+  H211  1  0.37881552  0.46299357  0.99037663  1
  H+  H212  1  0.76620113  0.86795409  0.82452368  1
  H+  H213  1  0.63128284  1.02143720  0.17268980  1
  H+  H214  1  0.61254397  0.89156221  0.15775254  1
  H+  H215  1  0.54931058  0.62285810  0.82227230  1
  H+  H216  1  0.88973556  0.11773815  0.15859931  1
  H+  H217  1  0.65251515  0.21438174  0.00126191  1
  H+  H218  1  0.91196614  0.26741536  0.34238648  1
  H+  H219  1  0.72156034  0.82865166  0.33468747  1
  H+  H220  1  0.86790068  0.89438745  0.15548269  1
  H+  H221  1  0.53842755  0.13869287  0.68733802  1
  H+  H222  1  0.29707459  0.95684490  0.69085939  1
  H+  H223  1  0.59458945  0.98198625  0.00910725  1
  H+  H224  1  0.88264269  0.60318372  -0.00198311  1
  H+  H225  1  0.12784582  0.76541109  0.17317053  1
  H+  H226  1  0.73237656  0.10742679  0.66170318  1
  H+  H227  1  0.64518921  0.28414699  0.16636542  1
  H+  H228  1  0.15570299  0.29104565  0.83718450  1
  H+  H229  1  0.76872111  0.12369572  0.16454643  1
  H+  H230  1  0.84438043  0.70891531  0.65977609  1
  H+  H231  1  0.61855408  0.13441841  0.49326502  1
  H+  H232  1  0.15125085  0.04471916  0.50796603  1
  H+  H233  1  0.82679557  0.17374016  0.10691429  1
  H+  H234  1  0.35533282  0.94683771  0.17175323  1
  H+  H235  1  0.33918179  0.75438116  0.81869282  1
  H+  H236  1  0.63739411  0.26824992  0.85147932  1
  H+  H237  1  0.27077862  0.64998021  0.34605356  1
  H+  H238  1  0.89071621  0.76290242  0.49834165  1
  H+  H239  1  0.13333675  0.28555082  0.54851232  1
  H+  H240  1  0.62838652  1.02555094  0.85835704  1
  H+  H241  1  0.38602351  0.02927150  0.84450553  1
  H+  H242  1  0.88494730  0.52454331  0.17096756  1
  H+  H243  1  0.62935293  0.22116316  0.68095318  1
  H+  H244  1  0.13980374  0.62036514  0.33348326  1
  H+  H245  1  0.08355141  0.66178308  0.10342454  1
  H+  H246  1  0.64415037  0.54957400  0.71880523  1
  H+  H247  1  0.28101703  0.14700232  0.49264059  1
  H+  H248  1  0.31119694  0.80031218  0.47507344  1
  H+  H249  1  0.61080742  0.63584300  0.66985708  1
  H+  H250  1  0.37150226  0.35862950  0.31463373  1
  H+  H251  1  0.17919938  0.05497837  1.01125690  1
  H+  H252  1  0.51721086  0.39797632  0.49266065  1
  H+  H253  1  0.64855027  0.15084244  0.31810350  1
  H+  H254  1  0.76744871  0.36781080  0.48977599  1
  H+  H255  1  0.15154159  0.03050512  0.16470045  1
  H+  H256  1  0.64314712  0.27002917  0.49963205  1
  H+  H257  1  0.13489518  0.11403155  0.31401059  1
  H+  H258  1  0.66681729  0.07947835  0.56953044  1
  H+  H259  1  0.42073349  0.57975218  0.24294281  1
  H+  H260  1  0.87577688  0.25962038  0.51348717  1
  H+  H261  1  0.48321432  0.59548468  0.50685887  1
  H+  H262  1  0.88342627  0.51242459  1.00082873  1
  H+  H263  1  0.61393774  0.44774712  0.66100028  1
  H+  H264  1  0.75404349  0.15677381  0.83011697  1
  H+  H265  1  0.49027401  0.87663432  0.66764644  1
  H+  H266  1  0.39546868  1.01464751  0.68053624  1
  H+  H267  1  0.28869337  0.39338134  0.82732791  1
  H+  H268  1  1.00231619  0.89701797  0.69363048  1
  H+  H269  1  0.36530261  0.63296476  0.17045221  1
  H+  H270  1  0.02305044  0.63816006  0.33225341  1
  H+  H271  1  0.87170035  0.13658245  0.50531129  1
  H+  H272  1  0.64035865  0.62662489  0.17756431  1
  H+  H273  1  0.28666695  0.14773320  0.83943525  1
  H+  H274  1  0.11927878  -0.01452236  0.32788666  1
  H+  H275  1  0.51776173  0.87930781  0.15686789  1
  H+  H276  1  0.38344705  0.15853031  0.15412019  1
  H+  H277  1  0.48216189  0.85472207  0.32131554  1
  H+  H278  1  0.46987466  0.60634037  0.66268041  1
  H+  H279  1  0.73151831  0.11173104  0.51312408  1
  H+  H280  1  0.03822038  0.39570540  0.81680285  1
  H+  H281  1  0.85368877  0.46111010  0.68101392  1
  H+  H282  1  0.88377076  0.11659470  0.94741902  1
  H+  H283  1  0.52408588  0.88685973  0.83396787  1
  H+  H284  1  0.13750041  0.52324360  0.17901643  1
  H+  H285  1  0.53574702  0.37617749  0.85534382  1
  H+  H286  1  0.12382914  0.38747317  1.00960274  1
  H+  H287  1  0.41386588  1.00976027  0.46871130  1
  H+  H288  1  0.09919162  0.42617832  0.41423693  1
  H+  H289  1  0.36104568  0.18203555  0.06350614  1
  H+  H290  1  0.12929768  0.22128176  0.46363612  1
  H+  H291  1  0.10597067  0.40094052  0.70403854  1
  H+  H292  1  0.37910751  0.50397808  0.32161220  1
  H+  H293  1  0.08969025  0.91627346  0.09713157  1
  H+  H294  1  0.88914947  0.81458814  0.58856318  1
  H+  H295  1  0.09943144  0.17566049  0.10364826  1
  H+  H296  1  0.68082690  0.31811373  0.56273085  1
  H+  H297  1  0.92351534  0.31702590  0.28092263  1
  H+  H298  1  0.95646397  0.86103806  0.47653713  1
  H+  H299  1  0.29310160  0.90571765  0.32671379  1
  H+  H300  1  0.57958440  0.91939723  0.06431835  1
  H+  H301  1  0.91908746  0.83898073  0.25970400  1
  H+  H302  1  0.16864100  0.83641571  0.26459704  1
  H+  H303  1  0.82579950  0.40949417  0.77498458  1
  H+  H304  1  0.34780297  0.68446472  0.40482117  1
  H+  H305  1  0.60444014  0.63014629  0.05127322  1
  H+  H306  1  0.07478052  0.67137621  0.39337242  1
  H+  H307  1  0.17815303  0.34897997  0.89700406  1
  H+  H308  1  0.16871206  0.33031925  0.27452652  1
  H+  H309  1  0.66022517  0.35994628  0.25810925  1
  H+  H310  1  0.37176049  0.24121859  0.15229348  1
  H+  H311  1  0.80924820  0.28538680  0.23102835  1
  H+  H312  1  0.82321521  0.17002121  0.73409668  1
  H+  H313  1  0.81913447  0.63859745  0.40597507  1
  H+  H314  1  0.17591266  0.09090960  0.25758192  1
  H+  H315  1  0.82716649  0.64846429  0.06674950  1
  H+  H316  1  0.29417865  0.62188258  -0.00386580  1
  H+  H317  1  0.32908682  0.90253042  0.06819949  1
  H+  H318  1  0.40127617  0.87325301  0.31682851  1
  H+  H319  1  0.83349879  0.41440358  0.06721416  1
  H+  H320  1  0.65431140  0.78452606  0.28053720  1
  H+  H321  1  0.33643529  0.16814874  0.39180551  1
  H+  H322  1  0.31773061  0.69583664  0.75333065  1
  H+  H323  1  0.34140485  0.41094388  0.76607737  1
  H+  H324  1  0.58056512  0.90708568  0.38755280  1
  H+  H325  1  0.15846820  0.61340503  1.01995350  1
  H+  H326  1  0.41930993  0.82437781  0.22750911  1
  H+  H327  1  0.45908216  0.82399460  0.56892311  1
  H+  H328  1  0.66354410  0.57012295  0.57094483  1
  H+  H329  1  0.17245852  0.82603909  0.93018910  1
  H+  H330  1  0.66843686  0.31713717  0.92973953  1
  H+  H331  1  0.88763273  0.26890619  0.66613553  1
  H+  H332  1  0.15429783  0.52628182  0.65943557  1
  H+  H333  1  0.57745475  0.62361873  0.43219787  1
  H+  H334  1  0.18391103  0.09912225  0.90943545  1
  H+  H335  1  0.67053786  0.85491553  0.57149534  1
  H+  H336  1  0.90293570  0.03571495  0.52125226  1
  H+  H337  1  0.93338706  0.09554217  0.61306387  1
  H+  H338  1  0.11134770  0.85793817  0.50925113  1
  H+  H339  1  0.58951246  0.70307287  0.11328678  1
  H+  H340  1  0.58026331  0.19142833  0.38276221  1
  H+  H341  1  0.11940792  0.87181438  -0.00043569  1
  H+  H342  1  0.42068191  0.10243150  0.57242026  1
  H+  H343  1  0.41015388  0.82934826  0.89966677  1
  H+  H344  1  0.18319791  0.09450655  0.57256421  1
  H+  H345  1  0.90932003  0.80850004  0.93749670  1
  H+  H346  1  0.57200107  0.43124557  0.43150943  1
  H+  H347  1  0.10388414  0.80061298  0.60298234  1
  H+  H348  1  0.86107453  0.37627800  0.68438894  1
  H+  H349  1  0.62201694  0.36262098  0.02901653  1
  H+  H350  1  0.06062064  0.94892628  0.77674274  1
  H+  H351  1  0.03358831  0.38731770  0.00943561  1
  H+  H352  1  0.17197368  0.94822113  0.74515599  1
  H+  H353  1  0.83253004  0.15685070  0.44499314  1
  H+  H354  1  0.04387660  0.65925357  0.76486647  1
  H+  H355  1  0.63419576  0.51885880  0.50746199  1
  H+  H356  1  0.34510902  0.93384846  0.76983075  1
  H+  H357  1  0.41862555  0.07381693  0.93748575  1
  H+  H358  1  0.77771188  0.06582296  0.38003809  1
  H+  H359  1  0.37555480  0.35918977  0.51624246  1
  H+  H360  1  0.40778421  0.97884915  0.39907647  1
  H+  H361  1  0.82927466  0.92551174  0.09915414  1
  H+  H362  1  0.05238687  0.13942903  0.37803853  1
  H+  H363  1  0.58790548  0.66762608  0.72896418  1
  H+  H364  1  0.90764284  0.32713265  0.60732519  1
  H+  H365  1  0.58751614  0.16768288  0.77892292  1
  H+  H366  1  0.89541126  0.56858097  0.57175271  1
  H+  H367  1  0.37449094  0.64657065  0.67768233  1
  H+  H368  1  0.41066355  0.32655042  0.59998546  1
  H+  H369  1  0.58790929  0.92350725  0.77785106  1
  H+  H370  1  0.78686951  0.05590398  0.93308390  1
  H+  H371  1  0.96940127  0.03989753  0.88501780  1
  H+  H372  1  0.84013579  0.40460299  0.42505032  1
  H+  H373  1  0.77304267  0.63953769  0.16340244  1
  H+  H374  1  0.45157912  0.56704601  0.93174204  1
  H+  H375  1  0.69295841  0.58158419  0.88643650  1
  H+  H376  1  0.91372672  0.57496825  0.26849207  1
  H+  H377  1  0.13874287  0.34973615  0.60151126  1
  H+  H378  1  0.02675297  0.62979068  0.00862983  1
  H+  H379  1  0.34618688  0.18648222  0.74891352  1
  H+  H380  1  0.69326352  0.90215778  0.23571222  1
  H+  H381  1  0.84572259  0.66791339  0.72566397  1
  H+  H382  1  0.67589097  0.10611390  0.26571913  1
  H+  H383  1  -0.02222700  0.68435743  0.79400363  1
  O2-  O384  1  0.08720119  0.16617387  0.14808220  1
  O2-  O385  1  0.10509860  0.19402879  0.50253956  1
  O2-  O386  1  0.12002320  0.18587799  0.80953633  1
  O2-  O387  1  0.08668834  0.41583867  0.14986671  1
  O2-  O388  1  0.07184123  0.40497203  0.49725988  1
  O2-  O389  1  0.09748448  0.42596110  0.79993104  1
  O2-  O390  1  0.08028785  0.66268807  0.14884643  1
  O2-  O391  1  0.05261419  0.66277207  0.47243318  1
  O2-  O392  1  0.02770726  0.67750765  0.80411894  1
  O2-  O393  1  0.08877637  0.92040931  0.14185911  1
  O2-  O394  1  0.13642582  0.95607213  0.46174843  1
  O2-  O395  1  0.08920365  0.94053178  0.81176715  1
  O2-  O396  1  0.34446222  0.17983026  0.13704070  1
  O2-  O397  1  0.33852913  0.17284185  0.47291277  1
  O2-  O398  1  0.34699763  0.17735096  0.82510632  1
  O2-  O399  1  0.34186276  0.41945943  0.15280168  1
  O2-  O400  1  0.31883257  0.40500091  0.50476591  1
  O2-  O401  1  0.34715978  0.41325820  0.81095307  1
  O2-  O402  1  0.33875896  0.66573789  0.15302560  1
  O2-  O403  1  0.36885432  0.67948027  0.46911813  1
  O2-  O404  1  0.29192842  0.71082439  0.78999700  1
  O2-  O405  1  0.32712459  0.89303013  0.14912508  1
  O2-  O406  1  0.44613613  1.00222814  0.43552730  1
  O2-  O407  1  0.33764375  0.92550235  0.81475794  1
  O2-  O408  1  0.60011931  0.17503491  0.14723362  1
  O2-  O409  1  0.58087007  0.15381234  0.47308853  1
  O2-  O410  1  0.58298118  0.16816496  0.82422919  1
  O2-  O411  1  0.59024737  0.42077316  0.13794369  1
  O2-  O412  1  0.57651186  0.43122275  0.47635254  1
  O2-  O413  1  0.59376431  0.40085987  0.83463801  1
  O2-  O414  1  0.59346332  0.69502903  0.15702448  1
  O2-  O415  1  0.57519102  0.63896120  0.47482031  1
  O2-  O416  1  0.60689496  0.66357130  0.80354597  1
  O2-  O417  1  0.57839293  0.91620414  0.14128935  1
  O2-  O418  1  0.55964449  0.94554857  0.45764699  1
  O2-  O419  1  0.58619669  0.91994405  0.82344189  1
  O2-  O420  1  0.83083595  0.15964673  0.15069969  1
  O2-  O421  1  0.83619658  0.16210892  0.49016957  1
  O2-  O422  1  0.79743675  0.19496447  0.80051986  1
  O2-  O423  1  0.83356492  0.41968353  0.14136544  1
  O2-  O424  1  0.83123586  0.39780037  0.47303402  1
  O2-  O425  1  0.82905399  0.41140913  0.82087466  1
  O2-  O426  1  0.83153926  0.66699087  0.14477913  1
  O2-  O427  1  0.83126274  0.67056447  0.48373557  1
  O2-  O428  1  0.86430244  0.67063678  0.79973863  1
  O2-  O429  1  0.83848645  0.92853871  0.14529514  1
  O2-  O430  1  0.85231843  0.93871718  0.50043030  1
  O2-  O431  1  0.82520285  0.88823022  0.80706244  1
  O2-  O432  1  0.17963352  0.09134017  0.17867720  1
  O2-  O433  1  0.17941670  0.10212334  0.52768210  1
  O2-  O434  1  0.17778335  0.09234763  0.86445902  1
  O2-  O435  1  0.17027559  0.33413320  0.19680630  1
  O2-  O436  1  0.15302408  0.34663530  0.55836818  1
  O2-  O437  1  0.18054958  0.35124144  0.85131177  1
  O2-  O438  1  0.16499022  0.58375860  0.19322332  1
  O2-  O439  1  0.23177564  0.57324324  0.53848464  1
  O2-  O440  1  0.17482919  0.58324938  0.84204045  1
  O2-  O441  1  0.15971649  0.82738893  0.18627587  1
  O2-  O442  1  0.07283056  0.80472724  0.53198942  1
  O2-  O443  1  0.16175900  0.83362850  0.84709191  1
  O2-  O444  1  0.44407210  0.11980664  0.17568094  1
  O2-  O445  1  0.42233396  0.09831734  0.52758072  1
  O2-  O446  1  0.41838164  0.08779235  0.86250820  1
  O2-  O447  1  0.42425257  0.33917376  0.17955214  1
  O2-  O448  1  0.41306308  0.33336648  0.52608402  1
  O2-  O449  1  0.43796357  0.31692790  0.88085702  1
  O2-  O450  1  0.41917569  0.58555384  0.19682600  1
  O2-  O451  1  0.42370691  0.57496180  0.52486678  1
  O2-  O452  1  0.45466043  0.55954316  0.85323025  1
  O2-  O453  1  0.41708787  0.82314176  0.18224750  1
  O2-  O454  1  0.47870596  0.80951632  0.53112416  1
  O2-  O455  1  0.41046147  0.83354745  0.85359436  1
  O2-  O456  1  0.66809101  0.08162044  0.18702852  1
  O2-  O457  1  0.66942585  0.08514190  0.52416904  1
  O2-  O458  1  0.65243660  0.08404416  0.87633413  1
  O2-  O459  1  0.67548310  0.34638875  0.17743588  1
  O2-  O460  1  0.68355269  0.32571802  0.51762842  1
  O2-  O461  1  0.67084989  0.32732753  0.86978094  1
  O2-  O462  1  0.66705904  0.59327474  0.19173229  1
  O2-  O463  1  0.66969615  0.57871943  0.52716924  1
  O2-  O464  1  0.69614170  0.57982297  0.84038869  1
  O2-  O465  1  0.68556800  0.86604558  0.20040815  1
  O2-  O466  1  0.68554549  0.87512263  0.52876972  1
  O2-  O467  1  0.66671027  0.82806847  0.85282780  1
  O2-  O468  1  0.92402394  0.08721027  0.16635083  1
  O2-  O469  1  0.93063699  0.09839409  0.53487272  1
  O2-  O470  1  0.95468814  0.04915968  0.84405569  1
  O2-  O471  1  0.86509208  0.30315095  0.21247038  1
  O2-  O472  1  0.90339385  0.32178144  0.52678504  1
  O2-  O473  1  0.93038239  0.34338770  0.85181538  1
  O2-  O474  1  0.91354336  0.58382452  0.18806643  1
  O2-  O475  1  0.88689007  0.57389496  0.52765029  1
  O2-  O476  1  0.91467462  0.55413363  0.87405293  1
  O2-  O477  1  0.91464401  0.83904934  0.17518066  1
  O2-  O478  1  0.93751108  0.82432139  0.51243831  1
  O2-  O479  1  0.91675861  0.82228550  0.85695389  1
  O2-  O480  1  0.17090502  0.08817855  0.30291370  1
  O2-  O481  1  0.19203366  0.09171587  0.64935477  1
  O2-  O482  1  0.20400231  0.10890141  0.98866451  1
  O2-  O483  1  0.15759925  0.31629908  0.31885471  1
  O2-  O484  1  0.16294591  0.26440298  0.66341085  1
  O2-  O485  1  0.17961668  0.34740087  0.97368926  1
  O2-  O486  1  0.17634917  0.59441688  0.32248133  1
  O2-  O487  1  0.17347021  0.58676942  0.66891235  1
  O2-  O488  1  0.19451384  0.58682878  1.02387630  1
  O2-  O489  1  0.17465620  0.84263830  0.30988687  1
  O2-  O490  1  0.13109662  0.80074609  0.64320370  1
  O2-  O491  1  0.17001328  0.82386990  0.97526894  1
  O2-  O492  1  0.42550367  0.09607248  0.29022020  1
  O2-  O493  1  0.44572071  0.14065313  0.65088692  1
  O2-  O494  1  0.42299073  0.06740018  0.98271160  1
  O2-  O495  1  0.41174469  0.33577422  0.30474845  1
  O2-  O496  1  0.41519071  0.32934728  0.64598951  1
  O2-  O497  1  0.42983320  0.32396069  0.94635948  1
  O2-  O498  1  0.42241578  0.56603745  0.31387956  1
  O2-  O499  1  0.40927527  0.57975701  0.64836892  1
  O2-  O500  1  0.44531289  0.57334650  0.97626124  1
  O2-  O501  1  0.42016985  0.83076947  0.30718628  1
  O2-  O502  1  0.43272659  0.84489391  0.64632762  1
  O2-  O503  1  0.41605413  0.82699816  0.97388517  1
  O2-  O504  1  0.68990340  0.13144332  0.30705701  1
  O2-  O505  1  0.67071776  0.07662757  0.64809239  1
  O2-  O506  1  0.59234004  0.08496334  0.98832959  1
  O2-  O507  1  0.65247356  0.36099843  0.30259103  1
  O2-  O508  1  0.67156185  0.30981744  0.64213316  1
  O2-  O509  1  0.67200464  0.30740766  0.98028118  1
  O2-  O510  1  0.64753450  0.58642855  0.31905869  1
  O2-  O511  1  0.66164125  0.56590387  0.67663548  1
  O2-  O512  1  0.67830368  0.57852506  0.95938024  1
  O2-  O513  1  0.65682489  0.78481953  0.32484779  1
  O2-  O514  1  0.65993215  0.83651795  0.65011952  1
  O2-  O515  1  0.66282503  0.83239214  0.97752900  1
  O2-  O516  1  0.88898859  0.05749447  0.29847366  1
  O2-  O517  1  0.93294928  0.09097475  0.65854268  1
  O2-  O518  1  0.82859609  0.07738618  0.96621332  1
  O2-  O519  1  0.94210415  0.32464534  0.32425973  1
  O2-  O520  1  0.91743365  0.33026546  0.65200954  1
  O2-  O521  1  0.92949681  0.34633352  0.97798773  1
  O2-  O522  1  0.91905781  0.57356665  0.31356153  1
  O2-  O523  1  0.90336550  0.55977311  0.64986533  1
  O2-  O524  1  0.91543985  0.57307443  0.98335025  1
  O2-  O525  1  0.91757452  0.83777823  0.30456116  1
  O2-  O526  1  0.84964195  0.79096638  0.62309756  1
  O2-  O527  1  0.90693170  0.80203096  0.98231971  1
  O2-  O528  1  0.11486332  0.18290748  0.02562102  1
  O2-  O529  1  0.06493432  0.15090981  0.33491041  1
  O2-  O530  1  0.11257746  0.17927410  0.68996661  1
  O2-  O531  1  0.09006547  0.41098641  0.03022153  1
  O2-  O532  1  0.10665044  0.43216441  0.36965196  1
  O2-  O533  1  0.09545529  0.40170256  0.66026357  1
  O2-  O534  1  0.08597476  0.66092768  0.02496179  1
  O2-  O535  1  0.08351555  0.67176388  0.34877437  1
  O2-  O536  1  0.06605073  0.63992328  0.69656696  1
  O2-  O537  1  0.08746083  0.90196636  0.01403996  1
  O2-  O538  1  0.09033091  0.92726073  0.34767667  1
  O2-  O539  1  0.19320879  0.95209953  0.70338976  1
  O2-  O540  1  0.36202861  0.17558988  0.01753711  1
  O2-  O541  1  0.33621161  0.16859245  0.34655451  1
  O2-  O542  1  0.34439193  0.18306769  0.70310851  1
  O2-  O543  1  0.33884194  0.40006891  -0.00811593  1
  O2-  O544  1  0.30932681  0.39847951  0.32981801  1
  O2-  O545  1  0.32703143  0.40358000  0.68658817  1
  O2-  O546  1  0.35286894  0.64647294  -0.02194882  1
  O2-  O547  1  0.33433316  0.68555768  0.35853025  1
  O2-  O548  1  0.34856039  0.68229132  0.69071875  1
  O2-  O549  1  0.32876735  0.90279665  0.02294223  1
  O2-  O550  1  0.35655391  0.93751362  0.33153601  1
  O2-  O551  1  0.35192518  0.95605970  0.69182859  1
  O2-  O552  1  0.65004402  0.16261375  0.02370799  1
  O2-  O553  1  0.58317427  0.19124155  0.33833850  1
  O2-  O554  1  0.59810740  0.16260488  0.70156906  1
  O2-  O555  1  0.59666692  0.30789564  0.00697707  1
  O2-  O556  1  0.56960587  0.43165372  0.34799149  1
  O2-  O557  1  0.58291140  0.38479337  0.66431238  1
  O2-  O558  1  0.59491301  0.66497276  0.02187633  1
  O2-  O559  1  0.59572404  0.61950640  0.34794287  1
  O2-  O560  1  0.58120404  0.66677560  0.68348166  1
  O2-  O561  1  0.58123943  0.92287083  0.01870164  1
  O2-  O562  1  0.57795517  0.88685318  0.34524397  1
  O2-  O563  1  0.58612861  0.92038765  0.69976019  1
  O2-  O564  1  0.81274389  0.19466888  0.03505987  1
  O2-  O565  1  0.80630029  0.12675647  0.36972318  1
  O2-  O566  1  0.83331464  0.16458126  0.68972854  1
  O2-  O567  1  0.83485703  0.41562225  0.02121998  1
  O2-  O568  1  0.85696110  0.41359534  0.36138837  1
  O2-  O569  1  0.82602383  0.40188570  0.69916751  1
  O2-  O570  1  0.82982007  0.64415292  0.02145808  1
  O2-  O571  1  0.81096995  0.61640960  0.36383714  1
  O2-  O572  1  0.83062894  0.65402071  0.68153376  1
  O2-  O573  1  0.82031300  0.93227011  0.02857960  1
  O2-  O574  1  0.81351645  0.89264956  0.34619684  1
  O2-  O575  1  0.82912264  0.91359550  0.68289524  1
