# generated using pymatgen
data_H2O
_symmetry_space_group_name_H-M   'P 1'
_cell_length_a   18.00271250
_cell_length_b   17.99627912
_cell_length_c   21.99499858
_cell_angle_alpha   89.99470950
_cell_angle_beta   90.01786635
_cell_angle_gamma   120.05665449
_symmetry_Int_Tables_number   1
_chemical_formula_structural   H2O
_chemical_formula_sum   'H384 O192'
_cell_volume   6167.75333942
_cell_formula_units_Z   192
loop_
 _symmetry_equiv_pos_site_id
 _symmetry_equiv_pos_as_xyz
  1  'x, y, z'
loop_
 _atom_type_symbol
 _atom_type_oxidation_number
  H+  1.0
  O2-  -2.0
loop_
 _atom_site_type_symbol
 _atom_site_label
 _atom_site_symmetry_multiplicity
 _atom_site_fract_x
 _atom_site_fract_y
 _atom_site_fract_z
 _atom_site_occupancy
  H+  H0  1  0.63271283  0.02313398  0.56903142  1
  H+  H1  1  0.35919419  0.48920516  0.81811002  1
  H+  H2  1  0.77190834  0.40327585  0.68566120  1
  H+  H3  1  0.88948239  0.37140489  1.00125639  1
  H+  H4  1  0.71629840  0.60892208  0.51965724  1
  H+  H5  1  0.87645200  0.08723767  0.50514958  1
  H+  H6  1  0.13188884  0.02344210  0.84523432  1
  H+  H7  1  0.12366714  0.13755297  0.17330823  1
  H+  H8  1  1.01558431  0.63272585  0.66609616  1
  H+  H9  1  0.35473508  0.72966288  0.83117834  1
  H+  H10  1  0.10467626  0.39744793  0.79396684  1
  H+  H11  1  0.47844845  0.87408287  0.63452674  1
  H+  H12  1  0.48090939  0.85008256  0.17194343  1
  H+  H13  1  0.87398740  0.85217436  0.99005508  1
  H+  H14  1  0.29631105  0.39061339  0.66591020  1
  H+  H15  1  0.48255179  0.36680372  0.65889576  1
  H+  H16  1  0.02298140  0.12936551  0.49962213  1
  H+  H17  1  0.90177790  0.86265015  0.49715600  1
  H+  H18  1  0.72022987  0.09932738  0.00270395  1
  H+  H19  1  0.87343051  0.23608907  0.84019250  1
  H+  H20  1  0.22945678  0.60554140  0.01853755  1
  H+  H21  1  0.29144778  0.43110121  0.16396003  1
  H+  H22  1  0.87511797  0.61658761  0.14681125  1
  H+  H23  1  0.60658861  0.48496136  0.67939611  1
  H+  H24  1  0.12236187  0.98501033  0.65400152  1
  H+  H25  1  0.68047462  0.06527394  0.24255719  1
  H+  H26  1  0.85274883  0.19579598  0.50449395  1
  H+  H27  1  0.87888658  0.83861396  0.84199150  1
  H+  H28  1  0.36225393  0.48690144  1.00150494  1
  H+  H29  1  0.94903096  0.62133988  0.31389716  1
  H+  H30  1  0.85677469  0.22551139  1.01528912  1
  H+  H31  1  0.78757849  0.88745165  0.81044905  1
  H+  H32  1  0.11977086  0.64344791  0.66394136  1
  H+  H33  1  0.02040193  0.87052593  0.66848177  1
  H+  H34  1  0.85790234  0.03542305  0.85686804  1
  H+  H35  1  0.27023893  0.97890061  0.36950681  1
  H+  H36  1  0.88835048  0.95683129  0.80450036  1
  H+  H37  1  0.11866949  0.73429048  0.66493954  1
  H+  H38  1  0.37275543  0.14981616  0.14617187  1
  H+  H39  1  0.98277930  0.23490387  0.23767445  1
  H+  H40  1  0.88216937  0.27722042  0.17219284  1
  H+  H41  1  0.13758441  1.01355513  0.49458187  1
  H+  H42  1  0.13912594  0.73079771  0.34510749  1
  H+  H43  1  0.81584089  0.40877935  0.46574590  1
  H+  H44  1  0.12268438  0.89596299  0.82503702  1
  H+  H45  1  0.17513393  0.06087198  0.33032189  1
  H+  H46  1  0.72971686  0.11326131  0.84152360  1
  H+  H47  1  0.31752023  0.68481874  0.40485627  1
  H+  H48  1  0.08116757  0.90301716  0.42041126  1
  H+  H49  1  0.36906969  0.37569597  0.83621561  1
  H+  H50  1  0.51423549  0.64362338  0.66452838  1
  H+  H51  1  0.39739867  0.37584842  0.65530092  1
  H+  H52  1  0.28586608  0.88001132  0.11348310  1
  H+  H53  1  0.96225819  0.83093710  0.33646734  1
  H+  H54  1  0.45408567  0.11419400  0.84153825  1
  H+  H55  1  0.70776695  0.60942881  0.01051891  1
  H+  H56  1  0.50816257  0.39841250  0.17443457  1
  H+  H57  1  0.38254814  0.37851167  0.17369850  1
  H+  H58  1  0.61222106  0.46882935  0.50579677  1
  H+  H59  1  0.23801432  0.88906441  0.33992355  1
  H+  H60  1  0.73094217  0.85813145  0.99969301  1
  H+  H61  1  0.60715514  0.71829072  0.01895982  1
  H+  H62  1  0.12534365  0.50288634  0.50899497  1
  H+  H63  1  0.61557249  0.55769117  0.78937763  1
  H+  H64  1  0.85174993  0.71025104  0.68011115  1
  H+  H65  1  0.40588546  0.07885384  0.57262058  1
  H+  H66  1  0.86204401  0.13891275  1.01276025  1
  H+  H67  1  0.13432190  0.50625613  0.32907348  1
  H+  H68  1  0.13839522  0.59674247  0.32526283  1
  H+  H69  1  0.59700509  0.10586878  0.00764930  1
  H+  H70  1  0.97750287  0.11823274  1.00286623  1
  H+  H71  1  0.86330712  0.97571059  0.00540455  1
  H+  H72  1  0.52840439  0.40218212  0.76679405  1
  H+  H73  1  0.70752915  0.59951703  0.29401850  1
  H+  H74  1  0.57828879  -0.06849895  0.70303011  1
  H+  H75  1  0.86899420  0.85933814  0.13508881  1
  H+  H76  1  0.34455098  0.17588987  0.74241215  1
  H+  H77  1  0.66456942  0.06140535  0.94263434  1
  H+  H78  1  0.16071404  0.29713985  0.32103434  1
  H+  H79  1  0.60409052  0.65689641  0.81990768  1
  H+  H80  1  0.25500751  0.15408107  0.32831078  1
  H+  H81  1  1.01804373  0.13845569  0.82060752  1
  H+  H82  1  0.17527130  0.82453959  0.88522851  1
  H+  H83  1  0.13208993  0.36179879  1.00115155  1
  H+  H84  1  0.85580721  0.19149681  0.67604159  1
  H+  H85  1  0.38738296  0.44260392  0.45405285  1
  H+  H86  1  0.03531935  0.63725851  0.49487322  1
  H+  H87  1  0.77660676  0.39318575  0.16416608  1
  H+  H88  1  0.87196608  0.74291904  0.84663735  1
  H+  H89  1  0.39514226  0.19493417  0.35125704  1
  H+  H90  1  0.59867396  0.19933037  0.52303942  1
  H+  H91  1  0.89823878  0.53630206  0.67064597  1
  H+  H92  1  -0.01170920  0.33765616  0.32544240  1
  H+  H93  1  0.88561908  1.00346418  0.49633817  1
  H+  H94  1  0.37577408  0.76774833  0.49375678  1
  H+  H95  1  0.07392136  0.39590411  0.66984291  1
  H+  H96  1  0.12704949  0.60412860  0.50317089  1
  H+  H97  1  0.62127773  0.32687202  0.86267543  1
  H+  H98  1  0.89267140  0.52458547  0.85135332  1
  H+  H99  1  0.12640180  0.19787535  0.66954859  1
  H+  H100  1  0.59701026  0.20130286  0.84101956  1
  H+  H101  1  0.21793495  0.37279682  0.78794393  1
  H+  H102  1  0.37811193  0.48833944  0.65817891  1
  H+  H103  1  0.16982624  0.32537378  0.69291444  1
  H+  H104  1  0.60809991  0.37630805  0.51012626  1
  H+  H105  1  0.34102853  0.17483514  0.88765741  1
  H+  H106  1  0.20424060  0.70351719  0.37309048  1
  H+  H107  1  0.99013145  0.86137709  0.49774433  1
  H+  H108  1  0.59885876  0.68455102  0.16270173  1
  H+  H109  1  0.12490298  0.15517862  0.34902539  1
  H+  H110  1  0.02211198  0.39065684  0.01478133  1
  H+  H111  1  0.39272954  0.84780065  0.15825337  1
  H+  H112  1  0.59337216  0.54847630  0.16435950  1
  H+  H113  1  0.52888338  0.10996354  0.32072437  1
  H+  H114  1  0.63099530  0.37195904  0.17912262  1
  H+  H115  1  0.11075224  0.23326270  0.01491107  1
  H+  H116  1  0.37100308  0.71093657  0.16481659  1
  H+  H117  1  0.77372538  0.46373689  0.44884756  1
  H+  H118  1  0.02716474  0.37052079  0.50399188  1
  H+  H119  1  0.34493966  0.43798124  0.06449371  1
  H+  H120  1  0.66557949  0.31322101  1.03033499  1
  H+  H121  1  0.49777966  0.10929958  0.51557053  1
  H+  H122  1  0.63036680  0.28363558  0.67672331  1
  H+  H123  1  0.83720620  0.71788277  0.27852029  1
  H+  H124  1  0.90546178  0.63105176  0.52025233  1
  H+  H125  1  0.73161785  0.09787780  0.32800648  1
  H+  H126  1  0.32203167  0.46755884  0.42894320  1
  H+  H127  1  0.61915476  0.61416772  0.66574938  1
  H+  H128  1  0.77382482  0.40625801  0.84734137  1
  H+  H129  1  0.36633025  0.74047991  0.64640951  1
  H+  H130  1  0.10161203  0.84552311  0.32637766  1
  H+  H131  1  0.13933865  0.26770111  0.51759301  1
  H+  H132  1  0.41801481  0.83375963  0.26237871  1
  H+  H133  1  0.16999350  0.61976194  0.93651143  1
  H+  H134  1  0.38110196  0.79181702  0.32690161  1
  H+  H135  1  0.61071016  0.87181186  1.01977379  1
  H+  H136  1  0.38999495  0.06462865  0.93736505  1
  H+  H137  1  0.12132399  0.64587253  0.85665201  1
  H+  H138  1  0.58158276  0.18082157  -0.01146590  1
  H+  H139  1  0.37864293  1.01872237  0.50999523  1
  H+  H140  1  0.41181167  0.83719569  0.89003463  1
  H+  H141  1  0.82882291  0.65503488  0.45689194  1
  H+  H142  1  0.41184998  0.35151709  0.26980049  1
  H+  H143  1  0.63000519  0.84384184  0.31872031  1
  H+  H144  1  0.35595525  0.96738186  0.81777497  1
  H+  H145  1  0.36114911  0.88100784  0.81668996  1
  H+  H146  1  0.62197161  0.46692227  0.34592129  1
  H+  H147  1  0.38378093  0.75180436  1.00637922  1
  H+  H148  1  0.88023542  0.12791041  0.83807710  1
  H+  H149  1  0.57336079  0.90243863  0.41697860  1
  H+  H150  1  0.25443121  0.13644645  0.85108250  1
  H+  H151  1  0.85807107  0.40121361  0.69006543  1
  H+  H152  1  0.38914683  0.01922231  0.13839323  1
  H+  H153  1  0.88639902  0.50213498  1.01626155  1
  H+  H154  1  0.37084295  0.58040157  0.16341273  1
  H+  H155  1  0.16880839  0.30690508  0.16574028  1
  H+  H156  1  0.38040536  0.61883389  0.84096711  1
  H+  H157  1  0.59428860  0.10263637  0.51745325  1
  H+  H158  1  0.86313739  -0.04958987  0.65978508  1
  H+  H159  1  0.36515459  0.14028627  0.49768614  1
  H+  H160  1  0.61433827  0.60544042  0.00606390  1
  H+  H161  1  0.38617984  0.53676828  0.51129026  1
  H+  H162  1  0.15568233  0.80481679  0.03964344  1
  H+  H163  1  1.05068498  0.18335814  0.17030011  1
  H+  H164  1  1.13088340  0.99096350  0.10498745  1
  H+  H165  1  0.51049567  0.62614320  0.48990066  1
  H+  H166  1  0.22956369  0.86485034  0.50437329  1
  H+  H167  1  0.37063721  0.27689230  0.98396176  1
  H+  H168  1  0.85884664  0.87419138  0.33176000  1
  H+  H169  1  0.57473181  0.53322344  0.80756961  1
  H+  H170  1  0.48194009  0.58702838  0.31865850  1
  H+  H171  1  0.89769315  0.08500164  0.65139681  1
  H+  H172  1  0.89896589  0.02323276  0.32197504  1
  H+  H173  1  0.51021773  0.15210707  0.68342713  1
  H+  H174  1  0.63060332  0.75540009  0.32325190  1
  H+  H175  1  0.22964058  0.85438348  0.82479892  1
  H+  H176  1  0.22756689  0.35495700  0.51262791  1
  H+  H177  1  0.11357773  0.87533327  0.66994465  1
  H+  H178  1  0.70870584  0.89140821  0.50599731  1
  H+  H179  1  0.62485572  0.60173729  0.50728656  1
  H+  H180  1  -0.00621995  0.40810689  0.65281548  1
  H+  H181  1  0.89687224  0.25032305  0.32499462  1
  H+  H182  1  0.71891220  0.15088911  0.69416455  1
  H+  H183  1  0.23419788  0.60553253  0.17369210  1
  H+  H184  1  0.08799615  0.40578761  0.40531578  1
  H+  H185  1  0.26596896  0.64723578  0.34283480  1
  H+  H186  1  0.89879931  0.61672843  0.84437703  1
  H+  H187  1  0.60429459  0.70913719  0.48037745  1
  H+  H188  1  0.12188595  0.38279556  0.50717216  1
  H+  H189  1  0.99317461  0.28840307  0.89391792  1
  H+  H190  1  0.13104108  0.28211544  0.79034991  1
  H+  H191  1  0.69298735  0.48226433  0.88543626  1
  H+  H192  1  0.75533096  0.63332300  0.68511376  1
  H+  H193  1  0.61433849  0.95896688  0.32980864  1
  H+  H194  1  0.40240215  0.09327615  0.29311673  1
  H+  H195  1  0.88678996  0.84308692  0.65272434  1
  H+  H196  1  0.59061220  0.86652177  0.47945062  1
  H+  H197  1  0.38871954  0.26976570  0.51586493  1
  H+  H198  1  0.90041230  0.54445678  0.50509443  1
  H+  H199  1  0.14472974  0.77224869  0.50664733  1
  H+  H200  1  0.36462240  0.28322561  0.84219029  1
  H+  H201  1  0.38120496  0.28750725  0.17001576  1
  H+  H202  1  0.44369822  0.08638730  0.99791179  1
  H+  H203  1  0.27872760  0.62844039  0.49524933  1
  H+  H204  1  0.10967909  0.14232067  1.01559460  1
  H+  H205  1  0.74163685  0.09896460  0.17639389  1
  H+  H206  1  0.21946220  0.36125633  0.99871000  1
  H+  H207  1  0.05336372  0.66127100  0.02586609  1
  H+  H208  1  0.86787717  0.02904080  0.18139920  1
  H+  H209  1  0.42298919  0.33426451  0.58334037  1
  H+  H210  1  0.13970054  0.66114839  0.03301104  1
  H+  H211  1  0.61763266  0.90441934  0.64933030  1
  H+  H212  1  0.82075658  0.61467999  0.00125696  1
  H+  H213  1  0.13600227  0.64821320  0.17852671  1
  H+  H214  1  -0.00150611  0.35968257  0.84946078  1
  H+  H215  1  0.47428662  0.61096415  0.98945543  1
  H+  H216  1  0.46363179  0.85677450  0.48577248  1
  H+  H217  1  0.12594285  0.91968607  0.06007758  1
  H+  H218  1  0.51623522  0.65627477  0.82638620  1
  H+  H219  1  0.70081723  0.32319771  0.52675323  1
  H+  H220  1  0.83700731  0.63150877  0.27121400  1
  H+  H221  1  0.86319648  0.75700939  -0.00436479  1
  H+  H222  1  0.61765635  0.86392382  0.16672793  1
  H+  H223  1  0.13820545  0.77472172  0.22814355  1
  H+  H224  1  0.10963020  0.72112491  0.82376760  1
  H+  H225  1  0.51970539  0.87489248  0.32779456  1
  H+  H226  1  0.65105823  -0.00240247  0.17907971  1
  H+  H227  1  0.60658446  -0.02160474  0.80464926  1
  H+  H228  1  0.84909634  0.48082996  0.30684535  1
  H+  H229  1  0.59947638  0.61078774  0.33371737  1
  H+  H230  1  0.13268995  0.08598698  0.65414048  1
  H+  H231  1  0.36592645  0.23018610  0.68239470  1
  H+  H232  1  0.14761087  0.38310708  0.16855394  1
  H+  H233  1  0.92558640  0.82066500  0.59592761  1
  H+  H234  1  0.77217866  0.87819081  0.32789665  1
  H+  H235  1  0.91156957  0.52173607  0.16695382  1
  H+  H236  1  0.89494987  0.80816555  0.91622024  1
  H+  H237  1  0.37913867  0.11463815  0.66432591  1
  H+  H238  1  0.63734665  0.36100446  0.33047734  1
  H+  H239  1  0.13238503  0.03376361  1.01330240  1
  H+  H240  1  0.62704317  0.40849850  0.03144424  1
  H+  H241  1  0.12527784  0.10981149  0.84683403  1
  H+  H242  1  0.22675748  0.61737247  0.65037216  1
  H+  H243  1  0.62163349  0.53372555  0.26455490  1
  H+  H244  1  0.85480258  0.27728120  0.66806804  1
  H+  H245  1  0.86237800  0.12108131  0.34779657  1
  H+  H246  1  0.86937529  0.72974609  0.50614664  1
  H+  H247  1  0.94491845  0.66263472  0.99265052  1
  H+  H248  1  0.64176268  0.09876948  0.31954710  1
  H+  H249  1  0.75994835  0.10874254  0.50449455  1
  H+  H250  1  0.71494058  0.81500673  0.16661861  1
  H+  H251  1  0.64008995  0.05778754  0.67885899  1
  H+  H252  1  0.35830975  0.88748729  0.48347651  1
  H+  H253  1  0.61392266  -0.00685845  0.50037951  1
  H+  H254  1  0.35823229  0.09059813  0.84025935  1
  H+  H255  1  0.52007133  0.14718144  0.15219877  1
  H+  H256  1  1.00072538  0.88493612  0.10516918  1
  H+  H257  1  0.11231238  0.47930869  0.16376113  1
  H+  H258  1  0.63644064  0.09737548  0.84967183  1
  H+  H259  1  0.38686257  0.61617505  0.64546231  1
  H+  H260  1  0.36584409  0.89128312  0.65912660  1
  H+  H261  1  0.88139466  0.16153040  0.16861825  1
  H+  H262  1  0.83055507  1.00833955  0.20332224  1
  H+  H263  1  0.23137390  0.86364026  0.65644002  1
  H+  H264  1  0.89652607  0.32765664  0.49272896  1
  H+  H265  1  0.12360939  0.38720233  0.34301069  1
  H+  H266  1  0.13569962  0.52305892  1.01450705  1
  H+  H267  1  0.87257784  0.77100751  0.36925506  1
  H+  H268  1  0.18573080  0.35973762  0.26423375  1
  H+  H269  1  0.26732081  0.14638680  0.00335679  1
  H+  H270  1  0.11776227  0.88170139  0.48190686  1
  H+  H271  1  -0.01478860  0.11416485  0.33706623  1
  H+  H272  1  0.92068884  0.05747895  0.58888729  1
  H+  H273  1  0.60658615  0.89357454  0.79133667  1
  H+  H274  1  0.37712298  0.00031140  0.30907899  1
  H+  H275  1  0.38301613  0.02645902  0.66075630  1
  H+  H276  1  0.07461783  0.92782176  0.31947647  1
  H+  H277  1  0.47243827  0.86278400  0.82876233  1
  H+  H278  1  0.78140674  0.85263078  0.47414217  1
  H+  H279  1  0.59932438  -0.04690962  1.01957632  1
  H+  H280  1  0.23246015  0.65183934  0.87780981  1
  H+  H281  1  0.32089313  0.92547322  0.43214158  1
  H+  H282  1  0.37387499  0.63770966  0.49357381  1
  H+  H283  1  0.75010036  0.40045866  0.01525537  1
  H+  H284  1  0.64118843  0.79490624  0.82259716  1
  H+  H285  1  0.78334186  0.61367659  0.84212628  1
  H+  H286  1  0.81382134  0.64892757  0.17079870  1
  H+  H287  1  0.61399152  0.49891624  1.02195997  1
  H+  H288  1  0.55712673  0.20603600  0.77905983  1
  H+  H289  1  0.10588856  0.66783434  0.43769622  1
  H+  H290  1  0.17485764  0.57355406  0.23417193  1
  H+  H291  1  0.08180416  0.41686902  0.07358904  1
  H+  H292  1  0.17508578  0.32106278  0.61745194  1
  H+  H293  1  1.00468493  0.61517698  0.17309480  1
  H+  H294  1  0.56570112  0.64612962  0.07229976  1
  H+  H295  1  0.39248694  0.48264137  0.30917981  1
  H+  H296  1  0.78464308  0.59820144  0.38693620  1
  H+  H297  1  0.28319926  0.64784527  0.79321734  1
  H+  H298  1  0.33471936  0.38144572  0.36410307  1
  H+  H299  1  0.48313999  0.36067199  0.51431509  1
  H+  H300  1  0.86110248  0.38341636  0.16671142  1
  H+  H301  1  0.42469579  0.59478200  0.58518116  1
  H+  H302  1  0.64874803  0.57959739  0.60874035  1
  H+  H303  1  0.16069012  0.57597218  0.56799707  1
  H+  H304  1  0.81912802  0.64678819  0.07010214  1
  H+  H305  1  0.35084260  0.66591574  0.10199850  1
  H+  H306  1  0.65736114  0.33188045  0.25927380  1
  H+  H307  1  0.61063580  0.20229574  0.32754057  1
  H+  H308  1  0.15675551  0.05376282  0.58876452  1
  H+  H309  1  0.82416805  0.65477317  0.77416166  1
  H+  H310  1  0.83576045  0.90481967  0.41639130  1
  H+  H311  1  0.88267747  0.39375721  0.60940616  1
  H+  H312  1  0.92187700  0.09519571  0.94176326  1
  H+  H313  1  0.92399606  0.33402158  0.94797019  1
  H+  H314  1  0.72046019  0.85727183  0.64927922  1
  H+  H315  1  0.56429814  0.63882869  0.39288566  1
  H+  H316  1  0.58469601  0.17609982  0.09841098  1
  H+  H317  1  0.83495916  0.16441888  0.10538751  1
  H+  H318  1  0.35630204  0.14449221  0.99855225  1
  H+  H319  1  0.84356972  0.92758901  0.15780839  1
  H+  H320  1  0.82724695  0.42878185  0.78598854  1
  H+  H321  1  0.50525462  0.59957181  0.15649813  1
  H+  H322  1  0.34353301  0.18692456  0.09107246  1
  H+  H323  1  0.94151143  0.60374294  0.93744184  1
  H+  H324  1  0.95496785  0.13954099  0.24838473  1
  H+  H325  1  0.73430840  0.36875764  0.31378955  1
  H+  H326  1  0.04993638  0.43152176  0.76307701  1
  H+  H327  1  0.11335767  0.69535311  0.12697490  1
  H+  H328  1  0.15030837  0.07753587  0.94561961  1
  H+  H329  1  0.68041057  0.55308876  0.91988741  1
  H+  H330  1  0.11208107  0.13017329  0.49993488  1
  H+  H331  1  0.33546091  0.91338715  0.72268550  1
  H+  H332  1  0.59124117  0.90300177  0.11027949  1
  H+  H333  1  0.07538647  0.14520823  0.76306817  1
  H+  H334  1  0.03238496  0.11233431  0.66317054  1
  H+  H335  1  0.59814355  0.15511897  0.70270517  1
  H+  H336  1  0.21890840  0.89193574  1.00732417  1
  H+  H337  1  0.24474978  0.11363501  0.15631276  1
  H+  H338  1  0.65071733  0.31554504  0.58753427  1
  H+  H339  1  0.93125585  0.58734050  0.60548900  1
  H+  H340  1  0.08931979  0.17657821  0.40839740  1
  H+  H341  1  0.91365765  0.32462353  0.56515082  1
  H+  H342  1  0.17027737  0.83420170  0.59688572  1
  H+  H343  1  0.82581767  0.59689661  0.38563279  1
  H+  H344  1  0.56973667  0.67976098  0.72663547  1
  H+  H345  1  0.65887986  0.81009732  0.94912975  1
  H+  H346  1  0.45891543  0.75599490  0.04268243  1
  H+  H347  1  0.41242109  0.83981981  0.57807357  1
  H+  H348  1  0.09289752  0.92574149  0.76758660  1
  H+  H349  1  0.37370956  0.37245095  0.99007561  1
  H+  H350  1  0.82391301  0.14392235  0.40600259  1
  H+  H351  1  0.96992187  0.83470911  0.16697775  1
  H+  H352  1  0.85146434  0.43706693  0.07385920  1
  H+  H353  1  0.12875572  0.53054791  0.65428192  1
  H+  H354  1  0.58091829  0.43167281  0.08785596  1
  H+  H355  1  0.37733389  0.27121263  0.34885161  1
  H+  H356  1  0.35097251  0.69066827  0.70751835  1
  H+  H357  1  0.59806352  0.40903232  0.40745350  1
  H+  H358  1  0.39854047  0.62870942  0.99000511  1
  H+  H359  1  0.39498511  0.34251864  0.91851603  1
  H+  H360  1  0.62583212  0.77678846  0.65246919  1
  H+  H361  1  0.09121054  0.17945919  0.10209867  1
  H+  H362  1  0.16491724  0.10781290  0.24148850  1
  H+  H363  1  0.63818530  0.37441216  0.66500076  1
  H+  H364  1  0.22423233  0.10540335  0.50496636  1
  H+  H365  1  0.35760006  0.89689917  0.06776790  1
  H+  H366  1  0.83051992  0.88924958  0.71783105  1
  H+  H367  1  0.41598907  0.55271828  0.25368050  1
  H+  H368  1  1.01880916  0.62765095  0.83771288  1
  H+  H369  1  0.34154009  0.18391654  0.44225708  1
  H+  H370  1  0.65834287  0.82999039  0.56001683  1
  H+  H371  1  0.66108646  0.79803996  0.22850992  1
  H+  H372  1  0.41660964  0.58913762  0.89579785  1
  H+  H373  1  0.34813284  0.43664624  0.75649206  1
  H+  H374  1  0.91955530  0.32678122  0.23399482  1
  H+  H375  1  0.02171814  0.38892883  0.16554380  1
  H+  H376  1  0.67780188  0.88092966  0.86276350  1
  H+  H377  1  0.62721279  0.28047427  0.17044200  1
  H+  H378  1  0.40773159  0.05617328  0.20500230  1
  H+  H379  1  0.83389871  0.20170316  0.77394679  1
  H+  H380  1  0.66951766  0.36007239  0.92646522  1
  H+  H381  1  0.83300007  0.43053464  0.36781078  1
  H+  H382  1  0.92130485  0.58686524  0.24513578  1
  H+  H383  1  0.83147042  0.90656625  0.06088655  1
  O2-  O384  1  0.10257206  0.18829487  0.14867511  1
  O2-  O385  1  0.08505857  0.16524941  0.48941217  1
  O2-  O386  1  0.07771847  0.16281442  0.80624117  1
  O2-  O387  1  0.08168792  0.41787514  0.14929859  1
  O2-  O388  1  0.08865921  0.41046944  0.49208419  1
  O2-  O389  1  0.06859854  0.42346485  0.80340157  1
  O2-  O390  1  0.10689739  0.68260175  0.17130310  1
  O2-  O391  1  0.09698862  0.65960034  0.48376519  1
  O2-  O392  1  0.08256235  0.65622086  0.82330927  1
  O2-  O393  1  0.18702812  1.05970531  0.16651071  1
  O2-  O394  1  0.08836976  0.91238971  0.46607150  1
  O2-  O395  1  0.09709352  0.93077465  0.81219183  1
  O2-  O396  1  0.34381592  0.18345272  0.13650513  1
  O2-  O397  1  0.33617872  0.17355352  0.48710948  1
  O2-  O398  1  0.31984174  0.17019649  0.84604785  1
  O2-  O399  1  0.35379350  0.45930232  0.14915439  1
  O2-  O400  1  0.32745016  0.41841173  0.44179794  1
  O2-  O401  1  0.33039848  0.43021770  0.80014302  1
  O2-  O402  1  0.34049081  0.65191637  0.14608304  1
  O2-  O403  1  0.33632489  0.66407492  0.47831433  1
  O2-  O404  1  0.31706188  0.66455547  0.83043726  1
  O2-  O405  1  0.34825482  0.90440870  0.11151045  1
  O2-  O406  1  0.32963282  0.92279287  0.47687868  1
  O2-  O407  1  0.32876579  0.90834657  0.79975198  1
  O2-  O408  1  0.58144995  0.18681649  0.14203421  1
  O2-  O409  1  0.56664245  0.13855210  0.50648768  1
  O2-  O410  1  0.55225439  0.21086210  0.82453328  1
  O2-  O411  1  0.57091599  0.42711752  0.15966819  1
  O2-  O412  1  0.58168069  0.40748305  0.49098303  1
  O2-  O413  1  0.58119629  0.40500862  0.75175278  1
  O2-  O414  1  0.56650725  0.62581180  0.14376095  1
  O2-  O415  1  0.57159907  0.64762574  0.47062677  1
  O2-  O416  1  0.57684497  0.69053239  0.80950825  1
  O2-  O417  1  0.59565450  0.90349589  0.15656393  1
  O2-  O418  1  0.56732989  0.90223049  0.46318669  1
  O2-  O419  1  0.57241718  0.92186451  0.78416349  1
  O2-  O420  1  0.83339588  0.16712747  0.15113315  1
  O2-  O421  1  0.81921383  0.13580948  0.48832999  1
  O2-  O422  1  0.83214162  0.18329548  0.81680627  1
  O2-  O423  1  0.83638660  0.41827984  0.14931734  1
  O2-  O424  1  0.82832627  0.46419128  0.44933192  1
  O2-  O425  1  0.83252244  0.42961858  0.83077828  1
  O2-  O426  1  0.82804471  0.62713125  0.13415608  1
  O2-  O427  1  0.83479417  0.66505173  0.50092574  1
  O2-  O428  1  0.83671591  0.65639437  0.81966136  1
  O2-  O429  1  0.82165432  0.87492022  0.13363597  1
  O2-  O430  1  0.83790486  0.90005273  0.46253573  1
  O2-  O431  1  0.84526624  0.89654639  0.79827064  1
  O2-  O432  1  0.13599764  0.08841220  0.19999687  1
  O2-  O433  1  0.16286812  0.06992245  0.51714686  1
  O2-  O434  1  0.15479063  0.08141322  0.86588046  1
  O2-  O435  1  0.19031039  0.36537659  0.18177700  1
  O2-  O436  1  0.17135979  0.32864901  0.53282508  1
  O2-  O437  1  0.15819738  0.34004215  0.77152388  1
  O2-  O438  1  0.17403845  0.57973215  0.18869814  1
  O2-  O439  1  0.15563801  0.56828486  0.52094552  1
  O2-  O440  1  0.18168492  0.65029977  0.89660552  1
  O2-  O441  1  0.16018925  0.83297792  0.24560441  1
  O2-  O442  1  0.16848654  0.83281404  0.51945980  1
  O2-  O443  1  0.16860400  0.82392458  0.84114644  1
  O2-  O444  1  0.40894226  0.07303202  0.16187662  1
  O2-  O445  1  0.41230722  0.07961583  0.52629833  1
  O2-  O446  1  0.39515774  0.06628824  0.85075102  1
  O2-  O447  1  0.40846945  0.34512769  0.19001442  1
  O2-  O448  1  0.42215965  0.33135272  0.53133904  1
  O2-  O449  1  0.39610298  0.34415229  0.85585748  1
  O2-  O450  1  0.39905726  0.54650728  0.17906981  1
  O2-  O451  1  0.42386127  0.59798459  0.51786785  1
  O2-  O452  1  0.41675516  0.59275978  0.85011530  1
  O2-  O453  1  0.41840704  0.81856676  0.18117564  1
  O2-  O454  1  0.40455514  0.83097647  0.50354263  1
  O2-  O455  1  0.41270395  0.83140803  0.84443187  1
  O2-  O456  1  0.68164843  0.06042840  0.19421634  1
  O2-  O457  1  0.64112499  0.04620130  0.52760612  1
  O2-  O458  1  0.67057743  0.06970151  0.85580700  1
  O2-  O459  1  0.66014885  0.33971782  0.19070773  1
  O2-  O460  1  0.64245429  0.30178736  0.54134729  1
  O2-  O461  1  0.67071541  0.37496796  0.88300653  1
  O2-  O462  1  0.61505794  0.51391796  0.18644567  1
  O2-  O463  1  0.65413034  0.57372366  0.52854941  1
  O2-  O464  1  0.71846295  0.54475963  0.89235707  1
  O2-  O465  1  0.65581889  0.79026468  0.18319775  1
  O2-  O466  1  0.66136128  0.83345007  0.51388344  1
  O2-  O467  1  0.68138863  0.85929904  0.82281779  1
  O2-  O468  1  0.97411326  0.18364762  0.21513763  1
  O2-  O469  1  0.91243251  0.06084411  0.51625359  1
  O2-  O470  1  0.90626479  0.09398190  0.85529155  1
  O2-  O471  1  0.91446656  0.33631862  0.18934845  1
  O2-  O472  1  0.92103246  0.30407541  0.52111725  1
  O2-  O473  1  0.95846230  0.31263310  0.87944097  1
  O2-  O474  1  0.94014980  0.58356126  0.17879976  1
  O2-  O475  1  0.93626362  0.59828194  0.52778308  1
  O2-  O476  1  0.92999287  0.58868091  0.86268998  1
  O2-  O477  1  0.94855723  0.84306989  0.12840590  1
  O2-  O478  1  0.93073332  0.83359413  0.51595917  1
  O2-  O479  1  0.89984844  0.80489383  0.86485087  1
  O2-  O480  1  0.19431798  0.11805317  0.31374483  1
  O2-  O481  1  0.15602550  0.04974307  0.63521861  1
  O2-  O482  1  0.15915145  0.08935364  0.99024914  1
  O2-  O483  1  0.18457019  0.35756554  0.30935865  1
  O2-  O484  1  0.19085216  0.30676087  0.65718107  1
  O2-  O485  1  0.15823364  0.32720313  0.98762388  1
  O2-  O486  1  0.16538645  0.56436198  0.30935598  1
  O2-  O487  1  0.16586463  0.58996944  0.63573375  1
  O2-  O488  1  0.17040025  0.58759669  1.00752198  1
  O2-  O489  1  0.14637997  0.81733620  0.31202208  1
  O2-  O490  1  0.16938714  0.83161903  0.64259978  1
  O2-  O491  1  0.18366203  0.86836319  1.04367418  1
  O2-  O492  1  0.42041918  0.05127800  0.28559398  1
  O2-  O493  1  0.41076143  0.08718657  0.64561763  1
  O2-  O494  1  0.38865818  0.07633128  0.98114364  1
  O2-  O495  1  0.41589220  0.36254680  0.31496711  1
  O2-  O496  1  0.42191594  0.33775206  0.64178965  1
  O2-  O497  1  0.39755201  0.33862408  0.96812812  1
  O2-  O498  1  0.41931775  0.54788073  0.29929854  1
  O2-  O499  1  0.42018668  0.58857145  0.63326701  1
  O2-  O500  1  0.41487297  0.58757534  0.97270314  1
  O2-  O501  1  0.42571119  0.84483944  0.30673601  1
  O2-  O502  1  0.41613300  0.84083611  0.62402354  1
  O2-  O503  1  0.38123815  0.82399192  0.96376535  1
  O2-  O504  1  0.67397740  0.06804750  0.30689298  1
  O2-  O505  1  0.65734561  0.11021210  0.70260447  1
  O2-  O506  1  0.66018177  0.06323975  0.98737395  1
  O2-  O507  1  0.66563845  0.33018453  0.30616839  1
  O2-  O508  1  0.66669440  0.34033269  0.65519324  1
  O2-  O509  1  0.68511887  0.36728342  1.00881106  1
  O2-  O510  1  0.64580408  0.55844778  0.30524261  1
  O2-  O511  1  0.64661940  0.57955567  0.65402769  1
  O2-  O512  1  0.64593181  0.57277373  0.99656932  1
  O2-  O513  1  0.66240438  0.81409691  0.30596730  1
  O2-  O514  1  0.66056298  0.83623881  0.63488069  1
  O2-  O515  1  0.66656170  0.82148411  0.99259766  1
  O2-  O516  1  0.92753630  0.08650759  0.31677433  1
  O2-  O517  1  0.92724169  0.05649679  0.63491977  1
  O2-  O518  1  0.91717545  0.08701497  0.98631274  1
  O2-  O519  1  0.94120616  0.29546889  0.29873681  1
  O2-  O520  1  0.90627907  0.35878848  0.62430961  1
  O2-  O521  1  0.91441362  0.33410315  0.99261665  1
  O2-  O522  1  0.89911760  0.58453895  0.28891819  1
  O2-  O523  1  0.93801837  0.59263178  0.65063943  1
  O2-  O524  1  0.94610819  0.61022183  0.98336535  1
  O2-  O525  1  0.89590146  0.80303727  0.33164693  1
  O2-  O526  1  0.92253355  0.81713895  0.64112691  1
  O2-  O527  1  0.89558450  0.81397240  0.97484568  1
  O2-  O528  1  0.07941152  0.17207457  0.03253040  1
  O2-  O529  1  0.08903452  0.17903112  0.36308348  1
  O2-  O530  1  0.09019193  0.13629865  0.68236332  1
  O2-  O531  1  0.08353190  0.42060991  0.02790338  1
  O2-  O532  1  0.08469243  0.40754549  0.36060262  1
  O2-  O533  1  0.05362309  0.43664380  0.67473341  1
  O2-  O534  1  0.11005804  0.69280683  0.04562620  1
  O2-  O535  1  0.14167248  0.68507514  0.36994304  1
  O2-  O536  1  0.08800758  0.67209484  0.67990482  1
  O2-  O537  1  0.09845443  0.95484957  0.06949669  1
  O2-  O538  1  0.05928243  0.87938853  0.34655789  1
  O2-  O539  1  0.08234070  0.90632196  0.68249905  1
  O2-  O540  1  0.33105352  0.18180699  0.01067312  1
  O2-  O541  1  0.35258370  0.20991956  0.36463002  1
  O2-  O542  1  0.33941769  0.17105013  0.69821515  1
  O2-  O543  1  0.33714041  0.42808485  0.02013363  1
  O2-  O544  1  0.34804274  0.38725449  0.31975392  1
  O2-  O545  1  0.35730226  0.43019749  0.67782495  1
  O2-  O546  1  0.39970112  0.71405195  0.03133507  1
  O2-  O547  1  0.29905720  0.70092579  0.36665905  1
  O2-  O548  1  0.33555552  0.68036044  0.66464556  1
  O2-  O549  1  0.34577894  0.86723474  -0.01329339  1
  O2-  O550  1  0.29076929  0.93930324  0.36003645  1
  O2-  O551  1  0.33415459  0.91838323  0.67725659  1
  O2-  O552  1  0.56407154  0.13551002  0.01870941  1
  O2-  O553  1  0.58621816  0.14213382  0.33994180  1
  O2-  O554  1  0.56577000  0.18761430  0.70524745  1
  O2-  O555  1  0.58767151  0.43174966  0.04179941  1
  O2-  O556  1  0.60567983  0.40914342  0.36290636  1
  O2-  O557  1  0.57803154  0.41910929  0.68571602  1
  O2-  O558  1  0.56938257  0.65555701  0.02664192  1
  O2-  O559  1  0.56474978  0.63812633  0.34692752  1
  O2-  O560  1  0.57458927  0.67671711  0.68194385  1
  O2-  O561  1  0.57697187  0.89565090  0.03831769  1
  O2-  O562  1  0.58129104  0.89831001  0.34388144  1
  O2-  O563  1  0.58720005  0.93699805  0.65802172  1
  O2-  O564  1  0.82768195  0.16419264  0.02896594  1
  O2-  O565  1  0.82710366  0.14716433  0.36093477  1
  O2-  O566  1  0.83016210  0.22284247  0.69404726  1
  O2-  O567  1  0.85067952  0.44103071  0.02820994  1
  O2-  O568  1  0.82226892  0.42083643  0.32389534  1
  O2-  O569  1  0.83188841  0.43581773  0.70181089  1
  O2-  O570  1  0.80943399  0.65467763  0.02404361  1
  O2-  O571  1  0.80409277  0.66025850  0.25943223  1
  O2-  O572  1  0.81347147  0.65724581  0.70262574  1
  O2-  O573  1  0.83185446  0.91307167  0.01534706  1
  O2-  O574  1  0.83295379  0.91052870  0.34249690  1
  O2-  O575  1  0.82610373  0.88958277  0.67283701  1
