# generated using pymatgen
data_H2O
_symmetry_space_group_name_H-M   'P 1'
_cell_length_a   17.99636963
_cell_length_b   17.99913974
_cell_length_c   22.00715560
_cell_angle_alpha   90.00853641
_cell_angle_beta   90.00711038
_cell_angle_gamma   119.99314236
_symmetry_Int_Tables_number   1
_chemical_formula_structural   H2O
_chemical_formula_sum   'H384 O192'
_cell_volume   6173.92272483
_cell_formula_units_Z   192
loop_
 _symmetry_equiv_pos_site_id
 _symmetry_equiv_pos_as_xyz
  1  'x, y, z'
loop_
 _atom_type_symbol
 _atom_type_oxidation_number
  H+  1.0
  O2-  -2.0
loop_
 _atom_site_type_symbol
 _atom_site_label
 _atom_site_symmetry_multiplicity
 _atom_site_fract_x
 _atom_site_fract_y
 _atom_site_fract_z
 _atom_site_occupancy
  H+  H0  1  0.36478077  0.98097675  0.67745059  1
  H+  H1  1  0.62527902  0.86356822  0.49477419  1
  H+  H2  1  0.59437246  0.41651550  0.07980080  1
  H+  H3  1  0.83993776  0.61807419  0.32061579  1
  H+  H4  1  0.45530792  0.36508926  0.31589749  1
  H+  H5  1  1.00697692  0.59111227  0.36947199  1
  H+  H6  1  0.72589608  0.10919612  0.32839069  1
  H+  H7  1  0.38388127  0.64913760  0.83882271  1
  H+  H8  1  0.86406330  0.76717556  0.31884586  1
  H+  H9  1  0.37416542  0.27081549  0.31980956  1
  H+  H10  1  0.83966525  0.16354235  1.07382483  1
  H+  H11  1  0.47390261  0.60969376  0.32310021  1
  H+  H12  1  0.13115872  0.59275171  0.51785368  1
  H+  H13  1  0.83755769  0.16853131  0.74520751  1
  H+  H14  1  0.13653843  0.86003023  0.00183308  1
  H+  H15  1  0.88248294  0.52848106  0.67789053  1
  H+  H16  1  0.71487064  0.85686282  0.15289212  1
  H+  H17  1  0.03209596  0.12860992  0.34347903  1
  H+  H18  1  0.64319584  0.36068252  1.00583422  1
  H+  H19  1  0.39026497  0.40452310  0.81577524  1
  H+  H20  1  0.52920387  0.13079390  1.00793492  1
  H+  H21  1  0.41714714  0.31116804  0.84053985  1
  H+  H22  1  0.86252110  0.38375926  0.84479581  1
  H+  H23  1  0.23341845  0.86413071  0.66543911  1
  H+  H24  1  0.39066019  0.52915314  0.50821279  1
  H+  H25  1  0.01182663  0.62959637  0.83183063  1
  H+  H26  1  0.06138648  0.76474007  0.30515815  1
  H+  H27  1  0.63663512  0.40143425  0.48754612  1
  H+  H28  1  0.60913384  0.12382086  0.69053937  1
  H+  H29  1  -0.02696428  0.61038868  -0.00356452  1
  H+  H30  1  0.37517201  0.89807729  0.67183201  1
  H+  H31  1  0.62131701  0.60059952  0.68037521  1
  H+  H32  1  0.87110083  0.22328756  0.16345577  1
  H+  H33  1  0.01052274  0.87253272  0.82329246  1
  H+  H34  1  0.33104331  0.84388250  0.16107693  1
  H+  H35  1  0.12736783  0.50626458  0.66881421  1
  H+  H36  1  0.32029683  0.68416749  0.83111337  1
  H+  H37  1  0.21381046  0.84398863  0.84217249  1
  H+  H38  1  0.61794298  0.14462458  0.46963966  1
  H+  H39  1  0.48669752  0.62312399  0.99593706  1
  H+  H40  1  0.91300149  0.32613025  0.26639371  1
  H+  H41  1  0.77269155  0.37376525  0.48981801  1
  H+  H42  1  0.44172936  0.35556695  0.93984713  1
  H+  H43  1  0.73338699  0.10781598  1.00470600  1
  H+  H44  1  0.10506176  0.37209928  0.49745438  1
  H+  H45  1  0.15513428  1.03682398  0.50225519  1
  H+  H46  1  0.17233877  0.76569358  0.34045391  1
  H+  H47  1  0.60893732  0.64574261  0.49518962  1
  H+  H48  1  0.51720339  0.63967706  0.49366159  1
  H+  H49  1  0.61383592  0.14246024  0.84677934  1
  H+  H50  1  0.27720211  0.63012854  0.33900667  1
  H+  H51  1  0.64707565  1.04697726  0.85085718  1
  H+  H52  1  0.03298128  0.91557011  0.49885841  1
  H+  H53  1  0.73209397  0.85989481  0.99610081  1
  H+  H54  1  0.87404028  0.10383233  0.66217808  1
  H+  H55  1  0.53446599  0.38811270  0.02041732  1
  H+  H56  1  0.96709618  0.10209030  0.17793085  1
  H+  H57  1  0.85461402  0.97844674  0.32321914  1
  H+  H58  1  0.63833655  0.60310174  0.84880735  1
  H+  H59  1  0.85985547  0.88413180  0.67923450  1
  H+  H60  1  0.36469552  0.62937803  0.33612755  1
  H+  H61  1  0.70758341  0.62473573  0.55167149  1
  H+  H62  1  0.39064397  0.87010119  0.99424413  1
  H+  H63  1  0.37765082  0.26805011  0.64913754  1
  H+  H64  1  0.19060294  0.58482165  0.83224809  1
  H+  H65  1  0.61084335  -0.02665318  0.32725587  1
  H+  H66  1  0.90064532  0.36425082  0.66545110  1
  H+  H67  1  0.31793464  0.52951964  0.87971684  1
  H+  H68  1  0.52321001  0.13717852  0.32875243  1
  H+  H69  1  0.60955375  0.73344191  0.32758836  1
  H+  H70  1  0.27275326  0.88026612  1.00685238  1
  H+  H71  1  0.17796797  0.33343149  0.97344223  1
  H+  H72  1  0.27337772  0.39303837  0.49737287  1
  H+  H73  1  0.63155226  0.97938477  0.46501895  1
  H+  H74  1  0.14152670  0.02831942  0.65415088  1
  H+  H75  1  0.08132002  0.17573243  0.71271806  1
  H+  H76  1  0.27139138  0.13416157  0.16249928  1
  H+  H77  1  0.42548115  0.79769139  0.84609905  1
  H+  H78  1  0.63005978  0.26982351  0.48984190  1
  H+  H79  1  0.63861855  0.11346282  0.32333383  1
  H+  H80  1  0.09905552  0.87001777  0.82613572  1
  H+  H81  1  0.77881114  0.14401605  0.84036818  1
  H+  H82  1  0.79046226  0.95711852  0.48324906  1
  H+  H83  1  1.02212275  0.37246553  0.66792099  1
  H+  H84  1  0.61541281  0.76094264  0.50231072  1
  H+  H85  1  0.11260713  0.22622255  0.02955256  1
  H+  H86  1  0.07891603  0.40029998  0.75371262  1
  H+  H87  1  0.39821605  0.62469263  0.50634214  1
  H+  H88  1  0.63500672  0.77408257  0.65684705  1
  H+  H89  1  0.86502478  0.13677865  0.83700199  1
  H+  H90  1  0.34787424  0.17689793  0.85651909  1
  H+  H91  1  0.40335895  0.37691424  -0.00180111  1
  H+  H92  1  0.38182948  0.51516091  0.17066037  1
  H+  H93  1  0.60476651  0.87761539  0.10772650  1
  H+  H94  1  0.02131933  0.63168359  0.35136231  1
  H+  H95  1  0.85961043  0.63647399  0.83182549  1
  H+  H96  1  0.10656046  0.58821327  0.84148929  1
  H+  H97  1  0.59891757  0.20555700  0.68949823  1
  H+  H98  1  0.59313926  0.47637841  0.33171252  1
  H+  H99  1  0.10833605  0.63084700  0.00759599  1
  H+  H100  1  0.40292871  0.12515250  0.17269906  1
  H+  H101  1  0.71470769  0.60947110  0.32678033  1
  H+  H102  1  0.63574523  0.51492486  1.00088068  1
  H+  H103  1  0.88569397  0.02407122  0.84421969  1
  H+  H104  1  0.76652464  0.62958924  0.01068171  1
  H+  H105  1  0.67980635  0.09543819  0.62485868  1
  H+  H106  1  0.41269314  0.80749872  0.62785065  1
  H+  H107  1  0.58091410  0.46484108  0.69439640  1
  H+  H108  1  0.08066185  0.91160571  0.72790200  1
  H+  H109  1  -0.01718795  0.87037053  0.66182916  1
  H+  H110  1  0.10608968  0.45311645  0.81810241  1
  H+  H111  1  0.89467786  0.36004683  0.17252537  1
  H+  H112  1  0.86366296  0.21857437  0.33450965  1
  H+  H113  1  0.15489320  0.03629639  0.32682098  1
  H+  H114  1  0.61514795  0.38696951  0.18315047  1
  H+  H115  1  0.62818849  0.61622802  0.32727467  1
  H+  H116  1  0.39241994  0.11345933  0.32520637  1
  H+  H117  1  0.34718114  0.38264282  0.34161946  1
  H+  H118  1  0.26729987  0.13392049  0.66233794  1
  H+  H119  1  0.72153700  0.36037424  0.31016042  1
  H+  H120  1  0.17165853  0.83922171  0.43595094  1
  H+  H121  1  0.13433209  0.10726463  0.17953012  1
  H+  H122  1  0.11693706  0.23196214  0.49140123  1
  H+  H123  1  0.67053686  0.57640032  0.91489497  1
  H+  H124  1  0.11845561  0.00748932  0.79710468  1
  H+  H125  1  0.99319604  0.85611597  0.99884928  1
  H+  H126  1  0.10900405  0.88127147  0.16784248  1
  H+  H127  1  0.52558566  0.61579588  0.83550576  1
  H+  H128  1  0.84838806  0.87555319  0.32315310  1
  H+  H129  1  0.63765570  0.86404108  0.65774215  1
  H+  H130  1  0.89083453  0.59159113  0.51298086  1
  H+  H131  1  0.86564059  0.63450086  0.67551069  1
  H+  H132  1  0.02232159  0.13971670  0.82418737  1
  H+  H133  1  0.37686896  0.38444536  0.65887740  1
  H+  H134  1  0.86922916  0.22277426  0.01375102  1
  H+  H135  1  0.12489605  0.15072776  0.66081178  1
  H+  H136  1  0.36039310  -0.02943073  1.01324087  1
  H+  H137  1  0.21555476  0.38246542  0.34182507  1
  H+  H138  1  0.28021925  0.14422168  1.01447070  1
  H+  H139  1  -0.01536978  0.36231725  0.17953118  1
  H+  H140  1  0.87296403  0.21673871  0.49507522  1
  H+  H141  1  0.13597719  0.25769931  0.79673942  1
  H+  H142  1  0.11796149  0.47621945  0.01378817  1
  H+  H143  1  0.89936388  0.57263649  0.61046208  1
  H+  H144  1  0.24255273  0.12783145  0.50215784  1
  H+  H145  1  0.21637985  0.84915749  0.17496894  1
  H+  H146  1  0.39723054  1.02506715  0.32298794  1
  H+  H147  1  0.62135853  0.97098788  0.01567172  1
  H+  H148  1  0.87092324  0.01352741  0.66448901  1
  H+  H149  1  0.54526209  0.91135385  0.83635947  1
  H+  H150  1  0.02300179  0.13765969  0.01689743  1
  H+  H151  1  0.10220577  0.12784413  0.79981993  1
  H+  H152  1  0.11207182  -0.02700919  0.16818938  1
  H+  H153  1  0.89590608  0.36011016  0.99896858  1
  H+  H154  1  0.22694243  0.61539795  0.99537205  1
  H+  H155  1  0.21914294  0.58935157  0.67420275  1
  H+  H156  1  0.10978820  0.63502104  0.16175619  1
  H+  H157  1  0.39092238  0.74362166  0.48666344  1
  H+  H158  1  0.68741208  0.34708187  0.65061553  1
  H+  H159  1  0.11882663  0.72025904  0.68396937  1
  H+  H160  1  0.73805133  0.12028145  0.68368482  1
  H+  H161  1  0.09918630  0.40546715  0.35064029  1
  H+  H162  1  0.17248684  0.08353254  0.23652080  1
  H+  H163  1  0.85689044  0.72578070  0.83200722  1
  H+  H164  1  0.36739812  0.47820911  0.81870770  1
  H+  H165  1  0.85744091  0.71690666  0.01252870  1
  H+  H166  1  0.58185361  0.17501529  0.41544488  1
  H+  H167  1  0.88135397  0.60628101  0.00038103  1
  H+  H168  1  0.09702266  0.45663767  0.50794418  1
  H+  H169  1  0.64234164  0.92890307  0.83435586  1
  H+  H170  1  0.88116812  0.60677974  0.16946888  1
  H+  H171  1  0.16197546  0.08445329  0.96307807  1
  H+  H172  1  0.87961440  0.10054254  0.32430851  1
  H+  H173  1  0.85038008  0.50041048  0.31547515  1
  H+  H174  1  0.39155442  0.76442276  0.31996104  1
  H+  H175  1  0.88839617  0.87460836  0.50451596  1
  H+  H176  1  0.77243492  0.38408965  0.83970785  1
  H+  H177  1  0.61948314  0.72044605  0.00898474  1
  H+  H178  1  0.64273510  0.10608540  0.00312011  1
  H+  H179  1  0.86533023  0.88706337  1.00806796  1
  H+  H180  1  0.74367086  0.11560494  0.47971319  1
  H+  H181  1  0.37312226  0.97000438  0.82827200  1
  H+  H182  1  0.96424395  0.77839007  0.95595127  1
  H+  H183  1  0.34599395  0.69456569  0.67619130  1
  H+  H184  1  0.49516934  0.88567443  0.48510188  1
  H+  H185  1  0.13180242  0.36147507  0.18694267  1
  H+  H186  1  0.29830124  0.88853618  0.32367346  1
  H+  H187  1  0.11499000  0.88686701  0.66947046  1
  H+  H188  1  0.39738888  0.53635859  0.00292879  1
  H+  H189  1  0.14082192  0.35784701  0.79679705  1
  H+  H190  1  0.51714320  0.62476416  0.15530583  1
  H+  H191  1  0.11911761  0.89653340  0.33831040  1
  H+  H192  1  0.16641384  0.34622345  0.58266659  1
  H+  H193  1  0.52488260  0.38093728  0.16944332  1
  H+  H194  1  0.17209138  0.34151485  0.45362866  1
  H+  H195  1  0.38956322  0.11175219  -0.00016104  1
  H+  H196  1  0.21449435  0.35365065  0.19786204  1
  H+  H197  1  0.61822981  0.22036971  0.00689687  1
  H+  H198  1  0.48032917  0.11658630  0.49815645  1
  H+  H199  1  0.38364040  0.88314333  0.82650989  1
  H+  H200  1  0.13624485  0.11409267  1.02200160  1
  H+  H201  1  0.87637127  0.86186027  0.84095391  1
  H+  H202  1  0.79502346  0.63645315  0.47896453  1
  H+  H203  1  0.65218654  0.11719299  0.17015320  1
  H+  H204  1  0.47998287  0.86780486  0.99649810  1
  H+  H205  1  0.10173724  0.21830883  0.17766993  1
  H+  H206  1  0.87883965  0.52340527  0.84810292  1
  H+  H207  1  0.37144625  0.23181851  0.00812712  1
  H+  H208  1  0.35308426  0.97635697  0.51290058  1
  H+  H209  1  0.97713233  0.35706310  0.84057407  1
  H+  H210  1  0.89255493  1.02646622  -0.00302628  1
  H+  H211  1  0.61103234  0.70631950  0.84054980  1
  H+  H212  1  0.63211827  0.86451107  0.30508413  1
  H+  H213  1  0.23537517  0.35456692  0.79775807  1
  H+  H214  1  0.87766941  0.74048608  0.67613248  1
  H+  H215  1  0.77720013  0.13504044  0.16317180  1
  H+  H216  1  -0.02195017  0.59417520  0.52385262  1
  H+  H217  1  0.11644672  0.14411079  0.49494449  1
  H+  H218  1  0.73624808  0.61384951  0.84888606  1
  H+  H219  1  0.97314498  0.34617271  0.51455713  1
  H+  H220  1  0.52787626  0.64027709  0.67604703  1
  H+  H221  1  0.38486716  0.51944602  0.32773205  1
  H+  H222  1  0.62620333  0.76768224  0.15397958  1
  H+  H223  1  0.89156261  0.11493048  0.99938112  1
  H+  H224  1  0.37877228  0.23977800  0.48528561  1
  H+  H225  1  0.84683464  0.40844063  0.09912938  1
  H+  H226  1  0.76327718  0.88117918  0.83078976  1
  H+  H227  1  0.54140329  0.14116596  0.16246948  1
  H+  H228  1  0.88904607  0.71173981  0.47703311  1
  H+  H229  1  0.65817637  0.58147105  0.23540170  1
  H+  H230  1  0.86858638  0.46641349  0.15793330  1
  H+  H231  1  0.35732290  0.36325124  0.16352510  1
  H+  H232  1  0.23101765  0.63382548  0.17771685  1
  H+  H233  1  0.76779807  0.63267406  0.16832764  1
  H+  H234  1  0.52321391  0.87949167  0.32288127  1
  H+  H235  1  0.76890410  0.87966737  0.67298175  1
  H+  H236  1  0.84251269  0.67839112  0.73984341  1
  H+  H237  1  0.38145451  0.11020335  0.65778103  1
  H+  H238  1  0.59769911  0.81020785  0.85796258  1
  H+  H239  1  0.64113081  0.85690998  0.99976806  1
  H+  H240  1  0.22988142  0.86229839  0.49503094  1
  H+  H241  1  0.38787032  0.48782201  0.65899205  1
  H+  H242  1  0.63904305  0.46736838  0.43844637  1
  H+  H243  1  0.38630489  0.26765328  0.17292865  1
  H+  H244  1  0.46799161  0.10561010  0.66470018  1
  H+  H245  1  0.80581889  0.39028541  0.69740739  1
  H+  H246  1  0.47654207  0.09380349  0.84764216  1
  H+  H247  1  0.75757623  0.88280358  0.31492689  1
  H+  H248  1  0.36731090  0.39672134  0.49851095  1
  H+  H249  1  0.63398048  0.51875753  0.17860763  1
  H+  H250  1  -0.03654264  0.35969204  0.33040406  1
  H+  H251  1  0.07680531  0.65740712  0.77334612  1
  H+  H252  1  0.29228977  0.40194731  0.02199954  1
  H+  H253  1  0.49555429  0.38056104  0.50055312  1
  H+  H254  1  0.62526575  -0.01910408  0.68076395  1
  H+  H255  1  0.66794329  0.07870509  0.52731696  1
  H+  H256  1  0.88160427  0.77110276  0.17180614  1
  H+  H257  1  0.64291346  0.53465383  0.51936804  1
  H+  H258  1  0.97173076  0.86079461  0.17265208  1
  H+  H259  1  0.14428733  0.28672573  0.64082215  1
  H+  H260  1  0.20600281  0.09387893  0.79484101  1
  H+  H261  1  0.85523639  -0.02909572  0.15712758  1
  H+  H262  1  0.70764430  0.43631211  0.62687038  1
  H+  H263  1  0.77915684  0.38021655  0.00627726  1
  H+  H264  1  0.10709650  0.88938420  0.49282411  1
  H+  H265  1  0.93051703  0.96540643  0.53225421  1
  H+  H266  1  0.28072569  0.14122960  0.33360453  1
  H+  H267  1  0.11066938  0.71590398  0.48782420  1
  H+  H268  1  0.86634657  0.47062444  1.00350648  1
  H+  H269  1  0.11660315  0.38016091  0.65974195  1
  H+  H270  1  0.10953719  0.72059294  1.00795767  1
  H+  H271  1  0.38434033  0.08517773  0.84090115  1
  H+  H272  1  0.12395749  0.52929989  0.33095914  1
  H+  H273  1  0.62669855  0.27222613  0.84897259  1
  H+  H274  1  0.12532973  0.48480314  0.16706971  1
  H+  H275  1  0.16703052  0.63264716  0.32688249  1
  H+  H276  1  0.86364101  0.22475258  0.68275900  1
  H+  H277  1  0.14654242  0.37026038  1.02564056  1
  H+  H278  1  0.49671093  0.88486133  0.65735461  1
  H+  H279  1  0.35802144  0.42654658  0.72258186  1
  H+  H280  1  0.85746092  0.88232569  0.15615328  1
  H+  H281  1  0.63155715  0.60396885  0.99622944  1
  H+  H282  1  0.35373384  0.67502663  0.43270881  1
  H+  H283  1  0.84825416  0.36812658  0.33202541  1
  H+  H284  1  0.58679274  0.38084594  0.69158016  1
  H+  H285  1  0.36512906  0.64919412  0.01339683  1
  H+  H286  1  0.11497855  0.97424725  0.02317105  1
  H+  H287  1  0.40729387  0.32842075  0.23210587  1
  H+  H288  1  0.07615098  0.16224258  0.11634532  1
  H+  H289  1  0.65032089  0.83167247  0.56409133  1
  H+  H290  1  0.22258714  0.75079502  0.39623495  1
  H+  H291  1  0.65377697  0.32785727  0.55123809  1
  H+  H292  1  0.88687785  0.56088069  0.25639191  1
  H+  H293  1  0.88120819  0.34140499  0.50961967  1
  H+  H294  1  0.87960468  0.10614845  0.17365416  1
  H+  H295  1  0.33320641  0.42074332  0.40452211  1
  H+  H296  1  0.97100391  0.60745398  0.17116432  1
  H+  H297  1  0.17098256  0.12694569  0.89150018  1
  H+  H298  1  0.86431436  0.45732807  0.49587089  1
  H+  H299  1  0.31456936  0.89269127  0.10646674  1
  H+  H300  1  0.61073963  0.22654845  0.32110408  1
  H+  H301  1  0.09343307  0.42120537  0.11032825  1
  H+  H302  1  0.81939694  0.39799893  0.39148360  1
  H+  H303  1  0.65617907  0.83161873  0.24376344  1
  H+  H304  1  0.83359421  0.65838019  0.38292664  1
  H+  H305  1  0.37450666  0.14876154  0.48743690  1
  H+  H306  1  0.07731010  0.66118479  0.10185678  1
  H+  H307  1  0.88850551  0.27175856  0.84731538  1
  H+  H308  1  0.65979196  0.81687345  0.91187462  1
  H+  H309  1  0.14696043  0.33944432  0.28981092  1
  H+  H310  1  0.43529384  0.85371905  0.90682649  1
  H+  H311  1  0.34308494  0.17463155  0.39174744  1
  H+  H312  1  0.41617956  0.57455189  0.22824614  1
  H+  H313  1  0.92175816  0.08419687  0.90339042  1
  H+  H314  1  0.11631098  0.63044556  0.68655028  1
  H+  H315  1  0.83395789  0.91504394  0.06747987  1
  H+  H316  1  0.36064743  0.89296909  0.50750965  1
  H+  H317  1  0.45183163  0.87246184  0.54957344  1
  H+  H318  1  0.12272344  0.76401979  0.17330757  1
  H+  H319  1  0.38380907  0.88765653  0.32493681  1
  H+  H320  1  0.14856766  0.12175465  0.32900799  1
  H+  H321  1  0.12576722  0.75535724  0.84404995  1
  H+  H322  1  0.62780664  0.55526997  0.62184055  1
  H+  H323  1  0.10010526  0.93442028  0.39895603  1
  H+  H324  1  0.34944249  0.70854939  0.11672167  1
  H+  H325  1  0.66548495  0.33330066  0.94252452  1
  H+  H326  1  0.33011118  0.17083531  0.72069359  1
  H+  H327  1  0.46683541  0.35437094  0.66269685  1
  H+  H328  1  0.16151821  0.57447630  0.93838436  1
  H+  H329  1  0.59143357  0.90881142  0.41158179  1
  H+  H330  1  0.17727579  0.34278751  0.89844736  1
  H+  H331  1  0.36214868  0.73489791  1.00600324  1
  H+  H332  1  0.67625609  0.09490229  0.91519712  1
  H+  H333  1  0.59026692  0.91815487  0.73624229  1
  H+  H334  1  0.58343224  0.68343428  0.39201489  1
  H+  H335  1  0.84300568  0.16163867  0.39465231  1
  H+  H336  1  0.55903610  0.39210648  0.37427706  1
  H+  H337  1  0.27219129  0.33595633  0.12497418  1
  H+  H338  1  0.58271270  0.65688813  0.06703268  1
  H+  H339  1  0.41222739  0.07139893  0.94296604  1
  H+  H340  1  0.82168343  0.91128904  0.77096223  1
  H+  H341  1  0.92002584  0.85336340  0.60610288  1
  H+  H342  1  0.43468932  0.34206322  0.55877963  1
  H+  H343  1  0.59682518  0.16243197  0.10294689  1
  H+  H344  1  0.08218776  0.90970104  0.07950336  1
  H+  H345  1  0.03021855  0.38458864  0.01483785  1
  H+  H346  1  0.43243265  0.21137831  0.81817033  1
  H+  H347  1  0.34728288  0.91255437  0.76079524  1
  H+  H348  1  0.42670857  0.09416287  0.56062018  1
  H+  H349  1  0.15847674  0.82701178  0.93973776  1
  H+  H350  1  0.85829675  0.42824947  0.75589722  1
  H+  H351  1  0.39422087  0.60287269  0.65871234  1
  H+  H352  1  0.82423116  0.66039501  0.10779332  1
  H+  H353  1  0.58305794  0.67076767  0.73792482  1
  H+  H354  1  0.57676894  0.15747790  0.78424333  1
  H+  H355  1  0.92859097  0.33064644  0.94189919  1
  H+  H356  1  0.35411968  0.66129637  0.74008967  1
  H+  H357  1  0.40419015  0.57796222  0.91627178  1
  H+  H358  1  0.17644494  0.82944658  0.60677111  1
  H+  H359  1  0.61976136  0.35665420  0.85103369  1
  H+  H360  1  0.13794071  0.81644568  0.25806262  1
  H+  H361  1  0.16728657  0.58802819  0.23317390  1
  H+  H362  1  0.08718386  0.16156959  0.40449024  1
  H+  H363  1  0.33434563  0.16697027  0.10404328  1
  H+  H364  1  0.53800568  0.39619006  0.78532893  1
  H+  H365  1  0.90600086  0.06996777  0.26294698  1
  H+  H366  1  0.35910259  0.43176724  0.07392264  1
  H+  H367  1  0.91085171  0.32036172  0.60348687  1
  H+  H368  1  0.91012110  0.58653053  0.90490366  1
  H+  H369  1  0.05896351  0.41864274  0.40995889  1
  H+  H370  1  0.60893895  0.62961272  0.15793484  1
  H+  H371  1  0.86845141  0.12462200  0.49220844  1
  H+  H372  1  0.90118508  0.83111436  0.26238515  1
  H+  H373  1  0.88954126  0.05583272  0.57623852  1
  H+  H374  1  0.06482396  0.63505165  0.44488732  1
  H+  H375  1  0.42800673  0.58596709  0.59414748  1
  H+  H376  1  0.40949911  0.80879265  0.25424056  1
  H+  H377  1  0.14676144  0.29478510  0.90099538  1
  H+  H378  1  0.17620168  0.08790025  0.59331080  1
  H+  H379  1  0.43205791  0.09344354  0.22939932  1
  H+  H380  1  0.67936878  0.08484160  0.22879024  1
  H+  H381  1  0.15787012  0.56400014  0.57764338  1
  H+  H382  1  0.91410953  0.83448034  0.89829910  1
  H+  H383  1  0.12456608  0.09123392  0.89430252  1
  O2-  O384  1  0.07461981  0.15834046  0.16152988  1
  O2-  O385  1  0.08355715  0.16985574  0.47860642  1
  O2-  O386  1  0.07879427  0.16816421  0.80255746  1
  O2-  O387  1  0.09571354  0.42265842  0.15552489  1
  O2-  O388  1  0.06499217  0.39715793  0.49002154  1
  O2-  O389  1  0.08310536  0.39497590  0.80022225  1
  O2-  O390  1  0.07624411  0.66248881  0.14707760  1
  O2-  O391  1  0.07600951  0.65176734  0.48771958  1
  O2-  O392  1  0.07332377  0.65386654  0.81993075  1
  O2-  O393  1  0.07919421  0.91240938  0.15243890  1
  O2-  O394  1  0.08910785  0.93082906  0.48067308  1
  O2-  O395  1  0.06975992  0.89819291  0.80655987  1
  O2-  O396  1  0.33268249  0.16834757  0.14901204  1
  O2-  O397  1  0.34482351  0.17904784  0.47162877  1
  O2-  O398  1  0.37013552  0.17350265  0.81664082  1
  O2-  O399  1  0.31777740  0.38492787  0.14650799  1
  O2-  O400  1  0.33896395  0.42936160  0.48658596  1
  O2-  O401  1  0.35166575  0.42370589  0.79752281  1
  O2-  O402  1  0.33842068  0.70289883  0.16091923  1
  O2-  O403  1  0.36543875  0.68207752  0.47725570  1
  O2-  O404  1  0.37571811  0.69383908  0.81652332  1
  O2-  O405  1  0.30413939  0.87984890  0.15014009  1
  O2-  O406  1  0.32104744  0.91347798  0.52035681  1
  O2-  O407  1  0.34733691  0.90844499  0.80888945  1
  O2-  O408  1  0.60161479  0.16521660  0.14749277  1
  O2-  O409  1  0.58371652  0.17284220  0.46184551  1
  O2-  O410  1  0.57403449  0.16170742  0.82925504  1
  O2-  O411  1  0.58692721  0.41204818  0.15778691  1
  O2-  O412  1  0.61856484  0.44572585  0.47931867  1
  O2-  O413  1  0.53940677  0.39029258  0.83102285  1
  O2-  O414  1  0.57798318  0.65691402  0.13874339  1
  O2-  O415  1  0.57934494  0.67514836  0.47826072  1
  O2-  O416  1  0.58524415  0.64742250  0.82179216  1
  O2-  O417  1  0.57084174  0.90195812  0.08911351  1
  O2-  O418  1  0.59738527  0.91592219  0.45780150  1
  O2-  O419  1  0.60277487  0.94451117  0.81562340  1
  O2-  O420  1  0.84042809  0.16325842  0.14738828  1
  O2-  O421  1  0.84482269  0.15904172  0.47418340  1
  O2-  O422  1  0.83716132  0.16950261  0.82167789  1
  O2-  O423  1  0.84880824  0.40703452  0.14394861  1
  O2-  O424  1  0.83351264  0.39980683  0.47670077  1
  O2-  O425  1  0.83433156  0.41592717  0.82877760  1
  O2-  O426  1  0.82847214  0.66402062  0.15282132  1
  O2-  O427  1  0.85310434  0.65082717  0.46773903  1
  O2-  O428  1  0.82710955  0.66519874  0.81572840  1
  O2-  O429  1  0.82737094  0.91177815  0.13852782  1
  O2-  O430  1  0.79488470  0.97307025  0.52620080  1
  O2-  O431  1  0.82328223  0.91291091  0.81675620  1
  O2-  O432  1  0.16716084  0.07806120  0.19046628  1
  O2-  O433  1  0.18374189  0.09535210  0.52016755  1
  O2-  O434  1  0.14633151  0.06802809  0.78264994  1
  O2-  O435  1  0.15228434  0.32358555  0.20528033  1
  O2-  O436  1  0.17370183  0.34093310  0.49803402  1
  O2-  O437  1  0.17361566  0.32483930  0.78614982  1
  O2-  O438  1  0.16958849  0.59212089  0.18755708  1
  O2-  O439  1  0.15325854  0.55625846  0.53306627  1
  O2-  O440  1  0.13607352  0.55451563  0.85358674  1
  O2-  O441  1  0.15337221  0.82381657  0.19037920  1
  O2-  O442  1  0.16700506  0.82753670  0.47956179  1
  O2-  O443  1  0.15507134  0.81748785  0.85767063  1
  O2-  O444  1  0.43740037  0.09893891  0.18463588  1
  O2-  O445  1  0.42155106  0.09119159  0.51582773  1
  O2-  O446  1  0.41293953  0.05460477  0.85735087  1
  O2-  O447  1  0.41554806  0.32968797  0.18631265  1
  O2-  O448  1  0.43547452  0.34582693  0.51366768  1
  O2-  O449  1  0.45369166  0.37140013  0.85325732  1
  O2-  O450  1  0.42015887  0.57432811  0.18303888  1
  O2-  O451  1  0.42572337  0.59076246  0.52348096  1
  O2-  O452  1  0.37964723  0.56394132  0.87174875  1
  O2-  O453  1  0.37996958  0.79166279  0.18181934  1
  O2-  O454  1  0.43849259  0.85985517  0.50613551  1
  O2-  O455  1  0.44294545  0.85698698  0.85972640  1
  O2-  O456  1  0.68581102  0.08879418  0.18418124  1
  O2-  O457  1  0.67819695  0.08578527  0.48380026  1
  O2-  O458  1  0.67603987  0.10481973  0.86962724  1
  O2-  O459  1  0.67141631  0.35259682  0.23174363  1
  O2-  O460  1  0.66252850  0.33052775  0.50701536  1
  O2-  O461  1  0.65793157  0.33371597  0.86132773  1
  O2-  O462  1  0.66229416  0.58098658  0.19004156  1
  O2-  O463  1  0.64799806  0.58694280  0.53984120  1
  O2-  O464  1  0.67501603  0.57995543  0.86643970  1
  O2-  O465  1  0.65279032  0.83031810  0.16300429  1
  O2-  O466  1  0.64446149  0.82526492  0.51795611  1
  O2-  O467  1  0.65056935  0.80901489  0.86544785  1
  O2-  O468  1  0.90466447  0.06963453  0.18869879  1
  O2-  O469  1  0.88634873  0.04078453  0.52922563  1
  O2-  O470  1  0.91959113  0.08481011  0.85778412  1
  O2-  O471  1  0.92324831  0.32849264  0.19124324  1
  O2-  O472  1  0.90977769  0.31220022  0.52887179  1
  O2-  O473  1  0.92070185  0.33333799  0.86085427  1
  O2-  O474  1  0.90900767  0.57339892  0.18233443  1
  O2-  O475  1  0.91622068  0.56261489  0.53613385  1
  O2-  O476  1  0.90739389  0.58561491  0.85896892  1
  O2-  O477  1  0.90972919  0.83293151  0.18432562  1
  O2-  O478  1  0.93527457  0.91241163  0.53139254  1
  O2-  O479  1  0.90643573  0.82981082  0.85354990  1
  O2-  O480  1  0.18251606  0.09626431  0.30969078  1
  O2-  O481  1  0.17538784  0.08828254  0.63946689  1
  O2-  O482  1  0.16840437  0.08475618  1.00742792  1
  O2-  O483  1  0.15450435  0.36115366  0.33176169  1
  O2-  O484  1  0.16772696  0.34765866  0.62740613  1
  O2-  O485  1  0.17987571  0.33890569  1.01798051  1
  O2-  O486  1  0.16761553  0.58203584  0.30938307  1
  O2-  O487  1  0.16055550  0.57003661  0.66005043  1
  O2-  O488  1  0.16504257  0.57939906  0.98314780  1
  O2-  O489  1  0.12187643  0.80863890  0.30406448  1
  O2-  O490  1  0.17299530  0.83346337  0.65080205  1
  O2-  O491  1  0.16320106  0.82731965  0.98473950  1
  O2-  O492  1  0.42616829  0.08673129  0.31045266  1
  O2-  O493  1  0.41005615  0.07649831  0.64621464  1
  O2-  O494  1  0.41633332  0.07690677  0.98750325  1
  O2-  O495  1  0.39283170  0.33021918  0.30417421  1
  O2-  O496  1  0.41297011  0.33043258  0.63730501  1
  O2-  O497  1  0.43160559  0.34441444  0.98383271  1
  O2-  O498  1  0.41390417  0.57754105  0.30796117  1
  O2-  O499  1  0.42950303  0.57985992  0.64076491  1
  O2-  O500  1  0.42442421  0.59428564  0.98300261  1
  O2-  O501  1  0.42266995  0.82148213  0.29930098  1
  O2-  O502  1  0.44113910  0.86897599  0.63552945  1
  O2-  O503  1  0.42330903  0.84287663  0.97570757  1
  O2-  O504  1  0.66584537  0.07856529  0.31282122  1
  O2-  O505  1  0.67422514  0.08781404  0.66876029  1
  O2-  O506  1  0.67306229  0.07493180  0.98850539  1
  O2-  O507  1  0.66152600  0.33648456  0.29268966  1
  O2-  O508  1  0.66132849  0.37659933  0.63039525  1
  O2-  O509  1  0.67049280  0.32959709  0.98721743  1
  O2-  O510  1  0.65275536  0.57987675  0.31401245  1
  O2-  O511  1  0.63440127  0.55575944  0.66632316  1
  O2-  O512  1  0.66222134  0.57336581  0.98038305  1
  O2-  O513  1  0.66145229  0.83298036  0.28925224  1
  O2-  O514  1  0.66346895  0.83234403  0.63776660  1
  O2-  O515  1  0.67057569  0.82664642  0.98232582  1
  O2-  O516  1  0.90527956  0.06554310  0.30887505  1
  O2-  O517  1  0.89544278  0.06889621  0.64238990  1
  O2-  O518  1  0.92422197  0.08703941  0.98264139  1
  O2-  O519  1  0.90531291  0.32200834  0.31201902  1
  O2-  O520  1  0.91583575  0.32238228  0.64955479  1
  O2-  O521  1  0.92850948  0.33027914  0.98711822  1
  O2-  O522  1  0.87245063  0.55965230  0.30044370  1
  O2-  O523  1  0.87841555  0.57235642  0.65280430  1
  O2-  O524  1  0.91272417  0.58046509  0.98016487  1
  O2-  O525  1  0.89029538  0.82866971  0.30709211  1
  O2-  O526  1  0.92002122  0.83879473  0.64957778  1
  O2-  O527  1  0.94205715  0.81345846  0.97333504  1
  O2-  O528  1  0.08051111  0.16343086  0.03774057  1
  O2-  O529  1  0.09085086  0.15602281  0.35894920  1
  O2-  O530  1  0.10053766  0.18779607  0.67052399  1
  O2-  O531  1  0.09055889  0.41702660  0.03115475  1
  O2-  O532  1  0.06059726  0.42796277  0.36509791  1
  O2-  O533  1  0.08225846  0.40409086  0.68353574  1
  O2-  O534  1  0.07607236  0.65947238  0.02151065  1
  O2-  O535  1  0.20102237  0.73365278  0.35520192  1
  O2-  O536  1  0.08822736  0.66247566  0.70206453  1
  O2-  O537  1  0.08455836  0.91192686  0.03315430  1
  O2-  O538  1  0.10685653  0.94042461  0.35450081  1
  O2-  O539  1  0.08390118  0.91684263  0.68270725  1
  O2-  O540  1  0.34294849  0.17165611  0.02287679  1
  O2-  O541  1  0.34328897  0.17190124  0.34655268  1
  O2-  O542  1  0.33107217  0.16730408  0.67638718  1
  O2-  O543  1  0.35570280  0.43456799  0.02875608  1
  O2-  O544  1  0.32668299  0.42034011  0.35949061  1
  O2-  O545  1  0.35670039  0.42547284  0.67673588  1
  O2-  O546  1  0.33047670  0.67618749  0.02353409  1
  O2-  O547  1  0.33763952  0.66187033  0.35341329  1
  O2-  O548  1  0.33776058  0.64325205  0.69703504  1
  O2-  O549  1  0.33287593  0.90799001  0.02208350  1
  O2-  O550  1  0.35550000  0.91933969  0.34116434  1
  O2-  O551  1  0.34168177  0.92050798  0.69398565  1
  O2-  O552  1  0.59094965  0.15867982  0.01845233  1
  O2-  O553  1  0.58578513  0.17081919  0.34265402  1
  O2-  O554  1  0.57079052  0.14668947  0.70441685  1
  O2-  O555  1  0.59534112  0.41941679  0.03401315  1
  O2-  O556  1  0.55435330  0.41267987  0.33460776  1
  O2-  O557  1  0.55004232  0.40191178  0.70845524  1
  O2-  O558  1  0.58592731  0.65860780  0.02037491  1
  O2-  O559  1  0.58144227  0.67573829  0.34751568  1
  O2-  O560  1  0.58717264  0.67455325  0.69314335  1
  O2-  O561  1  0.58833599  0.90681779  0.02337920  1
  O2-  O562  1  0.58403977  0.91096308  0.33909816  1
  O2-  O563  1  0.59037546  0.91833774  0.69107233  1
  O2-  O564  1  0.83870596  0.16173630  0.02741898  1
  O2-  O565  1  0.83526021  0.15768149  0.34978159  1
  O2-  O566  1  0.83147684  0.16492403  0.69970345  1
  O2-  O567  1  0.84137720  0.41012300  0.01711205  1
  O2-  O568  1  0.81490262  0.39616156  0.34667527  1
  O2-  O569  1  0.86398679  0.43159056  0.70997486  1
  O2-  O570  1  0.82574775  0.65725983  0.02779269  1
  O2-  O571  1  0.81966823  0.65782835  0.33984140  1
  O2-  O572  1  0.84740070  0.68015032  0.69395116  1
  O2-  O573  1  0.83465598  0.91638255  0.02066805  1
  O2-  O574  1  0.81693239  0.91092421  0.33469595  1
  O2-  O575  1  0.82502747  0.90928440  0.69451966  1
