# generated using pymatgen
data_H2O
_symmetry_space_group_name_H-M   'P 1'
_cell_length_a   17.98540978
_cell_length_b   17.98423017
_cell_length_c   21.98545330
_cell_angle_alpha   89.99713854
_cell_angle_beta   89.99515043
_cell_angle_gamma   120.02451614
_symmetry_Int_Tables_number   1
_chemical_formula_structural   H2O
_chemical_formula_sum   'H384 O192'
_cell_volume   6157.02476033
_cell_formula_units_Z   192
loop_
 _symmetry_equiv_pos_site_id
 _symmetry_equiv_pos_as_xyz
  1  'x, y, z'
loop_
 _atom_type_symbol
 _atom_type_oxidation_number
  H+  1.0
  O2-  -2.0
loop_
 _atom_site_type_symbol
 _atom_site_label
 _atom_site_symmetry_multiplicity
 _atom_site_fract_x
 _atom_site_fract_y
 _atom_site_fract_z
 _atom_site_occupancy
  H+  H0  1  0.87239526  0.48660449  0.32902027  1
  H+  H1  1  0.88491392  0.78094376  0.85921649  1
  H+  H2  1  0.13991867  0.81659932  0.90671992  1
  H+  H3  1  0.35780399  0.71585027  0.48827060  1
  H+  H4  1  0.64116209  0.85778939  0.99504893  1
  H+  H5  1  1.00438230  0.40343050  0.31954352  1
  H+  H6  1  0.97706709  0.11741810  0.99667752  1
  H+  H7  1  0.23319804  0.36060159  0.84556192  1
  H+  H8  1  0.73335813  0.61989423  0.64132118  1
  H+  H9  1  0.65049875  0.60535450  0.48045145  1
  H+  H10  1  0.43170447  0.58251704  0.24127131  1
  H+  H11  1  0.50856848  0.62628837  0.17284803  1
  H+  H12  1  0.14900704  0.83186096  0.29359972  1
  H+  H13  1  0.87543096  0.61032140  1.00148760  1
  H+  H14  1  0.79164011  0.12954721  0.15996545  1
  H+  H15  1  0.89998576  0.75762033  0.34209431  1
  H+  H16  1  0.86610178  -0.01636593  0.34056198  1
  H+  H17  1  0.38115070  0.92277290  0.63354189  1
  H+  H18  1  0.46760114  0.34814101  0.84485917  1
  H+  H19  1  0.85913491  -0.02521082  0.49583940  1
  H+  H20  1  1.02965236  0.39169144  0.67525149  1
  H+  H21  1  0.15125137  0.74674443  0.30665276  1
  H+  H22  1  0.38187930  0.26684850  0.99609234  1
  H+  H23  1  0.02609094  0.14196592  0.67214087  1
  H+  H24  1  0.10543817  0.89488548  0.84007346  1
  H+  H25  1  0.71505864  0.36633521  0.84247182  1
  H+  H26  1  0.35024873  0.38495849  0.65683617  1
  H+  H27  1  0.34990399  0.47895517  0.65573567  1
  H+  H28  1  0.25134818  0.11603536  0.33782887  1
  H+  H29  1  0.46312054  0.60741907  0.64005578  1
  H+  H30  1  0.88987504  0.36882009  0.51641743  1
  H+  H31  1  0.14246499  0.01261503  0.50951885  1
  H+  H32  1  0.12282860  0.84160803  0.15812830  1
  H+  H33  1  0.79278901  0.46518260  0.46344779  1
  H+  H34  1  0.86532890  0.13712424  0.00350105  1
  H+  H35  1  0.10982247  0.89466912  0.01928947  1
  H+  H36  1  0.07804951  0.91767248  0.10775260  1
  H+  H37  1  0.90857603  0.62951355  0.31451536  1
  H+  H38  1  1.09828530  0.42469166  0.76858650  1
  H+  H39  1  0.63855746  0.77625570  0.64886990  1
  H+  H40  1  0.13770994  0.12276503  0.83772193  1
  H+  H41  1  0.88318354  0.35759985  -0.00939386  1
  H+  H42  1  0.25922778  0.39202915  0.34044791  1
  H+  H43  1  0.49434642  0.42342769  0.67717789  1
  H+  H44  1  0.18307229  0.84926219  0.06929884  1
  H+  H45  1  0.30512293  0.64161228  0.81957990  1
  H+  H46  1  1.03119273  0.62907322  0.32419561  1
  H+  H47  1  0.60986331  0.72505108  0.16779008  1
  H+  H48  1  0.62362231  0.73850689  0.84554237  1
  H+  H49  1  0.60552876  0.21635587  0.33773634  1
  H+  H50  1  0.14216997  1.02928941  0.67283283  1
  H+  H51  1  0.11460768  0.39147938  0.50253885  1
  H+  H52  1  0.87361951  0.62588337  0.84300691  1
  H+  H53  1  0.13448242  0.36802912  0.66225980  1
  H+  H54  1  0.51568877  0.87517950  0.48981175  1
  H+  H55  1  0.85666242  0.93835868  0.13367649  1
  H+  H56  1  0.36988132  0.51144916  0.49425802  1
  H+  H57  1  0.59169325  0.37383334  0.15974148  1
  H+  H58  1  0.85211023  0.49720166  0.82872759  1
  H+  H59  1  0.69759799  0.43908782  0.20520943  1
  H+  H60  1  0.51801238  0.63074907  0.01689625  1
  H+  H61  1  0.11646324  0.14457810  0.67346141  1
  H+  H62  1  0.11104963  0.22834545  1.01375165  1
  H+  H63  1  0.11684557  0.77431881  0.84052020  1
  H+  H64  1  0.85886951  0.22475256  0.50207608  1
  H+  H65  1  0.25925669  0.88099892  0.84261640  1
  H+  H66  1  0.35963609  0.97448972  0.31766020  1
  H+  H67  1  0.35769626  0.38325022  0.00871160  1
  H+  H68  1  0.87609289  0.63256596  0.65273715  1
  H+  H69  1  0.37758418  0.86001142  0.83147461  1
  H+  H70  1  0.77038792  0.63137112  0.01496844  1
  H+  H71  1  0.12974866  0.02545293  0.99794350  1
  H+  H72  1  0.39162162  0.51717312  0.33661002  1
  H+  H73  1  0.52871788  0.88401101  0.99842684  1
  H+  H74  1  0.36122672  0.72564190  0.65863116  1
  H+  H75  1  0.01660670  0.88744702  0.01490538  1
  H+  H76  1  0.43343026  0.33421820  0.32228349  1
  H+  H77  1  0.34816391  0.24568779  0.32321419  1
  H+  H78  1  0.59991027  0.08948977  0.31874643  1
  H+  H79  1  0.60790464  0.38232843  0.01035005  1
  H+  H80  1  0.11835434  0.22993159  0.82934501  1
  H+  H81  1  0.73718437  0.35449857  0.32744774  1
  H+  H82  1  0.26906545  0.38361780  0.00802367  1
  H+  H83  1  0.63547597  0.54541575  0.65058366  1
  H+  H84  1  0.12667100  0.36021375  0.17593228  1
  H+  H85  1  0.64045937  0.10558591  0.16280460  1
  H+  H86  1  0.03663187  0.64437500  0.48345691  1
  H+  H87  1  0.60410023  0.38305700  0.83191002  1
  H+  H88  1  0.57437375  0.42575816  0.34310161  1
  H+  H89  1  0.87482858  -0.09952949  0.34544730  1
  H+  H90  1  0.57396211  0.35202539  0.68247357  1
  H+  H91  1  0.72515350  0.36137021  0.99908462  1
  H+  H92  1  0.57636191  0.15981139  0.09408266  1
  H+  H93  1  0.62329755  0.61222613  0.84816591  1
  H+  H94  1  0.13647886  0.87127518  0.46267697  1
  H+  H95  1  0.89882338  0.32986543  0.83361060  1
  H+  H96  1  0.61392281  0.38589362  0.69881415  1
  H+  H97  1  0.67802406  0.35342282  0.23999227  1
  H+  H98  1  0.38650728  0.28104068  0.50039679  1
  H+  H99  1  0.26572661  0.87940997  0.45332948  1
  H+  H100  1  0.37822674  0.28398251  0.65782317  1
  H+  H101  1  0.77560747  0.13598577  0.00236184  1
  H+  H102  1  0.40236024  0.84710057  0.69450170  1
  H+  H103  1  0.01662953  0.89299027  0.49376625  1
  H+  H104  1  0.62604495  0.85221382  0.32405611  1
  H+  H105  1  0.60965785  0.21905713  0.15297752  1
  H+  H106  1  0.24660411  0.65736132  0.16294472  1
  H+  H107  1  0.10635310  0.02383440  0.32152727  1
  H+  H108  1  0.63602533  0.85221527  0.17013191  1
  H+  H109  1  0.09237351  0.58648494  0.88944752  1
  H+  H110  1  0.56384021  0.89953800  0.42728980  1
  H+  H111  1  0.37106950  0.12608117  0.16658011  1
  H+  H112  1  0.93489559  0.09173790  0.26393171  1
  H+  H113  1  0.47127314  0.35670073  -0.00534423  1
  H+  H114  1  0.61035540  0.64028478  0.63847433  1
  H+  H115  1  0.36057787  0.39097169  0.48995228  1
  H+  H116  1  0.86485529  0.20036597  0.83290240  1
  H+  H117  1  0.65376705  0.36056496  0.33617000  1
  H+  H118  1  0.63140201  0.01326817  0.50069260  1
  H+  H119  1  0.12992522  0.10506075  0.17141304  1
  H+  H120  1  0.10094513  0.22667634  0.49244775  1
  H+  H121  1  0.13826315  0.78206507  0.46071031  1
  H+  H122  1  0.79160455  0.64127984  0.48641023  1
  H+  H123  1  0.38510898  0.04045452  0.54279376  1
  H+  H124  1  0.01783998  0.89682106  0.84066612  1
  H+  H125  1  0.16228247  0.34780192  0.26814554  1
  H+  H126  1  0.49067312  0.13994872  0.67284415  1
  H+  H127  1  0.94773449  0.13701142  0.15716153  1
  H+  H128  1  0.63708904  0.25567514  0.50168644  1
  H+  H129  1  0.89595985  0.36108069  0.66959057  1
  H+  H130  1  0.66353918  0.33362551  0.94067635  1
  H+  H131  1  0.21896103  0.02258737  0.54811016  1
  H+  H132  1  0.72637003  0.34563572  0.49773554  1
  H+  H133  1  0.83629239  0.91161104  0.76896942  1
  H+  H134  1  0.14495979  0.36121314  0.84110918  1
  H+  H135  1  0.18927166  0.52156399  0.84319737  1
  H+  H136  1  0.63615306  0.76759699  1.00005379  1
  H+  H137  1  0.41383112  0.88461363  0.19221250  1
  H+  H138  1  0.91089391  0.83254837  0.95116633  1
  H+  H139  1  0.83427396  0.92030936  0.43383393  1
  H+  H140  1  0.12013070  0.62729678  0.90701223  1
  H+  H141  1  0.63039931  0.51860900  1.00118675  1
  H+  H142  1  0.61753831  0.88628764  0.66215581  1
  H+  H143  1  0.11292759  0.61479401  0.33152050  1
  H+  H144  1  0.35752132  0.23290351  0.83485525  1
  H+  H145  1  0.60435638  0.12108685  0.48995632  1
  H+  H146  1  0.26624704  0.12620735  0.16162648  1
  H+  H147  1  0.91204370  0.58887047  0.94070509  1
  H+  H148  1  0.56097937  0.94186962  0.32646805  1
  H+  H149  1  0.13985850  0.59641294  1.06915749  1
  H+  H150  1  0.97201117  0.60421927  0.15151164  1
  H+  H151  1  0.17857968  0.80100590  0.70588116  1
  H+  H152  1  0.99449295  0.61830043  0.66101411  1
  H+  H153  1  0.27551603  0.86883084  0.31012163  1
  H+  H154  1  0.93197316  0.84620733  0.60020817  1
  H+  H155  1  0.68396548  0.55049876  0.34471448  1
  H+  H156  1  0.36945233  0.15957544  0.68198395  1
  H+  H157  1  0.45285601  0.85028741  0.27818432  1
  H+  H158  1  0.39142933  0.52854625  0.17847932  1
  H+  H159  1  0.88574427  0.26628309  0.17615228  1
  H+  H160  1  0.52298166  0.13374246  0.00237495  1
  H+  H161  1  0.85407857  0.69743279  0.16144830  1
  H+  H162  1  0.32906625  0.42834053  0.10515476  1
  H+  H163  1  0.27062949  0.40119165  0.16424576  1
  H+  H164  1  0.63165858  0.22239995  0.68031720  1
  H+  H165  1  0.01912918  0.39074889  0.50640371  1
  H+  H166  1  0.15562659  0.08088663  0.26389785  1
  H+  H167  1  0.11591709  0.48458600  0.67273880  1
  H+  H168  1  0.27737807  0.13906764  0.49377628  1
  H+  H169  1  0.60528620  0.13338381  0.84027072  1
  H+  H170  1  0.29635051  0.91874660  0.65675763  1
  H+  H171  1  0.04505448  0.39260550  0.83061000  1
  H+  H172  1  0.62232693  0.52089397  0.84811848  1
  H+  H173  1  0.12225183  0.50974590  0.17186863  1
  H+  H174  1  0.89293782  0.26967688  0.66621174  1
  H+  H175  1  0.85361003  0.41397848  0.84471273  1
  H+  H176  1  0.25314659  0.13606522  0.82990723  1
  H+  H177  1  0.88116951  0.60649689  0.16077815  1
  H+  H178  1  0.10033651  0.72201418  0.65053593  1
  H+  H179  1  0.79297830  0.38656836  0.67312753  1
  H+  H180  1  0.36581346  0.72423014  0.00760056  1
  H+  H181  1  0.22264969  0.60760668  0.49969607  1
  H+  H182  1  0.89367351  0.02535809  0.66099701  1
  H+  H183  1  0.03878680  0.89296636  0.68020139  1
  H+  H184  1  0.46342841  0.10633726  0.32377074  1
  H+  H185  1  0.38644732  0.61183407  1.00407436  1
  H+  H186  1  0.97997351  0.10753021  0.84079431  1
  H+  H187  1  0.28612482  0.89811126  0.77545241  1
  H+  H188  1  0.37655347  0.71816128  0.34142468  1
  H+  H189  1  0.61698264  0.97371498  -0.00171309  1
  H+  H190  1  0.12981635  0.27372688  0.18200858  1
  H+  H191  1  0.36922746  0.15069378  0.49156216  1
  H+  H192  1  0.78399895  0.88822813  0.18167753  1
  H+  H193  1  0.64200810  0.10942220  0.66144160  1
  H+  H194  1  -0.03712493  0.62877152  0.83125557  1
  H+  H195  1  0.00412887  0.63750249  1.01871772  1
  H+  H196  1  0.86702444  0.97219902  0.82814782  1
  H+  H197  1  0.88169134  -0.01169893  1.02754620  1
  H+  H198  1  0.17044350  0.88489575  0.70631597  1
  H+  H199  1  0.50287040  0.88599113  0.18718902  1
  H+  H200  1  0.27731780  0.63982464  0.02473031  1
  H+  H201  1  0.91882995  0.33711745  0.57592880  1
  H+  H202  1  0.02569157  0.88726546  0.17155489  1
  H+  H203  1  0.38438101  0.10960431  0.99293545  1
  H+  H204  1  0.61890530  0.97630015  0.66346107  1
  H+  H205  1  0.87102148  0.88805012  0.67165227  1
  H+  H206  1  0.88652892  0.09828106  0.84037547  1
  H+  H207  1  0.56722471  0.63600622  0.69970251  1
  H+  H208  1  0.76911268  0.11652406  0.83045526  1
  H+  H209  1  0.62924184  0.27270476  0.84565861  1
  H+  H210  1  0.38352376  0.52061421  1.00199050  1
  H+  H211  1  0.73185855  0.11187584  0.65757336  1
  H+  H212  1  0.40128774  0.05724719  0.65384995  1
  H+  H213  1  0.37467931  0.97624742  0.00229453  1
  H+  H214  1  0.13637283  1.03117488  0.84151263  1
  H+  H215  1  0.63160858  0.84652253  0.49431265  1
  H+  H216  1  0.74083456  0.05999475  0.38396233  1
  H+  H217  1  0.36991186  0.09981695  0.32334153  1
  H+  H218  1  0.33629002  0.37167855  0.33962123  1
  H+  H219  1  0.26858903  0.13210946  0.00670353  1
  H+  H220  1  0.75018847  0.63626209  0.84509288  1
  H+  H221  1  0.88305207  0.40340005  0.33453606  1
  H+  H222  1  0.27335172  0.14699424  0.67840421  1
  H+  H223  1  0.47119236  0.61139704  0.84990145  1
  H+  H224  1  0.28782193  0.88725118  0.01044188  1
  H+  H225  1  0.02899856  0.15134556  0.33626954  1
  H+  H226  1  0.61212859  0.22306229  1.00631495  1
  H+  H227  1  0.37477847  0.10614917  0.83703483  1
  H+  H228  1  0.29246366  0.83908243  0.14900349  1
  H+  H229  1  0.51996093  0.13062547  0.49569304  1
  H+  H230  1  0.37992854  0.75529421  0.81351476  1
  H+  H231  1  0.37477282  0.61092273  0.64669955  1
  H+  H232  1  0.11369947  0.48797314  0.50009304  1
  H+  H233  1  0.72136635  0.86676943  0.32605100  1
  H+  H234  1  0.14113053  0.43509660  0.33178997  1
  H+  H235  1  0.13246508  0.35934700  0.99611797  1
  H+  H236  1  0.10464146  0.46961439  0.02058200  1
  H+  H237  1  0.88397244  0.64936212  0.49473124  1
  H+  H238  1  0.61949110  0.71172278  0.46013678  1
  H+  H239  1  0.67663371  0.11359072  0.80182846  1
  H+  H240  1  0.48394970  0.60233963  0.34521751  1
  H+  H241  1  0.72934216  0.85304091  0.84798477  1
  H+  H242  1  0.87148670  0.47585180  0.15649978  1
  H+  H243  1  0.36302627  0.95981076  0.45877127  1
  H+  H244  1  0.08824026  0.65933066  0.42002054  1
  H+  H245  1  0.86701681  0.13429146  0.67336278  1
  H+  H246  1  0.91281458  0.25955223  0.34794529  1
  H+  H247  1  0.90038509  0.87564530  0.19215834  1
  H+  H248  1  0.88180309  0.35460918  0.17412560  1
  H+  H249  1  0.05625638  0.87954518  0.33937327  1
  H+  H250  1  0.35755640  0.22280935  0.16185253  1
  H+  H251  1  1.09982300  0.70552881  0.11669528  1
  H+  H252  1  0.39508776  0.85985568  0.98572986  1
  H+  H253  1  0.77967715  0.39319408  0.16160398  1
  H+  H254  1  0.37186697  0.01603811  0.83714015  1
  H+  H255  1  0.13357158  0.01708383  0.17306287  1
  H+  H256  1  0.13721593  0.61487012  0.49615301  1
  H+  H257  1  0.66191503  0.34753709  0.65162732  1
  H+  H258  1  0.77174870  0.13566901  0.49239739  1
  H+  H259  1  0.90549709  0.52608017  0.65997927  1
  H+  H260  1  0.76239322  0.64364341  0.33355170  1
  H+  H261  1  0.13044929  0.29414135  0.32988001  1
  H+  H262  1  0.11941588  0.15833357  0.33741899  1
  H+  H263  1  0.88519687  0.86784724  0.50721974  1
  H+  H264  1  0.91043145  0.13033331  0.32262738  1
  H+  H265  1  0.36290381  0.47416888  0.83899723  1
  H+  H266  1  0.47347790  0.12106069  0.16731516  1
  H+  H267  1  0.22186370  0.36888653  0.50529789  1
  H+  H268  1  -0.02670297  0.11169590  0.50582458  1
  H+  H269  1  0.22457166  0.58379151  0.33292428  1
  H+  H270  1  0.45760360  0.34758933  0.17083132  1
  H+  H271  1  0.90359009  0.78049239  0.65457850  1
  H+  H272  1  0.90686069  0.53524923  0.50328084  1
  H+  H273  1  0.63982943  0.11163565  0.98450469  1
  H+  H274  1  0.37454792  0.84815865  0.49320696  1
  H+  H275  1  0.60543805  -0.01045468  0.82185572  1
  H+  H276  1  1.01756286  0.38055711  1.00583901  1
  H+  H277  1  0.63505327  0.64021222  0.36486213  1
  H+  H278  1  0.60718194  0.63011352  1.01822440  1
  H+  H279  1  0.74945953  0.58011580  0.17815440  1
  H+  H280  1  0.47787847  0.36710616  0.50467956  1
  H+  H281  1  0.75159451  0.03423895  0.36224009  1
  H+  H282  1  0.86052557  0.47252853  0.00775850  1
  H+  H283  1  0.88186255  0.90072548  0.03565059  1
  H+  H284  1  0.36879529  0.60915409  0.49279559  1
  H+  H285  1  0.08939606  0.64844079  0.81244907  1
  H+  H286  1  0.78140881  0.88684088  0.66796696  1
  H+  H287  1  0.88594552  0.86877462  0.84972526  1
  H+  H288  1  0.16082298  0.58998921  0.60119463  1
  H+  H289  1  0.41705480  0.57864880  0.91052281  1
  H+  H290  1  0.16376522  0.32844905  0.93740765  1
  H+  H291  1  0.93896817  0.58955471  0.56510804  1
  H+  H292  1  0.92057080  0.08403374  0.60105777  1
  H+  H293  1  0.69332027  0.56158988  0.24085478  1
  H+  H294  1  0.65500550  0.06929435  0.22371312  1
  H+  H295  1  0.32372725  0.17647718  0.76713705  1
  H+  H296  1  0.57557961  0.66032930  0.10687534  1
  H+  H297  1  0.05619391  0.92945969  0.42920113  1
  H+  H298  1  0.40874610  0.31784843  0.90654185  1
  H+  H299  1  0.25232905  0.38308133  0.66142416  1
  H+  H300  1  0.13202466  0.77800734  1.02268797  1
  H+  H301  1  0.35551457  0.90741704  0.10412539  1
  H+  H302  1  0.07552437  0.68582463  0.75018854  1
  H+  H303  1  0.16408170  0.79712417  0.19712461  1
  H+  H304  1  0.38869421  0.31374306  0.22595771  1
  H+  H305  1  0.16194369  0.08731969  0.93920159  1
  H+  H306  1  0.57633793  0.92391617  0.76368961  1
  H+  H307  1  1.01237250  0.37372400  0.16246550  1
  H+  H308  1  0.31733920  0.15293593  0.39520602  1
  H+  H309  1  0.83342129  0.15652690  0.73419890  1
  H+  H310  1  0.34281556  0.68177335  0.74943115  1
  H+  H311  1  0.07556862  0.17237346  0.43238312  1
  H+  H312  1  0.17171046  0.08004526  0.61011284  1
  H+  H313  1  0.47783761  0.87591644  0.82567906  1
  H+  H314  1  0.67580192  0.07009852  0.32293718  1
  H+  H315  1  0.88314903  0.26757673  0.99281955  1
  H+  H316  1  0.68924250  0.31538523  0.59394382  1
  H+  H317  1  0.13301573  0.83004381  0.58976228  1
  H+  H318  1  0.16347438  0.33880553  0.56611072  1
  H+  H319  1  0.56895428  0.15419624  0.39554668  1
  H+  H320  1  0.60679279  0.42171008  0.40959621  1
  H+  H321  1  0.84001750  0.65393590  0.70990826  1
  H+  H322  1  0.32237413  0.41308307  0.42991987  1
  H+  H323  1  0.40018894  0.82686227  0.55782854  1
  H+  H324  1  0.65937525  0.82299727  0.23348135  1
  H+  H325  1  0.67006591  0.83112858  0.58884137  1
  H+  H326  1  0.83765404  0.43117198  0.41952979  1
  H+  H327  1  0.88392416  0.11024223  0.51020322  1
  H+  H328  1  0.41904287  0.82534148  0.92636543  1
  H+  H329  1  0.11033970  0.13903481  0.01460203  1
  H+  H330  1  0.13492008  0.60802613  1.00126908  1
  H+  H331  1  0.67567013  0.58773463  0.54687701  1
  H+  H332  1  0.83418430  0.41155550  0.06626383  1
  H+  H333  1  0.93440086  0.34929235  0.26763226  1
  H+  H334  1  0.58735717  0.90935001  0.09499316  1
  H+  H335  1  0.60134806  0.46236789  0.16416083  1
  H+  H336  1  0.13314958  0.27550125  0.66184561  1
  H+  H337  1  0.86915301  0.68925913  0.39652194  1
  H+  H338  1  0.50958779  0.48805704  0.72971285  1
  H+  H339  1  0.67224202  0.08753152  0.92405468  1
  H+  H340  1  0.82898804  0.65133063  0.07666341  1
  H+  H341  1  0.32904256  0.15868098  0.06510046  1
  H+  H342  1  0.13687438  0.62764538  0.66068757  1
  H+  H343  1  0.67262896  0.82468703  0.91092186  1
  H+  H344  1  0.62314784  0.47128670  0.49513489  1
  H+  H345  1  0.27208182  0.55456649  0.88396538  1
  H+  H346  1  0.84387363  0.16567469  0.09928013  1
  H+  H347  1  0.87499437  0.19187154  0.40306492  1
  H+  H348  1  0.41299356  0.08916233  0.22928653  1
  H+  H349  1  0.48786641  0.87036287  0.65976562  1
  H+  H350  1  0.80478087  0.69544433  0.79072398  1
  H+  H351  1  0.07078280  0.39913110  0.10183070  1
  H+  H352  1  0.88378088  0.76708513  0.00790521  1
  H+  H353  1  0.62542085  0.97145281  0.15207227  1
  H+  H354  1  0.84175503  0.42346364  0.73642753  1
  H+  H355  1  0.36044003  0.38427064  0.83659465  1
  H+  H356  1  0.66180039  0.07329835  0.56065006  1
  H+  H357  1  0.06559988  0.16056231  0.10584653  1
  H+  H358  1  0.08330971  0.92597347  0.74522109  1
  H+  H359  1  0.33550240  0.90288745  0.37475271  1
  H+  H360  1  0.59105752  0.16739182  0.74203211  1
  H+  H361  1  0.57096248  0.40969397  0.06725685  1
  H+  H362  1  0.32290755  0.69563524  0.11644284  1
  H+  H363  1  0.94041570  0.85298900  0.24839645  1
  H+  H364  1  0.89239531  0.78175766  0.50760208  1
  H+  H365  1  0.65790004  0.58127291  0.94413709  1
  H+  H366  1  0.72360698  0.85399490  0.49648957  1
  H+  H367  1  0.33267123  0.65838317  0.42589870  1
  H+  H368  1  0.57186132  0.41811339  0.77573992  1
  H+  H369  1  0.51551019  0.13277432  0.83356320  1
  H+  H370  1  0.61471643  0.37721486  0.50026521  1
  H+  H371  1  0.37408719  0.62859349  0.34377057  1
  H+  H372  1  0.39884351  0.57575116  0.55601078  1
  H+  H373  1  0.08732452  0.17248138  0.76797196  1
  H+  H374  1  0.17995293  0.84342360  0.58823209  1
  H+  H375  1  0.41248881  0.08111088  0.93221495  1
  H+  H376  1  0.91922016  0.07985068  0.93666708  1
  H+  H377  1  0.58712182  0.68512268  0.78305394  1
  H+  H378  1  0.40854226  0.33841893  0.59396742  1
  H+  H379  1  0.15347831  0.56064050  0.23266157  1
  H+  H380  1  0.92494119  0.32159894  0.90202409  1
  H+  H381  1  0.43433432  0.12424664  0.57793774  1
  H+  H382  1  0.26682974  0.63981954  0.66332112  1
  H+  H383  1  0.92702302  0.59017324  0.25351000  1
  O2-  O384  1  0.06940969  0.16356600  0.15216025  1
  O2-  O385  1  0.07128586  0.16718914  0.47754240  1
  O2-  O386  1  0.08802012  0.16885801  0.81326007  1
  O2-  O387  1  0.07314922  0.40273830  0.14719216  1
  O2-  O388  1  0.08076926  0.42197940  0.49025984  1
  O2-  O389  1  0.10404446  0.42471203  0.81370172  1
  O2-  O390  1  0.06771162  0.64781544  0.09579707  1
  O2-  O391  1  0.09519427  0.66967625  0.46497383  1
  O2-  O392  1  0.06568236  0.68335246  0.79726004  1
  O2-  O393  1  0.08602188  0.91421050  0.15240340  1
  O2-  O394  1  0.07334800  0.92529421  0.47150388  1
  O2-  O395  1  0.07832994  0.92743644  0.82394306  1
  O2-  O396  1  0.32798285  0.15682774  0.14693335  1
  O2-  O397  1  0.33474927  0.17489824  0.47428801  1
  O2-  O398  1  0.32003582  0.16999803  0.81380197  1
  O2-  O399  1  0.33038201  0.43613651  0.14976702  1
  O2-  O400  1  0.32660441  0.41826170  0.47637274  1
  O2-  O401  1  0.33049577  0.41405860  0.82212515  1
  O2-  O402  1  0.29649132  0.71192690  0.14898783  1
  O2-  O403  1  0.32782100  0.65525618  0.47279503  1
  O2-  O404  1  0.35476910  0.68976106  0.79444161  1
  O2-  O405  1  0.34075868  0.89811460  0.14776276  1
  O2-  O406  1  0.33089545  0.89941354  0.44709486  1
  O2-  O407  1  0.31181821  0.90818543  0.81678422  1
  O2-  O408  1  0.57390230  0.15927641  0.14036972  1
  O2-  O409  1  0.57651404  0.15451865  0.47511281  1
  O2-  O410  1  0.57786760  0.16623874  0.82327460  1
  O2-  O411  1  0.56200306  0.40473056  0.14562069  1
  O2-  O412  1  0.58687970  0.40871041  0.48369456  1
  O2-  O413  1  0.57049573  0.41214879  0.82024627  1
  O2-  O414  1  0.57600855  0.66143735  0.15334543  1
  O2-  O415  1  0.59621958  0.65059004  0.44769463  1
  O2-  O416  1  0.58470803  0.67302646  0.82610879  1
  O2-  O417  1  0.59187141  0.90981533  0.14037317  1
  O2-  O418  1  0.57407991  0.90573006  0.47190497  1
  O2-  O419  1  0.56367987  0.92777050  0.80672177  1
  O2-  O420  1  0.85090617  0.16510216  0.14436339  1
  O2-  O421  1  0.83436091  0.16742016  0.48338497  1
  O2-  O422  1  0.83130856  0.14309625  0.81406270  1
  O2-  O423  1  0.83761238  0.41289301  0.14397840  1
  O2-  O424  1  0.82531748  0.43501775  0.46480972  1
  O2-  O425  1  0.82448953  0.43391281  0.81742155  1
  O2-  O426  1  0.82898435  0.63995470  0.14371150  1
  O2-  O427  1  0.85408610  0.67877952  0.47793031  1
  O2-  O428  1  0.81187903  0.67381727  0.82956824  1
  O2-  O429  1  0.84662791  0.92564613  0.17809299  1
  O2-  O430  1  0.83070087  0.91470051  0.47967184  1
  O2-  O431  1  0.83587500  0.91069545  0.81421510  1
  O2-  O432  1  0.16479130  0.07980229  0.18589699  1
  O2-  O433  1  0.19197949  0.05562271  0.53554658  1
  O2-  O434  1  0.17091194  0.09392968  0.85331655  1
  O2-  O435  1  0.16044193  0.33471899  0.19452799  1
  O2-  O436  1  0.16180067  0.34381949  0.52097293  1
  O2-  O437  1  0.17011777  0.32746141  0.85844541  1
  O2-  O438  1  0.14638487  0.56831455  0.18929334  1
  O2-  O439  1  0.16248357  0.58107151  0.51539740  1
  O2-  O440  1  0.23794750  0.57402960  0.86163507  1
  O2-  O441  1  0.14687381  0.80189779  0.15540352  1
  O2-  O442  1  0.17104752  0.84447080  0.45090217  1
  O2-  O443  1  0.14878657  0.83020777  0.86344485  1
  O2-  O444  1  0.41333813  0.09609463  0.18399987  1
  O2-  O445  1  0.42120183  0.10207555  0.53481944  1
  O2-  O446  1  0.40524442  0.07691203  0.85170588  1
  O2-  O447  1  0.39628557  0.30792364  0.18204491  1
  O2-  O448  1  0.41639595  0.34075335  0.51741033  1
  O2-  O449  1  0.40681184  0.31456041  0.85993362  1
  O2-  O450  1  0.43191963  0.58763430  0.19640012  1
  O2-  O451  1  0.39856793  0.57469966  0.50977562  1
  O2-  O452  1  0.41190561  0.57482255  0.86519313  1
  O2-  O453  1  0.46169125  0.88703041  0.21682233  1
  O2-  O454  1  0.40338973  0.81995651  0.51382616  1
  O2-  O455  1  0.41257592  0.83246841  0.84011287  1
  O2-  O456  1  0.67180211  0.07849462  0.18013843  1
  O2-  O457  1  0.65960440  0.07403121  0.51527801  1
  O2-  O458  1  0.66925663  0.08490252  0.84077467  1
  O2-  O459  1  0.68409293  0.37804052  0.19839499  1
  O2-  O460  1  0.67048017  0.31543528  0.51922002  1
  O2-  O461  1  0.65576759  0.33424811  0.85903870  1
  O2-  O462  1  0.69583317  0.53404544  0.20282206  1
  O2-  O463  1  0.67997014  0.57845605  0.50266564  1
  O2-  O464  1  0.65312061  0.58073103  0.86382778  1
  O2-  O465  1  0.66083833  0.81802444  0.18783428  1
  O2-  O466  1  0.66190149  0.81665077  0.50911052  1
  O2-  O467  1  0.67024172  0.82101371  0.86432716  1
  O2-  O468  1  0.98070439  0.11147399  0.17487584  1
  O2-  O469  1  0.91396205  0.07969289  0.52478718  1
  O2-  O470  1  0.92057498  0.07219650  0.85683412  1
  O2-  O471  1  0.91290262  0.32655569  0.19201183  1
  O2-  O472  1  0.92158854  0.34063480  0.52978629  1
  O2-  O473  1  0.93582244  0.31582251  0.85727466  1
  O2-  O474  1  0.91907009  0.57741872  0.17596744  1
  O2-  O475  1  0.93849385  0.59438858  0.51956223  1
  O2-  O476  1  0.90629005  0.59606431  0.85244120  1
  O2-  O477  1  0.93427647  0.84633963  0.20316644  1
  O2-  O478  1  0.91937996  0.84169994  0.52372813  1
  O2-  O479  1  0.91828599  0.84257879  0.86980310  1
  O2-  O480  1  0.15310689  0.08164834  0.30946995  1
  O2-  O481  1  0.17108016  0.08880521  0.65481375  1
  O2-  O482  1  0.16354653  0.08718359  0.98414269  1
  O2-  O483  1  0.16285299  0.35456348  0.31397711  1
  O2-  O484  1  0.16391832  0.33677768  0.64555715  1
  O2-  O485  1  0.16334026  0.32870543  0.98293969  1
  O2-  O486  1  0.16443088  0.55464187  0.31681643  1
  O2-  O487  1  0.16450512  0.59193499  0.64617432  1
  O2-  O488  1  0.15656866  0.58186614  1.03011520  1
  O2-  O489  1  0.18400427  0.80541319  0.28594912  1
  O2-  O490  1  0.21257467  0.86442639  0.71040976  1
  O2-  O491  1  0.17222717  0.84181738  1.02525441  1
  O2-  O492  1  0.40369786  0.07377774  0.30607661  1
  O2-  O493  1  0.43243468  0.12175502  0.65529153  1
  O2-  O494  1  0.41721834  0.08215603  0.97735316  1
  O2-  O495  1  0.37425816  0.30692195  0.30823148  1
  O2-  O496  1  0.40260744  0.34261605  0.63936845  1
  O2-  O497  1  0.41079259  0.32621876  0.97863179  1
  O2-  O498  1  0.42746746  0.57871620  0.32457149  1
  O2-  O499  1  0.40038922  0.57636815  0.62948239  1
  O2-  O500  1  0.41697247  0.58184520  0.98819864  1
  O2-  O501  1  0.45020079  0.83238101  0.32442767  1
  O2-  O502  1  0.42226485  0.84271344  0.65399385  1
  O2-  O503  1  0.42219501  0.82605344  0.97123075  1
  O2-  O504  1  0.62077783  0.05104117  0.30258614  1
  O2-  O505  1  0.67171961  0.08200182  0.64128140  1
  O2-  O506  1  0.67221956  0.08411083  0.96915257  1
  O2-  O507  1  0.67462469  0.32394379  0.31730124  1
  O2-  O508  1  0.69475934  0.31961628  0.63974326  1
  O2-  O509  1  0.66331963  0.33092744  0.98585721  1
  O2-  O510  1  0.69899117  0.60639223  0.32653274  1
  O2-  O511  1  0.67353088  0.59661043  0.62592444  1
  O2-  O512  1  0.66124767  0.58054002  0.98923327  1
  O2-  O513  1  0.66351973  0.83151515  0.30827477  1
  O2-  O514  1  0.67233333  0.83604516  0.63445004  1
  O2-  O515  1  0.66906607  0.82511784  0.98121157  1
  O2-  O516  1  0.92935752  0.08905627  0.30844563  1
  O2-  O517  1  0.92292018  0.08640385  0.64701544  1
  O2-  O518  1  0.91676315  0.08675356  0.98147137  1
  O2-  O519  1  0.94263957  0.36250161  0.31232730  1
  O2-  O520  1  0.92413302  0.33067943  0.65082663  1
  O2-  O521  1  0.91416438  0.32797007  0.97549365  1
  O2-  O522  1  0.92999949  0.59125157  0.29940258  1
  O2-  O523  1  0.93419989  0.58517946  0.64250757  1
  O2-  O524  1  0.90964344  0.58241773  0.98536982  1
  O2-  O525  1  0.94090222  0.86116859  0.32725565  1
  O2-  O526  1  0.93402284  0.84279257  0.64587342  1
  O2-  O527  1  0.91527085  0.82921957  0.99595674  1
  O2-  O528  1  0.07936626  0.16814795  0.03028116  1
  O2-  O529  1  0.08909940  0.18800293  0.35243646  1
  O2-  O530  1  0.08707389  0.17621754  0.68734938  1
  O2-  O531  1  0.07633082  0.40592504  0.02383977  1
  O2-  O532  1  0.11788517  0.47165193  0.34901246  1
  O2-  O533  1  0.09135259  0.42435770  0.68812683  1
  O2-  O534  1  0.06671085  0.67203886  0.03196854  1
  O2-  O535  1  0.09145645  0.65501835  0.34105016  1
  O2-  O536  1  0.09504176  0.68247945  0.68288338  1
  O2-  O537  1  0.07857355  0.92603784  0.02763583  1
  O2-  O538  1  0.03118946  0.91504280  0.35016102  1
  O2-  O539  1  0.09577582  0.92602420  0.70085200  1
  O2-  O540  1  0.33031719  0.16074818  0.01996730  1
  O2-  O541  1  0.31396927  0.14683359  0.34996923  1
  O2-  O542  1  0.33303781  0.18467852  0.69545332  1
  O2-  O543  1  0.32949338  0.41519195  0.02339929  1
  O2-  O544  1  0.31881463  0.41144465  0.35752855  1
  O2-  O545  1  0.31953043  0.41744165  0.67149494  1
  O2-  O546  1  0.34030850  0.66809558  0.02924470  1
  O2-  O547  1  0.34063313  0.65783916  0.35565721  1
  O2-  O548  1  0.33014319  0.66593246  0.67465076  1
  O2-  O549  1  0.35075757  0.91554246  0.01589705  1
  O2-  O550  1  0.33534482  0.91048907  0.32846514  1
  O2-  O551  1  0.34815976  0.95281737  0.63081459  1
  O2-  O552  1  0.58254984  0.16145401  0.01941209  1
  O2-  O553  1  0.56570973  0.15535791  0.35015433  1
  O2-  O554  1  0.59114489  0.16417529  0.69657247  1
  O2-  O555  1  0.57425497  0.41074369  0.02177982  1
  O2-  O556  1  0.62431893  0.43276571  0.36532865  1
  O2-  O557  1  0.54032555  0.47181877  0.70100985  1
  O2-  O558  1  0.57775654  0.66077064  0.03422645  1
  O2-  O559  1  0.59052238  0.65364544  0.38101803  1
  O2-  O560  1  0.56986322  0.65637707  0.65817185  1
  O2-  O561  1  0.58763510  0.91507316  0.01610824  1
  O2-  O562  1  0.54063228  0.88382755  0.34511441  1
  O2-  O563  1  0.58542091  0.91489790  0.67697004  1
  O2-  O564  1  0.83523526  0.16803973  0.01911479  1
  O2-  O565  1  0.89913495  0.20179145  0.36168585  1
  O2-  O566  1  0.83598187  0.16399413  0.68890525  1
  O2-  O567  1  0.83145218  0.41098364  0.02044136  1
  O2-  O568  1  0.84579497  0.42793275  0.34781990  1
  O2-  O569  1  0.85098981  0.42130185  0.69207383  1
  O2-  O570  1  0.83107801  0.65862970  0.02885847  1
  O2-  O571  1  0.87049776  0.69356656  0.35141743  1
  O2-  O572  1  0.84182152  0.66074200  0.66584154  1
  O2-  O573  1  0.87286488  0.94354106  0.05721919  1
  O2-  O574  1  0.83678821  0.92445953  0.35765718  1
  O2-  O575  1  0.83948978  0.91697196  0.68670532  1
