# generated using pymatgen
data_H2O
_symmetry_space_group_name_H-M   'P 1'
_cell_length_a   17.99388686
_cell_length_b   17.99397379
_cell_length_c   21.99858095
_cell_angle_alpha   89.98807253
_cell_angle_beta   90.00119808
_cell_angle_gamma   120.01374251
_symmetry_Int_Tables_number   1
_chemical_formula_structural   H2O
_chemical_formula_sum   'H384 O192'
_cell_volume   6167.61419307
_cell_formula_units_Z   192
loop_
 _symmetry_equiv_pos_site_id
 _symmetry_equiv_pos_as_xyz
  1  'x, y, z'
loop_
 _atom_type_symbol
 _atom_type_oxidation_number
  H+  1.0
  O2-  -2.0
loop_
 _atom_site_type_symbol
 _atom_site_label
 _atom_site_symmetry_multiplicity
 _atom_site_fract_x
 _atom_site_fract_y
 _atom_site_fract_z
 _atom_site_occupancy
  H+  H0  1  0.76898726  0.13442373  0.49138973  1
  H+  H1  1  0.64603223  0.86443768  0.83903023  1
  H+  H2  1  0.84201681  0.49585065  0.65435045  1
  H+  H3  1  0.74255837  0.87049279  0.17435976  1
  H+  H4  1  0.69596967  0.59003176  0.17906791  1
  H+  H5  1  0.78123929  0.40239462  0.82882323  1
  H+  H6  1  0.39501108  0.24152612  0.16900302  1
  H+  H7  1  0.71802132  0.10262312  0.83999240  1
  H+  H8  1  0.03034291  0.88330663  0.82632824  1
  H+  H9  1  0.81623190  0.69571308  0.20204747  1
  H+  H10  1  0.16463278  0.61968555  0.67479414  1
  H+  H11  1  0.26739371  0.38207204  0.48957314  1
  H+  H12  1  0.60635285  0.43336125  0.41905602  1
  H+  H13  1  0.72394420  0.61905903  0.51300951  1
  H+  H14  1  0.14197542  0.60688592  0.98889927  1
  H+  H15  1  0.47973275  0.11423909  0.83825843  1
  H+  H16  1  0.63248007  0.10284781  0.48971926  1
  H+  H17  1  0.85904702  0.38730332  0.15697984  1
  H+  H18  1  0.46786120  0.09526755  0.16678370  1
  H+  H19  1  0.00165392  0.60605172  0.35658886  1
  H+  H20  1  0.12509984  0.71836302  0.00319282  1
  H+  H21  1  0.61568983  0.64680903  0.66716717  1
  H+  H22  1  0.88123645  0.61111433  0.33029123  1
  H+  H23  1  0.33526783  0.42093366  0.10108660  1
  H+  H24  1  0.64870832  0.36383219  0.33897429  1
  H+  H25  1  0.86754247  0.72631910  0.49180404  1
  H+  H26  1  0.02827508  0.41204101  0.34954530  1
  H+  H27  1  0.14711367  1.02706837  0.83344805  1
  H+  H28  1  0.28479061  0.14241562  0.81784239  1
  H+  H29  1  0.58237148  0.67627833  0.76246603  1
  H+  H30  1  0.39047218  0.11449925  0.32289732  1
  H+  H31  1  0.61703292  0.88753790  0.00603994  1
  H+  H32  1  0.35934584  0.22577141  0.66266169  1
  H+  H33  1  0.87168377  0.48159970  0.16166608  1
  H+  H34  1  0.85371072  0.12382126  0.15031804  1
  H+  H35  1  0.86064720  0.13927966  0.99560232  1
  H+  H36  1  0.76771308  0.63248633  0.33679674  1
  H+  H37  1  0.34736571  0.09512801  0.63517400  1
  H+  H38  1  0.87224595  0.38641137  0.49909857  1
  H+  H39  1  0.28196102  0.63492024  1.00271763  1
  H+  H40  1  0.84721638  0.20852308  0.14940305  1
  H+  H41  1  0.91924888  0.58107777  0.27492397  1
  H+  H42  1  0.39649899  0.27977504  0.49836613  1
  H+  H43  1  0.11502261  0.20168874  0.33400392  1
  H+  H44  1  0.47413050  0.86283872  -0.00354113  1
  H+  H45  1  0.64883825  0.78269754  0.49662310  1
  H+  H46  1  0.47205830  0.11294102  0.99294247  1
  H+  H47  1  0.38747281  0.36485242  0.49415636  1
  H+  H48  1  0.87072109  0.39300198  0.67196657  1
  H+  H49  1  0.64388896  0.20309553  0.81788196  1
  H+  H50  1  0.40269070  0.86947541  0.52435130  1
  H+  H51  1  0.48307844  0.63178518  0.84028273  1
  H+  H52  1  0.87021852  0.89602248  0.15812698  1
  H+  H53  1  0.89213834  0.87035019  0.99197318  1
  H+  H54  1  0.13873896  0.51685477  -0.01475040  1
  H+  H55  1  0.47499617  0.61245301  0.32962840  1
  H+  H56  1  0.22751710  0.37529148  0.84580105  1
  H+  H57  1  0.88139946  0.77698162  -0.00915258  1
  H+  H58  1  0.92212827  0.09474071  0.76127771  1
  H+  H59  1  0.10824830  0.96718200  0.49076752  1
  H+  H60  1  0.14441913  0.49641943  0.15543291  1
  H+  H61  1  0.14530829  0.86207936  0.49938054  1
  H+  H62  1  0.36983740  0.88563928  0.67886676  1
  H+  H63  1  0.35561724  0.96764565  -0.00096186  1
  H+  H64  1  0.72157816  0.11269160  -0.01069932  1
  H+  H65  1  0.88568163  0.52839000  0.99424273  1
  H+  H66  1  0.91555119  0.83816646  0.26992843  1
  H+  H67  1  0.13743100  0.36733021  0.52002746  1
  H+  H68  1  0.65813750  0.32069902  0.55946952  1
  H+  H69  1  0.35452424  0.11676293  0.14973542  1
  H+  H70  1  0.64861981  0.02407083  0.33155444  1
  H+  H71  1  0.65056934  0.54786579  0.65588876  1
  H+  H72  1  0.38966279  0.76867975  0.67290813  1
  H+  H73  1  0.86135901  0.39197005  0.00443000  1
  H+  H74  1  0.22131244  0.35497218  0.32628810  1
  H+  H75  1  0.85945893  -0.02439650  0.33560260  1
  H+  H76  1  0.34560030  0.38992118  0.32465344  1
  H+  H77  1  0.52602407  0.87835447  0.81914038  1
  H+  H78  1  0.43532652  0.88513593  0.33400295  1
  H+  H79  1  0.88131284  0.27586292  0.99043613  1
  H+  H80  1  0.71511501  0.09801356  0.16935617  1
  H+  H81  1  0.60976806  0.22507880  1.00629640  1
  H+  H82  1  0.72972113  0.34860933  0.65701128  1
  H+  H83  1  0.59547331  0.11633259  0.15953628  1
  H+  H84  1  0.87829867  0.27226732  0.50874809  1
  H+  H85  1  0.13766806  0.05387208  0.98339684  1
  H+  H86  1  0.86898574  0.72143673  0.66631240  1
  H+  H87  1  0.86464588  -0.01801352  0.15702100  1
  H+  H88  1  0.77407767  0.88579094  0.00234870  1
  H+  H89  1  0.78010619  0.88565030  0.82943168  1
  H+  H90  1  0.65232491  0.36422184  0.66044843  1
  H+  H91  1  0.26473270  0.62099378  0.83058032  1
  H+  H92  1  0.62068737  0.39325283  0.16214780  1
  H+  H93  1  0.89114053  0.84925222  0.65863499  1
  H+  H94  1  0.36497004  0.97461783  0.17185464  1
  H+  H95  1  0.11017309  0.72723215  0.50634593  1
  H+  H96  1  -0.01149080  0.62032970  0.68435570  1
  H+  H97  1  0.75767143  0.85574750  0.66936330  1
  H+  H98  1  0.36254398  0.63443090  0.16199050  1
  H+  H99  1  0.34103323  0.17199692  0.43832176  1
  H+  H100  1  1.01799618  0.86912246  1.01081771  1
  H+  H101  1  0.58312168  0.16397802  0.39444167  1
  H+  H102  1  0.61711067  0.96688731  0.82365967  1
  H+  H103  1  0.62318427  0.08762479  0.83604108  1
  H+  H104  1  0.87999195  0.61174097  0.50256689  1
  H+  H105  1  0.88119972  0.27886224  0.66166863  1
  H+  H106  1  0.62711240  0.77381772  0.64740898  1
  H+  H107  1  0.22914254  0.11492411  0.16501985  1
  H+  H108  1  0.86186583  0.22369680  0.33795667  1
  H+  H109  1  0.47714353  0.36846471  0.98987339  1
  H+  H110  1  0.62949170  0.60430205  0.32656818  1
  H+  H111  1  0.38004389  0.49040538  1.00654222  1
  H+  H112  1  0.84467182  0.63329205  0.00161274  1
  H+  H113  1  0.13392163  0.90862762  0.66884114  1
  H+  H114  1  0.38940282  0.77742847  0.83394568  1
  H+  H115  1  0.68074428  0.83817076  0.24804143  1
  H+  H116  1  0.39340501  0.86764548  0.82780670  1
  H+  H117  1  0.36599616  0.14052454  1.00002903  1
  H+  H118  1  0.61060992  0.87833019  0.66967993  1
  H+  H119  1  0.63118102  0.64592465  0.49506011  1
  H+  H120  1  0.36467552  0.72523230  0.16193144  1
  H+  H121  1  0.83322489  0.42416718  0.06349187  1
  H+  H122  1  0.13421762  0.61683457  0.52194269  1
  H+  H123  1  0.88601888  0.11134757  0.32280728  1
  H+  H124  1  0.11832344  0.24252793  0.00243318  1
  H+  H125  1  0.12602889  0.76826385  0.32645640  1
  H+  H126  1  0.22644788  1.14652748  0.66490602  1
  H+  H127  1  0.48387300  0.12306364  0.31838956  1
  H+  H128  1  0.72955758  0.62189427  0.83555086  1
  H+  H129  1  0.35724319  0.64169444  0.49742881  1
  H+  H130  1  0.08382213  0.86135920  0.33388569  1
  H+  H131  1  0.11828995  0.64026321  0.15826002  1
  H+  H132  1  0.62383097  0.50220952  0.50452340  1
  H+  H133  1  0.44484964  0.36390708  0.31387994  1
  H+  H134  1  0.14668234  0.14390262  -0.01658777  1
  H+  H135  1  0.63316174  0.51615004  0.33251150  1
  H+  H136  1  1.00610717  0.61819169  0.65374318  1
  H+  H137  1  0.36898016  0.87857492  0.17582137  1
  H+  H138  1  0.76939641  0.38058354  0.34713067  1
  H+  H139  1  0.56416730  0.40192564  0.67030720  1
  H+  H140  1  0.33391791  0.15998194  0.09134819  1
  H+  H141  1  0.64930658  0.86701393  0.32411412  1
  H+  H142  1  0.73116565  0.38174346  0.17570808  1
  H+  H143  1  -0.02034057  0.85984202  0.50244648  1
  H+  H144  1  0.28052918  0.14889798  -0.00052924  1
  H+  H145  1  0.36338507  -0.02094572  0.83025884  1
  H+  H146  1  0.27834905  0.62545152  0.68280494  1
  H+  H147  1  1.00524188  0.14276372  0.49288306  1
  H+  H148  1  0.36903123  0.39765952  0.00160069  1
  H+  H149  1  0.62082989  0.40686591  0.82740017  1
  H+  H150  1  0.14426106  0.86379247  0.17291280  1
  H+  H151  1  0.87481279  0.72950454  0.82361905  1
  H+  H152  1  0.64283282  0.27194202  0.32894828  1
  H+  H153  1  0.26903971  0.12254033  0.33776038  1
  H+  H154  1  0.39395767  0.11996667  0.83487321  1
  H+  H155  1  0.52199414  0.37275082  0.15784215  1
  H+  H156  1  0.39507141  0.77856191  0.52241883  1
  H+  H157  1  0.83829199  0.59253488  0.65290955  1
  H+  H158  1  0.60701182  0.48791611  0.17155353  1
  H+  H159  1  0.89778011  0.62332247  0.82741134  1
  H+  H160  1  0.22989122  0.86070710  0.84007576  1
  H+  H161  1  0.13899651  0.83765098  -0.00427926  1
  H+  H162  1  0.89474462  0.52659100  0.83037215  1
  H+  H163  1  0.69890197  0.61721090  -0.02273671  1
  H+  H164  1  0.96806501  0.85965563  0.33160152  1
  H+  H165  1  0.86303064  0.15287895  0.67555986  1
  H+  H166  1  0.88114679  0.11190322  0.51237345  1
  H+  H167  1  -0.02987334  0.61373853  0.51789001  1
  H+  H168  1  0.36236196  0.88122419  1.00090315  1
  H+  H169  1  0.61834347  0.72063929  0.33495156  1
  H+  H170  1  0.38250599  0.98063588  0.49915644  1
  H+  H171  1  0.64495383  0.77619570  0.83830973  1
  H+  H172  1  0.58598064  0.15575020  0.75810461  1
  H+  H173  1  0.97471056  0.11199222  0.16619793  1
  H+  H174  1  0.39317140  0.50739425  0.50541361  1
  H+  H175  1  0.13550393  0.52829411  0.52008406  1
  H+  H176  1  0.36795623  0.63063144  0.83674984  1
  H+  H177  1  0.14216664  0.36125937  0.17306086  1
  H+  H178  1  0.10683534  -0.03928246  0.33394372  1
  H+  H179  1  0.99788662  0.88818700  0.17891894  1
  H+  H180  1  0.85374726  0.22920056  0.82988212  1
  H+  H181  1  0.11945556  0.31811526  0.33303788  1
  H+  H182  1  0.26960900  0.64218976  0.50005307  1
  H+  H183  1  0.23805452  0.88718876  0.65996104  1
  H+  H184  1  0.61300099  0.64433776  0.82010225  1
  H+  H185  1  0.38349226  0.52605147  0.17228438  1
  H+  H186  1  0.60792512  0.12841750  0.67032832  1
  H+  H187  1  0.82902660  0.89674653  0.76729078  1
  H+  H188  1  0.47750102  0.86185773  0.17284505  1
  H+  H189  1  0.36887534  0.62766987  0.68320817  1
  H+  H190  1  0.89246176  0.86462539  0.50583034  1
  H+  H191  1  0.44687528  0.37074747  0.64628402  1
  H+  H192  1  0.84024296  0.66943119  0.76335754  1
  H+  H193  1  0.05655241  1.04387843  0.54238299  1
  H+  H194  1  0.89545232  0.61252990  0.18470377  1
  H+  H195  1  0.97247913  0.36701384  0.84009892  1
  H+  H196  1  0.37907998  0.15092191  0.49633307  1
  H+  H197  1  0.02642280  0.88196851  0.67262171  1
  H+  H198  1  0.60951255  0.87608257  0.15763954  1
  H+  H199  1  0.64344526  0.02101057  0.47672139  1
  H+  H200  1  0.63127340  0.29842186  0.84136533  1
  H+  H201  1  0.62659871  0.76819503  0.98845869  1
  H+  H202  1  0.76544969  0.78694897  0.70627142  1
  H+  H203  1  0.13852804  0.11418948  0.16656415  1
  H+  H204  1  0.98635955  0.61694567  0.17612203  1
  H+  H205  1  0.51781723  0.12666224  0.48358762  1
  H+  H206  1  0.67309745  0.35213147  0.23626916  1
  H+  H207  1  0.39360363  0.07133409  0.45987529  1
  H+  H208  1  0.38899037  0.27971293  0.99073369  1
  H+  H209  1  0.53506403  0.40826519  0.49684853  1
  H+  H210  1  0.34862177  0.21685588  0.33633189  1
  H+  H211  1  0.61535224  0.13676252  0.33509453  1
  H+  H212  1  0.08585259  0.66446020  0.09782951  1
  H+  H213  1  0.58273638  0.90882132  0.09797952  1
  H+  H214  1  0.86097431  0.88645314  0.33869559  1
  H+  H215  1  0.54309299  0.64679169  0.48822080  1
  H+  H216  1  0.37830356  0.51309957  0.66572967  1
  H+  H217  1  0.87240275  0.48468001  0.49654538  1
  H+  H218  1  0.47619570  0.53350312  0.54145082  1
  H+  H219  1  0.25058328  0.89310625  0.35192705  1
  H+  H220  1  0.86838645  0.39649989  0.82958851  1
  H+  H221  1  0.91800024  0.80050634  0.16865963  1
  H+  H222  1  0.72166009  0.11809692  0.65013826  1
  H+  H223  1  0.41373614  0.78674293  0.33086292  1
  H+  H224  1  0.11755664  0.93734916  0.00839403  1
  H+  H225  1  0.15331149  0.55179011  0.32681981  1
  H+  H226  1  0.82671266  0.16046138  0.05632200  1
  H+  H227  1  0.23774711  0.85528427  0.99063172  1
  H+  H228  1  0.12534862  0.43275669  0.35439871  1
  H+  H229  1  0.03880878  0.55422893  0.38939894  1
  H+  H230  1  0.14470164  0.63179890  0.32765850  1
  H+  H231  1  0.97366687  0.36624030  0.66071640  1
  H+  H232  1  0.88964450  0.38064991  0.33149350  1
  H+  H233  1  0.60786421  0.21637923  0.67547239  1
  H+  H234  1  -0.02817544  0.36370046  -0.00884844  1
  H+  H235  1  0.23597250  0.62414708  0.17051071  1
  H+  H236  1  0.10964980  0.38795694  0.83132722  1
  H+  H237  1  0.96384298  0.34254628  0.17101644  1
  H+  H238  1  0.88706069  1.02552484  0.51090832  1
  H+  H239  1  0.78024195  0.89209486  0.49399758  1
  H+  H240  1  0.60627744  0.48035726  0.99834051  1
  H+  H241  1  0.11601910  0.63411116  0.83485889  1
  H+  H242  1  0.25827525  0.38332803  0.67986429  1
  H+  H243  1  0.11110690  0.47132255  0.67808808  1
  H+  H244  1  0.77373641  0.13459635  0.33704002  1
  H+  H245  1  0.13894312  0.77123941  0.16730357  1
  H+  H246  1  0.09846956  0.37635406  0.67975468  1
  H+  H247  1  0.13574529  0.52019560  0.83696962  1
  H+  H248  1  0.59484555  0.66928080  0.39783043  1
  H+  H249  1  0.85459844  0.47545228  0.34689155  1
  H+  H250  1  0.10794662  0.22015444  0.15740656  1
  H+  H251  1  0.85644190  0.14193268  0.81823666  1
  H+  H252  1  0.61525158  0.49205060  0.82061277  1
  H+  H253  1  0.28800243  0.66013694  0.34022308  1
  H+  H254  1  0.92990320  0.83422711  0.59704327  1
  H+  H255  1  0.66172069  0.08059465  0.59234581  1
  H+  H256  1  0.47760852  0.37053531  0.83521097  1
  H+  H257  1  0.07137526  0.65576629  0.45319056  1
  H+  H258  1  0.12326620  0.14666000  0.82430885  1
  H+  H259  1  0.66782745  0.07496381  0.26807095  1
  H+  H260  1  0.11210692  0.38493263  -0.00124356  1
  H+  H261  1  1.03142091  0.63488716  1.00574935  1
  H+  H262  1  0.13410020  0.11155331  0.50533797  1
  H+  H263  1  0.26599627  0.87587066  0.32661732  1
  H+  H264  1  0.13281698  0.09064747  0.32144470  1
  H+  H265  1  0.35112709  0.48144480  0.33335296  1
  H+  H266  1  0.36360271  0.97058127  0.66857610  1
  H+  H267  1  0.47118470  0.26617436  0.21440535  1
  H+  H268  1  0.72596184  0.36879402  0.99284076  1
  H+  H269  1  0.73973653  0.86694066  0.32219752  1
  H+  H270  1  0.13827925  0.72749632  0.67975659  1
  H+  H271  1  0.39106870  0.62168606  0.33147966  1
  H+  H272  1  0.41219176  -0.00527579  0.34943773  1
  H+  H273  1  0.54392617  0.37567376  0.36752792  1
  H+  H274  1  0.01884336  0.38776126  0.50834586  1
  H+  H275  1  0.61591065  0.97650910  0.00817499  1
  H+  H276  1  0.13107794  0.27645410  0.51473740  1
  H+  H277  1  0.51208985  0.87046442  0.67883295  1
  H+  H278  1  0.88829689  0.02521915  0.98690763  1
  H+  H279  1  0.37204093  0.23248991  0.81993009  1
  H+  H280  1  0.12581499  0.98444725  0.16126180  1
  H+  H281  1  0.62852354  0.00904797  0.17423166  1
  H+  H282  1  0.36588968  0.48550706  0.84501989  1
  H+  H283  1  0.38739521  0.77398727  0.99489208  1
  H+  H284  1  1.03433937  0.14593366  0.82044636  1
  H+  H285  1  0.52169584  0.63672816  0.67297256  1
  H+  H286  1  0.98907120  0.15801224  0.66117206  1
  H+  H287  1  0.76795159  0.64600575  0.66685826  1
  H+  H288  1  0.60271558  0.60294146  0.97612400  1
  H+  H289  1  0.65180761  0.87076878  0.48062945  1
  H+  H290  1  0.83459865  0.92088315  0.06055264  1
  H+  H291  1  0.08164812  0.42662870  0.45196773  1
  H+  H292  1  0.63215102  0.36033925  0.50561516  1
  H+  H293  1  0.39398188  0.93810500  0.41064767  1
  H+  H294  1  0.17014600  0.57957227  0.89746742  1
  H+  H295  1  0.85552390  0.72345687  0.33716747  1
  H+  H296  1  0.91929686  0.59085201  0.93716131  1
  H+  H297  1  0.83820828  0.41811817  0.43448790  1
  H+  H298  1  0.63661807  0.36839454  0.99198162  1
  H+  H299  1  0.32008118  0.41306462  0.42599299  1
  H+  H300  1  0.91183110  0.33935386  0.89910531  1
  H+  H301  1  0.42002229  0.33621854  0.89541189  1
  H+  H302  1  0.89469066  0.86373251  0.83808377  1
  H+  H303  1  0.25048505  0.96281020  0.62116182  1
  H+  H304  1  0.56873550  0.14954505  0.10043594  1
  H+  H305  1  0.66864924  0.83078186  0.93239970  1
  H+  H306  1  0.08672642  0.91050021  0.73874182  1
  H+  H307  1  0.40247901  0.33126227  0.58331702  1
  H+  H308  1  0.65867153  0.58915377  0.88943431  1
  H+  H309  1  0.63837707  0.55662001  0.24024293  1
  H+  H310  1  0.12502036  0.80142026  0.26050821  1
  H+  H311  1  0.60218421  0.72623437  0.15503527  1
  H+  H312  1  0.41193877  0.58528655  0.23123947  1
  H+  H313  1  0.33519951  0.92144057  0.77019766  1
  H+  H314  1  0.95503277  0.41427322  0.27799348  1
  H+  H315  1  0.36197101  0.39568105  0.83725318  1
  H+  H316  1  0.17477952  0.59721567  0.22941082  1
  H+  H317  1  0.16785086  0.07059144  0.26090262  1
  H+  H318  1  0.04396768  0.21923664  0.44655391  1
  H+  H319  1  0.82849058  0.67863589  0.13436648  1
  H+  H320  1  0.17645367  0.58290359  0.61151787  1
  H+  H321  1  0.11864804  0.72750439  0.83613639  1
  H+  H322  1  0.27612575  0.38246909  0.15915718  1
  H+  H323  1  0.15985765  0.11311388  0.61059525  1
  H+  H324  1  0.14962428  0.31519759  0.60992412  1
  H+  H325  1  0.83979344  0.42325956  0.73245239  1
  H+  H326  1  0.37179005  0.06185318  0.57327768  1
  H+  H327  1  0.11929783  0.88129905  0.82678225  1
  H+  H328  1  0.19673295  0.46737442  0.11589017  1
  H+  H329  1  0.41606253  0.57500180  0.60831358  1
  H+  H330  1  0.07638681  0.41424566  0.77141744  1
  H+  H331  1  0.66192783  0.84028146  0.59034992  1
  H+  H332  1  0.41070103  0.07555102  0.22861663  1
  H+  H333  1  0.29470305  0.88854388  0.49306414  1
  H+  H334  1  0.42023342  0.82855789  0.61120965  1
  H+  H335  1  0.67109185  0.60180265  0.58961603  1
  H+  H336  1  0.18185884  0.84944092  0.56097613  1
  H+  H337  1  0.08738151  0.41981252  0.05714647  1
  H+  H338  1  0.60728011  0.21695452  0.48593294  1
  H+  H339  1  0.14004364  0.28283329  0.84329464  1
  H+  H340  1  0.82222320  0.17703659  0.73157240  1
  H+  H341  1  0.15898063  0.31907573  0.23223953  1
  H+  H342  1  0.60898212  0.43577330  0.73349638  1
  H+  H343  1  0.17137967  0.82727189  0.90068247  1
  H+  H344  1  0.43727991  0.61115756  0.90596358  1
  H+  H345  1  0.08201418  0.16664688  0.09562267  1
  H+  H346  1  0.67093951  0.34874889  0.90307237  1
  H+  H347  1  0.88611526  0.02376358  0.81127658  1
  H+  H348  1  0.89959044  0.30857179  0.22568200  1
  H+  H349  1  0.33942505  0.17033436  0.72380131  1
  H+  H350  1  0.58482121  0.90422653  0.73952585  1
  H+  H351  1  0.39668402  0.31503818  0.25601163  1
  H+  H352  1  0.27118916  0.87574782  0.17332323  1
  H+  H353  1  0.33124728  0.65065408  0.76695307  1
  H+  H354  1  0.83605487  0.16877091  0.43712231  1
  H+  H355  1  0.13366751  0.20034102  0.66694876  1
  H+  H356  1  0.91913467  0.09570547  0.61444503  1
  H+  H357  1  0.92404751  0.83450301  0.89773203  1
  H+  H358  1  0.58449152  0.42565493  0.06044863  1
  H+  H359  1  0.65680875  0.07403747  0.93340449  1
  H+  H360  1  0.86867137  0.55879789  0.58867775  1
  H+  H361  1  0.33942375  0.68002980  0.40274071  1
  H+  H362  1  0.23318273  0.37652819  0.99091481  1
  H+  H363  1  0.43097353  0.83776794  0.23796187  1
  H+  H364  1  0.99691796  0.62322848  0.83206563  1
  H+  H365  1  0.08282148  0.90965698  0.42984126  1
  H+  H366  1  0.55000027  0.88817587  0.35034963  1
  H+  H367  1  0.17104366  0.34308691  0.93165663  1
  H+  H368  1  0.03019466  0.15054768  -0.00096827  1
  H+  H369  1  0.91967531  0.08443925  0.92817142  1
  H+  H370  1  0.33685192  0.66600819  0.06308373  1
  H+  H371  1  0.33926395  0.37746052  0.66035057  1
  H+  H372  1  0.97163571  0.10372981  0.32035364  1
  H+  H373  1  0.84061825  0.92309007  0.43626348  1
  H+  H374  1  0.91402670  0.08271896  0.22593950  1
  H+  H375  1  0.07616921  0.14364862  0.39240679  1
  H+  H376  1  0.90756373  0.33239622  0.56974613  1
  H+  H377  1  0.13105211  0.68939009  0.74511845  1
  H+  H378  1  0.41575699  0.08644091  0.93225721  1
  H+  H379  1  0.08763008  0.91294459  0.10739129  1
  H+  H380  1  0.17749813  0.09445581  0.88826004  1
  H+  H381  1  0.60876942  0.13569614  0.00391167  1
  H+  H382  1  0.83280949  0.66546972  0.43298878  1
  H+  H383  1  0.78327481  0.64894762  0.04566036  1
  O2-  O384  1  0.07863431  0.16005799  0.14080843  1
  O2-  O385  1  0.06068151  0.18349342  0.46959688  1
  O2-  O386  1  0.09699581  0.18313432  0.81932141  1
  O2-  O387  1  0.13912283  0.44479886  0.13293233  1
  O2-  O388  1  0.08097916  0.42010010  0.49665054  1
  O2-  O389  1  0.07809158  0.41818814  0.81681703  1
  O2-  O390  1  0.08502229  0.66797321  0.14348650  1
  O2-  O391  1  0.07397730  0.66348546  0.49812397  1
  O2-  O392  1  0.08551252  0.66547812  0.82067756  1
  O2-  O393  1  0.09311013  0.92064569  0.15234206  1
  O2-  O394  1  0.08438063  0.90783594  0.47555020  1
  O2-  O395  1  0.08967896  0.91115930  0.80871140  1
  O2-  O396  1  0.33075387  0.15440683  0.13726852  1
  O2-  O397  1  0.34911136  0.18257603  0.48252491  1
  O2-  O398  1  0.34565092  0.17251509  0.80361543  1
  O2-  O399  1  0.33580516  0.42073297  0.14614625  1
  O2-  O400  1  0.32566870  0.41267279  0.47108525  1
  O2-  O401  1  0.32943864  0.42608571  0.83121710  1
  O2-  O402  1  0.33128434  0.66547164  0.14679210  1
  O2-  O403  1  0.32905626  0.67232386  0.48238783  1
  O2-  O404  1  0.32774552  0.65129485  0.81525123  1
  O2-  O405  1  0.33471890  0.90814259  0.16176139  1
  O2-  O406  1  0.35731777  0.91699950  0.48691521  1
  O2-  O407  1  0.33202060  0.91830458  0.81556920  1
  O2-  O408  1  0.56048817  0.14140520  0.14514433  1
  O2-  O409  1  0.58058899  0.15762461  0.46864974  1
  O2-  O410  1  0.58824036  0.15504495  0.80671571  1
  O2-  O411  1  0.58167193  0.41669104  0.14442220  1
  O2-  O412  1  0.59724113  0.44010116  0.48650889  1
  O2-  O413  1  0.58831812  0.43078836  0.80655755  1
  O2-  O414  1  0.65738125  0.74607184  0.17630205  1
  O2-  O415  1  0.60283908  0.67788401  0.47353857  1
  O2-  O416  1  0.58286696  0.67606943  0.80799289  1
  O2-  O417  1  0.57900684  0.90575300  0.14418060  1
  O2-  O418  1  0.62034907  0.92256347  0.42736577  1
  O2-  O419  1  0.58944920  0.90657534  0.80713693  1
  O2-  O420  1  0.81922525  0.14907148  0.13381287  1
  O2-  O421  1  0.83313683  0.16963789  0.48217345  1
  O2-  O422  1  0.82074675  0.16966926  0.81335815  1
  O2-  O423  1  0.83500215  0.42335948  0.14361927  1
  O2-  O424  1  0.84690919  0.42294881  0.48081912  1
  O2-  O425  1  0.84167799  0.43116735  0.81348677  1
  O2-  O426  1  0.81025613  0.65077478  0.17403516  1
  O2-  O427  1  0.83782688  0.66521333  0.47808706  1
  O2-  O428  1  0.84599721  0.66840336  0.80864744  1
  O2-  O429  1  0.83392039  0.91970199  0.14346810  1
  O2-  O430  1  0.84272882  0.92255079  0.48141204  1
  O2-  O431  1  0.83944159  0.91294549  0.81098031  1
  O2-  O432  1  0.16961541  0.08491624  0.18234043  1
  O2-  O433  1  0.11607836  0.06204388  0.53200781  1
  O2-  O434  1  0.17850634  0.08897754  0.84339862  1
  O2-  O435  1  0.15966913  0.31977936  0.18720250  1
  O2-  O436  1  0.16662619  0.33478093  0.53215120  1
  O2-  O437  1  0.16481565  0.34364280  0.85845621  1
  O2-  O438  1  0.17301390  0.59235691  0.18439671  1
  O2-  O439  1  0.16924441  0.58961472  0.53283147  1
  O2-  O440  1  0.17001358  0.58221462  0.85105844  1
  O2-  O441  1  0.17035559  0.82926691  0.18751306  1
  O2-  O442  1  0.17471583  0.83262568  0.51745951  1
  O2-  O443  1  0.16833501  0.82774979  0.85467034  1
  O2-  O444  1  0.40519620  0.06622542  0.18314203  1
  O2-  O445  1  0.41824582  0.08029766  0.50055894  1
  O2-  O446  1  0.41993892  0.08704015  0.85332953  1
  O2-  O447  1  0.43990975  0.29122524  0.19495573  1
  O2-  O448  1  0.42287862  0.34249792  0.51252011  1
  O2-  O449  1  0.41774798  0.33534446  0.84993042  1
  O2-  O450  1  0.41079058  0.58694407  0.18641080  1
  O2-  O451  1  0.44013394  0.55698540  0.52842123  1
  O2-  O452  1  0.42563988  0.60576618  0.86095273  1
  O2-  O453  1  0.41960118  0.83513238  0.19280129  1
  O2-  O454  1  0.42555603  0.83419148  0.54354204  1
  O2-  O455  1  0.42776347  0.83832754  0.82559632  1
  O2-  O456  1  0.65801337  0.06940767  0.18959494  1
  O2-  O457  1  0.66561448  0.07385053  0.50185662  1
  O2-  O458  1  0.65772667  0.06362674  0.85412977  1
  O2-  O459  1  0.67247199  0.36137912  0.19181502  1
  O2-  O460  1  0.65441978  0.32131384  0.51465792  1
  O2-  O461  1  0.67418128  0.35475982  0.85669963  1
  O2-  O462  1  0.63559526  0.55512093  0.19321494  1
  O2-  O463  1  0.66463926  0.59417203  0.52793530  1
  O2-  O464  1  0.66733344  0.59397627  0.84395384  1
  O2-  O465  1  0.68088455  0.83569803  0.19236307  1
  O2-  O466  1  0.67495355  0.84417990  0.50985431  1
  O2-  O467  1  0.67809733  0.83610859  0.85487735  1
  O2-  O468  1  0.91332866  0.08162096  0.18043679  1
  O2-  O469  1  0.91631285  0.08615550  0.52645283  1
  O2-  O470  1  0.91455808  0.08752389  0.80546087  1
  O2-  O471  1  0.90300047  0.31646062  0.18133643  1
  O2-  O472  1  0.90878306  0.33379788  0.52355950  1
  O2-  O473  1  0.91082213  0.33984383  0.85341751  1
  O2-  O474  1  0.92769230  0.58357198  0.19553381  1
  O2-  O475  1  0.90561039  0.57784243  0.52253637  1
  O2-  O476  1  0.92856034  0.59117747  0.84305618  1
  O2-  O477  1  0.93405670  0.85435041  0.18933998  1
  O2-  O478  1  0.92081983  0.83224451  0.52085984  1
  O2-  O479  1  0.92482517  0.83257730  0.85235051  1
  O2-  O480  1  0.16592546  0.06366401  0.30608105  1
  O2-  O481  1  0.16817919  0.13484845  0.65240527  1
  O2-  O482  1  0.17578999  0.11141760  0.96812910  1
  O2-  O483  1  0.16162062  0.30853086  0.31213745  1
  O2-  O484  1  0.14631528  0.31756760  0.65554589  1
  O2-  O485  1  0.17169351  0.34311015  0.97801959  1
  O2-  O486  1  0.18055332  0.61006419  0.30949367  1
  O2-  O487  1  0.17850342  0.57682451  0.65657402  1
  O2-  O488  1  0.17101459  0.57742710  0.97028504  1
  O2-  O489  1  0.09230702  0.78285532  0.29951179  1
  O2-  O490  1  0.20211652  0.90300705  0.63412536  1
  O2-  O491  1  0.17322276  0.81625400  0.97527250  1
  O2-  O492  1  0.42293784  0.08891704  0.30406041  1
  O2-  O493  1  0.34457945  0.04450788  0.61448786  1
  O2-  O494  1  0.41169764  0.08519895  0.97761250  1
  O2-  O495  1  0.38675121  0.32654989  0.29907103  1
  O2-  O496  1  0.39275648  0.32681115  0.62933397  1
  O2-  O497  1  0.41708509  0.33942730  0.97429237  1
  O2-  O498  1  0.41413971  0.58489011  0.31610141  1
  O2-  O499  1  0.41429549  0.57637380  0.65323519  1
  O2-  O500  1  0.46551740  0.60578279  0.97990629  1
  O2-  O501  1  0.45242820  0.84479039  0.31359377  1
  O2-  O502  1  0.42105677  0.82916853  0.65884289  1
  O2-  O503  1  0.41462708  0.83522166  0.98140720  1
  O2-  O504  1  0.67402343  0.08258830  0.31330238  1
  O2-  O505  1  0.66111419  0.08537612  0.63686692  1
  O2-  O506  1  0.65930225  0.08022317  0.97858784  1
  O2-  O507  1  0.67676074  0.33530862  0.31788770  1
  O2-  O508  1  0.66947531  0.32391112  0.64369721  1
  O2-  O509  1  0.66635113  0.33798785  0.97597436  1
  O2-  O510  1  0.65726348  0.57156667  0.30967613  1
  O2-  O511  1  0.67606832  0.60735161  0.64062718  1
  O2-  O512  1  0.64017467  0.57766187  0.96307664  1
  O2-  O513  1  0.67857656  0.83687882  0.30365665  1
  O2-  O514  1  0.66049648  0.83624642  0.63587638  1
  O2-  O515  1  0.66669478  0.82903019  0.97802322  1
  O2-  O516  1  0.91165335  0.07792422  0.30512263  1
  O2-  O517  1  0.92746764  0.11300828  0.65766518  1
  O2-  O518  1  0.91923211  0.08641566  0.97250261  1
  O2-  O519  1  0.93259592  0.36923412  0.30897924  1
  O2-  O520  1  0.91344464  0.33937952  0.64427445  1
  O2-  O521  1  0.91085429  0.33734474  0.97712147  1
  O2-  O522  1  0.90982314  0.57686086  0.31987686  1
  O2-  O523  1  0.83559302  0.54148716  0.62902484  1
  O2-  O524  1  0.91427866  0.59065211  0.98160236  1
  O2-  O525  1  0.90765577  0.83060093  0.31459016  1
  O2-  O526  1  0.93164407  0.83116533  0.64295231  1
  O2-  O527  1  0.92101258  0.83748404  0.97869271  1
  O2-  O528  1  0.08945687  0.18029337  0.01569634  1
  O2-  O529  1  0.07847013  0.14096306  0.34760116  1
  O2-  O530  1  0.09693085  0.22803670  0.67570294  1
  O2-  O531  1  0.07841748  0.41312948  0.01266337  1
  O2-  O532  1  0.08470213  0.44859642  0.37068218  1
  O2-  O533  1  0.07209750  0.41125265  0.69255486  1
  O2-  O534  1  0.09089392  0.65830226  0.02061754  1
  O2-  O535  1  0.05391916  0.61282193  0.37879059  1
  O2-  O536  1  0.16432061  0.70410722  0.70675883  1
  O2-  O537  1  0.07538793  0.88635179  0.03004162  1
  O2-  O538  1  0.06954308  0.90337503  0.35337269  1
  O2-  O539  1  0.08625494  0.91552422  0.69167684  1
  O2-  O540  1  0.33893395  0.17383554  0.01715880  1
  O2-  O541  1  0.32928624  0.15895012  0.35263384  1
  O2-  O542  1  0.32912553  0.16631562  0.67893691  1
  O2-  O543  1  0.34074618  0.42956815  0.01719926  1
  O2-  O544  1  0.31754756  0.41867399  0.34540230  1
  O2-  O545  1  0.32145704  0.41492936  0.68094510  1
  O2-  O546  1  0.34097877  0.66939420  0.01826003  1
  O2-  O547  1  0.34606816  0.68173215  0.35766321  1
  O2-  O548  1  0.33792189  0.65669773  0.70104767  1
  O2-  O549  1  0.32522945  0.90717702  0.01250963  1
  O2-  O550  1  0.42292770  0.95261823  0.37032991  1
  O2-  O551  1  0.33906669  0.91637794  0.69196005  1
  O2-  O552  1  0.57767041  0.16459117  0.02013405  1
  O2-  O553  1  0.58729546  0.16974660  0.34823749  1
  O2-  O554  1  0.58036955  0.15749128  0.69242790  1
  O2-  O555  1  0.58377465  0.42136093  0.01559263  1
  O2-  O556  1  0.60319238  0.42146499  0.37217658  1
  O2-  O557  1  0.62035240  0.43890580  0.68806733  1
  O2-  O558  1  0.54725051  0.64587650  -0.00338660  1
  O2-  O559  1  0.58766181  0.66213131  0.35212362  1
  O2-  O560  1  0.58363839  0.67555250  0.68336744  1
  O2-  O561  1  0.58809146  0.91678615  0.02464147  1
  O2-  O562  1  0.61380630  0.91977034  0.35998884  1
  O2-  O563  1  0.57675394  0.90129388  0.69221836  1
  O2-  O564  1  0.82952725  0.16806202  0.01106311  1
  O2-  O565  1  0.83534878  0.16470644  0.35266186  1
  O2-  O566  1  0.82826348  0.18068697  0.68651368  1
  O2-  O567  1  0.83268668  0.42471505  0.01809855  1
  O2-  O568  1  0.83111168  0.41548408  0.36340756  1
  O2-  O569  1  0.83751409  0.42134770  0.68722133  1
  O2-  O570  1  0.81301656  0.66561019  0.00673755  1
  O2-  O571  1  0.82805065  0.66258208  0.35165760  1
  O2-  O572  1  0.82860640  0.66362963  0.68364429  1
  O2-  O573  1  0.83572445  0.92027501  0.01531517  1
  O2-  O574  1  0.82895807  0.91589720  0.35261926  1
  O2-  O575  1  0.79990789  0.84683991  0.69361754  1
