# generated using pymatgen
data_H2O
_symmetry_space_group_name_H-M   'P 1'
_cell_length_a   17.99727726
_cell_length_b   17.99809002
_cell_length_c   22.00116253
_cell_angle_alpha   89.97384354
_cell_angle_beta   90.00245239
_cell_angle_gamma   119.98480317
_symmetry_Int_Tables_number   1
_chemical_formula_structural   H2O
_chemical_formula_sum   'H384 O192'
_cell_volume   6172.71062228
_cell_formula_units_Z   192
loop_
 _symmetry_equiv_pos_site_id
 _symmetry_equiv_pos_as_xyz
  1  'x, y, z'
loop_
 _atom_type_symbol
 _atom_type_oxidation_number
  H+  1.0
  O2-  -2.0
loop_
 _atom_site_type_symbol
 _atom_site_label
 _atom_site_symmetry_multiplicity
 _atom_site_fract_x
 _atom_site_fract_y
 _atom_site_fract_z
 _atom_site_occupancy
  H+  H0  1  0.46811551  0.60910580  0.33426037  1
  H+  H1  1  0.56837147  0.86120184  0.81786616  1
  H+  H2  1  0.48040777  0.04431719  0.94254045  1
  H+  H3  1  0.82730194  0.95375065  0.83268786  1
  H+  H4  1  0.31459301  0.08273934  0.14692784  1
  H+  H5  1  0.86072440  0.37800779  0.00132032  1
  H+  H6  1  0.60863127  0.88967631  0.15695327  1
  H+  H7  1  0.66311651  0.24890634  0.37256487  1
  H+  H8  1  0.88031753  0.50346184  0.66011259  1
  H+  H9  1  0.35227040  0.61812782  0.84333040  1
  H+  H10  1  0.60448947  0.75918437  0.82884089  1
  H+  H11  1  0.62976141  0.38689948  0.00784977  1
  H+  H12  1  0.46914047  0.11805828  0.66107773  1
  H+  H13  1  0.85127121  0.87956395  0.68006566  1
  H+  H14  1  0.86230806  0.84869295  0.84470657  1
  H+  H15  1  0.84986501  -0.02511209  0.16643547  1
  H+  H16  1  0.11956720  0.48150673  0.16687968  1
  H+  H17  1  0.84052804  0.72140663  0.48138411  1
  H+  H18  1  0.18365094  0.59388705  0.23647434  1
  H+  H19  1  0.77137464  0.88140050  0.00982486  1
  H+  H20  1  0.09007110  0.42674061  0.76608108  1
  H+  H21  1  0.80924280  0.29454641  0.50813060  1
  H+  H22  1  0.60838554  0.72777189  0.15313452  1
  H+  H23  1  0.52539124  0.88484260  0.00250676  1
  H+  H24  1  0.58465877  0.17540336  0.40400872  1
  H+  H25  1  0.38568695  0.37255822  0.65589451  1
  H+  H26  1  0.43281011  0.04620977  0.30672843  1
  H+  H27  1  0.96525083  0.60311529  0.16212420  1
  H+  H28  1  0.11695065  0.64339745  0.83136956  1
  H+  H29  1  0.27257426  0.15000408  0.49708418  1
  H+  H30  1  0.33458358  0.88056620  0.98548454  1
  H+  H31  1  0.95266770  0.78877395  0.53104603  1
  H+  H32  1  0.38984448  0.37510290  0.83882594  1
  H+  H33  1  0.57318671  0.16847661  0.15884320  1
  H+  H34  1  0.12061495  -0.02598815  0.15450654  1
  H+  H35  1  0.10795215  0.99717619  0.68140247  1
  H+  H36  1  0.16180907  0.82432039  0.26343220  1
  H+  H37  1  0.12134513  0.65365817  0.01012953  1
  H+  H38  1  0.89334983  0.27018251  0.99483919  1
  H+  H39  1  0.03160138  0.13837383  0.68876799  1
  H+  H40  1  0.26773645  0.64036042  0.33808090  1
  H+  H41  1  0.37485674  0.48811703  0.66708626  1
  H+  H42  1  0.58697143  0.92479913  0.06115098  1
  H+  H43  1  0.71209763  0.86127963  0.17022193  1
  H+  H44  1  0.10263680  0.23326669  0.99903148  1
  H+  H45  1  0.99714795  0.86564633  0.15456069  1
  H+  H46  1  0.14595709  0.37009711  0.17769183  1
  H+  H47  1  0.22301660  0.11709167  0.31766354  1
  H+  H48  1  0.90431668  0.66930782  0.52011924  1
  H+  H49  1  0.87961978  0.26980086  0.66815256  1
  H+  H50  1  0.61377017  0.39049958  0.48685220  1
  H+  H51  1  0.28175958  0.89934245  0.50000839  1
  H+  H52  1  0.54463416  0.01660737  0.54808229  1
  H+  H53  1  0.71920255  0.36247323  0.65801032  1
  H+  H54  1  0.63509626  0.02070109  0.99276025  1
  H+  H55  1  0.62957555  0.60710506  0.49987615  1
  H+  H56  1  0.13233875  0.76724907  0.32335302  1
  H+  H57  1  0.77689147  0.12886180  1.00213772  1
  H+  H58  1  0.12822860  0.23416120  0.15733678  1
  H+  H59  1  0.40705277  0.84911344  1.02166435  1
  H+  H60  1  0.64074502  0.53454106  0.33346886  1
  H+  H61  1  0.02120330  0.61981572  0.67118538  1
  H+  H62  1  0.37869580  0.38893999  0.34418620  1
  H+  H63  1  0.46212943  0.13563153  0.15341831  1
  H+  H64  1  0.38985902  0.61854239  0.16125288  1
  H+  H65  1  0.97601951  0.62814594  0.84006893  1
  H+  H66  1  0.02259643  0.36648354  0.49906517  1
  H+  H67  1  0.36466593  0.14847576  0.67193852  1
  H+  H68  1  0.11579207  0.84061227  0.66001914  1
  H+  H69  1  0.41797837  0.09989433  0.89361076  1
  H+  H70  1  0.10520965  0.38409313  0.67903359  1
  H+  H71  1  0.53240137  0.88552119  0.48215084  1
  H+  H72  1  0.74087120  0.11297538  0.17629270  1
  H+  H73  1  0.89123190  0.12525000  0.83076343  1
  H+  H74  1  0.51906091  0.38919092  0.66821801  1
  H+  H75  1  0.58937113  0.13394631  0.49883626  1
  H+  H76  1  0.63593830  0.86566564  0.32188952  1
  H+  H77  1  0.23041924  0.61853858  0.17205698  1
  H+  H78  1  0.25421932  0.85115828  0.14459169  1
  H+  H79  1  0.86882578  0.87404501  0.48439110  1
  H+  H80  1  0.14698654  0.28512878  0.84024836  1
  H+  H81  1  0.27645349  0.38951288  0.16030256  1
  H+  H82  1  0.76722542  0.40108610  0.82286025  1
  H+  H83  1  0.88566642  0.08768431  0.50898101  1
  H+  H84  1  0.85126073  0.37773616  0.67499094  1
  H+  H85  1  0.41756883  0.84146227  0.22113219  1
  H+  H86  1  0.47357903  0.35505930  0.99123861  1
  H+  H87  1  0.66374518  0.31395517  0.18927987  1
  H+  H88  1  0.36055626  0.38304682  0.00445988  1
  H+  H89  1  0.37977518  0.62361770  0.65829970  1
  H+  H90  1  0.22884527  0.61754615  -0.00460014  1
  H+  H91  1  0.47356282  0.86783243  0.16016938  1
  H+  H92  1  0.97604798  0.10641093  0.32239456  1
  H+  H93  1  0.63435284  0.07175226  0.57778220  1
  H+  H94  1  0.13227222  0.00504604  0.85193233  1
  H+  H95  1  0.96707796  0.60786122  0.99230421  1
  H+  H96  1  0.14624544  0.64601569  0.33872835  1
  H+  H97  1  0.76538969  0.63414447  0.83892283  1
  H+  H98  1  0.14476934  0.12164582  0.66048566  1
  H+  H99  1  0.85814100  0.22870946  0.34183797  1
  H+  H100  1  0.04364854  0.89985861  0.49499096  1
  H+  H101  1  0.14450723  0.34523946  0.32829810  1
  H+  H102  1  0.87771107  0.60801481  0.15710998  1
  H+  H103  1  0.11183508  0.13041045  0.49135499  1
  H+  H104  1  0.62535552  0.48281289  1.00499751  1
  H+  H105  1  0.60847725  0.72181773  0.49287926  1
  H+  H106  1  0.62007521  0.98445328  0.33567736  1
  H+  H107  1  0.88784231  0.00995292  0.98872268  1
  H+  H108  1  0.15001438  0.02910858  0.50615916  1
  H+  H109  1  0.86377981  0.12474397  -0.00025161  1
  H+  H110  1  0.39045819  0.53031270  0.16193382  1
  H+  H111  1  0.60761533  0.23052975  0.66919770  1
  H+  H112  1  -0.00756594  0.88817883  0.32224449  1
  H+  H113  1  0.86396066  0.47192567  0.31787813  1
  H+  H114  1  0.39066461  0.79877498  0.48082336  1
  H+  H115  1  0.92540780  0.08373388  0.75121058  1
  H+  H116  1  0.29884156  0.53268872  0.87799850  1
  H+  H117  1  0.64357966  0.86773045  -0.00312057  1
  H+  H118  1  0.40536317  1.00295015  0.32120477  1
  H+  H119  1  0.88321074  0.51642992  0.98682985  1
  H+  H120  1  0.21955078  0.04366658  0.88732659  1
  H+  H121  1  -0.02723680  0.34305749  0.32951662  1
  H+  H122  1  0.61614136  0.97227529  0.49149299  1
  H+  H123  1  0.57513080  0.95172568  0.82279098  1
  H+  H124  1  0.37579672  0.18156593  0.13916878  1
  H+  H125  1  0.23790023  0.35425751  0.33220329  1
  H+  H126  1  0.52110976  0.63193687  0.67945420  1
  H+  H127  1  0.58223979  0.28711021  0.23137566  1
  H+  H128  1  0.53984655  0.20580921  0.30921986  1
  H+  H129  1  0.39424417  0.29907966  0.18165519  1
  H+  H130  1  0.37511860  0.90967967  0.49498093  1
  H+  H131  1  0.86277005  0.89657562  0.33131472  1
  H+  H132  1  0.64669681  0.40411747  0.28236742  1
  H+  H133  1  0.16006361  0.48981284  0.47039835  1
  H+  H134  1  0.34657904  0.22206362  -0.00229240  1
  H+  H135  1  0.14438830  0.60944701  0.65784732  1
  H+  H136  1  0.47629719  0.61035970  0.99491626  1
  H+  H137  1  0.22117501  0.10973359  0.16368013  1
  H+  H138  1  0.27613295  0.38925678  0.82174142  1
  H+  H139  1  0.49227526  0.36226123  0.32889819  1
  H+  H140  1  0.51833236  0.63056866  0.49630255  1
  H+  H141  1  0.40263167  0.01827207  0.98533342  1
  H+  H142  1  0.37023852  0.72784498  0.00445177  1
  H+  H143  1  0.23203537  0.60495214  0.65454255  1
  H+  H144  1  0.61649560  0.27113069  0.50712203  1
  H+  H145  1  0.93005816  0.33232006  0.93706268  1
  H+  H146  1  0.90600944  0.07129281  0.23293454  1
  H+  H147  1  0.73513298  0.36940196  0.99554287  1
  H+  H148  1  0.50475524  0.14071598  0.49355837  1
  H+  H149  1  0.01482373  0.13792472  -0.00000727  1
  H+  H150  1  0.73351081  0.34216881  0.46911049  1
  H+  H151  1  0.76259288  0.88311701  0.68503680  1
  H+  H152  1  0.57802336  0.41858083  0.72833139  1
  H+  H153  1  0.87798151  0.10116155  0.17215149  1
  H+  H154  1  0.60007769  0.97441162  0.67496399  1
  H+  H155  1  0.12458782  0.97652773  0.33801347  1
  H+  H156  1  0.84237886  0.61794306  0.33794178  1
  H+  H157  1  0.63475110  0.60979777  0.84241552  1
  H+  H158  1  0.70527204  0.08357391  0.81559596  1
  H+  H159  1  0.64359360  0.62532365  0.16606577  1
  H+  H160  1  0.88192912  0.77084634  0.65498819  1
  H+  H161  1  0.22367819  0.36338745  0.99365195  1
  H+  H162  1  0.88334138  0.02421374  0.32572633  1
  H+  H163  1  0.13507588  0.11385037  0.16603433  1
  H+  H164  1  0.12345483  0.13066730  -0.00497440  1
  H+  H165  1  0.98289843  0.36366625  0.17290979  1
  H+  H166  1  0.09032943  0.87818104  0.84079489  1
  H+  H167  1  0.51529913  0.61634126  0.82345085  1
  H+  H168  1  1.00023835  0.36943192  0.84591633  1
  H+  H169  1  0.64363491  0.12757617  0.32844451  1
  H+  H170  1  0.36800216  0.68797287  0.52917446  1
  H+  H171  1  0.31506478  0.85485027  0.84229834  1
  H+  H172  1  0.27175562  0.62172316  0.50655246  1
  H+  H173  1  0.19380445  0.85186197  0.86122549  1
  H+  H174  1  0.16874604  0.34262840  0.93255123  1
  H+  H175  1  0.62912661  0.61576752  0.34927087  1
  H+  H176  1  0.36168131  0.63320736  1.00712714  1
  H+  H177  1  0.22504407  0.12950190  -0.00400232  1
  H+  H178  1  0.60403432  0.63200459  0.00445795  1
  H+  H179  1  0.63091639  0.28317770  0.84169452  1
  H+  H180  1  0.14268659  0.73495802  0.49546454  1
  H+  H181  1  0.13261355  0.85026246  0.16965296  1
  H+  H182  1  0.35136527  0.25268531  0.34040284  1
  H+  H183  1  0.61006573  0.39227202  0.82625413  1
  H+  H184  1  -0.04435306  0.85537799  0.84568592  1
  H+  H185  1  0.10293693  0.77419744  0.87610424  1
  H+  H186  1  0.26131850  0.89330393  0.68530992  1
  H+  H187  1  0.28775179  0.88800113  0.78213056  1
  H+  H188  1  0.37119921  0.43789549  0.50130784  1
  H+  H189  1  0.66141102  0.12639948  0.17442915  1
  H+  H190  1  0.46537011  0.10440811  0.17473919  1
  H+  H191  1  0.92056314  0.27598541  0.84530680  1
  H+  H192  1  0.31742449  -0.03124697  0.16579635  1
  H+  H193  1  0.68902438  0.84861207  0.82955942  1
  H+  H194  1  0.34440298  0.39600720  0.40883211  1
  H+  H195  1  0.92015735  0.56328229  0.60099447  1
  H+  H196  1  0.14059712  0.28173302  0.67089804  1
  H+  H197  1  0.63066841  0.36439571  0.65768851  1
  H+  H198  1  0.23206541  0.33547918  0.50280920  1
  H+  H199  1  0.47674323  0.85013018  0.64050775  1
  H+  H200  1  0.63155143  0.11807620  0.66774091  1
  H+  H201  1  0.47505989  0.23775974  0.29458203  1
  H+  H202  1  0.57895941  0.66560311  0.06406831  1
  H+  H203  1  0.09021831  0.42290503  0.10687389  1
  H+  H204  1  0.07929538  0.15205545  0.42960130  1
  H+  H205  1  0.14779484  0.37536313  0.83621748  1
  H+  H206  1  0.13354302  0.15426937  0.83683725  1
  H+  H207  1  0.83862578  0.88046149  0.17466442  1
  H+  H208  1  0.89486069  0.48339954  0.50985670  1
  H+  H209  1  0.59589238  0.14560476  0.82607540  1
  H+  H210  1  0.39205087  0.38518752  0.17228526  1
  H+  H211  1  0.26309359  0.85370428  0.34549554  1
  H+  H212  1  0.75899231  0.13700056  0.34517760  1
  H+  H213  1  0.13541652  0.26475608  0.49252309  1
  H+  H214  1  0.91898700  0.53107097  0.50390706  1
  H+  H215  1  0.03766552  0.14124324  0.83163691  1
  H+  H216  1  0.95567836  0.61896627  0.30208190  1
  H+  H217  1  0.93309116  0.21562077  0.46807774  1
  H+  H218  1  0.27120615  0.14639086  0.82053382  1
  H+  H219  1  0.86613625  0.96051596  0.49138227  1
  H+  H220  1  0.02603462  0.97564687  0.71811375  1
  H+  H221  1  0.36224198  0.56951295  0.50733511  1
  H+  H222  1  0.34921686  0.74884328  0.84905012  1
  H+  H223  1  0.12004670  0.21511716  0.33560518  1
  H+  H224  1  0.02476546  0.39000317  0.01223390  1
  H+  H225  1  0.22556508  0.37298621  0.66624102  1
  H+  H226  1  0.71907097  0.11373341  0.66756709  1
  H+  H227  1  0.35165525  0.86839750  0.14540069  1
  H+  H228  1  0.25913201  -0.01691854  0.21279831  1
  H+  H229  1  0.94325222  0.02695461  0.83579541  1
  H+  H230  1  0.38675514  0.85256006  0.31991813  1
  H+  H231  1  0.77457158  0.64435401  0.15838319  1
  H+  H232  1  0.63527956  0.77520763  0.67714222  1
  H+  H233  1  0.63979003  0.77751832  -0.00369323  1
  H+  H234  1  0.98740243  0.36204688  0.51986073  1
  H+  H235  1  0.71871358  0.60727050  0.49988041  1
  H+  H236  1  0.17791725  0.55352731  0.34087432  1
  H+  H237  1  0.37982107  0.12652884  0.50665976  1
  H+  H238  1  0.85618913  0.48823178  0.81913104  1
  H+  H239  1  0.85388560  0.46470420  0.14991349  1
  H+  H240  1  0.85848487  0.62348454  0.66290947  1
  H+  H241  1  0.70551382  0.01181943  0.85407983  1
  H+  H242  1  0.12147910  0.48688757  0.82694712  1
  H+  H243  1  0.48399273  0.87426450  0.31212837  1
  H+  H244  1  0.35730468  0.48063536  0.82010698  1
  H+  H245  1  0.21765220  0.62407027  0.85047592  1
  H+  H246  1  0.13062527  0.85211188  0.95957175  1
  H+  H247  1  0.85720643  0.13274984  0.69009310  1
  H+  H248  1  0.52602074  0.40293150  0.15245153  1
  H+  H249  1  0.38475217  0.28430581  0.83684308  1
  H+  H250  1  0.37117354  0.63418487  0.35285188  1
  H+  H251  1  0.13715853  0.53101475  0.00011005  1
  H+  H252  1  0.64335374  0.28124900  0.99658070  1
  H+  H253  1  0.44779003  0.86206689  0.85548138  1
  H+  H254  1  0.87032536  0.22558548  0.15427578  1
  H+  H255  1  0.96417991  0.86431936  0.66579643  1
  H+  H256  1  0.12305331  0.75580073  0.17330020  1
  H+  H257  1  0.82838789  0.65623371  0.42831677  1
  H+  H258  1  0.63181937  0.14778748  0.00419815  1
  H+  H259  1  0.15340748  0.61569884  0.50351855  1
  H+  H260  1  0.16782854  0.57150742  0.56351593  1
  H+  H261  1  0.82487645  0.14918996  0.85944204  1
  H+  H262  1  0.37647312  0.28770082  0.49979263  1
  H+  H263  1  0.10160003  0.43316276  0.31417987  1
  H+  H264  1  0.91384764  0.85940782  0.12838661  1
  H+  H265  1  0.10712087  0.62742618  0.16471377  1
  H+  H266  1  0.34492140  0.98409892  0.69253607  1
  H+  H267  1  0.63353207  0.52346898  0.65463215  1
  H+  H268  1  0.11751976  0.88440230  0.33965164  1
  H+  H269  1  0.64720563  0.53952531  0.16713709  1
  H+  H270  1  0.71383582  0.61497739  0.99635741  1
  H+  H271  1  0.84805624  0.82014459  1.00941992  1
  H+  H272  1  0.72648567  0.84527317  0.49692751  1
  H+  H273  1  0.10637194  0.47248713  0.67233060  1
  H+  H274  1  0.50988857  0.15098016  0.82524107  1
  H+  H275  1  0.38603201  0.13644137  0.83776892  1
  H+  H276  1  0.86312727  0.64163974  0.83850572  1
  H+  H277  1  0.16667255  0.40355394  0.46498637  1
  H+  H278  1  0.60458403  0.72911029  0.33830946  1
  H+  H279  1  0.36005410  0.51850803  0.56535408  1
  H+  H280  1  0.11479972  0.39378214  0.00966463  1
  H+  H281  1  0.85074253  0.21043730  0.50084515  1
  H+  H282  1  0.11079099  0.12202980  0.33236394  1
  H+  H283  1  0.12650073  0.75846416  0.66064798  1
  H+  H284  1  0.04880039  0.61284356  0.35545670  1
  H+  H285  1  0.32012787  0.90902614  0.05083095  1
  H+  H286  1  0.86082066  0.38026759  0.15354980  1
  H+  H287  1  0.61647208  -0.01794653  0.15920184  1
  H+  H288  1  0.82208386  0.41655255  0.73150109  1
  H+  H289  1  0.10095117  0.92491232  0.43437331  1
  H+  H290  1  0.87085702  0.72841930  0.15387270  1
  H+  H291  1  0.32379065  0.89107230  0.40306100  1
  H+  H292  1  0.06952360  0.91737113  0.77958928  1
  H+  H293  1  0.57783794  0.65232957  0.76544111  1
  H+  H294  1  0.08228855  0.65740902  0.72976232  1
  H+  H295  1  0.34143567  0.66595382  0.41166991  1
  H+  H296  1  0.57543030  0.17538056  0.73045055  1
  H+  H297  1  0.33046456  0.18176533  0.76049457  1
  H+  H298  1  0.85781780  0.73737744  0.84110965  1
  H+  H299  1  0.17207044  0.08746916  0.56653424  1
  H+  H300  1  0.14895230  0.86839836  0.50797786  1
  H+  H301  1  0.57353071  0.67136964  0.39939430  1
  H+  H302  1  0.38210311  0.51986690  0.34402694  1
  H+  H303  1  0.43720601  0.35581168  0.26740943  1
  H+  H304  1  0.80032690  0.37066709  0.41360825  1
  H+  H305  1  0.91754540  0.58893574  0.90070613  1
  H+  H306  1  0.34036737  0.42478772  0.72502052  1
  H+  H307  1  0.15588161  0.58425846  0.90788145  1
  H+  H308  1  0.59141625  0.92281380  0.39335411  1
  H+  H309  1  0.83422267  0.16862490  0.40716238  1
  H+  H310  1  0.83127079  0.40714305  0.06166329  1
  H+  H311  1  0.26492608  0.23060728  0.37150284  1
  H+  H312  1  0.15694449  0.73844745  0.80740730  1
  H+  H313  1  0.67041703  0.07881345  0.93309583  1
  H+  H314  1  0.12123263  0.68046254  0.43456005  1
  H+  H315  1  0.72166015  0.86010170  0.32117029  1
  H+  H316  1  0.78298974  0.38145824  0.30742532  1
  H+  H317  1  0.10294638  0.17466202  0.73896665  1
  H+  H318  1  0.81358767  0.90012001  0.77154288  1
  H+  H319  1  0.32845228  0.66756094  0.09589345  1
  H+  H320  1  0.41697751  0.33511429  0.93105567  1
  H+  H321  1  0.36223085  0.47296995  0.00578556  1
  H+  H322  1  0.23261052  0.11989366  0.65988410  1
  H+  H323  1  0.97397226  0.09123925  0.50464641  1
  H+  H324  1  0.37910857  1.03584227  0.50670619  1
  H+  H325  1  0.32607836  0.18627035  0.43595057  1
  H+  H326  1  0.61272548  0.63518461  0.67479554  1
  H+  H327  1  0.40653630  0.08941544  0.60373768  1
  H+  H328  1  0.10976287  0.41662537  0.38679232  1
  H+  H329  1  0.39448726  0.75564158  0.63622789  1
  H+  H330  1  0.42370072  0.83132265  0.55012317  1
  H+  H331  1  0.11389026  0.91508430  0.09530272  1
  H+  H332  1  0.30867084  0.70644677  0.78453329  1
  H+  H333  1  0.65853344  0.33514876  0.56333976  1
  H+  H334  1  0.17929865  0.33576519  0.23372638  1
  H+  H335  1  0.76434007  0.63246019  0.35401583  1
  H+  H336  1  0.89852082  0.57258150  0.24429101  1
  H+  H337  1  0.67649979  0.09661669  0.26880341  1
  H+  H338  1  0.52169482  0.39353272  0.82510321  1
  H+  H339  1  0.82693650  0.90985249  0.39397407  1
  H+  H340  1  0.52094655  0.63719478  0.15141661  1
  H+  H341  1  0.93710888  0.85729070  0.26141448  1
  H+  H342  1  0.65918811  0.58077743  0.59434331  1
  H+  H343  1  0.35259593  0.66568307  0.71284914  1
  H+  H344  1  0.07953517  0.65874997  0.10392683  1
  H+  H345  1  0.33270790  0.41373906  0.09835330  1
  H+  H346  1  0.17154907  0.83379194  0.56833444  1
  H+  H347  1  0.36355612  0.23803446  0.66730623  1
  H+  H348  1  0.83793649  0.16267328  0.09625203  1
  H+  H349  1  0.83039602  0.91160829  0.06901469  1
  H+  H350  1  0.10906659  0.73628059  0.02050114  1
  H+  H351  1  0.82972688  0.16873244  0.74305522  1
  H+  H352  1  0.66451921  0.34216684  0.90147927  1
  H+  H353  1  0.55259185  0.90656007  0.72879143  1
  H+  H354  1  0.09021532  0.17554766  0.09844109  1
  H+  H355  1  0.41003018  0.58118510  0.93808826  1
  H+  H356  1  0.41267424  0.34445834  0.59507631  1
  H+  H357  1  0.92810421  0.84652165  0.56769221  1
  H+  H358  1  0.58952612  0.40157969  0.40395916  1
  H+  H359  1  0.15146118  0.08174256  0.93988507  1
  H+  H360  1  0.59236478  0.41960238  0.07110704  1
  H+  H361  1  0.88943125  0.35520527  0.32200265  1
  H+  H362  1  0.66083285  0.57099252  0.93414190  1
  H+  H363  1  0.81404978  0.69024228  0.07098791  1
  H+  H364  1  0.40495402  0.83405510  0.92477030  1
  H+  H365  1  0.60697802  0.39112394  0.16165036  1
  H+  H366  1  0.45177997  0.59868592  0.60806356  1
  H+  H367  1  0.96645616  0.35927707  0.66165622  1
  H+  H368  1  0.65215392  0.82879691  0.22898249  1
  H+  H369  1  0.54252352  0.14322643  0.00761191  1
  H+  H370  1  0.92555670  0.68762994  0.58900910  1
  H+  H371  1  0.77374922  0.63149175  0.65341216  1
  H+  H372  1  0.91874046  0.32399624  0.22890686  1
  H+  H373  1  0.92188974  0.06800482  0.92720505  1
  H+  H374  1  0.31554948  0.14995835  0.05088918  1
  H+  H375  1  0.85481320  0.29358961  0.57191770  1
  H+  H376  1  0.63227253  0.86282233  0.67456596  1
  H+  H377  1  0.16609737  0.07679543  0.25673638  1
  H+  H378  1  0.63617648  0.52184318  0.83866026  1
  H+  H379  1  0.61524615  0.48039361  0.47737253  1
  H+  H380  1  0.64334730  0.85455118  0.49620082  1
  H+  H381  1  0.62456858  0.19104603  0.09833037  1
  H+  H382  1  0.36159672  0.72954498  0.15398790  1
  H+  H383  1  0.88486836  0.01827291  0.69749475  1
  O2-  O384  1  0.10169068  0.17452024  0.14207783  1
  O2-  O385  1  0.07712443  0.15515837  0.47498858  1
  O2-  O386  1  0.10231128  0.18006902  0.81872401  1
  O2-  O387  1  0.09006895  0.42055925  0.15236447  1
  O2-  O388  1  0.16389405  0.44998363  0.44105025  1
  O2-  O389  1  0.09940882  0.42753520  0.81140768  1
  O2-  O390  1  0.07321598  0.65381619  0.14940760  1
  O2-  O391  1  0.12043648  0.67598928  0.47928108  1
  O2-  O392  1  0.10152622  0.68414867  0.81066142  1
  O2-  O393  1  0.09662277  0.91347956  0.14056401  1
  O2-  O394  1  0.10415962  0.92790128  0.48014001  1
  O2-  O395  1  0.06423335  0.91253699  0.82460752  1
  O2-  O396  1  0.31954079  0.13659773  0.12595979  1
  O2-  O397  1  0.33311698  0.18491094  0.48071871  1
  O2-  O398  1  0.33047683  0.18375324  0.80658282  1
  O2-  O399  1  0.33684426  0.41826608  0.14369373  1
  O2-  O400  1  0.34722211  0.37707901  0.48664151  1
  O2-  O401  1  0.33713866  0.42134646  0.80636205  1
  O2-  O402  1  0.32801635  0.66769262  0.14146647  1
  O2-  O403  1  0.33636879  0.64819658  0.49638065  1
  O2-  O404  1  0.31923567  0.69086786  0.82471921  1
  O2-  O405  1  0.31256548  0.88783859  0.12686339  1
  O2-  O406  1  0.34067585  0.93638056  0.48248033  1
  O2-  O407  1  0.26549629  0.85196739  0.82002435  1
  O2-  O408  1  0.63218191  0.19602675  0.14349120  1
  O2-  O409  1  0.56617613  0.16777794  0.47900066  1
  O2-  O410  1  0.57291588  0.18058322  0.81036342  1
  O2-  O411  1  0.58531476  0.42350447  0.13650183  1
  O2-  O412  1  0.58942439  0.42001077  0.46201807  1
  O2-  O413  1  0.58173031  0.42363912  0.80899201  1
  O2-  O414  1  0.58339186  0.66813061  0.13693242  1
  O2-  O415  1  0.57533912  0.65922470  0.47789335  1
  O2-  O416  1  0.57560342  0.65057679  0.81244805  1
  O2-  O417  1  0.58371141  0.92452915  0.13996565  1
  O2-  O418  1  0.59447230  0.91656846  0.47072545  1
  O2-  O419  1  0.53635373  0.89333447  0.80791403  1
  O2-  O420  1  0.83725219  0.16420798  0.14152466  1
  O2-  O421  1  0.87103954  0.17865676  0.47118862  1
  O2-  O422  1  0.85880976  0.15787496  0.82286632  1
  O2-  O423  1  0.82648874  0.40413008  0.13591490  1
  O2-  O424  1  0.76846272  0.32514288  0.44361499  1
  O2-  O425  1  0.82395576  0.42948493  0.80267864  1
  O2-  O426  1  0.83388065  0.66846364  0.13882418  1
  O2-  O427  1  0.82303918  0.66101615  0.47512738  1
  O2-  O428  1  0.82805706  0.66997106  0.82576626  1
  O2-  O429  1  0.81716571  0.91081455  0.14997256  1
  O2-  O430  1  0.83533774  0.90114504  0.47231159  1
  O2-  O431  1  0.80522209  0.89517639  0.81780195  1
  O2-  O432  1  0.16259634  0.07932619  0.18101322  1
  O2-  O433  1  0.17440497  0.08977421  0.52114825  1
  O2-  O434  1  0.17920230  0.06020203  0.87124886  1
  O2-  O435  1  0.17864249  0.34048600  0.18853563  1
  O2-  O436  1  0.17370071  0.32672946  0.50171294  1
  O2-  O437  1  0.17859295  0.34638626  0.85390745  1
  O2-  O438  1  0.17195999  0.58724281  0.19209459  1
  O2-  O439  1  0.17584101  0.57660404  0.51839694  1
  O2-  O440  1  0.15623814  0.58594606  0.86187380  1
  O2-  O441  1  0.15955385  0.81722659  0.18620730  1
  O2-  O442  1  0.17999506  0.83912601  0.52355875  1
  O2-  O443  1  0.13687055  0.83652347  0.88187777  1
  O2-  O444  1  0.31127794  0.01379141  0.18890794  1
  O2-  O445  1  0.40873383  0.09600524  0.52368376  1
  O2-  O446  1  0.41729288  0.10588607  0.84900716  1
  O2-  O447  1  0.42886742  0.36040572  0.18943955  1
  O2-  O448  1  0.40498480  0.35018468  0.51313735  1
  O2-  O449  1  0.41811421  0.34310147  0.85493861  1
  O2-  O450  1  0.42484540  0.59186450  0.17204691  1
  O2-  O451  1  0.38481671  0.53288524  0.52438747  1
  O2-  O452  1  0.35624973  0.56920969  0.86134377  1
  O2-  O453  1  0.41307326  0.83497989  0.17467870  1
  O2-  O454  1  0.42802386  0.84955042  0.50480532  1
  O2-  O455  1  0.39201965  0.83544182  0.87777050  1
  O2-  O456  1  0.68119632  0.08872701  0.19330112  1
  O2-  O457  1  0.60454594  0.05516541  0.53723901  1
  O2-  O458  1  0.67851629  0.04724359  0.85112505  1
  O2-  O459  1  0.63225100  0.33774736  0.21055898  1
  O2-  O460  1  0.65323736  0.33304264  0.51804449  1
  O2-  O461  1  0.66119983  0.34368646  0.85642150  1
  O2-  O462  1  0.67780277  0.59924519  0.18140131  1
  O2-  O463  1  0.65841663  0.57571440  0.51566700  1
  O2-  O464  1  0.66647422  0.58078005  0.85789156  1
  O2-  O465  1  0.65047674  0.83033217  0.18332969  1
  O2-  O466  1  0.66570826  0.81738657  0.51050374  1
  O2-  O467  1  0.62632579  0.82122944  0.83488679  1
  O2-  O468  1  0.89830922  0.06272718  0.18762916  1
  O2-  O469  1  0.91468268  0.05606576  0.52117698  1
  O2-  O470  1  0.94387045  0.08033172  0.84432745  1
  O2-  O471  1  0.92068921  0.32940024  0.18409227  1
  O2-  O472  1  0.81861223  0.25836603  0.53771556  1
  O2-  O473  1  0.94245500  0.33260548  0.86407277  1
  O2-  O474  1  0.90291440  0.57299986  0.17329764  1
  O2-  O475  1  0.95363335  0.69769266  0.54925069  1
  O2-  O476  1  0.91646036  0.59738876  0.85448541  1
  O2-  O477  1  0.93285520  0.83850440  0.16262946  1
  O2-  O478  1  0.94135974  0.83792986  0.52504073  1
  O2-  O479  1  0.89459713  0.81984312  0.85830633  1
  O2-  O480  1  0.16541206  0.07422094  0.30251714  1
  O2-  O481  1  0.17122985  0.08725102  0.64555523  1
  O2-  O482  1  0.15584531  0.09757086  0.98397839  1
  O2-  O483  1  0.18023544  0.32166110  0.31230602  1
  O2-  O484  1  0.16238759  0.34269551  0.66109260  1
  O2-  O485  1  0.16364196  0.33747757  0.97788622  1
  O2-  O486  1  0.20351680  0.60730389  0.31833213  1
  O2-  O487  1  0.17036180  0.57578272  0.64190732  1
  O2-  O488  1  0.16666058  0.59038832  0.98287027  1
  O2-  O489  1  0.16103942  0.82742615  0.30892784  1
  O2-  O490  1  0.15453111  0.82034508  0.64760618  1
  O2-  O491  1  0.11125883  0.83939501  1.00287759  1
  O2-  O492  1  0.50781057  0.21421269  0.27555068  1
  O2-  O493  1  0.40744459  0.09010055  0.64915933  1
  O2-  O494  1  0.45221991  0.07029161  0.96477992  1
  O2-  O495  1  0.43265279  0.34254193  0.31170023  1
  O2-  O496  1  0.41471461  0.34042650  0.63993500  1
  O2-  O497  1  0.41406101  0.32940319  0.97677825  1
  O2-  O498  1  0.40490242  0.57771706  0.32683905  1
  O2-  O499  1  0.42882264  0.58577834  0.64921995  1
  O2-  O500  1  0.41350185  0.57653938  0.98246306  1
  O2-  O501  1  0.42890147  0.85258428  0.29061475  1
  O2-  O502  1  0.42382707  0.81327375  0.61650488  1
  O2-  O503  1  0.42448111  0.82545869  0.98837994  1
  O2-  O504  1  0.67349825  0.09616658  0.31481808  1
  O2-  O505  1  0.65854621  0.08413284  0.65310414  1
  O2-  O506  1  0.66911443  0.08297017  0.97756106  1
  O2-  O507  1  0.65306196  0.43718296  0.31984162  1
  O2-  O508  1  0.65881881  0.33208180  0.64217158  1
  O2-  O509  1  0.67130432  0.34298619  0.98332267  1
  O2-  O510  1  0.66219495  0.58623555  0.35834882  1
  O2-  O511  1  0.66403798  0.58406960  0.63987280  1
  O2-  O512  1  0.65785001  0.56720483  0.97984771  1
  O2-  O513  1  0.66061991  0.83028105  0.30641581  1
  O2-  O514  1  0.66878962  0.83702903  0.66675880  1
  O2-  O515  1  0.67611656  0.83872500  0.98529804  1
  O2-  O516  1  0.91652103  0.08261953  0.30778123  1
  O2-  O517  1  0.91961195  0.08157528  0.70654611  1
  O2-  O518  1  0.91587229  0.07005909  0.97219502  1
  O2-  O519  1  0.91290688  0.31626819  0.31292553  1
  O2-  O520  1  0.90457142  0.32765095  0.64937476  1
  O2-  O521  1  0.92225556  0.33168731  0.98283453  1
  O2-  O522  1  0.89982456  0.57106898  0.29099159  1
  O2-  O523  1  0.91763843  0.56557588  0.64527633  1
  O2-  O524  1  0.91099965  0.57660481  0.97181234  1
  O2-  O525  1  0.93906582  0.87926372  0.30227213  1
  O2-  O526  1  0.90701264  0.83387162  0.64650057  1
  O2-  O527  1  0.85909784  0.77119544  1.00102341  1
  O2-  O528  1  0.07575842  0.17277069  0.01465049  1
  O2-  O529  1  0.08636969  0.15545183  0.35173274  1
  O2-  O530  1  0.09506306  0.16915145  0.69391122  1
  O2-  O531  1  0.08557903  0.42353745  0.02721525  1
  O2-  O532  1  0.07851718  0.38890713  0.34541478  1
  O2-  O533  1  0.07237978  0.41448336  0.69098523  1
  O2-  O534  1  0.08433893  0.67433903  0.02846518  1
  O2-  O535  1  0.10424800  0.66513366  0.35307777  1
  O2-  O536  1  0.08253149  0.65531294  0.68464146  1
  O2-  O537  1  0.14921246  0.91869938  0.03119168  1
  O2-  O538  1  0.09333227  0.91887894  0.35777307  1
  O2-  O539  1  0.05926752  0.94893903  0.70538654  1
  O2-  O540  1  0.30832258  0.15997155  0.00695864  1
  O2-  O541  1  0.30030047  0.20509064  0.36176465  1
  O2-  O542  1  0.33344901  0.17905507  0.68583788  1
  O2-  O543  1  0.32928798  0.41170664  0.02002842  1
  O2-  O544  1  0.33876625  0.40427157  0.36476065  1
  O2-  O545  1  0.33939348  0.42487865  0.67990848  1
  O2-  O546  1  0.33135601  0.66478119  0.01807672  1
  O2-  O547  1  0.34688360  0.67220947  0.36731675  1
  O2-  O548  1  0.34192372  0.65504908  0.66950704  1
  O2-  O549  1  0.32898019  0.92509424  0.00673032  1
  O2-  O550  1  0.31095279  0.85350340  0.36734895  1
  O2-  O551  1  0.31173816  0.92686561  0.71141480  1
  O2-  O552  1  0.60341385  0.17931499  0.02092687  1
  O2-  O553  1  0.61104077  0.19480585  0.36236526  1
  O2-  O554  1  0.57685141  0.17005934  0.68547911  1
  O2-  O555  1  0.59616913  0.41886783  0.02281238  1
  O2-  O556  1  0.57979199  0.37371808  0.35663632  1
  O2-  O557  1  0.57975195  0.41791837  0.68304312  1
  O2-  O558  1  0.57500744  0.66329396  0.01771732  1
  O2-  O559  1  0.57322849  0.66892775  0.35411763  1
  O2-  O560  1  0.58286619  0.66213124  0.69584465  1
  O2-  O561  1  0.58798107  0.92433433  0.01565757  1
  O2-  O562  1  0.59024795  0.92332869  0.34791886  1
  O2-  O563  1  0.56764707  0.91203293  0.68476074  1
  O2-  O564  1  0.83777285  0.15836841  0.01592261  1
  O2-  O565  1  0.82186793  0.16876234  0.36122582  1
  O2-  O566  1  0.82509167  0.16350332  0.69833150  1
  O2-  O567  1  0.82990839  0.40837590  0.01546011  1
  O2-  O568  1  0.83590974  0.41006220  0.33092890  1
  O2-  O569  1  0.82173236  0.41090617  0.68525580  1
  O2-  O570  1  0.78783174  0.70036856  0.03306927  1
  O2-  O571  1  0.82831229  0.65707655  0.35938710  1
  O2-  O572  1  0.83734490  0.66454924  0.65975153  1
  O2-  O573  1  0.83362123  0.90709431  0.02404736  1
  O2-  O574  1  0.82310186  0.91481763  0.34901947  1
  O2-  O575  1  0.82531705  0.91076653  0.70036608  1
