# generated using pymatgen
data_H2O
_symmetry_space_group_name_H-M   'P 1'
_cell_length_a   17.97787923
_cell_length_b   17.97898087
_cell_length_c   21.99520926
_cell_angle_alpha   90.01117629
_cell_angle_beta   90.01488756
_cell_angle_gamma   119.96400219
_symmetry_Int_Tables_number   1
_chemical_formula_structural   H2O
_chemical_formula_sum   'H384 O192'
_cell_volume   6159.13374074
_cell_formula_units_Z   192
loop_
 _symmetry_equiv_pos_site_id
 _symmetry_equiv_pos_as_xyz
  1  'x, y, z'
loop_
 _atom_type_symbol
 _atom_type_oxidation_number
  H+  1.0
  O2-  -2.0
loop_
 _atom_site_type_symbol
 _atom_site_label
 _atom_site_symmetry_multiplicity
 _atom_site_fract_x
 _atom_site_fract_y
 _atom_site_fract_z
 _atom_site_occupancy
  H+  H0  1  0.59665861  0.21707354  0.16515160  1
  H+  H1  1  0.36100012  0.13488238  0.15709852  1
  H+  H2  1  0.24428926  0.63996668  0.69626878  1
  H+  H3  1  0.86488465  0.14679467  -0.00425049  1
  H+  H4  1  0.91468092  0.83212400  0.60377047  1
  H+  H5  1  0.85623299  0.82587410  1.00699756  1
  H+  H6  1  0.16877653  0.32062703  0.60626625  1
  H+  H7  1  0.69647991  0.42308614  0.01366814  1
  H+  H8  1  0.86527909  0.88607493  0.67784291  1
  H+  H9  1  0.10433388  0.71874267  0.82714297  1
  H+  H10  1  0.46269200  0.36439825  0.16481696  1
  H+  H11  1  0.21375273  0.08261604  0.50082218  1
  H+  H12  1  0.38819194  0.00339442  0.85102343  1
  H+  H13  1  0.79855762  0.68296900  -0.00672262  1
  H+  H14  1  0.61397707  0.89919014  0.14432589  1
  H+  H15  1  0.60466080  0.47613894  0.35706905  1
  H+  H16  1  0.30779110  0.40039778  -0.01923322  1
  H+  H17  1  0.65405236  0.83706385  1.03811842  1
  H+  H18  1  0.09606739  0.22206828  1.01965159  1
  H+  H19  1  0.23559331  0.89622229  0.18385175  1
  H+  H20  1  0.63788835  0.61291184  0.13566832  1
  H+  H21  1  0.89413783  1.02163186  0.67706379  1
  H+  H22  1  0.62644181  0.36262270  0.82375016  1
  H+  H23  1  0.22828183  0.61496209  0.31504148  1
  H+  H24  1  0.77793507  0.88834700  0.67448747  1
  H+  H25  1  0.64245768  0.90028969  0.67293354  1
  H+  H26  1  0.54692374  0.84053583  0.30293162  1
  H+  H27  1  0.85280446  0.47195643  0.82577809  1
  H+  H28  1  0.96137818  0.67912996  0.61598388  1
  H+  H29  1  0.37506060  0.27550526  0.16519825  1
  H+  H30  1  0.14884021  0.53471967  0.84318451  1
  H+  H31  1  0.66052702  0.96128678  0.32874910  1
  H+  H32  1  0.88255650  0.86840132  0.32336496  1
  H+  H33  1  0.87966296  0.59613610  0.99357659  1
  H+  H34  1  0.37512241  0.40482151  0.49545891  1
  H+  H35  1  0.17397775  0.34121440  0.26538297  1
  H+  H36  1  0.85835286  0.73000934  0.33617388  1
  H+  H37  1  0.08846159  0.85280581  0.01553401  1
  H+  H38  1  0.12163642  0.23154577  0.33499140  1
  H+  H39  1  0.61357733  0.72598431  0.83041245  1
  H+  H40  1  0.13283323  0.60593375  0.99807284  1
  H+  H41  1  0.79356164  0.45531756  -0.00756365  1
  H+  H42  1  0.14485738  0.36902986  0.32573297  1
  H+  H43  1  0.53582696  0.64393878  -0.00412499  1
  H+  H44  1  0.36772133  0.64723239  0.83074981  1
  H+  H45  1  0.38429674  0.24623056  0.00452591  1
  H+  H46  1  0.29102583  0.15846328  1.00261883  1
  H+  H47  1  0.87356600  0.84769585  0.84897500  1
  H+  H48  1  0.15640792  0.79887733  0.51181531  1
  H+  H49  1  0.60990134  0.38888812  0.34703501  1
  H+  H50  1  0.85790886  0.63551338  0.67536185  1
  H+  H51  1  0.20532288  0.36901680  1.04406949  1
  H+  H52  1  0.40891009  0.50739734  0.64655862  1
  H+  H53  1  0.08723676  0.17538311  0.89187266  1
  H+  H54  1  0.35559454  0.86523588  0.15022988  1
  H+  H55  1  0.38463403  0.76248111  0.16239378  1
  H+  H56  1  0.91432190  0.32606567  0.22292609  1
  H+  H57  1  0.39562289  0.62106093  0.98914363  1
  H+  H58  1  0.59763814  0.38173796  0.16218707  1
  H+  H59  1  0.87346021  0.23293822  0.48846379  1
  H+  H60  1  -0.02050677  0.36275370  0.66370723  1
  H+  H61  1  0.65813558  0.62788338  0.99435115  1
  H+  H62  1  0.74190032  0.37572952  0.33931211  1
  H+  H63  1  0.02146461  0.88790998  0.33667857  1
  H+  H64  1  1.03064289  0.63698545  0.67126523  1
  H+  H65  1  0.47244155  0.86494130  -0.03139201  1
  H+  H66  1  0.87993547  0.39660679  0.14787342  1
  H+  H67  1  0.62536429  0.26273306  0.82642478  1
  H+  H68  1  0.47382158  0.61702026  0.49236495  1
  H+  H69  1  0.27633000  0.64466209  0.84337837  1
  H+  H70  1  0.97534011  0.62164995  0.30934418  1
  H+  H71  1  0.13442854  1.02005305  0.17056447  1
  H+  H72  1  0.62114789  0.89325471  0.83882049  1
  H+  H73  1  0.13634120  0.35194739  0.66455004  1
  H+  H74  1  0.22143526  0.85323467  0.84795344  1
  H+  H75  1  0.71794815  0.60931626  0.35391164  1
  H+  H76  1  0.64297658  0.53159090  0.50620053  1
  H+  H77  1  0.23034276  0.35803858  0.51480593  1
  H+  H78  1  0.89046475  0.27852526  0.31661692  1
  H+  H79  1  0.89251086  0.27265391  0.66660429  1
  H+  H80  1  0.61269724  0.90240779  -0.00732093  1
  H+  H81  1  0.14776557  0.26507773  0.51242286  1
  H+  H82  1  0.60934162  0.98319356  0.15383637  1
  H+  H83  1  0.77096660  0.91652569  0.34636658  1
  H+  H84  1  0.61507336  0.20618277  0.33481730  1
  H+  H85  1  0.63370964  0.61100435  0.83632220  1
  H+  H86  1  0.66109337  0.33215524  0.23432098  1
  H+  H87  1  0.07350666  0.90380529  0.42972134  1
  H+  H88  1  0.88264177  0.77519628  0.50790152  1
  H+  H89  1  -0.00436371  0.84234030  0.01957832  1
  H+  H90  1  0.72451423  0.12582365  0.99129425  1
  H+  H91  1  0.87474100  0.49726858  0.31647844  1
  H+  H92  1  0.51033806  0.87743906  0.50318425  1
  H+  H93  1  0.96092994  0.84636701  0.85357399  1
  H+  H94  1  0.61723516  0.47795974  0.82457643  1
  H+  H95  1  0.38805392  0.27095088  0.65796705  1
  H+  H96  1  0.86870786  0.38388225  0.67203818  1
  H+  H97  1  0.36589546  0.46933255  0.33508278  1
  H+  H98  1  0.94964029  0.35222815  0.82582677  1
  H+  H99  1  0.32674184  0.74012726  0.69329734  1
  H+  H100  1  0.01787303  0.61272929  0.01752783  1
  H+  H101  1  0.28340158  0.15525065  0.82867974  1
  H+  H102  1  0.06198116  0.40484649  0.86184304  1
  H+  H103  1  0.85791987  0.96690087  0.83295732  1
  H+  H104  1  0.90140693  0.12252708  0.49087699  1
  H+  H105  1  0.46827912  0.10660099  0.17002825  1
  H+  H106  1  0.39065294  1.01779875  0.32244763  1
  H+  H107  1  0.97551819  0.37157520  0.99317946  1
  H+  H108  1  0.64136582  0.77504000  0.65664031  1
  H+  H109  1  0.74904154  0.36285886  0.50845253  1
  H+  H110  1  0.14111511  0.77174443  0.66596944  1
  H+  H111  1  0.89300611  0.86996310  0.50756366  1
  H+  H112  1  0.17874934  0.33487744  0.86531033  1
  H+  H113  1  0.87346993  0.02640348  0.99503829  1
  H+  H114  1  0.27244054  0.88437339  0.68919431  1
  H+  H115  1  0.36002489  0.72281215  -0.00287891  1
  H+  H116  1  0.11646167  0.36242041  0.02927358  1
  H+  H117  1  0.62907898  0.23065010  0.67207108  1
  H+  H118  1  0.88327382  -0.00406223  0.49109165  1
  H+  H119  1  0.39072347  0.77479483  0.87413246  1
  H+  H120  1  0.48465329  0.38174477  0.83594598  1
  H+  H121  1  0.01449700  0.37957145  0.15714689  1
  H+  H122  1  0.78455154  0.89533613  0.14786481  1
  H+  H123  1  0.63115102  0.35892275  0.51319963  1
  H+  H124  1  0.02997056  0.39072521  0.33042440  1
  H+  H125  1  0.89800923  0.03229751  0.16271073  1
  H+  H126  1  0.11708394  0.48042064  0.33138546  1
  H+  H127  1  0.67530792  0.30852422  0.97853283  1
  H+  H128  1  0.28479462  0.39936630  0.81053188  1
  H+  H129  1  0.88355172  0.77197452  0.66361668  1
  H+  H130  1  0.72963670  0.36945626  0.66124966  1
  H+  H131  1  0.35786313  0.38795673  0.15300256  1
  H+  H132  1  0.48038261  0.62617086  0.83448579  1
  H+  H133  1  0.88593062  0.61973360  0.31735638  1
  H+  H134  1  0.27499915  0.38193328  0.33684239  1
  H+  H135  1  0.41238710  0.86103937  0.31870184  1
  H+  H136  1  0.12052367  0.14166025  0.33368519  1
  H+  H137  1  0.56747949  0.92060880  0.68474907  1
  H+  H138  1  0.62908939  0.49162416  0.01107309  1
  H+  H139  1  0.78939550  0.13961514  0.48640132  1
  H+  H140  1  0.63337573  0.61500920  0.50430530  1
  H+  H141  1  0.96911606  0.60192103  0.83857448  1
  H+  H142  1  0.15285122  0.03208526  0.84058119  1
  H+  H143  1  0.72628846  0.61329336  0.66141349  1
  H+  H144  1  0.41047784  0.30614234  0.51571856  1
  H+  H145  1  0.36890426  0.62134430  0.67738650  1
  H+  H146  1  0.01473284  0.87181363  0.49181601  1
  H+  H147  1  0.79189003  0.14423084  0.67390930  1
  H+  H148  1  0.37847594  0.01827581  0.16572885  1
  H+  H149  1  0.13577002  0.51783238  0.50469210  1
  H+  H150  1  0.92321283  0.32860028  0.57054494  1
  H+  H151  1  0.85071374  0.21612585  0.83080847  1
  H+  H152  1  0.38546887  0.35971933  0.66338635  1
  H+  H153  1  0.40940075  0.66014540  0.68802589  1
  H+  H154  1  0.28737680  0.89300788  0.48962857  1
  H+  H155  1  0.85175155  0.91626959  -0.03319006  1
  H+  H156  1  0.11100862  0.12858235  0.67044762  1
  H+  H157  1  0.47775957  0.35937677  0.33818439  1
  H+  H158  1  0.87177558  0.47426367  0.67119858  1
  H+  H159  1  0.22729654  0.37613748  0.17069290  1
  H+  H160  1  0.36169038  0.97201564  0.68274385  1
  H+  H161  1  0.85322630  0.63268169  0.49068744  1
  H+  H162  1  0.59564030  0.71912224  0.49135332  1
  H+  H163  1  0.11658153  0.12789811  0.48804054  1
  H+  H164  1  0.46907149  0.61261797  0.16730421  1
  H+  H165  1  0.94779499  0.57814636  0.48161228  1
  H+  H166  1  0.17721774  0.84045839  0.61096147  1
  H+  H167  1  0.02638769  0.69908156  0.50400819  1
  H+  H168  1  0.16686874  0.58289306  0.25672508  1
  H+  H169  1  0.77876461  0.41840913  0.08319594  1
  H+  H170  1  0.38984183  0.30111897  0.83703062  1
  H+  H171  1  0.15799045  0.88418726  0.51525694  1
  H+  H172  1  0.38595940  0.09262497  0.50342629  1
  H+  H173  1  0.37870514  0.52116639  0.49191574  1
  H+  H174  1  0.37211421  0.07604059  0.83245882  1
  H+  H175  1  0.60510059  -0.03732581  0.50278566  1
  H+  H176  1  0.87542478  0.13314673  0.14877196  1
  H+  H177  1  0.14811479  0.61216570  0.51445518  1
  H+  H178  1  0.39001947  0.53884458  0.83267593  1
  H+  H179  1  0.27307887  0.38003669  0.67157641  1
  H+  H180  1  0.33402964  0.18471197  0.48044398  1
  H+  H181  1  0.02101350  0.88161942  0.67437190  1
  H+  H182  1  0.38407142  0.18742716  0.83289814  1
  H+  H183  1  0.88547950  0.77191617  0.17103226  1
  H+  H184  1  0.76295802  0.12749960  0.82897364  1
  H+  H185  1  0.72111613  0.36093785  0.82409841  1
  H+  H186  1  0.37783372  0.85288785  0.50164990  1
  H+  H187  1  0.13182770  0.60271255  0.66069482  1
  H+  H188  1  0.16164188  0.07294972  0.59949497  1
  H+  H189  1  0.17807908  0.85781517  0.27475845  1
  H+  H190  1  0.63946471  0.52617461  0.13882730  1
  H+  H191  1  0.38324205  0.26144783  0.33283718  1
  H+  H192  1  0.11032673  0.63384195  0.82960454  1
  H+  H193  1  0.10081345  0.47829008  0.00698291  1
  H+  H194  1  0.72412385  0.85576853  0.85198822  1
  H+  H195  1  0.77755980  0.64171984  0.13583470  1
  H+  H196  1  0.37987085  0.60237708  0.32132008  1
  H+  H197  1  0.60763233  0.72307481  0.15478442  1
  H+  H198  1  0.83813237  0.67440179  0.39671558  1
  H+  H199  1  0.47127880  0.85550705  0.16022182  1
  H+  H200  1  0.38137082  0.52210733  0.16750127  1
  H+  H201  1  0.71566259  0.79733583  0.21902186  1
  H+  H202  1  0.13831025  0.27016935  0.81376818  1
  H+  H203  1  0.53617238  0.63771132  0.66806762  1
  H+  H204  1  0.61251468  0.48012693  0.67137304  1
  H+  H205  1  0.88314539  0.26580216  0.16284322  1
  H+  H206  1  0.85539470  0.71378217  0.83134264  1
  H+  H207  1  0.66486572  0.07410704  0.24126924  1
  H+  H208  1  0.02502510  0.39649680  0.49052596  1
  H+  H209  1  0.73590117  0.02773563  0.53859126  1
  H+  H210  1  0.66825329  0.58433232  0.89531754  1
  H+  H211  1  0.41753905  0.38311046  0.99424527  1
  H+  H212  1  0.65594278  0.83428355  0.23297385  1
  H+  H213  1  0.43875247  0.83326634  0.65753889  1
  H+  H214  1  0.27122368  0.13494853  0.66967512  1
  H+  H215  1  0.96679453  0.11212277  0.99714476  1
  H+  H216  1  0.12193712  1.00121235  0.50611598  1
  H+  H217  1  0.37981798  -0.02553889  0.48993141  1
  H+  H218  1  0.51162872  0.63385620  0.33519274  1
  H+  H219  1  0.36581046  0.13088748  0.32965639  1
  H+  H220  1  0.87794509  0.10393502  0.84023800  1
  H+  H221  1  0.11496249  0.47079404  0.67496559  1
  H+  H222  1  0.63932306  0.36842340  0.66427428  1
  H+  H223  1  0.71072171  0.36092613  0.17130512  1
  H+  H224  1  0.13560923  0.85822246  0.84793986  1
  H+  H225  1  0.37687898  0.09736003  0.65974239  1
  H+  H226  1  0.38109232  0.35758368  0.33439078  1
  H+  H227  1  0.10406449  0.70382934  0.01804862  1
  H+  H228  1  0.37530289  0.61856826  0.49184072  1
  H+  H229  1  0.88266423  0.35488131  0.51694605  1
  H+  H230  1  0.52345928  0.13444536  0.82569078  1
  H+  H231  1  0.40719378  1.06218019  0.60422865  1
  H+  H232  1  0.62358780  0.73418718  -0.00083388  1
  H+  H233  1  0.14642311  0.11609755  0.84690753  1
  H+  H234  1  0.13872552  0.02440124  0.32648868  1
  H+  H235  1  0.48013939  0.10350290  0.50662672  1
  H+  H236  1  0.57908652  0.41250537  0.09924300  1
  H+  H237  1  0.02835974  0.96261227  0.80424400  1
  H+  H238  1  0.26474880  0.83520645  0.12244762  1
  H+  H239  1  0.98483511  0.12230152  0.31980402  1
  H+  H240  1  0.14337049  0.14589230  0.15812983  1
  H+  H241  1  0.88041165  0.60303589  0.83948366  1
  H+  H242  1  0.11205442  0.22019325  0.67389168  1
  H+  H243  1  0.63558927  1.02466520  0.84256874  1
  H+  H244  1  0.86624772  0.35824941  0.83729645  1
  H+  H245  1  0.10700526  0.38387728  0.15545203  1
  H+  H246  1  0.89391324  0.03603536  0.32135916  1
  H+  H247  1  0.14732124  0.28353019  0.17273160  1
  H+  H248  1  0.61595655  0.15535912  0.99779132  1
  H+  H249  1  0.73481982  0.10870886  0.32599963  1
  H+  H250  1  0.36936136  0.72282206  0.32944806  1
  H+  H251  1  0.02101158  0.88769508  0.16308273  1
  H+  H252  1  0.62991224  0.61085640  0.35384192  1
  H+  H253  1  0.52411736  0.38858988  0.67321734  1
  H+  H254  1  0.67034115  0.32381539  0.38770321  1
  H+  H255  1  0.52315402  0.12215912  0.33249644  1
  H+  H256  1  0.26990959  0.62686463  0.49125537  1
  H+  H257  1  0.28662593  0.88654883  0.33628062  1
  H+  H258  1  0.14364570  0.89037335  0.18098921  1
  H+  H259  1  0.63350908  0.03688638  0.98950339  1
  H+  H260  1  0.62611392  0.64808532  0.67550266  1
  H+  H261  1  0.66990454  0.04402385  0.66333461  1
  H+  H262  1  0.11653018  0.64011147  0.32405932  1
  H+  H263  1  0.36602088  0.86052397  0.66789300  1
  H+  H264  1  0.21458275  0.84437885  0.99752545  1
  H+  H265  1  0.76686026  0.62606185  0.82571327  1
  H+  H266  1  0.11242653  0.88879891  0.34068352  1
  H+  H267  1  0.26861776  0.63063158  0.14883787  1
  H+  H268  1  0.05381140  0.77006040  0.45583238  1
  H+  H269  1  0.71472149  0.13646729  0.18709842  1
  H+  H270  1  0.59489465  0.12827980  0.16925883  1
  H+  H271  1  0.37762016  0.41028638  0.82319617  1
  H+  H272  1  0.35715665  0.62886276  0.15412025  1
  H+  H273  1  0.22847471  0.10550515  0.17144611  1
  H+  H274  1  0.87269974  0.14753979  0.33020299  1
  H+  H275  1  0.35682592  0.71988192  0.49103570  1
  H+  H276  1  0.58717197  0.67336984  0.76697523  1
  H+  H277  1  0.08329884  0.65941294  0.73434081  1
  H+  H278  1  0.50219644  0.14952920  -0.01310593  1
  H+  H279  1  0.38149568  0.49504323  0.99672723  1
  H+  H280  1  0.60482143  0.21527954  0.49341361  1
  H+  H281  1  0.13444524  1.01860279  0.66108080  1
  H+  H282  1  0.15093326  0.12938703  -0.00543772  1
  H+  H283  1  0.61593736  0.85544732  0.50002337  1
  H+  H284  1  0.11114348  0.88219061  0.67943341  1
  H+  H285  1  0.88326010  0.26926983  0.98941846  1
  H+  H286  1  0.35279950  0.88186217  -0.01312331  1
  H+  H287  1  0.89473970  0.37010223  0.30862261  1
  H+  H288  1  0.33073976  0.66431571  0.38900884  1
  H+  H289  1  0.98898887  0.11997381  0.49604231  1
  H+  H290  1  0.92313182  0.09190134  0.22180626  1
  H+  H291  1  0.14474591  0.78419393  0.32509833  1
  H+  H292  1  0.33679822  0.90193435  0.78414194  1
  H+  H293  1  0.84250161  0.17972693  0.05626896  1
  H+  H294  1  0.06222843  0.41950392  0.06818420  1
  H+  H295  1  0.86272905  0.49682050  0.50279719  1
  H+  H296  1  0.57268458  0.92609070  0.04814449  1
  H+  H297  1  0.16734757  0.58694994  0.90584920  1
  H+  H298  1  0.66258070  0.82734349  0.91007478  1
  H+  H299  1  0.27477091  0.13119970  0.32992688  1
  H+  H300  1  0.33509766  0.66634805  0.05871029  1
  H+  H301  1  0.36011248  0.87393358  0.84904147  1
  H+  H302  1  0.42779998  0.35405030  0.57807222  1
  H+  H303  1  0.07396942  0.90792887  0.10085236  1
  H+  H304  1  0.33705916  0.16873114  0.09723450  1
  H+  H305  1  0.63771364  0.08918353  0.33112512  1
  H+  H306  1  0.18594423  0.09964864  0.93840162  1
  H+  H307  1  0.33755410  0.41796755  0.43155304  1
  H+  H308  1  0.18515210  0.30569231  0.93653380  1
  H+  H309  1  0.67150392  0.83327609  0.59625536  1
  H+  H310  1  0.41163896  0.57465039  0.26219848  1
  H+  H311  1  0.10772615  0.61603733  0.11647866  1
  H+  H312  1  0.68614396  0.83925332  0.46897527  1
  H+  H313  1  0.42387225  0.82413393  0.25623967  1
  H+  H314  1  0.82769342  0.90581635  0.77472642  1
  H+  H315  1  0.79696905  0.90744173  0.50374478  1
  H+  H316  1  0.43793070  0.35278317  0.93217337  1
  H+  H317  1  0.64868485  0.58109552  0.24479755  1
  H+  H318  1  0.90744325  0.56661620  0.93493371  1
  H+  H319  1  0.41375704  0.07562248  0.26223911  1
  H+  H320  1  0.09603989  0.16839840  0.42924872  1
  H+  H321  1  0.65629567  0.32489909  0.57350407  1
  H+  H322  1  0.00257052  0.11956163  0.67626101  1
  H+  H323  1  0.66433048  0.09189886  0.89896600  1
  H+  H324  1  0.58486824  0.41686665  0.44147500  1
  H+  H325  1  0.33539837  0.42600706  0.09407838  1
  H+  H326  1  0.78038928  0.11181460  0.13228521  1
  H+  H327  1  0.88898827  0.86304848  0.16731693  1
  H+  H328  1  0.88011024  0.44785728  0.37393495  1
  H+  H329  1  0.89776531  0.11606296  0.67643908  1
  H+  H330  1  0.69466502  0.59147966  0.24398342  1
  H+  H331  1  0.32084796  0.13475409  0.42014565  1
  H+  H332  1  0.01548795  0.12676194  0.84426559  1
  H+  H333  1  0.08235108  0.66702770  0.38196486  1
  H+  H334  1  0.80655236  0.37155201  0.45076646  1
  H+  H335  1  0.19647535  0.22350965  0.11504795  1
  H+  H336  1  0.34185954  0.42384316  0.72608237  1
  H+  H337  1  0.85949167  0.63835639  0.15820375  1
  H+  H338  1  0.84013320  0.16610741  0.73848509  1
  H+  H339  1  0.69804542  0.07894703  0.57068551  1
  H+  H340  1  0.91357741  0.33682356  0.92804988  1
  H+  H341  1  0.58982118  0.72962814  0.33794335  1
  H+  H342  1  0.13847555  0.29457461  0.93368558  1
  H+  H343  1  0.84312490  0.17789020  0.38973499  1
  H+  H344  1  0.83703371  0.93086405  0.39881922  1
  H+  H345  1  0.92127756  0.58946483  0.58588570  1
  H+  H346  1  0.33420211  0.91349702  0.04862737  1
  H+  H347  1  0.88682631  0.80186830  0.94604736  1
  H+  H348  1  0.12074310  0.38888174  0.81818986  1
  H+  H349  1  0.42491625  0.59486930  0.92779589  1
  H+  H350  1  0.55041131  0.39799642  1.00216681  1
  H+  H351  1  0.14794140  0.80635238  0.94406563  1
  H+  H352  1  0.07909187  0.15255779  0.06558142  1
  H+  H353  1  0.53613435  0.40346493  0.50466506  1
  H+  H354  1  0.66384433  0.13062473  0.65853088  1
  H+  H355  1  0.57748873  0.67239890  0.09128709  1
  H+  H356  1  0.40032575  0.14329048  -0.00892210  1
  H+  H357  1  0.35000680  0.91489114  0.39227152  1
  H+  H358  1  0.17498202  0.57766798  0.60589720  1
  H+  H359  1  0.84115768  0.92116043  0.08782731  1
  H+  H360  1  0.08227984  0.42877847  0.42932452  1
  H+  H361  1  0.61458597  0.13866730  0.82929350  1
  H+  H362  1  0.38860136  0.81439746  0.56480046  1
  H+  H363  1  0.61400964  0.93167699  0.77616745  1
  H+  H364  1  0.42455510  0.09784167  0.93134057  1
  H+  H365  1  0.90536137  0.07666720  0.90160468  1
  H+  H366  1  0.77046028  0.64291615  0.49219760  1
  H+  H367  1  0.57883534  0.15484649  0.43452125  1
  H+  H368  1  0.12597647  0.51229135  0.16312096  1
  H+  H369  1  0.66764779  0.58835636  0.60135925  1
  H+  H370  1  0.22383825  0.60700068  0.99397457  1
  H+  H371  1  0.82981974  0.66282862  0.73692538  1
  H+  H372  1  0.74931877  0.88338320  0.99836981  1
  H+  H373  1  0.56974277  0.66350089  0.43001508  1
  H+  H374  1  0.59898039  0.16637507  0.72779103  1
  H+  H375  1  0.16932257  0.07980723  0.26489413  1
  H+  H376  1  0.58437014  0.42136262  0.76255127  1
  H+  H377  1  0.82878998  0.41481543  0.76412772  1
  H+  H378  1  0.31040955  0.68420097  0.76361942  1
  H+  H379  1  0.07125274  0.92192981  0.76570205  1
  H+  H380  1  0.91162256  0.83611422  0.26480878  1
  H+  H381  1  0.43085411  0.57482068  0.59374965  1
  H+  H382  1  0.33366774  0.17064868  0.72727251  1
  H+  H383  1  0.07917134  0.41455651  0.73447810  1
  O2-  O384  1  0.14007049  0.19252729  0.13437593  1
  O2-  O385  1  0.09479288  0.16625963  0.47469359  1
  O2-  O386  1  0.08014036  0.16113392  0.84850125  1
  O2-  O387  1  0.07522696  0.41331127  0.14127174  1
  O2-  O388  1  0.08356124  0.43475862  0.47435909  1
  O2-  O389  1  0.08771955  0.42051194  0.82135244  1
  O2-  O390  1  0.10884376  0.61314010  0.16131843  1
  O2-  O391  1  0.06103210  0.72090599  0.46725659  1
  O2-  O392  1  0.07677314  0.65873123  0.81110220  1
  O2-  O393  1  0.08041825  0.92050418  0.14621450  1
  O2-  O394  1  0.07373977  0.89195903  0.47479150  1
  O2-  O395  1  0.06197288  0.93392471  0.80935935  1
  O2-  O396  1  0.32979333  0.16440950  0.14217708  1
  O2-  O397  1  0.31477810  0.12692607  0.46577944  1
  O2-  O398  1  0.34164219  0.19467985  0.81002456  1
  O2-  O399  1  0.32917817  0.42231119  0.13870425  1
  O2-  O400  1  0.34071348  0.42844690  0.47652823  1
  O2-  O401  1  0.34696545  0.43790149  0.80337693  1
  O2-  O402  1  0.33011187  0.66097735  0.13565210  1
  O2-  O403  1  0.32986968  0.65935587  0.47374418  1
  O2-  O404  1  0.33511791  0.67939958  0.82421599  1
  O2-  O405  1  0.31879305  0.88734644  0.13184307  1
  O2-  O406  1  0.34568745  0.91416480  0.47247058  1
  O2-  O407  1  0.33051511  0.90233175  0.82920797  1
  O2-  O408  1  0.56498719  0.15633927  0.15145461  1
  O2-  O409  1  0.57573001  0.15508756  0.47936563  1
  O2-  O410  1  0.58410633  0.16920302  0.81268835  1
  O2-  O411  1  0.56998963  0.41235394  0.14412862  1
  O2-  O412  1  0.59404754  0.42380518  0.48641945  1
  O2-  O413  1  0.58490478  0.41721974  0.80855224  1
  O2-  O414  1  0.57040696  0.66620908  0.13639669  1
  O2-  O415  1  0.56599764  0.65830238  0.47579932  1
  O2-  O416  1  0.58317898  0.66695453  0.81234039  1
  O2-  O417  1  0.58051990  0.92628867  0.13310270  1
  O2-  O418  1  0.56971970  0.90362530  0.48692822  1
  O2-  O419  1  0.59943806  0.92864767  0.81962367  1
  O2-  O420  1  0.83948345  0.15912279  0.13007176  1
  O2-  O421  1  0.84598468  0.17656777  0.46663183  1
  O2-  O422  1  0.82535607  0.15653714  0.81562626  1
  O2-  O423  1  0.88240966  0.44941676  0.13127881  1
  O2-  O424  1  0.81189888  0.39129007  0.49267785  1
  O2-  O425  1  0.82073845  0.41083596  0.80941320  1
  O2-  O426  1  0.84185207  0.67669810  0.14055585  1
  O2-  O427  1  0.83213759  0.67166971  0.47852331  1
  O2-  O428  1  0.82854988  0.65563400  0.81220261  1
  O2-  O429  1  0.84404758  0.92373973  0.13290631  1
  O2-  O430  1  0.84993420  0.93036661  0.48014740  1
  O2-  O431  1  0.82874505  0.90522860  0.82015452  1
  O2-  O432  1  0.16900702  0.07952020  0.18869807  1
  O2-  O433  1  0.15665526  0.06160123  0.52016676  1
  O2-  O434  1  0.18527777  0.09240847  0.85507517  1
  O2-  O435  1  0.16785241  0.34297562  0.18790320  1
  O2-  O436  1  0.17539694  0.32046786  0.53499637  1
  O2-  O437  1  0.17233534  0.33330351  0.82065813  1
  O2-  O438  1  0.16363827  0.57561015  0.17443704  1
  O2-  O439  1  0.17451322  0.57816093  0.52590864  1
  O2-  O440  1  0.17335613  0.59342443  0.85984849  1
  O2-  O441  1  0.17996633  0.87209439  0.20412883  1
  O2-  O442  1  0.18977288  0.85609520  0.53092643  1
  O2-  O443  1  0.15890798  0.82122919  0.85869184  1
  O2-  O444  1  0.40548904  0.07535669  0.18433978  1
  O2-  O445  1  0.41872152  0.06781220  0.52196281  1
  O2-  O446  1  0.41260597  0.06755047  0.85689649  1
  O2-  O447  1  0.40093956  0.33674461  0.17679145  1
  O2-  O448  1  0.43353836  0.36400460  0.53164241  1
  O2-  O449  1  0.42582696  0.35993566  0.85384341  1
  O2-  O450  1  0.40960324  0.58207188  0.18462830  1
  O2-  O451  1  0.40898248  0.58549697  0.50545922  1
  O2-  O452  1  0.41941600  0.59840027  0.84989800  1
  O2-  O453  1  0.41285921  0.82325541  0.17804900  1
  O2-  O454  1  0.39985952  0.81580420  0.52066851  1
  O2-  O455  1  0.41659878  0.83523083  0.88872179  1
  O2-  O456  1  0.66251157  0.08215152  0.19548376  1
  O2-  O457  1  0.70437524  0.05756530  0.52955550  1
  O2-  O458  1  0.66395623  0.08841665  0.85356655  1
  O2-  O459  1  0.65261646  0.32553850  0.19049410  1
  O2-  O460  1  0.65616481  0.32312034  0.52758625  1
  O2-  O461  1  0.65743560  0.32913534  0.83537012  1
  O2-  O462  1  0.67258358  0.58653345  0.12472122  1
  O2-  O463  1  0.66934019  0.59220126  0.52098149  1
  O2-  O464  1  0.66374432  0.57948159  0.84991003  1
  O2-  O465  1  0.68441144  0.82178309  0.19872549  1
  O2-  O466  1  0.65275659  0.82556695  0.50652456  1
  O2-  O467  1  0.66285487  0.82608086  0.86531154  1
  O2-  O468  1  0.92253714  0.09255566  0.17655097  1
  O2-  O469  1  0.92709365  0.08928347  0.50800480  1
  O2-  O470  1  0.90849618  0.07399680  0.85611603  1
  O2-  O471  1  0.91333018  0.32608396  0.17708260  1
  O2-  O472  1  0.92102601  0.33124195  0.52522233  1
  O2-  O473  1  0.89893468  0.32914340  0.85211544  1
  O2-  O474  1  0.79274758  0.42789104  0.12794596  1
  O2-  O475  1  0.89949920  0.56073676  0.50946231  1
  O2-  O476  1  0.90848965  0.56978859  0.85335751  1
  O2-  O477  1  0.91482764  0.83250612  0.18819631  1
  O2-  O478  1  0.91749537  0.83479572  0.52448453  1
  O2-  O479  1  0.90013573  0.81448629  0.86607794  1
  O2-  O480  1  0.17278427  0.08436589  0.31060710  1
  O2-  O481  1  0.16350978  0.07846680  0.64484886  1
  O2-  O482  1  0.19338019  0.11248158  0.98232204  1
  O2-  O483  1  0.17602452  0.33924808  0.31099443  1
  O2-  O484  1  0.16645133  0.32051527  0.65288045  1
  O2-  O485  1  0.14375958  0.32901111  1.04282746  1
  O2-  O486  1  0.16691741  0.58511901  0.30195688  1
  O2-  O487  1  0.16774201  0.57568422  0.65119917  1
  O2-  O488  1  0.16311777  0.57629312  0.97916080  1
  O2-  O489  1  0.17621968  0.84773648  0.32045341  1
  O2-  O490  1  0.16964750  0.83417657  0.65599380  1
  O2-  O491  1  0.15136218  0.80624908  0.98885626  1
  O2-  O492  1  0.41819579  0.07907016  0.30776940  1
  O2-  O493  1  0.39842638  0.05813915  0.64889899  1
  O2-  O494  1  0.43491463  0.11429786  0.97547348  1
  O2-  O495  1  0.41474234  0.32636016  0.32346266  1
  O2-  O496  1  0.42013031  0.33365613  0.64715735  1
  O2-  O497  1  0.44288656  0.34955806  0.97724551  1
  O2-  O498  1  0.41137742  0.57229594  0.30795706  1
  O2-  O499  1  0.45647451  0.55889631  0.62673831  1
  O2-  O500  1  0.42819772  0.59319476  0.97330807  1
  O2-  O501  1  0.43488088  0.82528083  0.30094791  1
  O2-  O502  1  0.37937408  0.81545734  0.64784932  1
  O2-  O503  1  0.41075014  0.82779766  0.95574645  1
  O2-  O504  1  0.67384752  0.06654458  0.31378938  1
  O2-  O505  1  0.69744735  0.10156516  0.64380266  1
  O2-  O506  1  0.66413397  0.09890330  0.97718559  1
  O2-  O507  1  0.67784131  0.33850678  0.34455139  1
  O2-  O508  1  0.66877862  0.33786472  0.64786602  1
  O2-  O509  1  0.63154950  0.25674922  0.95534594  1
  O2-  O510  1  0.65603537  0.57589120  0.36500808  1
  O2-  O511  1  0.66570265  0.58420989  0.64666777  1
  O2-  O512  1  0.67868645  0.59201777  0.97250637  1
  O2-  O513  1  0.60218201  0.83937077  0.30005840  1
  O2-  O514  1  0.67439646  0.83629234  0.64100189  1
  O2-  O515  1  0.66991686  0.84646809  0.99519196  1
  O2-  O516  1  0.92469183  0.09502645  0.30388826  1
  O2-  O517  1  0.92845977  0.08370706  0.66434965  1
  O2-  O518  1  0.90730212  0.08728827  0.97952331  1
  O2-  O519  1  0.92383344  0.33720627  0.29789764  1
  O2-  O520  1  0.91826650  0.33243253  0.64962783  1
  O2-  O521  1  0.91402358  0.33433977  0.97386274  1
  O2-  O522  1  0.91358106  0.58930708  0.29832465  1
  O2-  O523  1  0.93670317  0.61847805  0.62650058  1
  O2-  O524  1  0.90315119  0.56019668  0.97998604  1
  O2-  O525  1  0.91235683  0.83720227  0.31063326  1
  O2-  O526  1  0.91646040  0.83287228  0.64933245  1
  O2-  O527  1  0.87708421  0.78866038  0.99030612  1
  O2-  O528  1  0.06986864  0.15828047  0.02149172  1
  O2-  O529  1  0.08984113  0.17088382  0.34981350  1
  O2-  O530  1  0.08079019  0.15803891  0.68824334  1
  O2-  O531  1  0.06075576  0.41809194  0.02200540  1
  O2-  O532  1  0.08860811  0.42096626  0.34851105  1
  O2-  O533  1  0.08229942  0.41020239  0.69019625  1
  O2-  O534  1  0.07855576  0.64230047  0.03100421  1
  O2-  O535  1  0.08579282  0.67105669  0.33765540  1
  O2-  O536  1  0.08904137  0.66200431  0.68856263  1
  O2-  O537  1  0.05640948  0.88124407  0.02968160  1
  O2-  O538  1  0.08010084  0.91798454  0.35518560  1
  O2-  O539  1  0.08051803  0.91343312  0.69184650  1
  O2-  O540  1  0.35305245  0.18437318  0.01710797  1
  O2-  O541  1  0.33579131  0.16145593  0.34644206  1
  O2-  O542  1  0.33288398  0.16647704  0.68243787  1
  O2-  O543  1  0.35239140  0.43265265  0.01079596  1
  O2-  O544  1  0.33645874  0.40944430  0.35246573  1
  O2-  O545  1  0.33602837  0.41136583  0.68157708  1
  O2-  O546  1  0.33335670  0.66342379  0.01299726  1
  O2-  O547  1  0.33279223  0.66211072  0.34410418  1
  O2-  O548  1  0.28457135  0.69234407  0.72161782  1
  O2-  O549  1  0.32109950  0.90822329  0.00479222  1
  O2-  O550  1  0.34908556  0.91442308  0.34692076  1
  O2-  O551  1  0.33385924  0.91138768  0.70199348  1
  O2-  O552  1  0.59026543  0.19360595  0.00421736  1
  O2-  O553  1  0.58286157  0.14663374  0.34936405  1
  O2-  O554  1  0.61080247  0.17075083  0.68383978  1
  O2-  O555  1  0.60644928  0.43091840  0.02344824  1
  O2-  O556  1  0.57201907  0.41038794  0.36196606  1
  O2-  O557  1  0.58494284  0.42011959  0.68812522  1
  O2-  O558  1  0.59542201  0.67291118  0.01277185  1
  O2-  O559  1  0.56976354  0.67153464  0.35409885  1
  O2-  O560  1  0.59330799  0.67725304  0.68764298  1
  O2-  O561  1  0.57635235  0.92864947  0.00313904  1
  O2-  O562  1  0.66182583  0.90834427  0.34176034  1
  O2-  O563  1  0.62751225  0.94112846  0.69381066  1
  O2-  O564  1  0.83909478  0.18255361  0.01056986  1
  O2-  O565  1  0.83942708  0.17570829  0.34411476  1
  O2-  O566  1  0.85092398  0.17081243  0.69354879  1
  O2-  O567  1  0.74237346  0.40695805  0.01151732  1
  O2-  O568  1  0.85117667  0.43511974  0.33466204  1
  O2-  O569  1  0.83853556  0.41577955  0.68668159  1
  O2-  O570  1  0.76583976  0.61849550  -0.00579145  1
  O2-  O571  1  0.83220602  0.66985030  0.35177333  1
  O2-  O572  1  0.82944695  0.66627737  0.69098521  1
  O2-  O573  1  0.82631897  0.91811900  0.00555464  1
  O2-  O574  1  0.83093600  0.93064724  0.35379712  1
  O2-  O575  1  0.83556044  0.91635632  0.69443947  1
