# generated using pymatgen
data_H2O
_symmetry_space_group_name_H-M   'P 1'
_cell_length_a   17.97365780
_cell_length_b   17.98780100
_cell_length_c   21.99462708
_cell_angle_alpha   89.95633045
_cell_angle_beta   90.01503351
_cell_angle_gamma   120.04702554
_symmetry_Int_Tables_number   1
_chemical_formula_structural   H2O
_chemical_formula_sum   'H384 O192'
_cell_volume   6155.39117302
_cell_formula_units_Z   192
loop_
 _symmetry_equiv_pos_site_id
 _symmetry_equiv_pos_as_xyz
  1  'x, y, z'
loop_
 _atom_type_symbol
 _atom_type_oxidation_number
  H+  1.0
  O2-  -2.0
loop_
 _atom_site_type_symbol
 _atom_site_label
 _atom_site_symmetry_multiplicity
 _atom_site_fract_x
 _atom_site_fract_y
 _atom_site_fract_z
 _atom_site_occupancy
  H+  H0  1  1.01264222  0.38921767  0.33611303  1
  H+  H1  1  0.41362520  0.85721540  0.67465428  1
  H+  H2  1  0.83517598  0.75216865  0.31183348  1
  H+  H3  1  0.58008615  0.41054357  0.10454415  1
  H+  H4  1  0.32570417  0.89961310  0.67282697  1
  H+  H5  1  0.98505035  0.36486461  0.99613045  1
  H+  H6  1  0.84611367  0.34026999  0.49217137  1
  H+  H7  1  0.63162658  0.85036202  0.50799521  1
  H+  H8  1  0.61758861  0.25987785  0.15344356  1
  H+  H9  1  0.13609177  0.48756681  0.01443045  1
  H+  H10  1  0.35133469  0.61863243  0.31762009  1
  H+  H11  1  0.74923881  0.78195946  0.23130700  1
  H+  H12  1  0.39411611  0.28297220  0.66819989  1
  H+  H13  1  0.11816155  0.98525798  0.35085777  1
  H+  H14  1  0.86464292  0.86971750  0.46885508  1
  H+  H15  1  0.63829618  0.27061009  0.83465437  1
  H+  H16  1  0.63502264  0.01850680  0.98438234  1
  H+  H17  1  0.10808828  0.12073402  0.99340040  1
  H+  H18  1  0.22938823  0.36506902  0.51058692  1
  H+  H19  1  0.28780741  0.38720564  0.01746559  1
  H+  H20  1  0.88809080  0.12257775  0.17024170  1
  H+  H21  1  0.62002297  -0.02001365  0.82702962  1
  H+  H22  1  0.36671244  0.14666488  0.16373235  1
  H+  H23  1  0.55806093  0.87696404  0.67067590  1
  H+  H24  1  0.17623469  0.63183131  1.00542088  1
  H+  H25  1  0.86708865  0.47243121  0.83361647  1
  H+  H26  1  0.37407222  0.01975160  0.50766188  1
  H+  H27  1  0.38480310  0.51763368  0.17280035  1
  H+  H28  1  0.61917550  0.47836775  0.83131000  1
  H+  H29  1  0.37665949  0.15169333  0.68011785  1
  H+  H30  1  0.85987864  0.23636117  0.14954638  1
  H+  H31  1  0.74952032  0.10241714  0.67730743  1
  H+  H32  1  0.48210549  0.36608081  0.51369177  1
  H+  H33  1  0.62987595  0.73272084  0.84596892  1
  H+  H34  1  0.10497982  -0.02060459  0.69143270  1
  H+  H35  1  0.40671807  0.81618078  0.25160287  1
  H+  H36  1  0.87119961  0.63294060  0.83513421  1
  H+  H37  1  0.92447969  0.41882000  0.64734856  1
  H+  H38  1  0.33497815  0.79433466  0.63393402  1
  H+  H39  1  0.17514590  0.08991756  0.74884402  1
  H+  H40  1  0.98062713  0.10586215  0.50131091  1
  H+  H41  1  0.11442264  0.23467627  0.33787228  1
  H+  H42  1  0.61236627  0.41757945  0.66404693  1
  H+  H43  1  0.63224660  0.74119911  0.66504290  1
  H+  H44  1  0.77941540  0.65162304  0.68166696  1
  H+  H45  1  0.98419595  0.10404794  0.65466581  1
  H+  H46  1  0.20712103  0.41275603  0.27868833  1
  H+  H47  1  0.88036042  0.28428849  0.32372776  1
  H+  H48  1  0.86145846  0.74353476  0.68763675  1
  H+  H49  1  0.16754233  0.40132166  0.84828293  1
  H+  H50  1  0.40141589  0.60101509  0.49014895  1
  H+  H51  1  0.61227748  0.46789022  0.01220653  1
  H+  H52  1  0.14265240  0.62278928  0.67677749  1
  H+  H53  1  0.35758559  0.63295710  0.15345766  1
  H+  H54  1  0.14080658  0.36620366  0.50781271  1
  H+  H55  1  0.38428083  1.00479451  -0.00854153  1
  H+  H56  1  0.63859035  0.35962757  0.83702962  1
  H+  H57  1  0.12857860  0.52014253  0.32224438  1
  H+  H58  1  0.51827059  0.40244014  0.67233546  1
  H+  H59  1  0.52555932  0.13243892  0.82676867  1
  H+  H60  1  0.88840981  0.53746098  0.33439622  1
  H+  H61  1  0.85845571  0.13126842  0.00453051  1
  H+  H62  1  0.20999460  0.10531014  0.50590021  1
  H+  H63  1  0.66702177  0.75076787  0.18647221  1
  H+  H64  1  0.77046629  0.88128492  0.00735461  1
  H+  H65  1  0.95948896  0.88393065  0.67846599  1
  H+  H66  1  0.23884345  0.89815980  0.67702429  1
  H+  H67  1  0.78632968  0.88512930  0.16504431  1
  H+  H68  1  0.48475832  0.37541148  0.83844056  1
  H+  H69  1  0.88993517  0.25388861  0.51578825  1
  H+  H70  1  0.74773061  0.64084900  0.50996564  1
  H+  H71  1  -0.00098029  0.11331052  0.82522960  1
  H+  H72  1  0.33050322  0.70480446  -0.00626948  1
  H+  H73  1  0.46991120  0.84097029  0.30965728  1
  H+  H74  1  0.09501021  0.87861111  0.49938892  1
  H+  H75  1  0.53255202  0.64663206  0.66595120  1
  H+  H76  1  0.27964560  0.14941251  0.16705881  1
  H+  H77  1  0.37049474  0.77032597  0.15998995  1
  H+  H78  1  0.89382195  0.62985494  0.67152261  1
  H+  H79  1  0.88773111  0.12177812  0.32608426  1
  H+  H80  1  0.52295674  0.11778218  0.00493236  1
  H+  H81  1  -0.02342311  0.61581759  0.00391653  1
  H+  H82  1  0.38742981  0.36919292  0.66437708  1
  H+  H83  1  0.63606821  0.86471817  -0.00433268  1
  H+  H84  1  0.62839254  0.64046670  0.84694182  1
  H+  H85  1  0.14625989  0.12232188  0.69203604  1
  H+  H86  1  0.00462917  0.58515331  0.14187572  1
  H+  H87  1  1.00604806  0.40637829  0.65167037  1
  H+  H88  1  0.41407876  0.57704536  0.26076617  1
  H+  H89  1  0.67978656  0.82685328  0.27222985  1
  H+  H90  1  1.02698537  0.64535216  0.68141563  1
  H+  H91  1  0.31851997  0.89422053  0.06198124  1
  H+  H92  1  0.11630051  0.90817921  0.17233591  1
  H+  H93  1  0.01788003  0.13560923  0.15418312  1
  H+  H94  1  0.77639555  0.39913379  0.34657434  1
  H+  H95  1  0.22300405  0.89434810  0.20827110  1
  H+  H96  1  1.02218161  0.88280387  0.83920566  1
  H+  H97  1  0.76917878  0.29677562  0.44614984  1
  H+  H98  1  0.87822487  0.96855253  0.48108504  1
  H+  H99  1  0.35036626  0.13332776  0.49735295  1
  H+  H100  1  0.86084458  0.62475295  0.16312530  1
  H+  H101  1  0.11935081  0.01879882  0.50772627  1
  H+  H102  1  0.11318738  0.72511742  0.83468080  1
  H+  H103  1  0.97545014  0.11866325  0.32572396  1
  H+  H104  1  0.11337326  0.22596771  0.49373123  1
  H+  H105  1  0.62402548  0.34365237  0.99648854  1
  H+  H106  1  0.51640339  0.64243344  -0.02972474  1
  H+  H107  1  0.59708059  0.67176255  -0.06800572  1
  H+  H108  1  0.36994180  0.71331849  0.68080402  1
  H+  H109  1  0.19536379  0.59940687  0.90880774  1
  H+  H110  1  0.38741835  0.52255324  0.32480505  1
  H+  H111  1  0.08615419  0.62274335  0.50560173  1
  H+  H112  1  0.77096077  0.13359832  1.00252775  1
  H+  H113  1  0.38547138  0.02476165  0.84037361  1
  H+  H114  1  0.63865609  0.54177211  0.65902111  1
  H+  H115  1  0.79272461  0.38946525  0.67569108  1
  H+  H116  1  0.62721765  0.89102303  0.18845525  1
  H+  H117  1  0.63575645  0.76499627  0.51078263  1
  H+  H118  1  0.28929435  0.15157147  0.84058121  1
  H+  H119  1  0.38828486  0.39152874  0.82901087  1
  H+  H120  1  0.54660801  1.01502113  0.12832445  1
  H+  H121  1  0.64273034  0.11479213  0.83442579  1
  H+  H122  1  0.89492446  0.27584945  -0.00426604  1
  H+  H123  1  0.37104587  0.73311894  0.82612201  1
  H+  H124  1  0.89053791  0.52579649  1.01037121  1
  H+  H125  1  0.33658870  0.92416012  0.30418400  1
  H+  H126  1  0.12890963  0.39632709  1.00871972  1
  H+  H127  1  0.89445072  0.82171249  0.22110392  1
  H+  H128  1  0.11669448  1.02725095  -0.00226526  1
  H+  H129  1  0.62159328  0.28062633  0.51784548  1
  H+  H130  1  0.86278828  0.71605692  0.16039493  1
  H+  H131  1  0.07069278  0.91288877  0.43900329  1
  H+  H132  1  0.53044758  0.62854267  0.49422171  1
  H+  H133  1  0.02139826  0.63714094  0.34466956  1
  H+  H134  1  0.37492541  0.77067095  0.51411970  1
  H+  H135  1  0.12740423  0.56422231  0.58555806  1
  H+  H136  1  0.62652787  0.64366535  0.66478330  1
  H+  H137  1  0.25190758  0.61915647  0.31564022  1
  H+  H138  1  0.24872054  0.63344397  0.52340535  1
  H+  H139  1  0.53829435  0.15633338  0.35006542  1
  H+  H140  1  0.64662075  0.86990919  0.84136028  1
  H+  H141  1  0.52165400  0.38095516  0.01181658  1
  H+  H142  1  0.10791104  0.22396641  0.15116516  1
  H+  H143  1  0.30850597  0.42318119  0.83286288  1
  H+  H144  1  0.03462652  0.49584835  0.57165041  1
  H+  H145  1  0.03925310  0.39699790  0.83879352  1
  H+  H146  1  0.56102612  0.92236519  0.05434977  1
  H+  H147  1  0.60786531  0.21294202  0.00414336  1
  H+  H148  1  0.89453877  0.85890840  0.84799255  1
  H+  H149  1  0.62025664  0.19900922  0.67000452  1
  H+  H150  1  0.28692189  0.14911724  0.69162498  1
  H+  H151  1  0.49599455  0.13716792  0.50691884  1
  H+  H152  1  0.76590641  0.89930676  0.33789794  1
  H+  H153  1  -0.04342232  0.83051241  0.49316314  1
  H+  H154  1  0.64089214  0.11607809  0.33781665  1
  H+  H155  1  0.86339800  0.98436311  0.15852417  1
  H+  H156  1  0.62909116  0.49343890  0.50418186  1
  H+  H157  1  0.42448784  0.34661338  0.93984121  1
  H+  H158  1  0.65808117  0.90882249  0.16193174  1
  H+  H159  1  0.61512206  0.10931794  0.67826094  1
  H+  H160  1  0.87719328  0.39530645  0.01757145  1
  H+  H161  1  0.48577372  0.62551022  0.86610692  1
  H+  H162  1  0.59592513  0.66632840  0.10773420  1
  H+  H163  1  0.13144103  0.35330772  0.16737520  1
  H+  H164  1  0.14181819  0.74473639  0.13610269  1
  H+  H165  1  0.86894985  0.11963605  0.49164924  1
  H+  H166  1  0.74415038  0.14505079  0.18046715  1
  H+  H167  1  0.28146184  0.39589698  0.34748311  1
  H+  H168  1  0.08001334  0.20472389  0.82657335  1
  H+  H169  1  0.87324787  0.50454182  0.18705794  1
  H+  H170  1  0.36941610  -0.00771548  0.21056214  1
  H+  H171  1  0.77961891  0.88232832  0.82614128  1
  H+  H172  1  0.98048521  0.60794219  0.85101642  1
  H+  H173  1  0.35769936  0.88956643  0.48367386  1
  H+  H174  1  0.84088666  0.92246373  0.40664168  1
  H+  H175  1  0.35150434  0.89490869  0.20585055  1
  H+  H176  1  0.10944382  0.63519688  0.34068708  1
  H+  H177  1  0.51393576  0.86504117  0.47356840  1
  H+  H178  1  0.76732612  0.63471986  0.34830289  1
  H+  H179  1  0.24181644  0.62346405  0.84495672  1
  H+  H180  1  0.31566771  0.65351802  0.09577960  1
  H+  H181  1  0.58484665  0.42484340  0.76971661  1
  H+  H182  1  0.35858962  0.21507105  -0.02526491  1
  H+  H183  1  0.89174782  0.62777229  0.33064923  1
  H+  H184  1  1.02231128  0.89771660  0.16445143  1
  H+  H185  1  0.65289941  0.62677429  0.50614676  1
  H+  H186  1  0.61534748  0.47738699  0.34874440  1
  H+  H187  1  0.35709019  0.22471445  0.49674635  1
  H+  H188  1  0.37481517  0.03166063  0.66650860  1
  H+  H189  1  0.12599144  0.49065531  0.83906049  1
  H+  H190  1  0.36499124  0.38221314  0.17380007  1
  H+  H191  1  1.00926898  0.13390439  1.00255472  1
  H+  H192  1  0.11423128  0.45862694  0.16238796  1
  H+  H193  1  0.44781166  0.87016642  0.15657539  1
  H+  H194  1  0.11674328  0.91613563  0.02059587  1
  H+  H195  1  0.63955346  -0.02921533  0.67907331  1
  H+  H196  1  0.88639827  0.68357680  0.50154534  1
  H+  H197  1  0.21904712  0.60136893  0.17037643  1
  H+  H198  1  0.77813028  0.14283469  0.34343476  1
  H+  H199  1  0.12673694  0.48536212  0.68654645  1
  H+  H200  1  0.13802721  1.03792921  0.17937029  1
  H+  H201  1  0.87992920  0.10277265  0.84053696  1
  H+  H202  1  0.73716239  0.60829726  0.84471393  1
  H+  H203  1  0.35444464  0.12676778  0.97696782  1
  H+  H204  1  0.86924692  0.11575304  0.67969440  1
  H+  H205  1  0.64161001  0.09129694  0.44312849  1
  H+  H206  1  0.21825282  0.86671239  0.50738053  1
  H+  H207  1  0.10641021  0.74793301  0.12054575  1
  H+  H208  1  0.26722374  0.88635605  0.83448190  1
  H+  H209  1  0.72467265  0.59955980  0.17651372  1
  H+  H210  1  0.38745120  0.86961395  0.83328148  1
  H+  H211  1  0.39184223  0.28547463  0.84157957  1
  H+  H212  1  0.86095681  0.99093991  0.33351593  1
  H+  H213  1  0.63368236  0.51091648  0.17645465  1
  H+  H214  1  0.21860112  0.85465673  0.34122849  1
  H+  H215  1  0.78164396  0.14100836  0.82867589  1
  H+  H216  1  0.11860681  0.57541433  0.16187485  1
  H+  H217  1  0.91437421  0.57895630  0.23622339  1
  H+  H218  1  0.86343393  0.63748608  0.01223860  1
  H+  H219  1  0.25337762  0.85903158  1.00634405  1
  H+  H220  1  0.41665562  0.16811166  0.32545995  1
  H+  H221  1  -0.10291833  0.36362636  0.84234971  1
  H+  H222  1  0.77847683  0.38369448  0.82816388  1
  H+  H223  1  0.88920194  0.86425426  0.16041856  1
  H+  H224  1  0.12404262  0.77735663  0.66596721  1
  H+  H225  1  0.97796722  0.64460735  0.51217212  1
  H+  H226  1  0.08818190  0.40685522  0.10071140  1
  H+  H227  1  0.37445668  0.64692299  0.83975440  1
  H+  H228  1  0.51962290  0.63771625  0.33622481  1
  H+  H229  1  0.60411897  -0.04999921  0.46478917  1
  H+  H230  1  0.14530061  0.36983182  0.66771897  1
  H+  H231  1  0.63799022  0.10863713  0.98766356  1
  H+  H232  1  0.34029587  0.41613408  0.44031242  1
  H+  H233  1  0.89618993  0.77177022  0.85001466  1
  H+  H234  1  0.39789968  0.61407932  0.66461691  1
  H+  H235  1  0.13283808  0.86000506  0.84680661  1
  H+  H236  1  0.39155300  0.36171248  0.00351552  1
  H+  H237  1  0.35534664  0.71526140  0.31280801  1
  H+  H238  1  0.13433285  0.77383681  0.51061403  1
  H+  H239  1  0.37203170  0.84310111  -0.01369541  1
  H+  H240  1  0.89208781  0.53996750  0.66683356  1
  H+  H241  1  0.12332035  0.10509908  0.84053480  1
  H+  H242  1  0.97289101  0.86310628  1.01861069  1
  H+  H243  1  0.61648058  0.62190569  0.16361973  1
  H+  H244  1  0.67113373  0.86498551  0.66372288  1
  H+  H245  1  0.38978525  0.28119201  0.33824554  1
  H+  H246  1  0.35503673  0.86169894  0.34008291  1
  H+  H247  1  0.07301956  0.61034206  -0.03104956  1
  H+  H248  1  0.62642757  0.35005653  0.16778169  1
  H+  H249  1  0.50501584  0.23442822  0.29481992  1
  H+  H250  1  0.62240790  0.13913241  0.15804986  1
  H+  H251  1  0.13686744  0.38370818  0.32892224  1
  H+  H252  1  0.37070558  0.48231311  0.67493672  1
  H+  H253  1  0.62530276  0.40297909  0.50709070  1
  H+  H254  1  0.58811725  0.15354659  0.52470437  1
  H+  H255  1  0.11076000  0.13483470  0.49019727  1
  H+  H256  1  0.27798575  0.14311135  0.34012102  1
  H+  H257  1  0.11332031  0.89448389  0.35379908  1
  H+  H258  1  0.32454608  0.62579992  0.54954578  1
  H+  H259  1  0.09215875  0.46420463  0.49798505  1
  H+  H260  1  0.48121703  0.36978050  0.34070091  1
  H+  H261  1  0.18740421  0.32499319  0.84462214  1
  H+  H262  1  0.64683257  0.32388447  0.67649235  1
  H+  H263  1  0.10689741  0.80476605  0.99639166  1
  H+  H264  1  0.77992934  0.11908090  0.48206765  1
  H+  H265  1  0.36943860  0.39154760  0.34601669  1
  H+  H266  1  0.63488339  0.86506618  0.31767860  1
  H+  H267  1  0.88124289  1.01580123  -0.00629363  1
  H+  H268  1  0.14180720  0.27978846  0.99259334  1
  H+  H269  1  0.64995307  0.28211535  0.35117453  1
  H+  H270  1  0.47852150  0.87064033  0.83557772  1
  H+  H271  1  0.63186077  0.60840175  0.32757478  1
  H+  H272  1  0.87535696  0.85902791  0.01306688  1
  H+  H273  1  0.84353130  0.84504684  0.30938734  1
  H+  H274  1  0.13088458  1.01932697  0.84452091  1
  H+  H275  1  0.11700721  0.23072437  0.67337357  1
  H+  H276  1  0.13841503  0.12545245  0.17512490  1
  H+  H277  1  0.63547711  0.77549467  0.98539144  1
  H+  H278  1  1.01702706  0.37076979  0.48917465  1
  H+  H279  1  0.14917428  0.31017562  0.22641696  1
  H+  H280  1  0.87990409  0.76133746  1.01610844  1
  H+  H281  1  0.14345982  0.12349607  0.33133749  1
  H+  H282  1  0.47504012  0.10378133  0.66219288  1
  H+  H283  1  0.87469833  0.22767021  0.83112087  1
  H+  H284  1  0.12027902  0.64009781  0.83570824  1
  H+  H285  1  0.38973145  0.27406925  0.18141064  1
  H+  H286  1  0.52235676  0.38276741  0.16598693  1
  H+  H287  1  0.22993869  0.61671541  0.67270518  1
  H+  H288  1  0.27302072  0.37822546  0.16836664  1
  H+  H289  1  0.84222032  0.66849094  0.77742839  1
  H+  H290  1  0.18939727  0.35334914  0.94198589  1
  H+  H291  1  0.69042857  0.07227078  0.61704121  1
  H+  H292  1  0.34349551  0.40969214  0.07727060  1
  H+  H293  1  0.84541225  0.17312475  0.39876886  1
  H+  H294  1  0.64184162  0.36665593  0.34636979  1
  H+  H295  1  0.32765035  0.92150033  0.42678587  1
  H+  H296  1  0.14604322  0.85036085  0.25236414  1
  H+  H297  1  0.68115862  0.84735692  0.90123572  1
  H+  H298  1  0.12886597  0.72695792  -0.01068869  1
  H+  H299  1  0.17132504  0.09443466  0.27169525  1
  H+  H300  1  0.40513493  0.82056789  0.92546804  1
  H+  H301  1  0.72029365  0.34953911  0.51355710  1
  H+  H302  1  0.92648406  0.33576585  0.56417062  1
  H+  H303  1  0.35086493  0.42819834  0.76505472  1
  H+  H304  1  0.08252375  0.93556389  0.08285723  1
  H+  H305  1  0.08527470  0.17675606  0.39798935  1
  H+  H306  1  0.27791034  0.39419418  0.67727768  1
  H+  H307  1  0.47873433  0.10955042  0.17048862  1
  H+  H308  1  0.07369840  0.16745042  0.73052787  1
  H+  H309  1  0.34448943  0.17939337  0.77821844  1
  H+  H310  1  0.39585240  0.11845750  0.84787761  1
  H+  H311  1  0.83796566  0.69090551  0.39979048  1
  H+  H312  1  0.84625574  0.15420295  0.73942569  1
  H+  H313  1  0.08573847  0.67327221  0.74150901  1
  H+  H314  1  0.82860920  0.65882018  0.07315645  1
  H+  H315  1  0.90802453  0.07254249  0.93270262  1
  H+  H316  1  0.58143352  0.15528255  0.76554988  1
  H+  H317  1  0.47387206  0.60741577  0.17107307  1
  H+  H318  1  0.68040184  0.60350440  0.59945613  1
  H+  H319  1  0.06184410  0.60337230  0.08142211  1
  H+  H320  1  0.16012546  0.82177998  0.90405058  1
  H+  H321  1  0.34399448  0.65794730  0.74193203  1
  H+  H322  1  0.75389296  0.35654279  0.17057214  1
  H+  H323  1  0.91795525  0.57823129  0.90950084  1
  H+  H324  1  0.36782903  0.38199451  0.49956557  1
  H+  H325  1  0.42235302  0.06944099  0.93520168  1
  H+  H326  1  0.84768935  0.41462627  0.08047749  1
  H+  H327  1  0.15025617  0.83428581  0.60406408  1
  H+  H328  1  0.68315151  0.83009823  0.59895478  1
  H+  H329  1  0.09275782  0.42144940  0.74258671  1
  H+  H330  1  0.57327254  0.16436304  0.41802574  1
  H+  H331  1  0.31600784  0.92165509  0.77180618  1
  H+  H332  1  0.15556834  0.57315634  0.25798551  1
  H+  H333  1  0.63172570  0.60591819  0.98743646  1
  H+  H334  1  0.79963636  0.86893230  0.66918039  1
  H+  H335  1  0.51221213  0.87535009  -0.00559862  1
  H+  H336  1  0.67215475  0.08427092  0.89370387  1
  H+  H337  1  0.72239782  0.61019281  -0.00088228  1
  H+  H338  1  0.07077519  0.41684668  0.39778704  1
  H+  H339  1  0.41920247  0.33318823  0.57085608  1
  H+  H340  1  0.42948238  0.84950359  0.55439009  1
  H+  H341  1  0.44390698  0.12443265  0.23361072  1
  H+  H342  1  0.39084204  0.51146277  0.50918910  1
  H+  H343  1  0.17278246  0.34065384  0.60628940  1
  H+  H344  1  0.40140488  0.07559319  0.57117468  1
  H+  H345  1  0.87861601  0.01034828  0.83816237  1
  H+  H346  1  0.66467593  0.57531566  0.27167490  1
  H+  H347  1  0.12706630  0.76987922  0.34355897  1
  H+  H348  1  0.90386413  1.00898387  0.65602194  1
  H+  H349  1  0.67469972  0.57453917  0.90328843  1
  H+  H350  1  0.09017308  0.88591488  0.67690802  1
  H+  H351  1  0.84513609  0.90440933  0.76960499  1
  H+  H352  1  0.83371023  0.17003827  0.09416732  1
  H+  H353  1  0.57120974  0.90081236  0.37870562  1
  H+  H354  1  0.60436182  0.97135815  0.32529400  1
  H+  H355  1  0.88162460  0.37469668  0.32836023  1
  H+  H356  1  0.92610173  0.33502700  0.90259910  1
  H+  H357  1  0.07237244  0.16390288  0.06266882  1
  H+  H358  1  0.82991509  0.91706079  0.06807729  1
  H+  H359  1  0.07729174  0.91251041  0.77766376  1
  H+  H360  1  0.84801629  0.42507770  0.73616348  1
  H+  H361  1  0.67319527  0.32109621  0.60705111  1
  H+  H362  1  0.58040789  0.13811687  0.08993075  1
  H+  H363  1  0.91551289  0.09088973  0.23011489  1
  H+  H364  1  0.60963300  0.72607750  0.34024578  1
  H+  H365  1  0.32652091  0.60972228  0.43705843  1
  H+  H366  1  0.42308113  0.33585331  0.24156865  1
  H+  H367  1  0.86973203  0.34471084  0.23097470  1
  H+  H368  1  0.59363227  0.91331920  0.77185796  1
  H+  H369  1  0.08196596  0.66318609  0.44059313  1
  H+  H370  1  0.33222637  0.16850781  0.40261612  1
  H+  H371  1  0.65354168  0.31671029  0.93598787  1
  H+  H372  1  0.92017564  0.06609058  0.56004972  1
  H+  H373  1  0.92042606  0.62018675  0.57205510  1
  H+  H374  1  0.64070398  0.06995056  0.51220313  1
  H+  H375  1  0.74126292  0.22112204  0.20796386  1
  H+  H376  1  0.68191842  0.10984360  0.27572396  1
  H+  H377  1  0.15156240  0.08506122  0.93240257  1
  H+  H378  1  0.83904957  0.42209788  0.40238298  1
  H+  H379  1  0.58759327  0.96008751  0.15173994  1
  H+  H380  1  0.58946130  0.42600704  0.41200639  1
  H+  H381  1  0.42559725  0.58632494  0.60196969  1
  H+  H382  1  0.58433728  0.66204587  0.43236331  1
  H+  H383  1  0.36778482  0.65260052  0.43660888  1
  O2-  O384  1  0.07660055  0.16287765  0.13556151  1
  O2-  O385  1  0.08241894  0.16839636  0.47427137  1
  O2-  O386  1  0.06113936  0.14827228  0.80924788  1
  O2-  O387  1  0.08687205  0.39928848  0.14570489  1
  O2-  O388  1  0.07752523  0.41050616  0.47553905  1
  O2-  O389  1  0.10036271  0.42993494  0.82411472  1
  O2-  O390  1  0.04612406  0.57342976  0.12108409  1
  O2-  O391  1  0.08042431  0.66930774  0.48574862  1
  O2-  O392  1  0.08426120  0.66385813  0.82031005  1
  O2-  O393  1  0.08334006  0.93402001  0.15059322  1
  O2-  O394  1  0.05901195  0.90241749  0.48468675  1
  O2-  O395  1  0.08398719  0.91645421  0.82275049  1
  O2-  O396  1  0.34014182  0.18162360  0.15303031  1
  O2-  O397  1  0.32377965  0.16555226  0.47994433  1
  O2-  O398  1  0.34795589  0.18375394  0.82352111  1
  O2-  O399  1  0.33514747  0.41312292  0.15809260  1
  O2-  O400  1  0.33872765  0.41458518  0.48587879  1
  O2-  O401  1  0.36198778  0.43344771  0.81076796  1
  O2-  O402  1  0.32474149  0.66138320  0.14063452  1
  O2-  O403  1  0.30413218  0.66645283  0.54356724  1
  O2-  O404  1  0.34334875  0.67057698  0.81538537  1
  O2-  O405  1  0.33316496  0.93203732  0.22637195  1
  O2-  O406  1  0.32803736  0.92144142  0.47202974  1
  O2-  O407  1  0.32629424  0.91907647  0.81583665  1
  O2-  O408  1  0.56801825  0.11878464  0.13436732  1
  O2-  O409  1  0.56039495  0.17342462  0.49610284  1
  O2-  O410  1  0.58584401  0.16284325  0.81043788  1
  O2-  O411  1  0.58308665  0.41189933  0.15043317  1
  O2-  O412  1  0.59403317  0.43189787  0.49187750  1
  O2-  O413  1  0.58344765  0.41809059  0.81441538  1
  O2-  O414  1  0.59058993  0.65895036  0.15179778  1
  O2-  O415  1  0.58958843  0.66250178  0.47772626  1
  O2-  O416  1  0.59384083  0.66951330  0.85198946  1
  O2-  O417  1  0.54095093  0.95631836  0.12656360  1
  O2-  O418  1  0.57221305  0.88796129  0.45542680  1
  O2-  O419  1  0.58777188  0.91704103  0.81642550  1
  O2-  O420  1  0.83844535  0.17540242  0.14001114  1
  O2-  O421  1  0.84276822  0.15506271  0.47787973  1
  O2-  O422  1  0.84353779  0.16668069  0.81660118  1
  O2-  O423  1  0.81998249  0.38648230  0.16662722  1
  O2-  O424  1  0.79968049  0.34782427  0.47155121  1
  O2-  O425  1  0.83992319  0.41428813  0.81445555  1
  O2-  O426  1  0.83006571  0.65478488  0.14741909  1
  O2-  O427  1  0.85369478  0.71095000  0.47863826  1
  O2-  O428  1  0.84047253  0.66398952  0.82265921  1
  O2-  O429  1  0.83881872  0.92505042  0.14124702  1
  O2-  O430  1  0.84736289  0.91345627  0.45693773  1
  O2-  O431  1  0.84189477  0.91158131  0.81402660  1
  O2-  O432  1  0.16945556  0.09849128  0.19414766  1
  O2-  O433  1  0.14955581  0.08037592  0.51920804  1
  O2-  O434  1  0.16016360  0.08238728  0.85593317  1
  O2-  O435  1  0.16084830  0.31902321  0.18276631  1
  O2-  O436  1  0.16920445  0.33610608  0.52617032  1
  O2-  O437  1  0.20909901  0.38158457  0.86262305  1
  O2-  O438  1  0.16028531  0.56537887  0.18758647  1
  O2-  O439  1  0.08776829  0.53970160  0.55017198  1
  O2-  O440  1  0.18339982  0.59524401  0.86443152  1
  O2-  O441  1  0.15952647  0.86777993  0.20911438  1
  O2-  O442  1  0.16063951  0.83409737  0.52634329  1
  O2-  O443  1  0.16411480  0.82901936  0.85865494  1
  O2-  O444  1  0.42541135  0.09621849  0.19317974  1
  O2-  O445  1  0.40142036  0.07896366  0.52562629  1
  O2-  O446  1  0.42409968  0.08408830  0.85620744  1
  O2-  O447  1  0.42223573  0.33648068  0.19644287  1
  O2-  O448  1  0.42036895  0.33222390  0.52546290  1
  O2-  O449  1  0.42225006  0.34926407  0.85157904  1
  O2-  O450  1  0.41363594  0.58003502  0.18557065  1
  O2-  O451  1  0.42063307  0.57503158  0.52127048  1
  O2-  O452  1  0.42374168  0.60232868  0.87732600  1
  O2-  O453  1  0.39509349  0.82847692  0.17899235  1
  O2-  O454  1  0.41517465  0.83379113  0.51146951  1
  O2-  O455  1  0.41649436  0.83771758  0.84729835  1
  O2-  O456  1  0.70486221  0.15758594  0.20517760  1
  O2-  O457  1  0.66194000  0.06455723  0.47261931  1
  O2-  O458  1  0.67455074  0.08509377  0.84802867  1
  O2-  O459  1  0.65160505  0.31233322  0.17677887  1
  O2-  O460  1  0.66554295  0.33761993  0.53424022  1
  O2-  O461  1  0.67022692  0.33053574  0.85064834  1
  O2-  O462  1  0.66429483  0.57245903  0.19179143  1
  O2-  O463  1  0.68773675  0.60329254  0.52516668  1
  O2-  O464  1  0.67504752  0.57709740  0.85772164  1
  O2-  O465  1  0.71348369  0.80093986  0.20905180  1
  O2-  O466  1  0.65842010  0.82222853  0.53021731  1
  O2-  O467  1  0.68104758  0.84359238  0.85587568  1
  O2-  O468  1  0.91521400  0.08893787  0.18473699  1
  O2-  O469  1  0.91921492  0.06670014  0.51445538  1
  O2-  O470  1  0.90902184  0.07055622  0.85533489  1
  O2-  O471  1  0.84057351  0.32234870  0.19068829  1
  O2-  O472  1  0.91547195  0.31714042  0.52066558  1
  O2-  O473  1  0.92962137  0.33536897  0.85695685  1
  O2-  O474  1  0.90592183  0.56767217  0.19153155  1
  O2-  O475  1  0.92004355  0.62970826  0.52763741  1
  O2-  O476  1  0.91893505  0.57678996  0.86419863  1
  O2-  O477  1  0.91432009  0.83031468  0.17762037  1
  O2-  O478  1  0.89143969  0.80090773  0.50068827  1
  O2-  O479  1  0.92754357  0.83251197  0.86396299  1
  O2-  O480  1  0.17491320  0.09443929  0.31721214  1
  O2-  O481  1  0.17704927  0.09057569  0.70429732  1
  O2-  O482  1  0.13880842  0.08466277  0.97744490  1
  O2-  O483  1  0.17973004  0.36916034  0.31029570  1
  O2-  O484  1  0.17578321  0.33986240  0.65178198  1
  O2-  O485  1  0.17866601  0.34230365  0.98618476  1
  O2-  O486  1  0.16160677  0.57945026  0.30444096  1
  O2-  O487  1  0.16872581  0.58895364  0.66027251  1
  O2-  O488  1  0.21117060  0.60350436  0.99074914  1
  O2-  O489  1  0.15682977  0.83188954  0.33203112  1
  O2-  O490  1  0.14666807  0.83710155  0.64951641  1
  O2-  O491  1  0.15339393  0.79844767  0.97927559  1
  O2-  O492  1  0.46993118  0.17358889  0.30511546  1
  O2-  O493  1  0.41612309  0.08850044  0.64822791  1
  O2-  O494  1  0.42127831  0.06591192  0.98048273  1
  O2-  O495  1  0.42159157  0.34208900  0.32326190  1
  O2-  O496  1  0.42144275  0.34226787  0.64992687  1
  O2-  O497  1  0.42354319  0.33460779  0.98347209  1
  O2-  O498  1  0.41226047  0.58151118  0.30665861  1
  O2-  O499  1  0.43186315  0.58814597  0.64701078  1
  O2-  O500  1  0.42324055  0.61227328  0.94109219  1
  O2-  O501  1  0.40827052  0.80722250  0.29691227  1
  O2-  O502  1  0.39626589  0.81617623  0.64115778  1
  O2-  O503  1  0.40175049  0.81290257  0.97062661  1
  O2-  O504  1  0.67178174  0.08893273  0.31887156  1
  O2-  O505  1  0.68422068  0.07006833  0.66111526  1
  O2-  O506  1  0.66966192  0.07958939  0.97119931  1
  O2-  O507  1  0.67605043  0.33980288  0.33309726  1
  O2-  O508  1  0.68068024  0.30788851  0.65079544  1
  O2-  O509  1  0.64628134  0.30709039  0.98026586  1
  O2-  O510  1  0.66371023  0.57802771  0.31709906  1
  O2-  O511  1  0.67346825  0.60292594  0.64542288  1
  O2-  O512  1  0.66435571  0.57489649  0.98117975  1
  O2-  O513  1  0.67041932  0.83616606  0.31592093  1
  O2-  O514  1  0.69340752  0.82935957  0.64485708  1
  O2-  O515  1  0.67156553  0.83979298  0.98097692  1
  O2-  O516  1  0.91497221  0.08844829  0.31031227  1
  O2-  O517  1  0.92346316  0.06780931  0.64054968  1
  O2-  O518  1  0.90997291  0.07611870  0.97829897  1
  O2-  O519  1  0.90790079  0.34370633  0.30709809  1
  O2-  O520  1  0.96617505  0.41070078  0.62226527  1
  O2-  O521  1  0.92511091  0.33604249  0.98045200  1
  O2-  O522  1  0.92096978  0.59631763  0.31626375  1
  O2-  O523  1  0.92421176  0.60132472  0.65379538  1
  O2-  O524  1  0.91530174  0.58550532  0.99164634  1
  O2-  O525  1  0.83294145  0.79557959  0.28388615  1
  O2-  O526  1  0.89757023  0.85070151  0.66460123  1
  O2-  O527  1  0.91068057  0.82764400  1.00614538  1
  O2-  O528  1  0.07164663  0.16463549  0.01611481  1
  O2-  O529  1  0.08255471  0.17512772  0.35205672  1
  O2-  O530  1  0.08574421  0.16897005  0.68620486  1
  O2-  O531  1  0.09708194  0.42576035  0.02253801  1
  O2-  O532  1  0.07305333  0.41882956  0.35217470  1
  O2-  O533  1  0.09564413  0.42287846  0.69728472  1
  O2-  O534  1  0.09658075  0.64671917  0.00470674  1
  O2-  O535  1  0.08112507  0.66293729  0.36191812  1
  O2-  O536  1  0.08831879  0.67634285  0.69597118  1
  O2-  O537  1  0.07650390  0.93375518  0.03498822  1
  O2-  O538  1  0.08476525  0.92660319  0.36783356  1
  O2-  O539  1  0.06431598  0.91702100  0.69755828  1
  O2-  O540  1  0.32464586  0.15532222  -0.03995405  1
  O2-  O541  1  0.33809178  0.17508011  0.35727372  1
  O2-  O542  1  0.35040837  0.18398263  0.69847188  1
  O2-  O543  1  0.34711293  0.41011550  0.03229100  1
  O2-  O544  1  0.34186696  0.42497833  0.36185507  1
  O2-  O545  1  0.33928489  0.42310204  0.69244658  1
  O2-  O546  1  0.29716746  0.65044615  0.01797778  1
  O2-  O547  1  0.31877833  0.65101242  0.32600229  1
  O2-  O548  1  0.34125098  0.65371428  0.69569207  1
  O2-  O549  1  0.31626611  0.89272388  0.01772498  1
  O2-  O550  1  0.33236773  0.90104007  0.34648129  1
  O2-  O551  1  0.30114318  0.93088074  0.69246846  1
  O2-  O552  1  0.58452286  0.15098684  0.01894147  1
  O2-  O553  1  0.58793145  0.16232065  0.37475265  1
  O2-  O554  1  0.58221161  0.13970062  0.68555463  1
  O2-  O555  1  0.58210354  0.40851597  0.02869294  1
  O2-  O556  1  0.58505268  0.41828883  0.36693345  1
  O2-  O557  1  0.58066389  0.43953897  0.68635684  1
  O2-  O558  1  0.58177740  0.66732491  -0.02384467  1
  O2-  O559  1  0.57900879  0.66464316  0.35314968  1
  O2-  O560  1  0.59507103  0.67708504  0.67984497  1
  O2-  O561  1  0.57115498  0.91070686  0.01193424  1
  O2-  O562  1  0.57379282  0.90839603  0.33337718  1
  O2-  O563  1  0.61234236  0.90828133  0.69251465  1
  O2-  O564  1  0.83092049  0.16407667  0.01942605  1
  O2-  O565  1  0.84078834  0.17642636  0.35372446  1
  O2-  O566  1  0.83794851  0.14470180  0.69457875  1
  O2-  O567  1  0.85457698  0.42953005  0.03702254  1
  O2-  O568  1  0.83994846  0.43217227  0.35821942  1
  O2-  O569  1  0.85041718  0.43194127  0.69066523  1
  O2-  O570  1  0.83232060  0.66762636  0.02749875  1
  O2-  O571  1  0.82976419  0.67525898  0.35581869  1
  O2-  O572  1  0.83847478  0.68196002  0.69848948  1
  O2-  O573  1  0.83195935  0.91026566  0.02243875  1
  O2-  O574  1  0.82976660  0.92928000  0.34915565  1
  O2-  O575  1  0.85858079  0.90043001  0.68809847  1
