# generated using pymatgen
data_H2O
_symmetry_space_group_name_H-M   'P 1'
_cell_length_a   17.96704224
_cell_length_b   17.97080578
_cell_length_c   21.96334125
_cell_angle_alpha   89.93255151
_cell_angle_beta   90.01048553
_cell_angle_gamma   119.97230399
_symmetry_Int_Tables_number   1
_chemical_formula_structural   H2O
_chemical_formula_sum   'H384 O192'
_cell_volume   6143.19029834
_cell_formula_units_Z   192
loop_
 _symmetry_equiv_pos_site_id
 _symmetry_equiv_pos_as_xyz
  1  'x, y, z'
loop_
 _atom_type_symbol
 _atom_type_oxidation_number
  H+  1.0
  O2-  -2.0
loop_
 _atom_site_type_symbol
 _atom_site_label
 _atom_site_symmetry_multiplicity
 _atom_site_fract_x
 _atom_site_fract_y
 _atom_site_fract_z
 _atom_site_occupancy
  H+  H0  1  0.35778195  0.87892516  0.34625659  1
  H+  H1  1  0.71286858  0.35480304  0.84035840  1
  H+  H2  1  0.10598816  0.88837419  0.68127872  1
  H+  H3  1  0.87746806  0.52198269  0.18217370  1
  H+  H4  1  0.26720683  0.30784451  0.06652973  1
  H+  H5  1  0.88648875  0.14957897  0.81551443  1
  H+  H6  1  0.38136380  0.11322287  0.62121883  1
  H+  H7  1  0.38857463  0.47646990  0.66379741  1
  H+  H8  1  0.91003735  0.08512495  0.93228905  1
  H+  H9  1  0.27327701  0.13620346  0.66622644  1
  H+  H10  1  0.23565236  0.37917782  0.16635489  1
  H+  H11  1  0.49300564  0.61974478  0.48875366  1
  H+  H12  1  0.31007718  0.39010759  0.81256015  1
  H+  H13  1  0.12810715  0.60393575  0.84546878  1
  H+  H14  1  0.38342533  0.00978535  0.99083731  1
  H+  H15  1  0.85774343  0.39217745  0.01022539  1
  H+  H16  1  0.66395513  0.55437968  0.48045029  1
  H+  H17  1  0.27221927  0.12913942  0.82187797  1
  H+  H18  1  0.19716161  0.08216552  0.24924018  1
  H+  H19  1  0.85479884  0.87502421  0.83331397  1
  H+  H20  1  0.38178746  0.26038495  0.83595873  1
  H+  H21  1  0.51721864  0.87998971  0.16474702  1
  H+  H22  1  0.76321093  0.63000831  0.34603782  1
  H+  H23  1  0.40278425  0.60226863  0.63047923  1
  H+  H24  1  0.65552033  0.58171286  0.23499365  1
  H+  H25  1  0.63793158  0.76968695  0.65562078  1
  H+  H26  1  0.62472284  0.52394273  0.33414871  1
  H+  H27  1  0.23583683  0.61533014  0.50933633  1
  H+  H28  1  0.58545289  0.37925299  0.33595481  1
  H+  H29  1  0.12701934  0.01887979  0.84353238  1
  H+  H30  1  0.76704667  0.89255804  0.01010964  1
  H+  H31  1  0.85956477  0.14160073  0.00594914  1
  H+  H32  1  0.02827740  0.13883491  0.49184145  1
  H+  H33  1  0.89714107  0.11938816  0.32998260  1
  H+  H34  1  0.46921043  0.10146126  0.99131587  1
  H+  H35  1  0.77467570  0.62188808  0.66961636  1
  H+  H36  1  0.72840669  0.62981889  0.97170639  1
  H+  H37  1  0.87772789  0.84788626  0.66431556  1
  H+  H38  1  0.13199443  0.52009218  0.99642424  1
  H+  H39  1  0.56714676  0.16043358  0.06391592  1
  H+  H40  1  0.60111610  0.13843124  0.34799845  1
  H+  H41  1  0.26974267  0.65801314  0.83812829  1
  H+  H42  1  0.15542454  0.40626810  0.31283538  1
  H+  H43  1  0.61511717  0.62645777  0.67403498  1
  H+  H44  1  0.14191631  0.49530901  0.83280032  1
  H+  H45  1  0.16348928  0.58034314  0.24532286  1
  H+  H46  1  0.37951995  0.26400298  0.65417367  1
  H+  H47  1  0.71609684  0.08099556  0.83591573  1
  H+  H48  1  0.44035837  0.81388848  0.58695262  1
  H+  H49  1  0.36550531  0.98218795  0.63958805  1
  H+  H50  1  0.90178088  0.24946935  0.34739787  1
  H+  H51  1  0.25874929  0.25893934  -0.08852454  1
  H+  H52  1  0.37834526  0.78525415  0.83812204  1
  H+  H53  1  0.39590891  0.64430836  0.85063299  1
  H+  H54  1  0.36270210  0.72988897  1.01183914  1
  H+  H55  1  0.88245802  0.02864813  0.17443060  1
  H+  H56  1  0.85729526  0.64284018  0.16495787  1
  H+  H57  1  0.85971013  0.97755827  0.33696185  1
  H+  H58  1  0.76073010  0.38430677  0.16333271  1
  H+  H59  1  0.88565587  0.28122674  0.99638496  1
  H+  H60  1  0.13171784  0.76678321  0.18292774  1
  H+  H61  1  0.52965228  0.88886428  1.00811443  1
  H+  H62  1  0.86074471  0.89116115  0.49380627  1
  H+  H63  1  0.11493968  0.71974730  0.51135264  1
  H+  H64  1  0.60042385  0.62633392  0.46507401  1
  H+  H65  1  0.78428068  0.15194558  0.66128797  1
  H+  H66  1  0.13213004  0.11676995  -0.00005966  1
  H+  H67  1  0.22215093  0.85170734  0.33763696  1
  H+  H68  1  0.41107552  0.32563721  0.59157654  1
  H+  H69  1  0.13942328  0.11735892  0.50705999  1
  H+  H70  1  0.82891398  0.40553195  0.73259900  1
  H+  H71  1  0.80622388  0.16680264  0.52762128  1
  H+  H72  1  0.10376884  0.38567005  0.00308332  1
  H+  H73  1  0.54312977  0.89012902  0.66968378  1
  H+  H74  1  0.47484749  0.85794645  0.49973146  1
  H+  H75  1  0.62334940  0.51547043  0.83321766  1
  H+  H76  1  0.98066711  0.00804474  0.61573732  1
  H+  H77  1  0.46848273  0.34375596  0.50694749  1
  H+  H78  1  0.51820572  0.37951265  0.82537649  1
  H+  H79  1  0.38616014  0.38399712  0.16957109  1
  H+  H80  1  0.17052691  0.35163723  0.22223881  1
  H+  H81  1  0.35536262  0.38109840  0.49199296  1
  H+  H82  1  0.86104379  0.90355084  0.01661867  1
  H+  H83  1  0.69627952  0.10151195  0.48541681  1
  H+  H84  1  0.62321329  0.10854989  0.16558779  1
  H+  H85  1  0.62666717  0.02062704  0.16947451  1
  H+  H86  1  0.87003510  0.74858111  -0.01496979  1
  H+  H87  1  0.97660140  0.10949397  0.83688108  1
  H+  H88  1  0.88947871  0.25053258  0.50844340  1
  H+  H89  1  0.88569715  1.02203388  0.83752213  1
  H+  H90  1  0.89045745  0.60630055  0.66428903  1
  H+  H91  1  0.49237933  0.63490515  1.00219568  1
  H+  H92  1  0.97444787  0.60889622  0.51459599  1
  H+  H93  1  0.50054748  0.78154968  0.61415954  1
  H+  H94  1  0.63618202  0.54379113  0.50885656  1
  H+  H95  1  0.35509281  0.87138637  0.16640495  1
  H+  H96  1  0.87931161  0.11562246  0.17217828  1
  H+  H97  1  0.21567845  0.35450926  0.85337447  1
  H+  H98  1  0.39018658  0.72803101  0.67561591  1
  H+  H99  1  0.36662588  0.72088752  0.49256940  1
  H+  H100  1  0.14447472  0.61430506  0.51491847  1
  H+  H101  1  0.83312483  0.19933075  0.81575879  1
  H+  H102  1  0.67088232  0.69121211  0.52538512  1
  H+  H103  1  0.11279426  0.26162665  0.99332639  1
  H+  H104  1  0.84052608  0.45547985  0.82362909  1
  H+  H105  1  0.87838959  0.77981271  0.16926747  1
  H+  H106  1  0.36544488  0.89433150  0.64103786  1
  H+  H107  1  0.14226722  0.00972063  0.34114320  1
  H+  H108  1  0.96439986  0.61172112  0.99236771  1
  H+  H109  1  0.48280816  0.87319829  0.83099837  1
  H+  H110  1  0.60253159  0.96487857  0.83007366  1
  H+  H111  1  0.37090834  0.75964538  0.32908665  1
  H+  H112  1  0.79140681  0.67217220  0.50880041  1
  H+  H113  1  0.16383819  0.08073499  0.90129522  1
  H+  H114  1  0.35966391  0.39770666  0.33179161  1
  H+  H115  1  0.09955439  0.62269222  0.35802595  1
  H+  H116  1  0.29895229  0.13963747  0.17795177  1
  H+  H117  1  0.01779572  0.37997354  0.15294302  1
  H+  H118  1  0.76213013  0.13694052  0.15840396  1
  H+  H119  1  0.47153715  0.62211008  0.32472338  1
  H+  H120  1  0.10322218  0.63287765  0.01024421  1
  H+  H121  1  0.63160271  0.85802755  0.99848316  1
  H+  H122  1  0.21381889  0.22551407  0.90373722  1
  H+  H123  1  0.63107515  0.89561851  0.67668944  1
  H+  H124  1  0.47781652  0.63147727  0.84409127  1
  H+  H125  1  0.80641822  0.38776206  0.34522917  1
  H+  H126  1  0.11351541  -0.01068266  1.02073804  1
  H+  H127  1  0.11274177  0.13702831  0.82663903  1
  H+  H128  1  0.51697114  0.39549590  0.15824383  1
  H+  H129  1  0.01275435  0.13496155  0.00579261  1
  H+  H130  1  0.33568331  0.33781000  0.01381750  1
  H+  H131  1  0.10695473  0.22313488  0.82918675  1
  H+  H132  1  0.02321174  0.15498227  0.15580711  1
  H+  H133  1  0.71812940  0.36383009  0.00060138  1
  H+  H134  1  1.03450572  0.88761981  0.50636284  1
  H+  H135  1  0.92021957  0.38444878  0.33321870  1
  H+  H136  1  0.31375077  0.88492842  0.09216004  1
  H+  H137  1  0.10862275  0.45751927  0.40416317  1
  H+  H138  1  0.41647175  0.08854117  0.27400062  1
  H+  H139  1  0.36323862  0.13270179  0.82240386  1
  H+  H140  1  0.72634909  0.86772748  0.32556035  1
  H+  H141  1  0.37070851  0.11147029  0.52337459  1
  H+  H142  1  0.63671011  0.62013288  0.98765003  1
  H+  H143  1  0.16609306  0.58498528  0.90758453  1
  H+  H144  1  0.86342852  0.58981354  0.83657230  1
  H+  H145  1  0.12165257  0.39893785  0.48195112  1
  H+  H146  1  0.66120087  0.32365714  0.56084151  1
  H+  H147  1  0.66521774  0.83505739  0.26573679  1
  H+  H148  1  0.62557116  0.27673831  -0.00184039  1
  H+  H149  1  0.88556590  0.76730391  0.89654368  1
  H+  H150  1  0.98504004  0.88880521  1.01326042  1
  H+  H151  1  0.18138185  0.58382602  0.60264191  1
  H+  H152  1  0.75521555  0.61898855  0.82001538  1
  H+  H153  1  0.39925636  0.03196198  0.82878826  1
  H+  H154  1  0.22162608  0.61064221  -0.00130246  1
  H+  H155  1  0.47160699  0.35728034  0.99557004  1
  H+  H156  1  0.63225957  0.77283539  0.49972716  1
  H+  H157  1  0.86400811  0.64398871  0.50228722  1
  H+  H158  1  0.61109643  0.72830844  1.01001984  1
  H+  H159  1  0.60454145  0.63338833  0.15946870  1
  H+  H160  1  0.87884747  0.60899980  0.33811904  1
  H+  H161  1  0.58309889  0.66139477  0.73014089  1
  H+  H162  1  0.02927396  0.12478102  0.66864226  1
  H+  H163  1  0.62886842  0.52375844  0.17462498  1
  H+  H164  1  0.88514892  0.27467460  0.65368052  1
  H+  H165  1  0.59786728  0.97103709  0.48665061  1
  H+  H166  1  0.35875238  0.11728356  0.36008777  1
  H+  H167  1  0.12404086  0.97410848  0.50511592  1
  H+  H168  1  0.88525787  0.02381023  0.50124700  1
  H+  H169  1  0.13158538  0.84819300  0.33853317  1
  H+  H170  1  0.88301409  0.37013067  0.65935912  1
  H+  H171  1  0.01400351  0.63214433  0.17073564  1
  H+  H172  1  0.22154485  0.36889055  0.50178069  1
  H+  H173  1  0.62921518  0.86054448  0.50111850  1
  H+  H174  1  0.10995320  0.35275735  0.64439151  1
  H+  H175  1  0.61089874  0.73260692  0.33615234  1
  H+  H176  1  0.86155781  0.47111121  0.67430019  1
  H+  H177  1  0.64852866  0.02965476  0.65580888  1
  H+  H178  1  0.11370080  0.23069145  0.48613552  1
  H+  H179  1  0.37005630  0.63269148  0.48866910  1
  H+  H180  1  0.63170125  0.77036658  0.17234339  1
  H+  H181  1  0.06683583  0.68620703  0.82327473  1
  H+  H182  1  0.38122640  0.51619229  0.16800862  1
  H+  H183  1  0.47300067  0.11194508  0.33547326  1
  H+  H184  1  0.62186614  0.36091346  0.16149809  1
  H+  H185  1  0.22109381  0.11364934  0.00266252  1
  H+  H186  1  0.68467715  0.35568253  0.30817558  1
  H+  H187  1  0.38374313  0.53122181  0.32437859  1
  H+  H188  1  0.36302378  0.63063376  0.15871663  1
  H+  H189  1  0.12887805  0.49181117  0.49274106  1
  H+  H190  1  0.38475099  0.86342287  1.00199534  1
  H+  H191  1  0.82858287  0.65368843  0.73050727  1
  H+  H192  1  0.87593217  0.02771648  0.99361950  1
  H+  H193  1  -0.03994161  0.83584237  0.84949727  1
  H+  H194  1  0.52502877  0.13038702  0.81853954  1
  H+  H195  1  0.38724512  0.37429367  0.66342782  1
  H+  H196  1  0.10019052  0.72029950  0.01394433  1
  H+  H197  1  0.16553999  0.82434205  0.24326477  1
  H+  H198  1  0.39144486  0.29336442  0.17271894  1
  H+  H199  1  0.38599967  0.85751210  0.51164492  1
  H+  H200  1  0.88146080  0.52225092  0.51271225  1
  H+  H201  1  0.63398000  0.85587016  0.84010364  1
  H+  H202  1  0.89814066  0.78822255  0.50343967  1
  H+  H203  1  0.60916584  0.39340441  0.00533219  1
  H+  H204  1  0.62876289  0.61522135  0.33143494  1
  H+  H205  1  0.14081135  0.62286423  0.19008520  1
  H+  H206  1  0.21582484  0.85928601  1.01257492  1
  H+  H207  1  0.27583958  0.80486064  0.04172993  1
  H+  H208  1  0.57421268  0.91123687  0.42661005  1
  H+  H209  1  0.51185848  0.13838350  0.15794001  1
  H+  H210  1  0.62065965  0.22787073  0.67247959  1
  H+  H211  1  0.97178433  0.61447117  0.33975295  1
  H+  H212  1  0.39462590  0.88589667  0.82222868  1
  H+  H213  1  0.61027752  0.38485131  0.82805882  1
  H+  H214  1  0.46360880  0.84614595  0.32821119  1
  H+  H215  1  0.14146405  0.12104175  0.66515295  1
  H+  H216  1  0.85559006  0.37643453  0.82520154  1
  H+  H217  1  0.76369377  0.37750279  0.49946786  1
  H+  H218  1  0.60714481  0.35103181  0.49522938  1
  H+  H219  1  0.13396954  0.39460305  0.83602872  1
  H+  H220  1  0.85568595  0.88945468  0.16452831  1
  H+  H221  1  0.27028586  0.11770453  0.36320686  1
  H+  H222  1  0.20607264  0.34199526  0.99517475  1
  H+  H223  1  0.58255818  -0.09140364  1.06935887  1
  H+  H224  1  0.11292772  0.24421815  0.15112225  1
  H+  H225  1  0.09376693  0.25905477  0.63888330  1
  H+  H226  1  0.86878912  0.65993402  0.96995014  1
  H+  H227  1  0.93946020  0.31570380  0.84015032  1
  H+  H228  1  0.77006516  0.87872221  0.67413976  1
  H+  H229  1  0.85209311  0.47821310  0.01049084  1
  H+  H230  1  1.02425057  0.11930384  0.33527151  1
  H+  H231  1  0.89410029  0.37886399  0.50879244  1
  H+  H232  1  -0.05301295  0.57937939  0.83499753  1
  H+  H233  1  0.38173572  0.76381087  0.17459131  1
  H+  H234  1  0.87739938  0.48750493  0.34940872  1
  H+  H235  1  0.57548428  0.40306983  0.73633580  1
  H+  H236  1  0.46155300  0.37344693  0.32558068  1
  H+  H237  1  0.17794393  0.84383176  0.75351131  1
  H+  H238  1  0.54394216  0.03438364  0.28791439  1
  H+  H239  1  0.29941090  0.38794697  0.76692137  1
  H+  H240  1  1.02353940  0.62391759  0.67112374  1
  H+  H241  1  0.84619861  0.70534019  0.82087813  1
  H+  H242  1  0.21075728  0.58357191  0.34654779  1
  H+  H243  1  0.76945036  0.64188829  0.16240491  1
  H+  H244  1  0.36215025  0.97026355  0.50472319  1
  H+  H245  1  0.10759833  0.89083358  0.82025705  1
  H+  H246  1  0.22861507  0.84879573  0.51930013  1
  H+  H247  1  0.61178993  0.72424846  0.82272709  1
  H+  H248  1  1.01111063  0.39375470  0.32467600  1
  H+  H249  1  0.08184458  0.17212815  0.72907208  1
  H+  H250  1  0.87844365  0.36150596  0.17861029  1
  H+  H251  1  0.24136029  0.62553854  0.66155286  1
  H+  H252  1  0.88960364  0.86299141  0.34099849  1
  H+  H253  1  0.29928097  0.91217040  0.79313091  1
  H+  H254  1  0.52023331  0.37291884  0.67329675  1
  H+  H255  1  0.02380361  0.87571752  0.35735285  1
  H+  H256  1  0.49280826  0.60952133  0.65079540  1
  H+  H257  1  0.10875610  0.89763893  0.02260554  1
  H+  H258  1  0.37653344  0.25935135  0.51138159  1
  H+  H259  1  0.60841355  0.11841323  0.81662634  1
  H+  H260  1  0.63257074  0.34947949  0.66652936  1
  H+  H261  1  0.96610578  0.86812763  0.17963989  1
  H+  H262  1  0.35286005  0.11973243  1.00879539  1
  H+  H263  1  0.60866434  0.26314240  0.32580278  1
  H+  H264  1  0.13904167  0.09761722  0.33634192  1
  H+  H265  1  0.36230380  0.21211533  0.01144090  1
  H+  H266  1  0.36969720  0.64163262  0.70995059  1
  H+  H267  1  0.60804878  0.14668781  0.00230401  1
  H+  H268  1  0.17646511  0.49420334  0.67859891  1
  H+  H269  1  0.62253941  0.13483044  0.66681241  1
  H+  H270  1  0.13463113  0.76642708  0.67530706  1
  H+  H271  1  0.35193029  0.62863452  0.33672189  1
  H+  H272  1  0.26456620  0.87263429  0.16930537  1
  H+  H273  1  0.16349683  0.02745057  0.18930485  1
  H+  H274  1  0.74634345  0.15177031  0.98472167  1
  H+  H275  1  0.36648793  0.47500808  0.48620488  1
  H+  H276  1  0.11156821  0.88407384  0.17589070  1
  H+  H277  1  0.33051033  0.69103110  0.77766344  1
  H+  H278  1  0.76913890  0.88738793  0.49404332  1
  H+  H279  1  0.26988692  0.12859445  0.50716007  1
  H+  H280  1  0.33217474  0.14828410  0.44710409  1
  H+  H281  1  0.51914973  0.14123385  0.50634067  1
  H+  H282  1  0.39217019  0.63284207  0.00243010  1
  H+  H283  1  0.72438558  0.35377306  0.66386442  1
  H+  H284  1  0.63077313  0.50038678  0.66633249  1
  H+  H285  1  0.60899288  0.88112320  0.33503466  1
  H+  H286  1  0.89713961  0.11812100  0.51500538  1
  H+  H287  1  0.21979530  0.85831867  0.66315774  1
  H+  H288  1  0.93532418  0.05617901  0.58917141  1
  H+  H289  1  0.97407751  0.37076100  0.99571355  1
  H+  H290  1  0.88548197  0.77217953  0.34271625  1
  H+  H291  1  0.41784623  0.07834704  0.89412164  1
  H+  H292  1  0.22076456  0.43681527  0.69940031  1
  H+  H293  1  0.83074635  0.90619742  0.77189833  1
  H+  H294  1  0.82394475  0.66081931  0.40577110  1
  H+  H295  1  0.60295499  0.63093321  0.82214320  1
  H+  H296  1  0.66168959  0.82697829  0.93839614  1
  H+  H297  1  0.08294942  0.66154272  0.45088556  1
  H+  H298  1  0.61768829  0.11446257  0.50485094  1
  H+  H299  1  0.59424022  0.96306589  0.33244545  1
  H+  H300  1  0.41513235  0.58797141  0.22512398  1
  H+  H301  1  0.58532226  0.15495069  0.73406223  1
  H+  H302  1  0.11058024  0.38662606  0.15087708  1
  H+  H303  1  0.23251667  0.38886975  0.31473908  1
  H+  H304  1  0.07181073  0.65914052  0.11075790  1
  H+  H305  1  0.01618029  0.88483188  0.67270740  1
  H+  H306  1  0.66440837  0.83047141  0.59603518  1
  H+  H307  1  0.18158333  0.81512144  0.82341896  1
  H+  H308  1  0.33156930  0.66769225  0.07194540  1
  H+  H309  1  0.57903570  0.17198541  0.41065028  1
  H+  H310  1  0.63414074  0.07416390  0.25893720  1
  H+  H311  1  0.93624804  0.87996334  0.95111375  1
  H+  H312  1  0.92258074  0.34870513  0.90331557  1
  H+  H313  1  0.13510888  0.02793671  0.66516247  1
  H+  H314  1  0.36075301  0.96947355  0.34580277  1
  H+  H315  1  0.86719955  0.95710877  0.67160202  1
  H+  H316  1  0.65472630  0.57944531  0.89121503  1
  H+  H317  1  0.33639080  0.91404686  0.44313304  1
  H+  H318  1  0.57765821  0.42506848  0.09855869  1
  H+  H319  1  0.82748436  0.92012269  0.39743574  1
  H+  H320  1  0.11084983  0.71728379  0.35252402  1
  H+  H321  1  0.41643498  0.84886063  0.93769216  1
  H+  H322  1  0.51392565  0.63283979  0.15692833  1
  H+  H323  1  0.32510354  0.65599720  0.39929752  1
  H+  H324  1  0.60781421  0.88270651  0.16462850  1
  H+  H325  1  0.82242364  0.92301374  0.10812152  1
  H+  H326  1  0.14352572  0.85360364  0.52077559  1
  H+  H327  1  0.63459737  0.31687304  0.21974983  1
  H+  H328  1  0.59759043  0.43680777  0.49226909  1
  H+  H329  1  0.32688949  0.42170819  0.39315461  1
  H+  H330  1  0.14080033  0.33142387  0.55077374  1
  H+  H331  1  0.14145793  0.44256854  0.76677498  1
  H+  H332  1  0.43176451  0.57520591  0.54630295  1
  H+  H333  1  0.06123903  0.91427004  0.77109022  1
  H+  H334  1  0.27578944  0.63695257  0.16609101  1
  H+  H335  1  0.42812295  0.61230693  0.93668471  1
  H+  H336  1  0.16539776  0.08905974  0.56990918  1
  H+  H337  1  0.06588554  0.63734502  0.76281885  1
  H+  H338  1  0.57873500  0.91231161  0.76633121  1
  H+  H339  1  0.08325389  0.15390627  0.39382519  1
  H+  H340  1  0.90418610  0.57311819  0.93291726  1
  H+  H341  1  0.66364755  0.54716889  0.60364832  1
  H+  H342  1  0.56582689  0.39951401  0.40229533  1
  H+  H343  1  0.07561734  0.41469269  0.06459589  1
  H+  H344  1  0.85458357  0.18364547  0.71538762  1
  H+  H345  1  0.60300752  0.22276787  0.14890817  1
  H+  H346  1  0.99002613  0.38870716  0.50440768  1
  H+  H347  1  0.11527062  0.62654782  0.67315728  1
  H+  H348  1  0.88488719  0.76307824  0.65874358  1
  H+  H349  1  0.38168200  0.34840379  0.84064118  1
  H+  H350  1  0.09057544  0.90383040  0.41295506  1
  H+  H351  1  0.34036773  0.43069790  0.10710661  1
  H+  H352  1  0.40584283  0.82094019  0.23559181  1
  H+  H353  1  0.72042038  0.20652196  0.94298591  1
  H+  H354  1  0.82575603  0.41823061  0.10787313  1
  H+  H355  1  0.85201334  0.22569414  0.16118734  1
  H+  H356  1  0.66032151  0.34074594  0.90231974  1
  H+  H357  1  0.41154074  0.31754000  0.93710620  1
  H+  H358  1  0.07348449  0.17333189  0.06670149  1
  H+  H359  1  0.92644379  0.35121769  0.59616829  1
  H+  H360  1  0.67284463  0.08961196  0.89650654  1
  H+  H361  1  0.83301233  0.41739220  0.44436247  1
  H+  H362  1  0.36812710  0.93858842  0.74084136  1
  H+  H363  1  0.57743434  0.66406622  0.06962036  1
  H+  H364  1  0.91698961  0.83776729  0.56591986  1
  H+  H365  1  0.91688117  0.57627816  0.60369796  1
  H+  H366  1  0.66640060  0.08357058  0.59339040  1
  H+  H367  1  0.61446087  0.23493095  0.50213004  1
  H+  H368  1  0.86906246  0.19213700  0.40675187  1
  H+  H369  1  0.16144449  0.84413970  0.95210752  1
  H+  H370  1  0.92152502  0.33773899  0.23352616  1
  H+  H371  1  0.08637848  0.92316216  0.11977424  1
  H+  H372  1  0.57876378  0.67768157  0.39778113  1
  H+  H373  1  0.90947170  0.58143327  0.24147388  1
  H+  H374  1  0.72470949  0.85882614  0.84090108  1
  H+  H375  1  0.70005868  0.67370071  0.58892111  1
  H+  H376  1  0.34024469  0.16333184  0.72041080  1
  H+  H377  1  0.35170172  0.16305885  0.11551672  1
  H+  H378  1  0.60851412  0.48180653  0.00048324  1
  H+  H379  1  0.91404148  0.08554538  0.26676331  1
  H+  H380  1  0.72114368  0.86163037  0.17443906  1
  H+  H381  1  0.41173170  0.35263891  0.26251783  1
  H+  H382  1  0.82671775  0.16932879  0.06648217  1
  H+  H383  1  0.14990721  0.32742455  0.91020913  1
  O2-  O384  1  0.07906488  0.18456532  0.13424010  1
  O2-  O385  1  0.08885330  0.16814956  0.47744240  1
  O2-  O386  1  0.08038793  0.16500726  0.81085364  1
  O2-  O387  1  0.07491252  0.41037380  0.13337400  1
  O2-  O388  1  0.09486638  0.43569863  0.47035744  1
  O2-  O389  1  0.12073103  0.43722222  0.81179607  1
  O2-  O390  1  0.07501415  0.66262634  0.15573487  1
  O2-  O391  1  0.08331606  0.65792904  0.49627768  1
  O2-  O392  1  0.05744755  0.63088570  0.80889718  1
  O2-  O393  1  0.08481985  0.91913478  0.16475936  1
  O2-  O394  1  0.09595377  0.91208895  0.49446757  1
  O2-  O395  1  0.06470264  0.90961127  0.81636594  1
  O2-  O396  1  0.35800466  0.17922460  0.15896201  1
  O2-  O397  1  0.33241673  0.15501436  0.49560711  1
  O2-  O398  1  0.33162398  0.16053526  0.80505232  1
  O2-  O399  1  0.34018915  0.43120949  0.15159266  1
  O2-  O400  1  0.32667736  0.41270189  0.47759031  1
  O2-  O401  1  0.28594257  0.38522736  0.70909680  1
  O2-  O402  1  0.33259060  0.66333588  0.14460362  1
  O2-  O403  1  0.33466000  0.66018875  0.47823585  1
  O2-  O404  1  0.33072207  0.69550469  0.82301696  1
  O2-  O405  1  0.32247392  0.89840732  0.14845895  1
  O2-  O406  1  0.33812271  0.91100142  0.48878740  1
  O2-  O407  1  0.36274812  0.93611124  0.78642776  1
  O2-  O408  1  0.57068024  0.16052443  0.13719520  1
  O2-  O409  1  0.57712398  0.16662792  0.48808560  1
  O2-  O410  1  0.58039856  0.14751091  0.79700778  1
  O2-  O411  1  0.57925624  0.42201635  0.14373243  1
  O2-  O412  1  0.56649617  0.37678744  0.47930103  1
  O2-  O413  1  0.57775497  0.41257346  0.80882857  1
  O2-  O414  1  0.57594728  0.66431015  0.14154815  1
  O2-  O415  1  0.58589904  0.67050005  0.47467324  1
  O2-  O416  1  0.57632027  0.66478046  0.80594970  1
  O2-  O417  1  0.57736618  0.91300306  0.14902157  1
  O2-  O418  1  0.57276748  0.91057505  0.47267328  1
  O2-  O419  1  0.56870244  0.90568561  0.81188364  1
  O2-  O420  1  0.82240069  0.16684391  0.14273772  1
  O2-  O421  1  0.85624911  0.18675965  0.50129363  1
  O2-  O422  1  0.87671957  0.19335274  0.79353892  1
  O2-  O423  1  0.82343403  0.41587426  0.15324610  1
  O2-  O424  1  0.82804532  0.41422674  0.48951734  1
  O2-  O425  1  0.81765607  0.39656707  0.80616719  1
  O2-  O426  1  0.82907007  0.67259545  0.14666010  1
  O2-  O427  1  0.84131987  0.67959069  0.48431633  1
  O2-  O428  1  0.81671333  0.64512839  0.80570683  1
  O2-  O429  1  0.82268527  0.92069592  0.15326677  1
  O2-  O430  1  0.82941598  0.92045872  0.47877526  1
  O2-  O431  1  0.82985876  0.90947839  0.81740686  1
  O2-  O432  1  0.20520400  0.08559825  0.20428681  1
  O2-  O433  1  0.16731503  0.08553600  0.52473084  1
  O2-  O434  1  0.16330867  0.08001465  0.85584408  1
  O2-  O435  1  0.17188007  0.34688536  0.17655406  1
  O2-  O436  1  0.15773193  0.34002889  0.50633293  1
  O2-  O437  1  0.15436156  0.33191574  0.86253343  1
  O2-  O438  1  0.18536708  0.61167909  0.20698476  1
  O2-  O439  1  0.17694886  0.58465731  0.52827154  1
  O2-  O440  1  0.17011382  0.58733599  0.86097042  1
  O2-  O441  1  0.16629847  0.82740978  0.19768847  1
  O2-  O442  1  0.16939546  0.81915281  0.53580289  1
  O2-  O443  1  0.19297294  0.86417972  0.79807668  1
  O2-  O444  1  0.42817490  0.11590224  0.19887336  1
  O2-  O445  1  0.40550840  0.07925240  0.53900391  1
  O2-  O446  1  0.42388476  0.08870032  0.84908545  1
  O2-  O447  1  0.42170135  0.35495072  0.18384393  1
  O2-  O448  1  0.40864787  0.32185465  0.52373655  1
  O2-  O449  1  0.41323327  0.31984597  0.85415261  1
  O2-  O450  1  0.41497435  0.58563784  0.17995862  1
  O2-  O451  1  0.42761159  0.58330678  0.50244043  1
  O2-  O452  1  0.42323729  0.61281072  0.86702130  1
  O2-  O453  1  0.40988809  0.82461798  0.19011260  1
  O2-  O454  1  0.41765021  0.82564359  0.52143951  1
  O2-  O455  1  0.41825075  0.85204173  0.84646105  1
  O2-  O456  1  0.65520609  0.08166250  0.18413304  1
  O2-  O457  1  0.64901658  0.07939039  0.51462943  1
  O2-  O458  1  0.66028229  0.06495388  0.85362419  1
  O2-  O459  1  0.64936652  0.32671847  0.17588250  1
  O2-  O460  1  0.66146018  0.32077084  0.51618488  1
  O2-  O461  1  0.65556723  0.33840360  0.85723927  1
  O2-  O462  1  0.65647355  0.58440792  0.18973634  1
  O2-  O463  1  0.72173449  0.69766271  0.54884658  1
  O2-  O464  1  0.65399369  0.57778857  0.84546005  1
  O2-  O465  1  0.65937871  0.83001880  0.18891824  1
  O2-  O466  1  0.65968218  0.83183065  0.51863875  1
  O2-  O467  1  0.66341992  0.82558391  0.85517510  1
  O2-  O468  1  0.91359385  0.09012432  0.18780238  1
  O2-  O469  1  0.92291678  0.08093907  0.52139458  1
  O2-  O470  1  0.91508111  0.08349003  0.85012113  1
  O2-  O471  1  0.90874424  0.32949037  0.18918107  1
  O2-  O472  1  0.93223953  0.35606358  0.52419634  1
  O2-  O473  1  0.92964787  0.35960788  0.85833806  1
  O2-  O474  1  0.91065230  0.58282703  0.19623376  1
  O2-  O475  1  0.91308044  0.58264690  0.52837258  1
  O2-  O476  1  0.88957965  0.55637162  0.85381424  1
  O2-  O477  1  0.90301972  0.84040034  0.18334414  1
  O2-  O478  1  0.92437712  0.84732490  0.52109748  1
  O2-  O479  1  0.89787761  0.80544376  0.86005455  1
  O2-  O480  1  0.17632975  0.07090991  0.32836108  1
  O2-  O481  1  0.16898066  0.08786709  0.64940104  1
  O2-  O482  1  0.16137462  0.08474930  0.98560321  1
  O2-  O483  1  0.17443929  0.36766430  0.29670377  1
  O2-  O484  1  0.08971069  0.30440720  0.61590359  1
  O2-  O485  1  0.14756016  0.32377893  0.97785834  1
  O2-  O486  1  0.14597775  0.55345845  0.33934394  1
  O2-  O487  1  0.18210367  0.58393052  0.64895327  1
  O2-  O488  1  0.16261472  0.58212508  0.98128471  1
  O2-  O489  1  0.16192937  0.81749180  0.32246241  1
  O2-  O490  1  0.16285851  0.82949292  0.68318452  1
  O2-  O491  1  0.15532420  0.83723881  0.99608595  1
  O2-  O492  1  0.41467517  0.07358371  0.31866258  1
  O2-  O493  1  0.40721723  0.07860508  0.60658647  1
  O2-  O494  1  0.40946764  0.06732368  0.97321429  1
  O2-  O495  1  0.40369966  0.34917913  0.30760582  1
  O2-  O496  1  0.41194975  0.32656763  0.63943948  1
  O2-  O497  1  0.41107539  0.31691157  0.98229293  1
  O2-  O498  1  0.41134453  0.59241456  0.30896329  1
  O2-  O499  1  0.43454943  0.57146317  0.63098520  1
  O2-  O500  1  0.42814222  0.60857107  0.98376530  1
  O2-  O501  1  0.40279740  0.82054153  0.31423195  1
  O2-  O502  1  0.46205028  0.80213715  0.62760007  1
  O2-  O503  1  0.41854111  0.83974098  0.98149632  1
  O2-  O504  1  0.60400920  0.05850404  0.29988893  1
  O2-  O505  1  0.67370050  0.08886735  0.63872113  1
  O2-  O506  1  0.69732897  0.14795729  0.95821697  1
  O2-  O507  1  0.62407795  0.31633313  0.30085327  1
  O2-  O508  1  0.66273139  0.31893551  0.65143139  1
  O2-  O509  1  0.65861937  0.33728175  0.98350919  1
  O2-  O510  1  0.65888795  0.58374912  0.31807427  1
  O2-  O511  1  0.66302123  0.55992785  0.64682582  1
  O2-  O512  1  0.66508778  0.59077244  0.96829875  1
  O2-  O513  1  0.66461613  0.83710011  0.31143778  1
  O2-  O514  1  0.66477370  0.83048631  0.64203000  1
  O2-  O515  1  0.66267449  0.82669151  0.98357336  1
  O2-  O516  1  0.91481281  0.07947350  0.31201298  1
  O2-  O517  1  0.94919504  0.03642457  0.62904134  1
  O2-  O518  1  0.90843940  0.08827442  0.97741787  1
  O2-  O519  1  0.94941874  0.35612678  0.31382803  1
  O2-  O520  1  0.91700783  0.34200006  0.64229591  1
  O2-  O521  1  0.91264130  0.34136540  0.98079890  1
  O2-  O522  1  0.91193277  0.58055851  0.32346589  1
  O2-  O523  1  0.91963350  0.57441889  0.64967902  1
  O2-  O524  1  0.90402146  0.58456366  0.97732980  1
  O2-  O525  1  0.92471544  0.83467923  0.33933410  1
  O2-  O526  1  0.91287992  0.82465771  0.64594717  1
  O2-  O527  1  0.92557648  0.86335128  0.99397053  1
  O2-  O528  1  0.07386766  0.16723186  0.01933520  1
  O2-  O529  1  0.08437531  0.14446530  0.34969939  1
  O2-  O530  1  0.08589035  0.17095518  0.68392668  1
  O2-  O531  1  0.07702392  0.41962599  0.01728758  1
  O2-  O532  1  0.11233127  0.46317830  0.35612819  1
  O2-  O533  1  0.16865741  0.44267028  0.70214626  1
  O2-  O534  1  0.06913655  0.65882729  0.02565293  1
  O2-  O535  1  0.07479888  0.65837434  0.37106271  1
  O2-  O536  1  0.08294493  0.65395310  0.68964023  1
  O2-  O537  1  0.08079693  0.92946182  0.03823875  1
  O2-  O538  1  0.08703421  0.90133238  0.36776910  1
  O2-  O539  1  0.07486622  0.91950980  0.69117225  1
  O2-  O540  1  0.32764897  0.15230381  0.02738667  1
  O2-  O541  1  0.32904980  0.14298077  0.38229546  1
  O2-  O542  1  0.33680426  0.16617445  0.67531928  1
  O2-  O543  1  0.29110661  0.34840387  0.03277403  1
  O2-  O544  1  0.33148030  0.43122138  0.34866351  1
  O2-  O545  1  0.37607041  0.42456821  0.68956854  1
  O2-  O546  1  0.33306208  0.66884339  0.02516985  1
  O2-  O547  1  0.31558760  0.65248233  0.35434562  1
  O2-  O548  1  0.34675581  0.67983214  0.70210529  1
  O2-  O549  1  0.30368025  0.86751469  0.03982357  1
  O2-  O550  1  0.33049536  0.91052117  0.36427339  1
  O2-  O551  1  0.34394969  0.92671280  0.66318848  1
  O2-  O552  1  0.56754601  0.16448591  0.01757255  1
  O2-  O553  1  0.57841149  0.17436083  0.36484811  1
  O2-  O554  1  0.59084847  0.16304496  0.68514924  1
  O2-  O555  1  0.57675312  0.42293736  0.01777880  1
  O2-  O556  1  0.56835516  0.41613483  0.35854744  1
  O2-  O557  1  0.57946359  0.40233831  0.68991758  1
  O2-  O558  1  0.57646132  0.66577945  0.02273198  1
  O2-  O559  1  0.57756462  0.67231535  0.35199358  1
  O2-  O560  1  0.58643800  0.65985536  0.68402105  1
  O2-  O561  1  0.58809741  0.90972768  0.02407879  1
  O2-  O562  1  0.57237698  0.90530245  0.35104806  1
  O2-  O563  1  0.59913925  0.92505391  0.69083503  1
  O2-  O564  1  0.83062083  0.17372017  0.02058621  1
  O2-  O565  1  0.86840726  0.18936679  0.36229427  1
  O2-  O566  1  0.84651330  0.18756398  0.67081228  1
  O2-  O567  1  0.82409412  0.41833163  0.02662295  1
  O2-  O568  1  0.85898606  0.42737440  0.36638386  1
  O2-  O569  1  0.83133977  0.40860807  0.68623854  1
  O2-  O570  1  0.84310201  0.69643866  -0.04104215  1
  O2-  O571  1  0.82403022  0.65625858  0.36056293  1
  O2-  O572  1  0.83443264  0.65663004  0.68480029  1
  O2-  O573  1  0.82603037  0.93094944  0.02659351  1
  O2-  O574  1  0.82683590  0.91654509  0.35227647  1
  O2-  O575  1  0.82786486  0.90209128  0.69309022  1
