# generated using pymatgen
data_H2O
_symmetry_space_group_name_H-M   'P 1'
_cell_length_a   17.99692486
_cell_length_b   17.99399031
_cell_length_c   21.99780558
_cell_angle_alpha   90.02765091
_cell_angle_beta   90.00102873
_cell_angle_gamma   119.99204309
_symmetry_Int_Tables_number   1
_chemical_formula_structural   H2O
_chemical_formula_sum   'H384 O192'
_cell_volume   6169.79199323
_cell_formula_units_Z   192
loop_
 _symmetry_equiv_pos_site_id
 _symmetry_equiv_pos_as_xyz
  1  'x, y, z'
loop_
 _atom_type_symbol
 _atom_type_oxidation_number
  H+  1.0
  O2-  -2.0
loop_
 _atom_site_type_symbol
 _atom_site_label
 _atom_site_symmetry_multiplicity
 _atom_site_fract_x
 _atom_site_fract_y
 _atom_site_fract_z
 _atom_site_occupancy
  H+  H0  1  0.14298489  0.02808016  0.83928748  1
  H+  H1  1  0.14820557  0.02339637  0.65475340  1
  H+  H2  1  0.77654369  0.39374520  0.82842770  1
  H+  H3  1  0.88133678  0.14371598  0.33526240  1
  H+  H4  1  -0.00601073  0.61367226  0.79648391  1
  H+  H5  1  0.44487596  0.77329221  0.63410244  1
  H+  H6  1  0.09448342  0.92223275  0.76201930  1
  H+  H7  1  0.53506020  0.64131841  0.81154037  1
  H+  H8  1  0.34547113  0.46975593  0.33889419  1
  H+  H9  1  0.71817548  0.11558954  0.67083477  1
  H+  H10  1  0.88362853  0.49083950  0.49366848  1
  H+  H11  1  0.13971212  1.02448502  0.50241540  1
  H+  H12  1  0.90378620  0.61200935  0.50786444  1
  H+  H13  1  0.38665866  0.53064935  0.66271570  1
  H+  H14  1  0.71281568  0.65985142  0.50052569  1
  H+  H15  1  0.86916429  0.48277144  0.32520517  1
  H+  H16  1  0.54071922  0.13898286  0.16623995  1
  H+  H17  1  0.78219507  0.64991836  0.66751447  1
  H+  H18  1  0.89831669  0.85532373  0.97676199  1
  H+  H19  1  0.46339910  0.85312034  0.50977313  1
  H+  H20  1  0.13332994  0.27130112  0.99064412  1
  H+  H21  1  0.34319884  0.26614644  0.15563700  1
  H+  H22  1  0.62675917  0.99007934  0.00779271  1
  H+  H23  1  0.87876372  0.25420245  0.17801147  1
  H+  H24  1  0.37082744  0.26523279  0.33647493  1
  H+  H25  1  0.37487821  0.48534968  0.82798320  1
  H+  H26  1  0.35531047  0.22144418  0.45071007  1
  H+  H27  1  0.03608282  0.14015813  0.34429243  1
  H+  H28  1  0.21910514  0.14348165  0.16971225  1
  H+  H29  1  0.74244123  0.59459579  0.48661104  1
  H+  H30  1  0.27877348  0.63975322  0.83965022  1
  H+  H31  1  0.87072792  0.73101843  0.82228463  1
  H+  H32  1  0.88876965  0.12964604  0.49605454  1
  H+  H33  1  0.85697443  0.26773618  0.65403336  1
  H+  H34  1  0.53629046  0.13582953  0.34142468  1
  H+  H35  1  0.80679766  0.53968451  0.43253982  1
  H+  H36  1  0.11065861  0.38106402  0.33495388  1
  H+  H37  1  0.53155055  0.14716980  0.00661548  1
  H+  H38  1  0.24241299  0.44232342  0.12539449  1
  H+  H39  1  0.94219045  0.30281694  0.99373000  1
  H+  H40  1  0.51947293  0.63681549  0.17585509  1
  H+  H41  1  0.67399387  0.98742536  0.32280125  1
  H+  H42  1  0.02891375  0.40124035  0.48798759  1
  H+  H43  1  0.59161228  0.16258401  0.42774523  1
  H+  H44  1  0.22875533  0.81706180  0.66496535  1
  H+  H45  1  0.59493964  0.12330405  0.69381801  1
  H+  H46  1  0.64501032  0.61808922  0.82621818  1
  H+  H47  1  0.89929926  0.37078122  0.82768217  1
  H+  H48  1  0.63448298  0.38265926  0.65328216  1
  H+  H49  1  0.13348800  0.78529176  0.17692305  1
  H+  H50  1  0.89352701  0.62361758  0.66327728  1
  H+  H51  1  0.34678064  0.63763413  0.49982365  1
  H+  H52  1  0.13583876  0.52658199  0.49312615  1
  H+  H53  1  0.88276308  0.35633076  0.17368778  1
  H+  H54  1  0.55666604  0.35921410  0.11552577  1
  H+  H55  1  0.35291279  0.73227844  0.50013527  1
  H+  H56  1  0.60156675  0.75098727  0.23790036  1
  H+  H57  1  0.88556144  0.61773972  -0.01166348  1
  H+  H58  1  0.74868030  0.88971130  0.51319181  1
  H+  H59  1  0.52413091  0.39876269  0.66785043  1
  H+  H60  1  0.60149860  0.87629033  0.82540629  1
  H+  H61  1  0.12719969  0.89968000  1.02890775  1
  H+  H62  1  0.62901528  0.22784553  0.16242749  1
  H+  H63  1  0.89647288  0.37846990  0.49825442  1
  H+  H64  1  0.39021214  0.61970526  0.17004008  1
  H+  H65  1  0.89369730  0.12586802  0.99396804  1
  H+  H66  1  0.12874148  0.89578973  0.49166674  1
  H+  H67  1  0.34197406  0.71648312  0.33426944  1
  H+  H68  1  0.13499969  0.62466406  0.49822807  1
  H+  H69  1  0.33939196  0.46498924  0.49755872  1
  H+  H70  1  0.09128676  0.36762123  0.99764467  1
  H+  H71  1  0.27548440  0.14046077  0.82603213  1
  H+  H72  1  0.04167927  0.85425182  0.67608737  1
  H+  H73  1  0.34583081  0.71641375  0.68706754  1
  H+  H74  1  0.59397096  0.67341479  0.75218007  1
  H+  H75  1  0.63485594  0.48511830  0.34035887  1
  H+  H76  1  0.33290136  0.47435961  0.15708345  1
  H+  H77  1  0.64063468  1.02256125  0.84336802  1
  H+  H78  1  0.65067823  0.12622073  0.99358436  1
  H+  H79  1  0.86831341  0.47007294  0.17525402  1
  H+  H80  1  0.67516624  0.32852615  0.27358844  1
  H+  H81  1  0.61537451  0.13233716  0.49150241  1
  H+  H82  1  0.04023847  0.89544752  0.00757993  1
  H+  H83  1  0.36251232  0.35005341  0.33264766  1
  H+  H84  1  0.54506214  0.15111078  0.84589235  1
  H+  H85  1  0.36128012  0.88319160  0.01239395  1
  H+  H86  1  0.24096605  0.87184881  0.50854493  1
  H+  H87  1  0.52621941  0.39190939  0.82558384  1
  H+  H88  1  0.78411251  0.17874378  0.46827083  1
  H+  H89  1  0.91781459  0.33247416  0.23657287  1
  H+  H90  1  0.18545583  0.57776704  0.99592220  1
  H+  H91  1  0.87483078  0.13949161  0.82450179  1
  H+  H92  1  0.59617106  0.88534508  0.15258331  1
  H+  H93  1  0.89043517  0.61743436  0.29169878  1
  H+  H94  1  0.78814208  0.64641023  0.32306404  1
  H+  H95  1  0.81830225  0.91323876  0.07968880  1
  H+  H96  1  0.77815821  0.39994967  0.02063175  1
  H+  H97  1  0.90049454  0.29217665  0.49406061  1
  H+  H98  1  0.61833965  0.89726720  0.00557367  1
  H+  H99  1  0.61649605  0.47936683  0.82162383  1
  H+  H100  1  0.56879078  0.68635756  0.48397325  1
  H+  H101  1  0.25803740  0.37310312  0.49565021  1
  H+  H102  1  0.37710475  0.86179488  0.16543042  1
  H+  H103  1  0.85275522  0.47779924  0.67054100  1
  H+  H104  1  1.03382207  0.39760467  0.82632813  1
  H+  H105  1  0.40160747  0.15677270  0.64477700  1
  H+  H106  1  0.78038592  0.13621920  0.16890728  1
  H+  H107  1  0.14484788  0.52505140  0.84254268  1
  H+  H108  1  0.90701600  0.03029223  0.33956491  1
  H+  H109  1  0.16622305  0.32016132  0.73124868  1
  H+  H110  1  0.21039196  0.34618060  0.17347644  1
  H+  H111  1  0.49069682  0.86717820  0.83174412  1
  H+  H112  1  -0.03759050  0.11200995  0.64986557  1
  H+  H113  1  0.13581286  0.87481621  0.67160173  1
  H+  H114  1  0.40496867  0.62733955  0.84558137  1
  H+  H115  1  0.45838120  0.59358172  0.32213878  1
  H+  H116  1  0.11556615  0.13922814  0.00774650  1
  H+  H117  1  0.35569540  0.63353505  0.68204608  1
  H+  H118  1  0.03098259  0.88873059  0.81959010  1
  H+  H119  1  0.22338709  0.60230489  0.32524768  1
  H+  H120  1  0.38049111  0.35564927  0.49656557  1
  H+  H121  1  0.10865193  0.22469624  0.49852928  1
  H+  H122  1  0.62969206  0.87175677  0.66712217  1
  H+  H123  1  0.75436969  0.64472455  1.00083726  1
  H+  H124  1  0.17189900  0.08806031  0.89887552  1
  H+  H125  1  0.35927648  0.38779045  -0.00208588  1
  H+  H126  1  0.71304863  0.08443574  0.52614300  1
  H+  H127  1  0.10456049  0.22019501  0.66480974  1
  H+  H128  1  0.23281987  0.62433881  0.49687327  1
  H+  H129  1  0.62893412  0.82809741  0.28649232  1
  H+  H130  1  0.87170702  0.13954808  0.17640321  1
  H+  H131  1  0.96829624  0.60578949  0.68166873  1
  H+  H132  1  0.52037879  0.37170182  0.17688267  1
  H+  H133  1  0.36947025  0.26807121  0.99490155  1
  H+  H134  1  0.15040762  1.03640552  -0.00366365  1
  H+  H135  1  0.83851010  0.63137151  0.40569935  1
  H+  H136  1  0.36615492  0.76066946  1.01619539  1
  H+  H137  1  0.48455924  0.85871829  0.37219239  1
  H+  H138  1  0.36294357  0.24436190  0.66964039  1
  H+  H139  1  0.47076846  0.61828528  0.89111461  1
  H+  H140  1  0.86898611  0.74026161  0.66823758  1
  H+  H141  1  0.86622972  0.99344964  0.50306140  1
  H+  H142  1  0.91734852  0.84553956  0.27112155  1
  H+  H143  1  0.02492350  0.13726771  0.00908652  1
  H+  H144  1  0.23401364  0.86938932  1.03542256  1
  H+  H145  1  0.11518896  0.47308945  0.33350674  1
  H+  H146  1  0.38961836  0.57702506  0.57162001  1
  H+  H147  1  -0.01113128  0.87370589  0.32542700  1
  H+  H148  1  0.62022779  0.00921025  0.51441099  1
  H+  H149  1  0.62843448  0.39269825  0.34336782  1
  H+  H150  1  0.10146161  0.63352587  1.01481118  1
  H+  H151  1  0.38729761  0.76968523  0.83978194  1
  H+  H152  1  0.57953956  0.69489734  0.32314001  1
  H+  H153  1  0.11749313  0.98292834  0.33522573  1
  H+  H154  1  0.17503821  0.08266656  0.59592392  1
  H+  H155  1  0.13617585  0.62150008  0.17478415  1
  H+  H156  1  0.67443398  0.36143462  0.58627968  1
  H+  H157  1  0.12206895  0.90987837  0.16823849  1
  H+  H158  1  0.72752352  0.38093423  0.65680790  1
  H+  H159  1  0.47431230  0.62074647  0.65512817  1
  H+  H160  1  0.35401459  -0.01010673  0.69655818  1
  H+  H161  1  1.09191195  0.42984373  0.73564696  1
  H+  H162  1  0.15106034  0.80382939  0.86188642  1
  H+  H163  1  0.10800959  0.12974347  0.16381482  1
  H+  H164  1  0.34684010  0.92659748  0.44058416  1
  H+  H165  1  0.61718809  0.64750897  0.65737768  1
  H+  H166  1  0.23566035  0.37058437  0.83883454  1
  H+  H167  1  0.37274103  0.89617059  0.34512721  1
  H+  H168  1  0.22348105  0.11420860  0.49224783  1
  H+  H169  1  0.86833344  0.97477380  0.84285258  1
  H+  H170  1  0.36441305  0.51250216  0.00980253  1
  H+  H171  1  0.73477345  0.36292886  0.33205575  1
  H+  H172  1  0.36073884  0.96893250  0.81715471  1
  H+  H173  1  0.64191287  0.61137401  0.32110238  1
  H+  H174  1  0.51673905  0.88427250  0.67156760  1
  H+  H175  1  0.38490360  0.11648293  0.81961282  1
  H+  H176  1  0.38859201  0.86318001  0.83772392  1
  H+  H177  1  0.16014215  0.76114180  0.32446710  1
  H+  H178  1  0.90336585  0.28448072  0.82896744  1
  H+  H179  1  0.29281036  0.06756655  0.18840189  1
  H+  H180  1  0.06774034  0.44151963  -0.00234752  1
  H+  H181  1  0.37222503  -0.02222983  1.00409365  1
  H+  H182  1  0.82608775  0.42042020  0.76473601  1
  H+  H183  1  0.12759213  0.36568105  0.50796377  1
  H+  H184  1  0.77901260  0.88689282  0.83543650  1
  H+  H185  1  0.63537033  0.77385733  0.83070327  1
  H+  H186  1  0.73379427  0.61759351  0.83050998  1
  H+  H187  1  0.47024471  0.35800576  0.49518581  1
  H+  H188  1  0.11319245  0.62922399  0.33956493  1
  H+  H189  1  0.37344496  -0.02034724  0.17122051  1
  H+  H190  1  0.29256826  0.79739801  0.29352525  1
  H+  H191  1  0.56793569  0.59923367  0.48657212  1
  H+  H192  1  0.62580835  0.22516177  0.34068464  1
  H+  H193  1  0.66052137  0.83260073  0.89120392  1
  H+  H194  1  0.76093367  0.61776163  0.16572965  1
  H+  H195  1  0.22762715  0.62771470  0.16858768  1
  H+  H196  1  0.64154099  0.37232203  0.84444004  1
  H+  H197  1  0.49820202  0.63001408  0.98498612  1
  H+  H198  1  0.88854210  0.89495773  0.35357537  1
  H+  H199  1  0.41937467  0.39726324  0.19640373  1
  H+  H200  1  0.86816835  0.48526126  0.01830497  1
  H+  H201  1  0.63518616  0.53326719  0.98011354  1
  H+  H202  1  0.78743589  0.14037286  0.82732341  1
  H+  H203  1  0.49736280  0.90577562  0.37098868  1
  H+  H204  1  0.11075996  0.13646516  0.49682403  1
  H+  H205  1  0.03642901  0.88357314  0.49385099  1
  H+  H206  1  0.22394031  0.87103591  0.17474996  1
  H+  H207  1  0.34670463  0.97033569  0.66504438  1
  H+  H208  1  0.35652635  0.82603349  0.67388211  1
  H+  H209  1  0.13374988  0.72272896  0.78402109  1
  H+  H210  1  0.71426875  0.84494098  -0.00987932  1
  H+  H211  1  0.60725780  0.47943775  0.48840143  1
  H+  H212  1  0.12403105  0.39735991  0.82918349  1
  H+  H213  1  0.76766232  0.88899432  0.67112478  1
  H+  H214  1  0.38142750  0.18654144  0.01985342  1
  H+  H215  1  0.73880314  0.36071167  0.17984566  1
  H+  H216  1  0.44962664  0.09498740  0.78518089  1
  H+  H217  1  0.97016477  0.89464327  0.64308886  1
  H+  H218  1  0.58905620  0.17271267  0.06662011  1
  H+  H219  1  0.02035551  0.64167617  0.17539923  1
  H+  H220  1  0.87418465  0.60249848  0.19785750  1
  H+  H221  1  0.66899485  0.79564346  0.52401664  1
  H+  H222  1  0.76020246  0.84899136  0.28060157  1
  H+  H223  1  0.64627520  0.35507295  0.18173060  1
  H+  H224  1  0.07126805  0.66711916  0.11177460  1
  H+  H225  1  0.23504085  0.13134164  -0.00751827  1
  H+  H226  1  0.41285100  0.11335751  0.19110732  1
  H+  H227  1  0.33333859  0.17680196  0.76547279  1
  H+  H228  1  -0.01932230  0.11488953  0.84032512  1
  H+  H229  1  0.14389867  0.04040960  0.17629291  1
  H+  H230  1  0.28582204  0.89144083  0.34584002  1
  H+  H231  1  0.98479288  0.37063763  0.32293882  1
  H+  H232  1  0.40329323  0.03065726  0.50342253  1
  H+  H233  1  0.53411581  0.16321462  0.68488283  1
  H+  H234  1  0.61262444  0.73514507  0.66282738  1
  H+  H235  1  0.43653291  0.59192769  0.50760713  1
  H+  H236  1  0.87961902  0.73333387  0.32965033  1
  H+  H237  1  0.13093885  0.73681467  0.49702451  1
  H+  H238  1  0.39528508  0.02785810  0.34025259  1
  H+  H239  1  0.15066513  0.12320785  0.33026185  1
  H+  H240  1  0.63948442  0.02402022  0.16864164  1
  H+  H241  1  0.89517980  0.78500162  0.49603137  1
  H+  H242  1  0.01995702  0.64407916  0.01316836  1
  H+  H243  1  0.50822239  0.12523756  0.49231260  1
  H+  H244  1  0.89671058  0.28115412  0.32314378  1
  H+  H245  1  0.31812308  0.11580308  0.19127017  1
  H+  H246  1  0.39073019  0.28435154  0.84124708  1
  H+  H247  1  0.88690048  0.61367984  0.83755672  1
  H+  H248  1  0.11205359  0.22853812  0.82833416  1
  H+  H249  1  0.64287742  0.53386537  0.65432829  1
  H+  H250  1  0.27945840  0.39684580  0.68155161  1
  H+  H251  1  0.03865511  0.64752818  0.50089763  1
  H+  H252  1  0.85513589  -0.02226594  0.66404974  1
  H+  H253  1  0.58297208  0.42359060  0.72851888  1
  H+  H254  1  0.92365782  0.81934009  0.56303798  1
  H+  H255  1  0.46458676  0.38042528  0.98620061  1
  H+  H256  1  0.39106977  0.37778827  0.65230659  1
  H+  H257  1  0.73993476  0.39186633  0.50631998  1
  H+  H258  1  0.88236425  0.03211141  0.99938342  1
  H+  H259  1  0.78933262  0.15765870  0.00175424  1
  H+  H260  1  0.27190188  0.13338280  0.35212675  1
  H+  H261  1  0.62247505  0.40105279  1.00627574  1
  H+  H262  1  0.65617382  0.11733348  0.32378566  1
  H+  H263  1  0.21956181  0.35964232  0.32309242  1
  H+  H264  1  0.37257905  0.39537155  0.82714122  1
  H+  H265  1  0.62615228  0.60146436  0.17632815  1
  H+  H266  1  0.14271133  0.78158959  1.03520393  1
  H+  H267  1  0.60272123  -0.02036090  0.68150041  1
  H+  H268  1  0.61437163  0.88319102  0.49952952  1
  H+  H269  1  0.97742558  0.10690083  0.17805346  1
  H+  H270  1  0.83046551  0.16746535  0.73165944  1
  H+  H271  1  0.97516870  0.12376338  0.50201977  1
  H+  H272  1  0.13414971  0.26786988  0.32833671  1
  H+  H273  1  0.89888331  0.93376792  0.04406128  1
  H+  H274  1  0.64283245  0.28757808  0.99984000  1
  H+  H275  1  0.21639794  0.61117875  0.66224680  1
  H+  H276  1  0.89221088  0.76722046  0.98740097  1
  H+  H277  1  0.11624239  0.47847835  0.67197285  1
  H+  H278  1  0.37578487  0.60628251  0.32626176  1
  H+  H279  1  0.46718854  0.86388187  0.16492892  1
  H+  H280  1  0.77411786  0.89524457  0.27433090  1
  H+  H281  1  0.27847799  0.14963811  0.66852978  1
  H+  H282  1  0.35987433  0.63439838  1.05719534  1
  H+  H283  1  0.64619689  0.38617230  0.50334265  1
  H+  H284  1  0.62319451  0.50965612  0.16982790  1
  H+  H285  1  0.86409636  0.76619984  0.17803828  1
  H+  H286  1  0.13487910  0.85569621  0.81217693  1
  H+  H287  1  0.64873551  0.11508404  0.84573834  1
  H+  H288  1  0.92942702  0.08153995  0.27563520  1
  H+  H289  1  0.68112958  0.58961518  0.59375514  1
  H+  H290  1  0.16780993  0.58401672  0.59939352  1
  H+  H291  1  0.33293190  0.66471758  0.77811614  1
  H+  H292  1  0.11424683  0.42753080  0.08861784  1
  H+  H293  1  0.41644385  0.34055248  0.59341524  1
  H+  H294  1  0.58414280  0.62967264  -0.03596653  1
  H+  H295  1  0.31383857  0.41119607  0.39979147  1
  H+  H296  1  0.10449977  0.13328718  0.65351031  1
  H+  H297  1  0.09503095  0.17290452  0.40369483  1
  H+  H298  1  0.08893174  0.42297633  0.42817721  1
  H+  H299  1  0.79201069  0.14535984  0.32867692  1
  H+  H300  1  0.31283556  0.21773394  0.09131702  1
  H+  H301  1  0.87499695  0.39860642  0.33636171  1
  H+  H302  1  0.17073401  0.33624390  0.89587025  1
  H+  H303  1  0.27303634  0.87707442  0.81693518  1
  H+  H304  1  0.84933935  0.92417243  0.45251968  1
  H+  H305  1  0.89443707  0.86457140  0.84000094  1
  H+  H306  1  0.79686745  0.71122009  0.05391517  1
  H+  H307  1  0.39793869  0.11810231  0.34171622  1
  H+  H308  1  0.84011406  0.67209625  0.76330342  1
  H+  H309  1  0.12111850  0.24113589  0.17253126  1
  H+  H310  1  0.67577954  0.34954338  0.94181692  1
  H+  H311  1  0.57008562  0.91090990  0.76620005  1
  H+  H312  1  0.65214470  0.08470746  0.61480899  1
  H+  H313  1  0.16721990  0.57948862  0.26398402  1
  H+  H314  1  0.57957011  0.92362307  0.09179618  1
  H+  H315  1  0.90049500  0.08727781  0.59450077  1
  H+  H316  1  0.57478341  0.90496396  0.44233699  1
  H+  H317  1  0.15964298  0.86090997  0.93158821  1
  H+  H318  1  0.84003647  0.38178295  0.66638502  1
  H+  H319  1  0.36237339  0.58342927  0.96845116  1
  H+  H320  1  0.60221153  0.70200309  0.13757967  1
  H+  H321  1  0.18104224  0.09898927  0.26890096  1
  H+  H322  1  0.64852114  0.28735863  0.85164998  1
  H+  H323  1  0.68350614  0.09186818  0.26094066  1
  H+  H324  1  0.66720828  0.85354326  0.60574912  1
  H+  H325  1  0.68008614  0.09153812  0.93661198  1
  H+  H326  1  0.64724519  0.11649250  0.16760736  1
  H+  H327  1  0.14358746  0.57452456  0.93261888  1
  H+  H328  1  0.66988724  0.59090924  0.91946606  1
  H+  H329  1  0.43971453  0.08577894  0.25035560  1
  H+  H330  1  0.14668051  0.61290168  0.83176228  1
  H+  H331  1  0.43658270  0.11169529  0.55335765  1
  H+  H332  1  0.59818850  0.90098977  0.34401230  1
  H+  H333  1  0.93370964  0.59395113  0.57310816  1
  H+  H334  1  0.60924813  0.45505630  0.05850677  1
  H+  H335  1  0.08831054  0.92360086  0.39374652  1
  H+  H336  1  0.41551523  0.07401620  0.91512278  1
  H+  H337  1  0.35278247  0.08019962  0.95994958  1
  H+  H338  1  0.41378593  0.33404962  0.24943613  1
  H+  H339  1  0.67228096  0.58088462  0.26311600  1
  H+  H340  1  0.13150542  0.75058234  0.65147355  1
  H+  H341  1  0.32833240  0.66856789  0.39896049  1
  H+  H342  1  0.56110282  0.64216982  0.38682274  1
  H+  H343  1  0.18776848  0.82724891  0.26662515  1
  H+  H344  1  0.21961880  0.36233895  -0.01031177  1
  H+  H345  1  0.37444680  0.81089267  0.25513509  1
  H+  H346  1  0.36741676  0.73603734  0.14851156  1
  H+  H347  1  0.14841690  0.33217732  0.56904054  1
  H+  H348  1  0.88328091  0.52239150  0.83827229  1
  H+  H349  1  0.84725220  0.18440242  0.41625459  1
  H+  H350  1  0.75715092  0.90388721  0.17458471  1
  H+  H351  1  0.37147161  0.89416217  0.50210231  1
  H+  H352  1  0.59580530  0.17609969  0.78485662  1
  H+  H353  1  0.93337858  0.82895463  0.88929359  1
  H+  H354  1  0.92118251  0.08845856  0.89980952  1
  H+  H355  1  0.91955775  0.58799188  0.93197813  1
  H+  H356  1  0.09458333  0.94108410  0.10913535  1
  H+  H357  1  0.84985209  0.43737578  0.43009941  1
  H+  H358  1  0.40460899  0.57944171  0.23110733  1
  H+  H359  1  0.18017732  0.83270643  0.56665207  1
  H+  H360  1  0.07854485  0.16061343  0.10117225  1
  H+  H361  1  0.85063283  0.13560238  0.66912021  1
  H+  H362  1  0.11301543  0.14125294  0.82841163  1
  H+  H363  1  0.88873947  0.01880354  0.18571919  1
  H+  H364  1  0.41739532  0.81613569  0.95921131  1
  H+  H365  1  0.87422064  0.87238377  0.65095117  1
  H+  H366  1  0.41582524  0.34596911  0.90103795  1
  H+  H367  1  0.58990651  0.42258171  0.42847020  1
  H+  H368  1  0.31676110  0.40779938  0.06024935  1
  H+  H369  1  0.41488105  0.82683499  0.57504463  1
  H+  H370  1  0.09266453  0.66858732  0.39751088  1
  H+  H371  1  0.61999749  0.76674185  0.97499073  1
  H+  H372  1  0.89408866  0.33036347  0.59597656  1
  H+  H373  1  0.32679375  0.85703466  0.73348734  1
  H+  H374  1  0.34277019  0.93173144  0.10652054  1
  H+  H375  1  0.15199931  0.49607103  0.14322121  1
  H+  H376  1  0.34929212  0.43074998  0.73290284  1
  H+  H377  1  0.84052024  0.42269983  0.10916229  1
  H+  H378  1  0.83094959  0.64201176  0.11441489  1
  H+  H379  1  0.80490197  0.90096151  0.36123279  1
  H+  H380  1  0.20797023  0.88647470  0.92957397  1
  H+  H381  1  0.41223457  0.07618446  0.64371025  1
  H+  H382  1  0.14029554  0.37241517  0.68624996  1
  H+  H383  1  0.15520555  0.30879228  0.24031386  1
  O2-  O384  1  0.07463825  0.15874010  0.14708536  1
  O2-  O385  1  0.08043181  0.16612312  0.48053469  1
  O2-  O386  1  0.07960407  0.16804128  0.81447977  1
  O2-  O387  1  0.15842658  0.45212235  0.12075332  1
  O2-  O388  1  0.09084302  0.43005367  0.47382189  1
  O2-  O389  1  0.09762495  0.43186729  0.81558692  1
  O2-  O390  1  0.07815658  0.67244990  0.15702475  1
  O2-  O391  1  0.09818470  0.67467143  0.48316642  1
  O2-  O392  1  0.02538541  0.62880304  0.75629784  1
  O2-  O393  1  0.09832242  0.94614835  0.15397983  1
  O2-  O394  1  0.09534889  0.92298900  0.47786019  1
  O2-  O395  1  0.09338304  0.91925621  0.80708251  1
  O2-  O396  1  0.29261886  0.22575802  0.13155747  1
  O2-  O397  1  0.31736444  0.16116292  0.43704952  1
  O2-  O398  1  0.33633333  0.17071746  0.81038226  1
  O2-  O399  1  0.28607195  0.42404677  0.13599455  1
  O2-  O400  1  0.31726186  0.40715199  0.47918208  1
  O2-  O401  1  0.34293456  0.42653701  0.81094982  1
  O2-  O402  1  0.33905291  0.67200090  0.13690262  1
  O2-  O403  1  0.32114298  0.67144754  0.48208805  1
  O2-  O404  1  0.33955095  0.67163048  0.82364627  1
  O2-  O405  1  0.33664513  0.92313437  0.15167246  1
  O2-  O406  1  0.34750368  0.93065467  0.48616102  1
  O2-  O407  1  0.33669506  0.90633043  0.81100974  1
  O2-  O408  1  0.59661774  0.16878173  0.14410880  1
  O2-  O409  1  0.58566720  0.16121600  0.47378513  1
  O2-  O410  1  0.60418667  0.18044077  0.83039632  1
  O2-  O411  1  0.57611639  0.39075046  0.15374355  1
  O2-  O412  1  0.58175135  0.41970752  0.47513869  1
  O2-  O413  1  0.58548543  0.41816301  0.80778275  1
  O2-  O414  1  0.58454545  0.66949404  0.17535283  1
  O2-  O415  1  0.53722155  0.62692517  0.47014817  1
  O2-  O416  1  0.59598744  0.67253416  0.79764835  1
  O2-  O417  1  0.57276175  0.92091805  0.13882982  1
  O2-  O418  1  0.57672701  0.90711134  0.48671143  1
  O2-  O419  1  0.56864396  0.90671363  0.81289328  1
  O2-  O420  1  0.84364404  0.17193774  0.16169121  1
  O2-  O421  1  0.84202843  0.18871768  0.46241160  1
  O2-  O422  1  0.84478463  0.16980966  0.80811546  1
  O2-  O423  1  0.84017428  0.41291073  0.15543508  1
  O2-  O424  1  0.84474985  0.43332038  0.47545582  1
  O2-  O425  1  0.83471585  0.42347791  0.80961284  1
  O2-  O426  1  0.82463041  0.64812753  0.15811342  1
  O2-  O427  1  0.82352084  0.59798751  0.44538421  1
  O2-  O428  1  0.83826130  0.66932426  0.80855458  1
  O2-  O429  1  0.79473431  0.81871495  0.17279443  1
  O2-  O430  1  0.83815582  0.92989059  0.49611634  1
  O2-  O431  1  0.84100636  0.91095684  0.84155976  1
  O2-  O432  1  0.16568921  0.10140065  0.19266951  1
  O2-  O433  1  0.17012655  0.08616417  0.51642828  1
  O2-  O434  1  0.17367627  0.08863001  0.85332340  1
  O2-  O435  1  0.15380859  0.30320450  0.19326987  1
  O2-  O436  1  0.15221221  0.33085185  0.52481243  1
  O2-  O437  1  0.17380751  0.33958649  0.85030194  1
  O2-  O438  1  0.16963072  0.59264870  0.18602580  1
  O2-  O439  1  0.16652065  0.58877398  0.50973679  1
  O2-  O440  1  0.17270843  0.58712480  0.85798555  1
  O2-  O441  1  0.16635199  0.84444395  0.19389253  1
  O2-  O442  1  0.17953833  0.83685839  0.52143003  1
  O2-  O443  1  0.16299536  0.81949752  0.81899127  1
  O2-  O444  1  0.44429053  0.08502557  0.20459924  1
  O2-  O445  1  0.43878945  0.09559818  0.50964016  1
  O2-  O446  1  0.41824228  0.08425203  0.82376269  1
  O2-  O447  1  0.42753241  0.34840051  0.20348237  1
  O2-  O448  1  0.40955704  0.32347625  0.50905892  1
  O2-  O449  1  0.42204462  0.34527313  0.85396202  1
  O2-  O450  1  0.41387409  0.58390045  0.18589650  1
  O2-  O451  1  0.37948740  0.57115378  0.52616282  1
  O2-  O452  1  0.43938493  0.59840228  0.85214204  1
  O2-  O453  1  0.40590746  0.82783019  0.17729590  1
  O2-  O454  1  0.40465972  0.82785817  0.52631294  1
  O2-  O455  1  0.42222581  0.83394639  0.85086234  1
  O2-  O456  1  0.67437322  0.08379788  0.18449987  1
  O2-  O457  1  0.65330100  0.07025351  0.52905888  1
  O2-  O458  1  0.67632047  0.08155005  0.85889620  1
  O2-  O459  1  0.67808485  0.32622912  0.19549234  1
  O2-  O460  1  0.68162960  0.36505764  0.52462359  1
  O2-  O461  1  0.67572580  0.34882772  0.86393184  1
  O2-  O462  1  0.65756167  0.56949359  0.18399697  1
  O2-  O463  1  0.69575402  0.60004314  0.50821157  1
  O2-  O464  1  0.67234201  0.58650182  0.84433031  1
  O2-  O465  1  0.81120858  0.90918458  0.15975832  1
  O2-  O466  1  0.68306735  0.85520420  0.52709530  1
  O2-  O467  1  0.65750522  0.83372236  0.84596440  1
  O2-  O468  1  0.92022549  0.07937331  0.19921029  1
  O2-  O469  1  0.91384617  0.09762609  0.51540194  1
  O2-  O470  1  0.91899159  0.08413730  0.85480882  1
  O2-  O471  1  0.91120298  0.32356992  0.19042149  1
  O2-  O472  1  0.92903255  0.35027963  0.51283995  1
  O2-  O473  1  0.93476326  0.34587623  0.84052826  1
  O2-  O474  1  0.91016403  0.57659559  0.21089949  1
  O2-  O475  1  0.93970501  0.59193955  0.52790666  1
  O2-  O476  1  0.91796885  0.58401024  0.85234304  1
  O2-  O477  1  0.87685705  0.82627522  0.18574182  1
  O2-  O478  1  0.94204113  0.80302933  0.52493392  1
  O2-  O479  1  0.92913184  0.83374641  0.84462262  1
  O2-  O480  1  0.18231431  0.09473940  0.31444966  1
  O2-  O481  1  0.17520371  0.08351624  0.64141032  1
  O2-  O482  1  0.17463860  0.09488366  0.97778332  1
  O2-  O483  1  0.15852727  0.32547830  0.30731119  1
  O2-  O484  1  0.17105973  0.33584654  0.68833194  1
  O2-  O485  1  0.15952296  0.33032512  0.97324630  1
  O2-  O486  1  0.16339368  0.57209644  0.30928944  1
  O2-  O487  1  0.15883306  0.58178687  0.64335872  1
  O2-  O488  1  0.13077172  0.56376975  0.97739338  1
  O2-  O489  1  0.20871482  0.81458767  0.30529069  1
  O2-  O490  1  0.17412574  0.81097796  0.64524769  1
  O2-  O491  1  0.17218806  0.84359233  1.04488271  1
  O2-  O492  1  0.42845040  0.08913121  0.32554451  1
  O2-  O493  1  0.43873490  0.13453095  0.62696339  1
  O2-  O494  1  0.40509183  0.07646915  0.95872572  1
  O2-  O495  1  0.39346310  0.32161150  0.31630710  1
  O2-  O496  1  0.42066187  0.34599972  0.63858244  1
  O2-  O497  1  0.40583036  0.34873669  0.97058005  1
  O2-  O498  1  0.39757157  0.56957215  0.30833804  1
  O2-  O499  1  0.41142245  0.59063608  0.64585137  1
  O2-  O500  1  0.38893556  0.57824918  1.00565087  1
  O2-  O501  1  0.35024061  0.80126105  0.29691078  1
  O2-  O502  1  0.43374694  0.82094523  0.63674083  1
  O2-  O503  1  0.36752323  0.80043518  0.98474135  1
  O2-  O504  1  0.69150669  0.09392124  0.30619829  1
  O2-  O505  1  0.65466023  0.08500591  0.65957687  1
  O2-  O506  1  0.68237766  0.09634504  0.98205070  1
  O2-  O507  1  0.67366341  0.32850168  0.31908416  1
  O2-  O508  1  0.66724754  0.35473212  0.63600000  1
  O2-  O509  1  0.67234656  0.34900304  0.98741995  1
  O2-  O510  1  0.68107727  0.59014565  0.30776980  1
  O2-  O511  1  0.67593762  0.59383919  0.63817525  1
  O2-  O512  1  0.66267226  0.59360049  0.96487657  1
  O2-  O513  1  0.58676233  0.76815763  0.27656570  1
  O2-  O514  1  0.65918537  0.84135153  0.65005731  1
  O2-  O515  1  0.65916175  0.83038220  0.97165884  1
  O2-  O516  1  0.93290796  0.08874596  0.32105987  1
  O2-  O517  1  0.89961028  0.08340483  0.63964784  1
  O2-  O518  1  0.91976604  0.08962351  0.98234251  1
  O2-  O519  1  0.92345448  0.34170243  0.30798738  1
  O2-  O520  1  0.87242642  0.32519273  0.63776809  1
  O2-  O521  1  0.88538149  0.26323809  0.97457500  1
  O2-  O522  1  0.90882952  0.57545316  0.27798449  1
  O2-  O523  1  0.92155846  0.58956598  0.65166660  1
  O2-  O524  1  0.91919396  0.59073882  0.97760214  1
  O2-  O525  1  0.92423916  0.84115508  0.31525481  1
  O2-  O526  1  0.91238630  0.84662086  0.63651622  1
  O2-  O527  1  0.93068185  0.82563496  0.97037633  1
  O2-  O528  1  0.08485991  0.16784319  0.02540120  1
  O2-  O529  1  0.09741251  0.17326370  0.35808204  1
  O2-  O530  1  0.07016397  0.16168100  0.64832833  1
  O2-  O531  1  0.05146725  0.38525191  0.01587933  1
  O2-  O532  1  0.08315412  0.41335156  0.35160886  1
  O2-  O533  1  0.09300827  0.42075300  0.69105688  1
  O2-  O534  1  0.07683530  0.66699539  0.03327181  1
  O2-  O535  1  0.09193348  0.66805992  0.35281743  1
  O2-  O536  1  0.11625376  0.66296682  0.77107894  1
  O2-  O537  1  0.09646920  0.93400211  0.02623273  1
  O2-  O538  1  0.08290916  0.92250274  0.34892496  1
  O2-  O539  1  0.09998431  0.90142957  0.68274288  1
  O2-  O540  1  0.33779761  0.20300873  0.01599487  1
  O2-  O541  1  0.33232962  0.16384432  0.37101761  1
  O2-  O542  1  0.33874435  0.18382028  0.68417235  1
  O2-  O543  1  0.32331619  0.41536400  0.01552628  1
  O2-  O544  1  0.31355244  0.40921624  0.35440634  1
  O2-  O545  1  0.34357298  0.43001779  0.68737275  1
  O2-  O546  1  0.33694920  0.67258731  0.07009781  1
  O2-  O547  1  0.32713415  0.66033297  0.35439224  1
  O2-  O548  1  0.32170345  0.65712240  0.70194437  1
  O2-  O549  1  0.34784269  0.92653396  0.03030113  1
  O2-  O550  1  0.34553503  0.92711575  0.36356897  1
  O2-  O551  1  0.30575051  0.81767164  0.69845330  1
  O2-  O552  1  0.59101137  0.17755073  0.02105611  1
  O2-  O553  1  0.59784123  0.16337065  0.35422098  1
  O2-  O554  1  0.55994480  0.14393935  0.71596131  1
  O2-  O555  1  0.59295756  0.43487595  0.01690873  1
  O2-  O556  1  0.60429944  0.42761784  0.35960037  1
  O2-  O557  1  0.58496542  0.42823312  0.68287689  1
  O2-  O558  1  0.55006204  0.65902082  -0.04139531  1
  O2-  O559  1  0.56469034  0.63794052  0.34247357  1
  O2-  O560  1  0.58282405  0.67245706  0.67371550  1
  O2-  O561  1  0.59201464  0.92972961  0.02250605  1
  O2-  O562  1  0.65974716  0.92890612  0.33615800  1
  O2-  O563  1  0.57435739  0.91822902  0.69490109  1
  O2-  O564  1  0.85143035  0.18755411  0.01424298  1
  O2-  O565  1  0.85217905  0.17740759  0.34569013  1
  O2-  O566  1  0.81976728  0.16429346  0.68657658  1
  O2-  O567  1  0.83614033  0.42946191  0.03920843  1
  O2-  O568  1  0.84591488  0.43028563  0.35093076  1
  O2-  O569  1  0.81486389  0.41743180  0.68415775  1
  O2-  O570  1  0.80949837  0.67735419  0.02543883  1
  O2-  O571  1  0.84961661  0.66932857  0.33520371  1
  O2-  O572  1  0.84238148  0.68001477  0.68296095  1
  O2-  O573  1  0.83972010  0.91970346  0.03698678  1
  O2-  O574  1  0.86465862  0.92917462  0.37447161  1
  O2-  O575  1  0.83050262  0.91690401  0.67750831  1
