# generated using pymatgen
data_H2O
_symmetry_space_group_name_H-M   'P 1'
_cell_length_a   17.99302922
_cell_length_b   17.99461158
_cell_length_c   22.00546680
_cell_angle_alpha   90.02953476
_cell_angle_beta   89.97408108
_cell_angle_gamma   119.99486366
_symmetry_Int_Tables_number   1
_chemical_formula_structural   H2O
_chemical_formula_sum   'H384 O192'
_cell_volume   6170.64250114
_cell_formula_units_Z   192
loop_
 _symmetry_equiv_pos_site_id
 _symmetry_equiv_pos_as_xyz
  1  'x, y, z'
loop_
 _atom_type_symbol
 _atom_type_oxidation_number
  H+  1.0
  O2-  -2.0
loop_
 _atom_site_type_symbol
 _atom_site_label
 _atom_site_symmetry_multiplicity
 _atom_site_fract_x
 _atom_site_fract_y
 _atom_site_fract_z
 _atom_site_occupancy
  H+  H0  1  0.14224319  1.02819680  0.17427238  1
  H+  H1  1  0.61850395  0.73377399  0.34082631  1
  H+  H2  1  0.14711253  0.10262290  0.82998140  1
  H+  H3  1  0.36001421  0.24064789  0.82527976  1
  H+  H4  1  0.61418640  0.14778182  0.82667227  1
  H+  H5  1  -0.02302408  0.38105586  0.65370472  1
  H+  H6  1  0.89896545  0.61660555  0.32732757  1
  H+  H7  1  0.37879307  0.15115734  0.67509796  1
  H+  H8  1  0.07162226  0.94292077  0.32820060  1
  H+  H9  1  0.66835518  0.58196361  0.94258758  1
  H+  H10  1  0.39736398  0.36132012  0.19401590  1
  H+  H11  1  0.09312714  0.42884871  0.11490308  1
  H+  H12  1  0.58163437  0.87224967  0.78923152  1
  H+  H13  1  0.36998293  0.74307923  1.01302025  1
  H+  H14  1  0.84225496  0.17172468  0.71526140  1
  H+  H15  1  0.78267551  0.13892651  0.49905613  1
  H+  H16  1  0.33137429  0.19625470  0.35671901  1
  H+  H17  1  0.64334678  0.61290782  1.00372915  1
  H+  H18  1  0.39480484  1.02523428  0.00388938  1
  H+  H19  1  0.88148201  0.86194233  0.00842217  1
  H+  H20  1  0.88822898  0.52802191  0.51657299  1
  H+  H21  1  0.60063581  0.90103980  0.59228892  1
  H+  H22  1  0.27144838  0.39364981  0.81253030  1
  H+  H23  1  0.72943592  0.36467394  0.16801845  1
  H+  H24  1  -0.01288617  0.61548050  0.32925165  1
  H+  H25  1  0.71580119  0.60724881  0.84003471  1
  H+  H26  1  0.78559442  0.64984818  0.49086346  1
  H+  H27  1  0.48707826  0.37879427  0.49877723  1
  H+  H28  1  0.23100374  0.36394457  0.19122314  1
  H+  H29  1  0.13531012  0.85337810  0.32524329  1
  H+  H30  1  0.17328118  0.85478623  0.93353058  1
  H+  H31  1  0.37834586  0.34345789  0.33945974  1
  H+  H32  1  0.86284325  0.60798070  0.82686912  1
  H+  H33  1  0.58385598  0.40806666  0.76250178  1
  H+  H34  1  0.75899710  0.63594528  0.16633106  1
  H+  H35  1  0.39440582  0.61864521  0.33632939  1
  H+  H36  1  1.03002498  0.89420180  0.15325060  1
  H+  H37  1  0.11686092  0.26018111  0.33871182  1
  H+  H38  1  0.47504703  0.86900816  0.99141313  1
  H+  H39  1  0.62432246  0.25282935  0.49087162  1
  H+  H40  1  0.87652060  0.48335118  0.33700674  1
  H+  H41  1  0.65857482  0.84287838  0.55343719  1
  H+  H42  1  0.60517592  0.87141065  0.50643147  1
  H+  H43  1  0.88553350  0.27864537  0.17723640  1
  H+  H44  1  0.12876543  0.76729492  0.63767562  1
  H+  H45  1  0.99205014  0.37034819  0.33103961  1
  H+  H46  1  0.87475410  0.11498877  0.50438992  1
  H+  H47  1  0.89702015  0.11667990  0.79753466  1
  H+  H48  1  0.89745599  0.57882211  0.92069652  1
  H+  H49  1  0.77409717  0.38955088  0.81776149  1
  H+  H50  1  0.86924308  0.63996797  0.49657606  1
  H+  H51  1  0.86439449  0.22838841  0.36129041  1
  H+  H52  1  0.24288275  0.10844780  0.36183768  1
  H+  H53  1  0.35266445  0.51023519  0.99405173  1
  H+  H54  1  0.32653602  0.15849446  0.45007909  1
  H+  H55  1  0.52675642  0.31335467  0.78818371  1
  H+  H56  1  0.11534318  0.63622873  0.65198614  1
  H+  H57  1  0.12001082  0.41258170  0.82445007  1
  H+  H58  1  0.36919332  0.49407830  -0.03140713  1
  H+  H59  1  0.24761873  0.64409338  0.99847639  1
  H+  H60  1  0.35940048  0.48129450  0.82103071  1
  H+  H61  1  0.48550292  0.62303787  0.32935539  1
  H+  H62  1  0.78787466  0.14402404  0.80405103  1
  H+  H63  1  1.02356705  0.63566612  0.50208297  1
  H+  H64  1  0.07443696  0.28907317  0.81706346  1
  H+  H65  1  0.60271499  0.71864602  0.17066118  1
  H+  H66  1  0.92648178  0.08345795  0.85204198  1
  H+  H67  1  0.72571961  0.86783758  0.32892243  1
  H+  H68  1  0.79088952  0.89305977  0.19877031  1
  H+  H69  1  0.58671298  0.67179373  0.39883160  1
  H+  H70  1  0.28028977  0.90450573  0.00672997  1
  H+  H71  1  0.28070540  0.40407212  0.65539916  1
  H+  H72  1  0.42791794  0.82866138  0.55962393  1
  H+  H73  1  0.11885747  0.48353047  0.66559297  1
  H+  H74  1  0.80663479  0.87431187  0.49346147  1
  H+  H75  1  0.14208423  0.36610448  0.18478484  1
  H+  H76  1  0.45616643  0.88334193  0.69514672  1
  H+  H77  1  0.36351494  0.13861675  0.16490671  1
  H+  H78  1  0.89228443  0.84462922  0.64267456  1
  H+  H79  1  0.04468469  0.66368853  0.02026872  1
  H+  H80  1  0.60367949  0.60628850  0.65821191  1
  H+  H81  1  0.64036694  0.24565299  0.33985318  1
  H+  H82  1  0.37291727  0.39468186  0.49754935  1
  H+  H83  1  0.86566131  0.12111465  0.65397444  1
  H+  H84  1  0.54424384  0.65867909  0.00902538  1
  H+  H85  1  0.27504844  0.13833386  0.16629143  1
  H+  H86  1  0.60766773  0.23310244  0.15747884  1
  H+  H87  1  0.73491363  0.37748883  0.50488755  1
  H+  H88  1  0.87799839  0.48325122  0.99413428  1
  H+  H89  1  0.88342268  0.11756619  0.34080723  1
  H+  H90  1  0.41885621  0.32591858  0.94033519  1
  H+  H91  1  0.16307780  0.02343557  0.67498047  1
  H+  H92  1  0.48092561  0.11885256  0.65982559  1
  H+  H93  1  0.11863823  0.20386106  0.81024639  1
  H+  H94  1  0.43256186  0.84816962  0.41321246  1
  H+  H95  1  0.39902516  0.88942756  0.13991450  1
  H+  H96  1  0.34292162  0.74382596  0.81666879  1
  H+  H97  1  0.64280043  0.36782767  0.17699563  1
  H+  H98  1  0.12832429  0.51931759  0.50586444  1
  H+  H99  1  0.53305655  0.38274312  0.01163355  1
  H+  H100  1  0.64894809  0.77327698  1.01570914  1
  H+  H101  1  0.64175724  0.14711928  0.35178218  1
  H+  H102  1  0.53034622  0.38921775  0.17103211  1
  H+  H103  1  0.37942316  0.36854461  0.84016153  1
  H+  H104  1  0.60626485  0.63127210  0.16820292  1
  H+  H105  1  0.89910168  0.03525508  0.19186396  1
  H+  H106  1  0.39646402  0.27434904  0.18053909  1
  H+  H107  1  0.13014527  0.88617411  0.67379043  1
  H+  H108  1  0.14286428  0.37097851  0.64972303  1
  H+  H109  1  0.33142111  1.02531288  0.20659184  1
  H+  H110  1  0.83622536  0.71689793  0.82157176  1
  H+  H111  1  0.11243356  0.89556115  -0.00122169  1
  H+  H112  1  0.62463705  0.40729395  0.48950688  1
  H+  H113  1  0.23471468  0.61521871  0.33867749  1
  H+  H114  1  0.43110431  0.34847628  0.56058007  1
  H+  H115  1  0.61893090  0.47504930  0.01329782  1
  H+  H116  1  0.88217578  1.02113705  0.50431293  1
  H+  H117  1  0.63570526  0.73600092  0.67613043  1
  H+  H118  1  0.86455858  0.38575044  0.49280170  1
  H+  H119  1  0.64041451  0.63090106  0.49954176  1
  H+  H120  1  0.14892752  0.11279212  0.98984051  1
  H+  H121  1  0.11005263  0.20767025  0.64563929  1
  H+  H122  1  0.88605038  0.26703176  0.50586335  1
  H+  H123  1  0.85496095  0.97719881  0.33879319  1
  H+  H124  1  0.88926115  0.11349394  1.02568127  1
  H+  H125  1  0.11225373  0.49578850  0.82972950  1
  H+  H126  1  0.64663800  1.03798990  0.34676509  1
  H+  H127  1  0.18588510  0.83431767  0.27376718  1
  H+  H128  1  0.06210799  0.29110441  0.99791172  1
  H+  H129  1  0.12139832  0.72834958  0.34521831  1
  H+  H130  1  0.48211843  0.87100713  0.35319766  1
  H+  H131  1  0.53288864  0.16187106  0.49135962  1
  H+  H132  1  0.64224723  0.02705331  0.81254998  1
  H+  H133  1  0.87141664  0.15392491  0.17873526  1
  H+  H134  1  0.10962549  0.38440942  0.34517823  1
  H+  H135  1  0.61496307  0.22887150  0.00395934  1
  H+  H136  1  0.38046639  0.48003161  0.34337916  1
  H+  H137  1  0.64342248  0.52620022  0.17953438  1
  H+  H138  1  0.14001106  0.02154188  0.98303947  1
  H+  H139  1  0.49328099  0.12507950  1.00380684  1
  H+  H140  1  0.72722620  0.86245578  0.84876048  1
  H+  H141  1  0.67793160  0.59264179  0.23793119  1
  H+  H142  1  0.85531417  0.49306365  0.66925965  1
  H+  H143  1  0.75627520  0.86140554  0.65130102  1
  H+  H144  1  0.41803651  0.08121674  0.24209630  1
  H+  H145  1  0.07979339  0.87958050  0.83262073  1
  H+  H146  1  0.40567475  0.03819257  0.33028743  1
  H+  H147  1  0.94804162  0.85028781  0.83884992  1
  H+  H148  1  0.14632252  0.53183490  0.18431664  1
  H+  H149  1  0.39913316  0.53274662  0.61012851  1
  H+  H150  1  0.46446286  0.85996453  0.84374592  1
  H+  H151  1  0.39363975  0.37799077  0.64797589  1
  H+  H152  1  0.01051994  0.86488148  0.48188076  1
  H+  H153  1  0.35934110  0.71115988  0.64310574  1
  H+  H154  1  0.13092913  0.61130309  0.50742528  1
  H+  H155  1  0.85211391  0.96583895  0.80999317  1
  H+  H156  1  1.03567074  0.63612050  0.62288545  1
  H+  H157  1  0.45219670  0.83917802  0.69396429  1
  H+  H158  1  0.87354582  0.39270040  0.99620426  1
  H+  H159  1  0.89504191  0.85811747  0.18970315  1
  H+  H160  1  0.90060465  0.89689556  0.47541361  1
  H+  H161  1  1.03241027  0.11684528  0.79727668  1
  H+  H162  1  0.70071252  0.82437214  0.15409350  1
  H+  H163  1  0.35303096  0.89014850  0.64966465  1
  H+  H164  1  0.51070067  0.86536194  0.15437868  1
  H+  H165  1  0.11735429  0.39340904  0.49166128  1
  H+  H166  1  0.66544732  0.09690564  0.76411994  1
  H+  H167  1  0.53343177  0.87358858  0.06680513  1
  H+  H168  1  0.27754906  0.12796163  0.00884948  1
  H+  H169  1  0.14507421  0.10204669  0.67290166  1
  H+  H170  1  0.51419086  0.63194369  0.49375017  1
  H+  H171  1  0.28365493  0.64407240  0.16407194  1
  H+  H172  1  0.03302443  0.13317408  0.03441496  1
  H+  H173  1  0.74561700  0.61466634  0.67336555  1
  H+  H174  1  0.77987022  0.14818389  0.18349832  1
  H+  H175  1  0.21771686  0.85781378  0.64124737  1
  H+  H176  1  0.28870909  0.14772299  0.67692109  1
  H+  H177  1  0.19944464  0.35940254  0.99718407  1
  H+  H178  1  0.46450570  0.36098717  0.83836031  1
  H+  H179  1  0.77383786  0.88486129  0.03829670  1
  H+  H180  1  0.86273158  0.97209487  0.04985367  1
  H+  H181  1  0.62302434  0.49547473  0.48629842  1
  H+  H182  1  0.86923308  0.64069418  0.01068727  1
  H+  H183  1  0.60817648  0.63432028  0.83653179  1
  H+  H184  1  0.39723248  0.25959057  0.99569776  1
  H+  H185  1  0.28005703  0.90019030  0.34511341  1
  H+  H186  1  0.11981594  0.48106769  0.34285132  1
  H+  H187  1  0.36909221  0.34993835  0.03280503  1
  H+  H188  1  0.65505071  0.62888002  0.32651200  1
  H+  H189  1  0.42307319  0.66540694  0.98827532  1
  H+  H190  1  0.86762873  0.74943165  0.64507910  1
  H+  H191  1  0.68278409  0.83555833  0.95873185  1
  H+  H192  1  0.77648434  0.63313741  0.01096998  1
  H+  H193  1  0.21566592  0.62964731  0.83789072  1
  H+  H194  1  0.23005135  0.61134486  0.65214374  1
  H+  H195  1  0.61836808  0.23813852  0.83212243  1
  H+  H196  1  0.77445573  0.13935334  0.65649299  1
  H+  H197  1  0.96415929  0.10894587  0.64725832  1
  H+  H198  1  0.79672986  0.65587666  0.33683322  1
  H+  H199  1  0.89936012  0.52833655  0.17041388  1
  H+  H200  1  0.14809177  0.62164277  0.18142542  1
  H+  H201  1  1.02036642  0.89239984  0.99679238  1
  H+  H202  1  0.20127745  0.86650952  0.83397067  1
  H+  H203  1  0.16080501  0.77689550  0.18512570  1
  H+  H204  1  0.25534056  0.85618594  0.18281512  1
  H+  H205  1  0.74313238  0.36779071  0.32329395  1
  H+  H206  1  0.87391726  0.23693943  0.80699604  1
  H+  H207  1  0.02529805  0.39171647  0.16857430  1
  H+  H208  1  0.37622156  0.23600685  0.49740736  1
  H+  H209  1  0.33839823  0.97816865  0.81147073  1
  H+  H210  1  0.86318762  0.40355100  0.66682447  1
  H+  H211  1  0.09581792  0.63890097  0.86529345  1
  H+  H212  1  0.61999225  0.14963746  0.67342595  1
  H+  H213  1  0.38890816  0.87559041  0.99284667  1
  H+  H214  1  0.96500553  0.32314781  0.95968338  1
  H+  H215  1  0.63908700  0.40788357  0.33482746  1
  H+  H216  1  0.49845430  0.12218543  0.32547249  1
  H+  H217  1  0.74133383  0.12763521  0.35332192  1
  H+  H218  1  0.73363747  0.37648279  0.65721790  1
  H+  H219  1  0.85064384  0.67450746  0.39833099  1
  H+  H220  1  0.61225629  0.72477788  0.84142519  1
  H+  H221  1  0.60433021  0.87251806  0.02170900  1
  H+  H222  1  0.14743247  0.11778352  0.18741947  1
  H+  H223  1  0.84562748  0.87454448  0.82496349  1
  H+  H224  1  0.39190436  0.11712551  0.00644069  1
  H+  H225  1  0.62773582  0.04055825  0.50584281  1
  H+  H226  1  0.10364146  0.20348297  0.50917050  1
  H+  H227  1  0.12041814  0.63909687  0.34620700  1
  H+  H228  1  0.64474212  0.86463157  0.87342576  1
  H+  H229  1  0.47021792  0.60526896  0.17920009  1
  H+  H230  1  0.85580376  0.21613782  -0.00156829  1
  H+  H231  1  0.46904942  0.11074016  0.83325726  1
  H+  H232  1  0.61466324  0.48505832  0.68115735  1
  H+  H233  1  0.14509800  -0.03201116  0.50754175  1
  H+  H234  1  0.36471435  0.46986352  0.17981819  1
  H+  H235  1  0.91602654  0.78524565  0.47775395  1
  H+  H236  1  0.63316451  0.01721847  1.01001464  1
  H+  H237  1  0.63680424  0.36332687  0.84182353  1
  H+  H238  1  0.91944015  0.06119731  0.98605250  1
  H+  H239  1  0.94161308  0.61212200  0.67327813  1
  H+  H240  1  0.64858404  0.03756964  0.64206936  1
  H+  H241  1  0.16499945  0.57906913  0.59519876  1
  H+  H242  1  0.15567189  0.56052820  1.00306486  1
  H+  H243  1  0.39877777  0.29262792  0.65429921  1
  H+  H244  1  0.64105697  0.13610291  0.50343469  1
  H+  H245  1  0.47697853  0.61606553  0.83555863  1
  H+  H246  1  0.65740174  1.02610842  0.20055867  1
  H+  H247  1  0.64678913  0.36712360  0.99828643  1
  H+  H248  1  0.66243738  0.54291488  0.32571089  1
  H+  H249  1  0.36764513  0.89795016  0.35450868  1
  H+  H250  1  0.87476444  0.39323444  0.33715492  1
  H+  H251  1  0.41904529  0.77811474  0.14111542  1
  H+  H252  1  0.73569519  0.36694840  -0.00766710  1
  H+  H253  1  0.36136777  -0.01751829  0.65583438  1
  H+  H254  1  0.20404410  0.38747056  -0.02987656  1
  H+  H255  1  0.37351933  0.48654882  0.50377752  1
  H+  H256  1  0.00742891  0.63837004  0.85250429  1
  H+  H257  1  0.04621260  0.42626275  0.01231715  1
  H+  H258  1  0.64230107  0.41275997  0.68095663  1
  H+  H259  1  0.12745433  0.21700175  0.02820630  1
  H+  H260  1  0.30538032  0.92660585  0.49542537  1
  H+  H261  1  0.67116220  0.86752979  0.64924521  1
  H+  H262  1  0.83678578  0.61527941  0.67204587  1
  H+  H263  1  0.12297244  0.23295577  0.17797774  1
  H+  H264  1  0.67297224  0.35009533  0.56366096  1
  H+  H265  1  0.08203171  0.93321772  0.09207428  1
  H+  H266  1  0.38504715  0.11631710  0.83371398  1
  H+  H267  1  0.98682132  0.61678489  0.94384185  1
  H+  H268  1  0.88057999  0.36610794  0.82090235  1
  H+  H269  1  0.87257372  0.97410753  0.66858019  1
  H+  H270  1  0.09719849  0.16789919  0.12147168  1
  H+  H271  1  0.03505885  0.63967265  0.16746889  1
  H+  H272  1  0.13425902  0.66670263  0.01134237  1
  H+  H273  1  0.97282612  0.35892817  0.50331383  1
  H+  H274  1  0.24683216  0.37743676  0.49754033  1
  H+  H275  1  0.15036389  0.79819126  0.99480095  1
  H+  H276  1  0.26601392  0.62213370  0.50449683  1
  H+  H277  1  0.41464491  0.05487387  0.50527162  1
  H+  H278  1  0.63755725  0.87698802  0.17804596  1
  H+  H279  1  0.88308869  0.77538731  -0.00039467  1
  H+  H280  1  0.13658365  0.43180245  0.01228147  1
  H+  H281  1  0.36726247  0.72666226  0.36393237  1
  H+  H282  1  0.58925136  0.72768070  0.49401082  1
  H+  H283  1  0.77235413  0.12421224  0.00644328  1
  H+  H284  1  0.01266018  0.12673735  0.35085389  1
  H+  H285  1  0.62245583  0.90004492  0.34323389  1
  H+  H286  1  0.59274939  0.93178809  0.40402573  1
  H+  H287  1  0.16247416  0.31215650  0.46252917  1
  H+  H288  1  0.40531655  0.14049075  0.50920343  1
  H+  H289  1  0.08203298  0.66478399  0.44256824  1
  H+  H290  1  0.40794440  0.82293390  0.90393630  1
  H+  H291  1  0.17983433  0.93756103  0.73152919  1
  H+  H292  1  0.82886091  0.66882474  0.10360773  1
  H+  H293  1  0.66482591  0.83250106  0.27045160  1
  H+  H294  1  0.40929796  0.30739385  0.28589966  1
  H+  H295  1  0.46085058  0.93310998  0.48861850  1
  H+  H296  1  0.15237566  0.32288120  0.28128535  1
  H+  H297  1  0.67318855  0.10790716  0.59248872  1
  H+  H298  1  0.92820603  0.78302788  0.33226267  1
  H+  H299  1  0.15053825  0.06316442  0.27568277  1
  H+  H300  1  0.60217732  0.19091262  0.40841005  1
  H+  H301  1  0.90079288  0.07567375  0.58644280  1
  H+  H302  1  0.35807908  0.62552181  0.51130424  1
  H+  H303  1  0.33341367  0.65800570  0.41630030  1
  H+  H304  1  0.17286884  0.34536543  0.58918654  1
  H+  H305  1  0.54775786  0.52538646  0.61717944  1
  H+  H306  1  0.64219037  0.28861714  0.65743753  1
  H+  H307  1  0.91597400  0.35561287  0.22650941  1
  H+  H308  1  0.67503533  0.34266119  0.90196048  1
  H+  H309  1  0.00126880  0.22770682  0.94985053  1
  H+  H310  1  0.18044025  0.59121330  0.27631849  1
  H+  H311  1  0.58105783  0.17482198  0.06697104  1
  H+  H312  1  0.84045115  0.90932284  0.72565849  1
  H+  H313  1  0.91761759  0.09527516  0.27896033  1
  H+  H314  1  0.08326208  0.16406903  0.71047784  1
  H+  H315  1  0.35212699  0.73842128  0.55099028  1
  H+  H316  1  0.41419551  0.58400801  0.23992976  1
  H+  H317  1  0.15946996  0.06794593  0.57747109  1
  H+  H318  1  0.00860589  0.12376567  0.50360377  1
  H+  H319  1  0.10147305  0.68092140  0.11162189  1
  H+  H320  1  0.91488487  0.34773708  0.59678605  1
  H+  H321  1  0.94008583  0.13428642  0.91696790  1
  H+  H322  1  0.60693541  0.43834557  0.39193815  1
  H+  H323  1  0.33727959  0.67699280  0.71124399  1
  H+  H324  1  0.68062082  0.09303505  0.25402849  1
  H+  H325  1  0.63880467  0.94538115  0.12772092  1
  H+  H326  1  0.54823561  0.89285713  0.65021121  1
  H+  H327  1  0.83909419  0.16639758  0.42397908  1
  H+  H328  1  0.33180593  0.15986332  0.07248464  1
  H+  H329  1  0.84107285  0.42316513  0.43477492  1
  H+  H330  1  0.25693987  0.13338015  0.83072262  1
  H+  H331  1  0.97306057  0.37293823  0.82585793  1
  H+  H332  1  0.11881377  0.77835648  0.85826339  1
  H+  H333  1  0.58797485  0.41931568  0.10992616  1
  H+  H334  1  0.51667623  0.14739480  0.15469128  1
  H+  H335  1  0.17706136  0.59968498  0.90582979  1
  H+  H336  1  0.33412289  0.41306710  0.03286657  1
  H+  H337  1  0.35038759  0.42681097  0.40422444  1
  H+  H338  1  0.87201550  0.52225047  0.82445826  1
  H+  H339  1  0.86338061  0.39012736  0.15140453  1
  H+  H340  1  0.16443269  0.86065180  0.55442066  1
  H+  H341  1  0.93675620  0.29020750  0.28838239  1
  H+  H342  1  0.58480786  0.66233061  0.07605017  1
  H+  H343  1  0.92961273  0.58297803  0.23163540  1
  H+  H344  1  0.86242507  0.73243378  0.16748309  1
  H+  H345  1  0.53243436  0.91168446  0.75850463  1
  H+  H346  1  0.90567538  0.58466086  0.57782678  1
  H+  H347  1  0.89019106  0.82386086  0.89939058  1
  H+  H348  1  0.35363257  0.95018204  0.43293340  1
  H+  H349  1  0.11002816  0.08557813  0.33303379  1
  H+  H350  1  0.98037284  0.12958953  0.91761343  1
  H+  H351  1  0.83766653  0.91362071  0.13464709  1
  H+  H352  1  0.11045441  0.30227677  0.88316358  1
  H+  H353  1  0.59947337  0.68056617  0.73808308  1
  H+  H354  1  0.34236243  0.92362361  0.06659756  1
  H+  H355  1  0.66128979  0.59446827  0.55811067  1
  H+  H356  1  0.30855987  0.91840431  0.75215820  1
  H+  H357  1  0.38959789  0.61782460  0.83214909  1
  H+  H358  1  0.42987151  0.10133913  0.59729554  1
  H+  H359  1  0.18453396  0.08995650  0.89629516  1
  H+  H360  1  0.67937174  0.33272901  0.26491835  1
  H+  H361  1  0.80425633  0.65466648  0.76099296  1
  H+  H362  1  0.34307346  0.67505802  0.06916420  1
  H+  H363  1  0.33637577  0.39513851  0.12898571  1
  H+  H364  1  0.07441625  0.14953490  0.40847897  1
  H+  H365  1  0.62694065  0.51957533  0.84787668  1
  H+  H366  1  0.82904359  0.42095536  0.75411420  1
  H+  H367  1  0.63908868  0.10758089  1.00462041  1
  H+  H368  1  0.36628224  0.63285824  0.16325899  1
  H+  H369  1  0.05434701  0.90381921  0.77113854  1
  H+  H370  1  0.44760811  0.63022494  0.93023833  1
  H+  H371  1  0.33853175  0.18075954  0.76208245  1
  H+  H372  1  0.38894947  0.97106783  0.15941928  1
  H+  H373  1  0.94091304  0.82427461  0.23485611  1
  H+  H374  1  0.83326232  0.91278719  0.39291014  1
  H+  H375  1  0.08652478  0.42571300  0.72482231  1
  H+  H376  1  0.83653924  0.42292051  0.09265045  1
  H+  H377  1  0.58875487  0.17870755  0.73348288  1
  H+  H378  1  0.34488155  0.44356167  0.71093450  1
  H+  H379  1  0.08221518  0.41999124  0.43398750  1
  H+  H380  1  0.90490760  0.33275967  0.91415731  1
  H+  H381  1  0.98721895  0.12450916  0.18838368  1
  H+  H382  1  0.11522764  0.08074629  0.51847672  1
  H+  H383  1  0.26987800  0.72352065  0.76834376  1
  O2-  O384  1  0.09267415  0.17023154  0.16602208  1
  O2-  O385  1  0.07029371  0.14671329  0.49065500  1
  O2-  O386  1  0.09610015  0.14653010  0.79160388  1
  O2-  O387  1  0.08860196  0.42154824  0.15930242  1
  O2-  O388  1  0.08026158  0.41731751  0.47971914  1
  O2-  O389  1  0.08436210  0.43647156  0.81120473  1
  O2-  O390  1  0.09850195  0.67238346  0.15613492  1
  O2-  O391  1  0.08362686  0.66079701  0.48743667  1
  O2-  O392  1  0.06249520  0.66780725  0.87556078  1
  O2-  O393  1  0.08606480  0.93750574  0.13687599  1
  O2-  O394  1  0.13207203  0.91210747  0.48658293  1
  O2-  O395  1  0.04295108  0.90104799  0.81510474  1
  O2-  O396  1  0.33452391  0.16854705  0.14744974  1
  O2-  O397  1  0.34818157  0.17274786  0.49325250  1
  O2-  O398  1  0.33233338  0.17969104  0.80892197  1
  O2-  O399  1  0.33524081  0.40605274  0.17337018  1
  O2-  O400  1  0.34084314  0.42527990  0.48575928  1
  O2-  O401  1  0.33275658  0.42210554  0.80317119  1
  O2-  O402  1  0.34188928  0.66762466  0.14548745  1
  O2-  O403  1  0.32885690  0.65665723  0.49512786  1
  O2-  O404  1  0.29753704  0.69639925  0.78977809  1
  O2-  O405  1  0.36014781  0.91475342  0.13875477  1
  O2-  O406  1  0.36382296  0.95363039  0.47813726  1
  O2-  O407  1  0.29295134  0.92216307  0.79447578  1
  O2-  O408  1  0.57372519  0.17636979  0.13674242  1
  O2-  O409  1  0.59440623  0.19236169  0.47360891  1
  O2-  O410  1  0.58473324  0.17890829  0.81404824  1
  O2-  O411  1  0.59116895  0.42313885  0.15512364  1
  O2-  O412  1  0.59349151  0.43485781  0.47160709  1
  O2-  O413  1  0.55475247  0.37257523  0.80263804  1
  O2-  O414  1  0.57274383  0.65754601  0.15290960  1
  O2-  O415  1  0.57443712  0.67057591  0.47738350  1
  O2-  O416  1  0.58145087  0.66791839  0.82122952  1
  O2-  O417  1  0.61605197  0.92291216  0.16826114  1
  O2-  O418  1  0.57508388  0.93997369  0.47838312  1
  O2-  O419  1  0.56645351  0.91684045  0.79475301  1
  O2-  O420  1  0.84032150  0.18426011  0.16735770  1
  O2-  O421  1  0.84261509  0.16435573  0.48542019  1
  O2-  O422  1  0.84891173  0.17656005  0.79030705  1
  O2-  O423  1  0.83203379  0.42008205  0.13768384  1
  O2-  O424  1  0.83756200  0.42048262  0.47980561  1
  O2-  O425  1  0.83330141  0.41887839  0.80091909  1
  O2-  O426  1  0.82323562  0.67113807  0.14920829  1
  O2-  O427  1  0.84431165  0.67130683  0.47469190  1
  O2-  O428  1  0.80559237  0.65599824  0.80764992  1
  O2-  O429  1  0.84844855  0.92084137  0.17961919  1
  O2-  O430  1  0.85860157  0.91989399  0.47492332  1
  O2-  O431  1  0.81453456  0.90297777  0.80585742  1
  O2-  O432  1  0.17693091  0.08457568  0.19641344  1
  O2-  O433  1  0.13764262  0.04567450  0.53653296  1
  O2-  O434  1  0.18951791  0.08969721  0.85010756  1
  O2-  O435  1  0.16785577  0.33245297  0.20088980  1
  O2-  O436  1  0.17964867  0.34136269  0.50173138  1
  O2-  O437  1  0.12693997  0.30503901  0.83997316  1
  O2-  O438  1  0.18050484  0.59301681  0.19677286  1
  O2-  O439  1  0.16130870  0.57919797  0.52195382  1
  O2-  O440  1  0.16221060  0.59214937  0.86157983  1
  O2-  O441  1  0.19870109  0.83550510  0.20161622  1
  O2-  O442  1  0.18962793  0.88650914  0.51375123  1
  O2-  O443  1  0.14818485  0.84228355  0.85975171  1
  O2-  O444  1  0.39197263  0.06550980  0.19840382  1
  O2-  O445  1  0.44411452  0.11434099  0.52266122  1
  O2-  O446  1  0.40722543  0.07754382  0.84291733  1
  O2-  O447  1  0.43150861  0.33179717  0.19946069  1
  O2-  O448  1  0.42732025  0.34685300  0.51493506  1
  O2-  O449  1  0.40585489  0.33529454  0.85672928  1
  O2-  O450  1  0.40955662  0.57660765  0.19434367  1
  O2-  O451  1  0.41879235  0.57842145  0.52633177  1
  O2-  O452  1  0.41469720  0.58504060  0.84877188  1
  O2-  O453  1  0.45599205  0.83968163  0.12990563  1
  O2-  O454  1  0.48065317  0.89064337  0.48827441  1
  O2-  O455  1  0.41030702  0.81322803  0.85931989  1
  O2-  O456  1  0.68266503  0.08817953  0.20957169  1
  O2-  O457  1  0.66472560  0.10117717  0.52128624  1
  O2-  O458  1  0.67625177  0.09001979  0.80670492  1
  O2-  O459  1  0.67155274  0.33422773  0.18792102  1
  O2-  O460  1  0.67320825  0.35004705  0.51799004  1
  O2-  O461  1  0.67381923  0.34039738  0.85630453  1
  O2-  O462  1  0.67453477  0.58877068  0.19128492  1
  O2-  O463  1  0.67299100  0.60244122  0.51391613  1
  O2-  O464  1  0.65786200  0.57871493  0.86235481  1
  O2-  O465  1  0.66442142  0.81767600  0.18907722  1
  O2-  O466  1  0.60466305  0.82432878  0.53146856  1
  O2-  O467  1  0.67350403  0.83106272  0.87458524  1
  O2-  O468  1  0.92600795  0.09720857  0.20183469  1
  O2-  O469  1  0.90599781  0.07911850  0.52300543  1
  O2-  O470  1  0.92337090  0.08011624  0.80747870  1
  O2-  O471  1  0.91870846  0.34570325  0.18285380  1
  O2-  O472  1  0.91195517  0.32990537  0.51704129  1
  O2-  O473  1  0.91130207  0.33496356  0.83619318  1
  O2-  O474  1  0.93578212  0.58697002  0.18668894  1
  O2-  O475  1  0.91668572  0.58788397  0.53179663  1
  O2-  O476  1  0.89495270  0.58027706  0.84344274  1
  O2-  O477  1  0.92177366  0.82086164  0.19144643  1
  O2-  O478  1  0.95179892  0.84743458  0.46910430  1
  O2-  O479  1  0.88614878  0.82056998  0.85444545  1
  O2-  O480  1  0.13313753  0.04829760  0.31893970  1
  O2-  O481  1  0.18597580  0.08395764  0.66001707  1
  O2-  O482  1  0.17762257  0.08417335  0.97027499  1
  O2-  O483  1  0.13868091  0.32026762  0.32512607  1
  O2-  O484  1  0.17315324  0.34091171  0.63371612  1
  O2-  O485  1  0.04339885  0.28907388  0.95591021  1
  O2-  O486  1  0.17507993  0.58560667  0.32153283  1
  O2-  O487  1  0.16692080  0.58176708  0.64125856  1
  O2-  O488  1  0.18576153  0.61763828  0.98356294  1
  O2-  O489  1  0.17719064  0.83376038  0.31948755  1
  O2-  O490  1  0.15674101  0.83082280  0.62825905  1
  O2-  O491  1  0.17892900  0.85827512  0.97932415  1
  O2-  O492  1  0.44042044  0.09349781  0.30830059  1
  O2-  O493  1  0.42168535  0.09133915  0.64284397  1
  O2-  O494  1  0.42642394  0.08946156  0.99137363  1
  O2-  O495  1  0.39225429  0.29780760  0.32884164  1
  O2-  O496  1  0.42768608  0.35054874  0.63630739  1
  O2-  O497  1  0.42864335  0.32160745  0.98421921  1
  O2-  O498  1  0.42441062  0.59203199  0.31523596  1
  O2-  O499  1  0.44757421  0.58218329  0.58972204  1
  O2-  O500  1  0.47193961  0.66619744  0.96658999  1
  O2-  O501  1  0.42190769  0.84003795  0.36876277  1
  O2-  O502  1  0.37724295  0.78530483  0.58197386  1
  O2-  O503  1  0.41369891  0.83987731  0.97833284  1
  O2-  O504  1  0.67889061  0.10176958  0.33744910  1
  O2-  O505  1  0.67640598  0.10116215  0.63868466  1
  O2-  O506  1  0.66820714  0.07549297  0.99322384  1
  O2-  O507  1  0.68130047  0.33291200  0.31062868  1
  O2-  O508  1  0.67182965  0.34799163  0.64147653  1
  O2-  O509  1  0.67424861  0.33600229  0.97934897  1
  O2-  O510  1  0.68945411  0.60414274  0.30917186  1
  O2-  O511  1  0.60570929  0.55849449  0.63384199  1
  O2-  O512  1  0.67311458  0.58211177  0.98778530  1
  O2-  O513  1  0.66302497  0.83751553  0.31525973  1
  O2-  O514  1  0.69503505  0.83147306  0.63642975  1
  O2-  O515  1  0.67703589  0.83583399  1.00346727  1
  O2-  O516  1  0.91343238  0.08772003  0.32413581  1
  O2-  O517  1  0.90197693  0.07844082  0.63593874  1
  O2-  O518  1  0.92391634  0.08148844  1.02780737  1
  O2-  O519  1  0.93137171  0.33225261  0.31323106  1
  O2-  O520  1  0.91636292  0.35671272  0.64147097  1
  O2-  O521  1  0.91515234  0.33206608  0.95908665  1
  O2-  O522  1  0.92673445  0.58343002  0.31303750  1
  O2-  O523  1  0.88916103  0.57925734  0.64973238  1
  O2-  O524  1  0.92778587  0.58888085  0.96107703  1
  O2-  O525  1  0.96093923  0.83926166  0.30978654  1
  O2-  O526  1  0.90437606  0.80307538  0.62286516  1
  O2-  O527  1  0.90756121  0.83469807  0.98346583  1
  O2-  O528  1  0.09660053  0.15625477  0.03873138  1
  O2-  O529  1  0.07448654  0.15270453  0.36343066  1
  O2-  O530  1  0.07188311  0.15307301  0.66643484  1
  O2-  O531  1  0.10257311  0.45385625  0.03196748  1
  O2-  O532  1  0.08325058  0.42087799  0.35843684  1
  O2-  O533  1  0.08871180  0.42170857  0.68026374  1
  O2-  O534  1  0.10570159  0.69740064  0.02983846  1
  O2-  O535  1  0.08743626  0.66733221  0.35931943  1
  O2-  O536  1  0.07995622  0.66539782  0.65378204  1
  O2-  O537  1  0.08146031  0.92716138  0.00985860  1
  O2-  O538  1  0.04760305  0.87887125  0.33489327  1
  O2-  O539  1  0.13208871  0.92831955  0.70530386  1
  O2-  O540  1  0.33657996  0.15746608  0.02661742  1
  O2-  O541  1  0.30178702  0.13931125  0.37765644  1
  O2-  O542  1  0.34962182  0.18182555  0.69200430  1
  O2-  O543  1  0.32867771  0.36333119  0.05469808  1
  O2-  O544  1  0.35276980  0.42106349  0.35962677  1
  O2-  O545  1  0.34281101  0.43868603  0.66640285  1
  O2-  O546  1  0.34280883  0.68064507  0.02362907  1
  O2-  O547  1  0.33614458  0.66345654  0.37076534  1
  O2-  O548  1  0.33256757  0.65874584  0.66872703  1
  O2-  O549  1  0.34164641  0.93114483  0.02095870  1
  O2-  O550  1  0.34152833  0.93521443  0.35838414  1
  O2-  O551  1  0.32534527  0.92006465  0.66716994  1
  O2-  O552  1  0.58063675  0.16923414  0.02044593  1
  O2-  O553  1  0.60940851  0.18540307  0.36088304  1
  O2-  O554  1  0.58767180  0.17755983  0.68814328  1
  O2-  O555  1  0.59236307  0.41486812  0.02869263  1
  O2-  O556  1  0.61803550  0.44651692  0.34743565  1
  O2-  O557  1  0.63143170  0.45117778  0.70785736  1
  O2-  O558  1  0.59777174  0.66937633  0.03124310  1
  O2-  O559  1  0.59150704  0.67202078  0.35350592  1
  O2-  O560  1  0.59780366  0.67785336  0.69337459  1
  O2-  O561  1  0.56980792  0.90080787  0.03040315  1
  O2-  O562  1  0.59557116  0.93404063  0.35809008  1
  O2-  O563  1  0.60636328  0.92584287  0.63357185  1
  O2-  O564  1  0.83690612  0.15686454  0.01046028  1
  O2-  O565  1  0.83408011  0.16766797  0.37350962  1
  O2-  O566  1  0.83641480  0.16107443  0.67002719  1
  O2-  O567  1  0.84558545  0.42440683  0.01158294  1
  O2-  O568  1  0.84352436  0.42161261  0.35166683  1
  O2-  O569  1  0.82751303  0.42735812  0.68424631  1
  O2-  O570  1  0.83661129  0.66643534  0.02801602  1
  O2-  O571  1  0.85632815  0.67930576  0.35275079  1
  O2-  O572  1  0.80363592  0.64579316  0.68962583  1
  O2-  O573  1  0.83253425  0.90914702  0.05699271  1
  O2-  O574  1  0.82325558  0.91504118  0.34894564  1
  O2-  O575  1  0.85159632  0.91411806  0.68128591  1
