# generated using pymatgen
data_H2O
_symmetry_space_group_name_H-M   'P 1'
_cell_length_a   17.99360815
_cell_length_b   17.99219606
_cell_length_c   22.00316675
_cell_angle_alpha   89.98419411
_cell_angle_beta   90.00165028
_cell_angle_gamma   120.00022667
_symmetry_Int_Tables_number   1
_chemical_formula_structural   H2O
_chemical_formula_sum   'H384 O192'
_cell_volume   6169.03512721
_cell_formula_units_Z   192
loop_
 _symmetry_equiv_pos_site_id
 _symmetry_equiv_pos_as_xyz
  1  'x, y, z'
loop_
 _atom_type_symbol
 _atom_type_oxidation_number
  H+  1.0
  O2-  -2.0
loop_
 _atom_site_type_symbol
 _atom_site_label
 _atom_site_symmetry_multiplicity
 _atom_site_fract_x
 _atom_site_fract_y
 _atom_site_fract_z
 _atom_site_occupancy
  H+  H0  1  0.97809310  0.36467641  0.31721624  1
  H+  H1  1  0.36974338  0.60718011  0.30894357  1
  H+  H2  1  0.60642999  0.59460553  -0.02417178  1
  H+  H3  1  0.67305566  0.84138865  0.26167287  1
  H+  H4  1  0.39015656  0.86041129  0.32841069  1
  H+  H5  1  0.11149201  0.88007210  0.50199913  1
  H+  H6  1  0.25144423  0.90064621  -0.01359861  1
  H+  H7  1  0.08368205  0.91657275  0.73435283  1
  H+  H8  1  0.88029914  0.59527157  -0.01671904  1
  H+  H9  1  0.83115382  0.66661263  0.44882512  1
  H+  H10  1  0.86421696  0.88998855  1.00300296  1
  H+  H11  1  0.35348572  0.63222661  0.15558357  1
  H+  H12  1  0.11591239  0.47947115  0.82898049  1
  H+  H13  1  0.29609184  0.30868455  0.80286399  1
  H+  H14  1  0.47205032  0.86383613  0.51116631  1
  H+  H15  1  0.52004342  0.78462219  0.11504151  1
  H+  H16  1  0.40476716  0.83126738  0.89398263  1
  H+  H17  1  0.34701465  0.96073000  0.34401770  1
  H+  H18  1  0.60911459  0.38946944  0.51208411  1
  H+  H19  1  0.62422759  0.51862548  0.35628252  1
  H+  H20  1  0.61559053  0.13825077  0.01225351  1
  H+  H21  1  0.34419147  0.39211050  0.33953071  1
  H+  H22  1  0.85992433  0.40040059  0.50370341  1
  H+  H23  1  0.03661388  0.90175610  0.67071497  1
  H+  H24  1  0.14815352  0.36405995  0.14939825  1
  H+  H25  1  0.64860018  0.28552011  0.84110185  1
  H+  H26  1  0.41538666  0.25220968  0.84627174  1
  H+  H27  1  0.63253857  0.28343463  0.52599502  1
  H+  H28  1  0.85705761  0.13677043  0.82246919  1
  H+  H29  1  0.17052554  0.35285452  0.56612619  1
  H+  H30  1  0.64104082  0.16253140  0.84022026  1
  H+  H31  1  0.89930218  0.30316129  0.55447756  1
  H+  H32  1  0.85800835  0.10860432  0.98528996  1
  H+  H33  1  0.46403781  0.84356296  0.16857474  1
  H+  H34  1  0.38334223  0.25819528  0.82814756  1
  H+  H35  1  0.86567917  0.88619253  0.15267342  1
  H+  H36  1  0.78012763  0.63697139  0.13293589  1
  H+  H37  1  0.36305306  0.88638558  0.15624643  1
  H+  H38  1  0.39049064  0.28365913  0.15502894  1
  H+  H39  1  0.71903912  0.13757207  0.47221174  1
  H+  H40  1  0.53702061  0.53010187  0.65612067  1
  H+  H41  1  0.11194482  0.48890926  0.49130273  1
  H+  H42  1  0.78241595  0.38784637  0.33295868  1
  H+  H43  1  0.04074982  0.14612168  0.00283288  1
  H+  H44  1  0.40724828  0.40325158  0.85088651  1
  H+  H45  1  0.28073135  0.16184354  0.15065348  1
  H+  H46  1  0.89396495  0.61503221  0.84782760  1
  H+  H47  1  0.63228475  0.77896043  0.51858387  1
  H+  H48  1  0.89147432  0.38681218  0.84435945  1
  H+  H49  1  0.60417844  0.97647666  0.49387522  1
  H+  H50  1  0.07728594  0.16966667  0.40285000  1
  H+  H51  1  0.98586945  0.85265527  0.32445052  1
  H+  H52  1  0.86221731  0.23481361  0.15477008  1
  H+  H53  1  0.74756313  0.60788785  -0.00693811  1
  H+  H54  1  0.11561612  0.73131243  0.48942390  1
  H+  H55  1  0.72758103  0.62643439  0.69244662  1
  H+  H56  1  0.63657254  0.78054726  0.31975504  1
  H+  H57  1  0.21383395  0.35201514  0.83895861  1
  H+  H58  1  -0.03656847  0.85041685  0.83668978  1
  H+  H59  1  0.88071056  0.48006665  0.32694402  1
  H+  H60  1  0.88290882  0.59890650  0.33261867  1
  H+  H61  1  0.13313737  0.61235075  0.99644427  1
  H+  H62  1  0.13135185  0.12339788  0.49859386  1
  H+  H63  1  0.61630063  0.88923157  0.67215035  1
  H+  H64  1  0.60508506  0.46679253  0.68089101  1
  H+  H65  1  0.58365612  0.93954858  0.82737016  1
  H+  H66  1  0.63862508  0.60883946  0.16138384  1
  H+  H67  1  0.62982652  0.77086367  0.98106691  1
  H+  H68  1  -0.01840382  0.88177407  -0.00667055  1
  H+  H69  1  0.52261071  0.88709409  -0.00111723  1
  H+  H70  1  0.35940873  0.71897258  0.32413529  1
  H+  H71  1  0.28759038  0.13549897  0.50608802  1
  H+  H72  1  0.66470654  0.29221121  0.34748332  1
  H+  H73  1  0.28835940  0.40550205  0.67172257  1
  H+  H74  1  0.37198235  0.39155422  0.14656553  1
  H+  H75  1  0.97554258  0.86587438  0.51100105  1
  H+  H76  1  0.54862285  0.15637757  0.83120872  1
  H+  H77  1  0.62091060  0.45925164  0.78193300  1
  H+  H78  1  0.28080289  0.13812417  0.67714701  1
  H+  H79  1  0.33045240  0.65674863  0.73231837  1
  H+  H80  1  0.35463701  0.43349105  1.06347709  1
  H+  H81  1  0.77216112  0.40042760  0.50482808  1
  H+  H82  1  0.89079500  1.01971989  0.32863191  1
  H+  H83  1  0.14748414  0.02916158  0.67197690  1
  H+  H84  1  0.06050245  0.15713874  0.64727541  1
  H+  H85  1  0.37945709  0.98659356  0.00518561  1
  H+  H86  1  0.48268281  0.12077171  0.99880094  1
  H+  H87  1  -0.00924737  0.10781381  0.33234465  1
  H+  H88  1  0.89454022  1.02956335  0.16012359  1
  H+  H89  1  0.09476138  0.61308954  0.16560664  1
  H+  H90  1  0.16043165  0.80646194  0.14276149  1
  H+  H91  1  0.35111872  0.93337906  0.62392996  1
  H+  H92  1  0.38012097  0.52258325  0.53139681  1
  H+  H93  1  0.98130159  0.11185263  0.82814318  1
  H+  H94  1  0.15004916  1.03409444  0.17206048  1
  H+  H95  1  0.87149571  0.48061308  0.82925960  1
  H+  H96  1  0.13943736  0.62016261  0.50098160  1
  H+  H97  1  0.02901258  0.14151373  0.15483736  1
  H+  H98  1  0.74348147  0.60969242  0.66708846  1
  H+  H99  1  0.87669976  0.38151451  0.32175707  1
  H+  H100  1  0.12122818  0.76348924  0.83949778  1
  H+  H101  1  0.51908536  0.39061518  0.50821801  1
  H+  H102  1  0.39307228  0.54409640  0.91816103  1
  H+  H103  1  0.51585069  0.14278413  0.51413102  1
  H+  H104  1  0.85165030  0.88526328  0.34434329  1
  H+  H105  1  0.23023532  0.95439811  -0.05841921  1
  H+  H106  1  0.28837503  0.02391387  0.78691831  1
  H+  H107  1  0.10999615  0.64214554  0.33078401  1
  H+  H108  1  0.12600163  0.52725618  0.32308513  1
  H+  H109  1  0.12744795  0.64202480  0.67207608  1
  H+  H110  1  0.97773138  0.36397299  0.99767740  1
  H+  H111  1  0.11383081  0.12740635  0.35522679  1
  H+  H112  1  0.91494950  0.66494652  0.67855975  1
  H+  H113  1  0.91487974  0.79831364  0.66506580  1
  H+  H114  1  0.88838844  0.76861048  0.15541595  1
  H+  H115  1  0.22758339  0.60665601  0.84541507  1
  H+  H116  1  0.46720451  0.60945271  0.54026893  1
  H+  H117  1  0.15187505  0.57832152  0.25995843  1
  H+  H118  1  0.59767011  0.47109566  0.00108067  1
  H+  H119  1  0.77184628  0.62844643  0.35592219  1
  H+  H120  1  0.38166974  0.36942202  0.51485393  1
  H+  H121  1  1.01470223  0.13601806  0.54744674  1
  H+  H122  1  0.63817475  0.36028093  0.99419306  1
  H+  H123  1  0.88539415  0.86650648  0.50877947  1
  H+  H124  1  0.66003404  0.27663648  0.66911767  1
  H+  H125  1  0.81559059  0.38697416  0.64963908  1
  H+  H126  1  0.67545121  0.37533253  0.15687837  1
  H+  H127  1  0.13736485  0.38399244  0.50784085  1
  H+  H128  1  0.67319565  0.34670704  0.58177738  1
  H+  H129  1  0.63674679  0.55302500  0.92452443  1
  H+  H130  1  0.64321056  0.23886773  0.15952202  1
  H+  H131  1  0.82156716  0.45469663  0.16620701  1
  H+  H132  1  0.13473308  0.52430459  -0.00157720  1
  H+  H133  1  0.14854164  0.28565469  0.99283617  1
  H+  H134  1  0.37920293  0.26822249  0.98451143  1
  H+  H135  1  0.07305065  0.38460731  0.18614830  1
  H+  H136  1  0.11408595  0.50502186  0.16900602  1
  H+  H137  1  0.22796626  0.61694889  0.50805611  1
  H+  H138  1  0.54444383  0.14491284  0.68133374  1
  H+  H139  1  0.62441572  0.71934131  0.16945093  1
  H+  H140  1  0.50419915  0.42197180  0.85598536  1
  H+  H141  1  0.86986358  0.89966858  0.67182255  1
  H+  H142  1  0.63467237  0.85241315  0.83455944  1
  H+  H143  1  0.37109585  0.36515659  0.66936363  1
  H+  H144  1  0.36645323  0.63571788  0.84468072  1
  H+  H145  1  0.38798728  0.11811231  0.51291139  1
  H+  H146  1  0.83260103  0.91385584  0.73468518  1
  H+  H147  1  0.61257776  0.63638323  0.52237188  1
  H+  H148  1  0.63585934  0.52702413  0.51394181  1
  H+  H149  1  0.87978379  0.22450400  0.31730560  1
  H+  H150  1  0.11655472  0.98537022  0.34257444  1
  H+  H151  1  0.95238668  0.58569827  0.17114703  1
  H+  H152  1  0.54177687  0.36099225  0.36210512  1
  H+  H153  1  0.98979102  0.38365202  0.84286132  1
  H+  H154  1  0.49476243  0.85621196  0.82189702  1
  H+  H155  1  0.96949182  0.37075700  0.16387003  1
  H+  H156  1  0.20715786  0.59797507  0.16731402  1
  H+  H157  1  1.02310212  0.63135362  1.00709904  1
  H+  H158  1  0.29179005  0.08283755  0.04211974  1
  H+  H159  1  0.10999932  0.22347607  0.82126328  1
  H+  H160  1  0.47086590  0.10747984  0.19019747  1
  H+  H161  1  0.37863479  0.86038281  0.83069732  1
  H+  H162  1  0.34710762  0.71714158  0.16245792  1
  H+  H163  1  0.21566348  0.37606099  0.32197158  1
  H+  H164  1  0.61558500  0.47579585  0.14394029  1
  H+  H165  1  0.28620898  0.16323010  0.34018976  1
  H+  H166  1  -0.00131516  0.62106342  0.65822031  1
  H+  H167  1  0.08649733  0.69674114  0.17502265  1
  H+  H168  1  0.27345593  0.64483231  1.00258886  1
  H+  H169  1  0.02292487  0.40329313  0.50039058  1
  H+  H170  1  0.15437386  0.12356491  0.66362717  1
  H+  H171  1  0.11537467  0.63186803  0.82792485  1
  H+  H172  1  0.86707963  0.46992210  0.99876917  1
  H+  H173  1  0.61862168  0.10909473  0.52342268  1
  H+  H174  1  0.80804768  0.03298873  0.94039856  1
  H+  H175  1  0.39865368  0.10397167  0.84038600  1
  H+  H176  1  0.89786960  0.47934754  0.64700196  1
  H+  H177  1  0.50294043  0.13422269  0.29965302  1
  H+  H178  1  1.08447122  0.67695357  0.38999214  1
  H+  H179  1  0.14146176  0.77880628  0.31106290  1
  H+  H180  1  0.73555891  0.86318447  0.16931974  1
  H+  H181  1  0.39107160  0.52757764  0.15796180  1
  H+  H182  1  0.14301290  0.11993587  0.17326720  1
  H+  H183  1  0.16077453  0.29625554  0.65582740  1
  H+  H184  1  0.86312733  0.63093387  0.14357048  1
  H+  H185  1  0.09843486  0.25671449  0.48980017  1
  H+  H186  1  0.67541424  0.18647261  0.40290007  1
  H+  H187  1  0.71628173  0.57759855  0.84469636  1
  H+  H188  1  0.46501662  0.39503730  0.31637915  1
  H+  H189  1  0.27839192  0.38590754  0.14424760  1
  H+  H190  1  0.24015190  0.87254332  0.66180662  1
  H+  H191  1  0.36428153  0.88936252  0.50327416  1
  H+  H192  1  0.58673701  0.92386394  0.39703847  1
  H+  H193  1  0.65431891  0.37952300  0.84686066  1
  H+  H194  1  0.63953449  0.03376778  0.99426595  1
  H+  H195  1  0.61215879  0.88762214  0.00000348  1
  H+  H196  1  0.93800240  0.59811534  0.59882233  1
  H+  H197  1  0.35673070  0.71674157  0.83114535  1
  H+  H198  1  0.09931457  0.08541659  0.48067650  1
  H+  H199  1  0.66729395  0.36829541  0.67823686  1
  H+  H200  1  0.65965356  0.06440811  0.85263257  1
  H+  H201  1  0.15272536  0.38183546  0.66063763  1
  H+  H202  1  0.66923256  0.84837937  0.57010887  1
  H+  H203  1  0.86623705  0.70843566  0.34587710  1
  H+  H204  1  0.76772108  0.14559028  1.00664164  1
  H+  H205  1  0.66464841  0.11597559  0.31336354  1
  H+  H206  1  0.11357405  0.13581943  0.81828276  1
  H+  H207  1  0.43768169  0.60910859  0.63623007  1
  H+  H208  1  0.23021056  0.61367181  0.65786142  1
  H+  H209  1  0.63795899  0.84578901  0.16562915  1
  H+  H210  1  0.32877068  0.67413930  0.06232803  1
  H+  H211  1  0.86245920  0.23208454  0.00284628  1
  H+  H212  1  0.16595886  0.01146379  0.52421893  1
  H+  H213  1  0.38642120  0.77643268  0.98899178  1
  H+  H214  1  0.52071902  0.38443843  0.14950784  1
  H+  H215  1  0.59518114  0.63805812  0.35195250  1
  H+  H216  1  0.10890603  0.38701671  0.01261218  1
  H+  H217  1  0.39725062  0.03388584  0.66818018  1
  H+  H218  1  0.89326625  0.62291961  0.51197015  1
  H+  H219  1  0.39025262  0.29699073  0.32105837  1
  H+  H220  1  0.37457818  0.26642481  0.66781555  1
  H+  H221  1  0.11801031  0.89962233  0.34658264  1
  H+  H222  1  0.73676440  0.87094723  0.66413743  1
  H+  H223  1  0.86111300  0.73193281  0.50505331  1
  H+  H224  1  0.36025588  0.72286083  0.67740451  1
  H+  H225  1  0.72234166  0.85601333  0.99376865  1
  H+  H226  1  0.13753808  0.03421338  0.99197244  1
  H+  H227  1  0.45875597  0.60569222  0.30946626  1
  H+  H228  1  0.26688134  0.63346509  0.32206611  1
  H+  H229  1  0.23803745  0.05735425  0.29978498  1
  H+  H230  1  0.51363627  0.37476236  1.00579305  1
  H+  H231  1  0.78397182  0.38963953  0.83484632  1
  H+  H232  1  0.26463762  -0.03711269  0.27997987  1
  H+  H233  1  0.91995718  0.84578862  0.93499728  1
  H+  H234  1  0.39214266  0.86838194  0.98852490  1
  H+  H235  1  0.64757712  0.02325213  0.66183642  1
  H+  H236  1  0.79423621  0.13151703  0.31759586  1
  H+  H237  1  0.61684344  0.89217165  0.33793316  1
  H+  H238  1  0.14763149  0.86797386  0.66544469  1
  H+  H239  1  0.87665396  0.85430812  0.83774657  1
  H+  H240  1  0.38481021  0.02671468  0.51331309  1
  H+  H241  1  0.04155653  0.89550464  0.16004489  1
  H+  H242  1  0.86061176  0.10550321  0.50328673  1
  H+  H243  1  0.14373719  0.27447637  0.16145814  1
  H+  H244  1  0.79575098  0.22517660  0.44592344  1
  H+  H245  1  0.22738779  0.38403659  0.97905410  1
  H+  H246  1  0.77765952  0.38160661  0.00263617  1
  H+  H247  1  0.27068212  0.39540426  0.49816383  1
  H+  H248  1  0.47600860  0.86313815  0.66342655  1
  H+  H249  1  0.13403812  0.89693589  0.15923843  1
  H+  H250  1  0.38780598  0.86663630  0.66384459  1
  H+  H251  1  0.86554942  0.11212937  0.46942187  1
  H+  H252  1  0.35584303  0.63465214  0.51960509  1
  H+  H253  1  0.66768648  0.38202569  0.34539346  1
  H+  H254  1  0.39547051  0.98956286  0.81379763  1
  H+  H255  1  0.82380100  0.65369222  0.91066601  1
  H+  H256  1  0.34883515  0.04467396  0.25509371  1
  H+  H257  1  0.64811955  0.13157229  0.16386608  1
  H+  H258  1  0.50960430  0.63809130  -0.05126720  1
  H+  H259  1  0.77602160  0.88892956  0.82392927  1
  H+  H260  1  0.23309852  0.11694925  0.98973374  1
  H+  H261  1  0.38940520  0.11549579  -0.00718613  1
  H+  H262  1  0.61577252  0.22739056  0.01142706  1
  H+  H263  1  0.00391344  0.20744735  0.46351586  1
  H+  H264  1  0.38880739  0.01880532  0.17121314  1
  H+  H265  1  0.46537300  0.59157725  0.86442923  1
  H+  H266  1  0.86934869  -0.02538887  0.82070077  1
  H+  H267  1  0.48827400  0.09247216  0.31652607  1
  H+  H268  1  0.89032610  0.53274209  0.50768288  1
  H+  H269  1  0.74760739  0.13133512  0.15942084  1
  H+  H270  1  0.02669889  0.64377814  0.48635578  1
  H+  H271  1  0.12923667  0.73300638  0.67600240  1
  H+  H272  1  0.57954432  0.59141714  0.81675196  1
  H+  H273  1  0.12840304  0.14412432  0.00059119  1
  H+  H274  1  0.22688162  0.86315851  0.51346143  1
  H+  H275  1  0.11971022  0.47936508  0.67005061  1
  H+  H276  1  0.10667443  0.39613574  0.33477057  1
  H+  H277  1  0.27697463  0.89441696  0.15468645  1
  H+  H278  1  0.77083027  0.88687250  0.49927455  1
  H+  H279  1  0.66708555  0.07928264  0.57019894  1
  H+  H280  1  0.38364329  0.28023928  0.51497334  1
  H+  H281  1  0.35870494  0.72350330  0.50882168  1
  H+  H282  1  0.48053409  0.86427216  0.32509013  1
  H+  H283  1  0.64559137  0.78315974  0.66126190  1
  H+  H284  1  0.84718899  0.97034494  0.00268242  1
  H+  H285  1  0.64560792  0.01981735  0.31742952  1
  H+  H286  1  0.21097571  0.08266950  0.83349661  1
  H+  H287  1  0.40959496  0.57812560  0.22055586  1
  H+  H288  1  0.37524029  0.16945586  0.34512995  1
  H+  H289  1  0.34817104  0.48107323  0.33799066  1
  H+  H290  1  0.36114442  0.93643246  0.75186650  1
  H+  H291  1  0.58435035  0.41338488  0.42342240  1
  H+  H292  1  0.82898059  0.91934776  0.44065831  1
  H+  H293  1  0.31738187  0.11715021  0.76095956  1
  H+  H294  1  0.85777898  0.02583845  0.68661113  1
  H+  H295  1  0.10797224  0.38613510  0.82733963  1
  H+  H296  1  0.79608600  0.11328435  0.64699114  1
  H+  H297  1  0.92596571  0.57568043  0.92913445  1
  H+  H298  1  0.52474770  0.64072950  0.01968959  1
  H+  H299  1  0.60717742  0.17604090  0.73879019  1
  H+  H300  1  0.67306116  0.10339174  0.93444986  1
  H+  H301  1  0.09178591  0.17595262  0.71842699  1
  H+  H302  1  0.40237323  0.33068078  0.60451493  1
  H+  H303  1  0.64821639  0.57690276  0.29888970  1
  H+  H304  1  0.08667457  0.92122985  0.44620865  1
  H+  H305  1  0.38533594  0.39488427  1.00376536  1
  H+  H306  1  0.33217829  0.91441176  0.44318416  1
  H+  H307  1  0.09465712  0.87210389  0.82617814  1
  H+  H308  1  0.41402424  0.83068951  0.23159497  1
  H+  H309  1  0.08966672  0.41967162  0.72859015  1
  H+  H310  1  0.94005772  0.11193149  0.59436002  1
  H+  H311  1  0.07449037  0.65409645  0.06849553  1
  H+  H312  1  0.16429863  0.57927200  0.90327655  1
  H+  H313  1  0.17414252  0.83455188  0.24859765  1
  H+  H314  1  0.56494097  0.87726973  0.08687840  1
  H+  H315  1  0.09356231  0.93127261  0.06816480  1
  H+  H316  1  0.39566358  0.48243114  0.69141120  1
  H+  H317  1  0.09451026  0.17043348  0.09862935  1
  H+  H318  1  0.88724184  0.36373267  0.99289279  1
  H+  H319  1  0.83216537  0.21465143  0.74951124  1
  H+  H320  1  0.86087672  0.68142723  0.72795224  1
  H+  H321  1  0.60862630  0.89007999  0.49327250  1
  H+  H322  1  0.87714643  0.28784256  0.70127276  1
  H+  H323  1  0.66944828  0.33185940  0.93546217  1
  H+  H324  1  0.66801272  0.11997746  0.66395686  1
  H+  H325  1  0.15732088  0.83366340  0.89344061  1
  H+  H326  1  0.90624475  0.81787283  0.21844457  1
  H+  H327  1  0.58790411  0.18457230  0.46159325  1
  H+  H328  1  0.89445503  0.11794021  0.15963898  1
  H+  H329  1  0.76671537  0.89065560  0.33625623  1
  H+  H330  1  0.58181789  0.14856361  0.36798580  1
  H+  H331  1  0.15448051  0.32929876  0.89804091  1
  H+  H332  1  0.27175621  0.86894237  0.34185251  1
  H+  H333  1  0.92394479  0.84757175  0.60235284  1
  H+  H334  1  0.67473086  0.84374306  0.89678171  1
  H+  H335  1  0.33307740  0.42809990  0.44141829  1
  H+  H336  1  0.91095633  0.38742525  0.58541031  1
  H+  H337  1  0.53129995  0.63265516  0.16469354  1
  H+  H338  1  0.16713788  0.35222300  0.25857797  1
  H+  H339  1  0.92927896  0.35142787  0.90876866  1
  H+  H340  1  0.60720216  0.54073084  0.60544808  1
  H+  H341  1  0.98404572  0.61516773  0.83429890  1
  H+  H342  1  0.97430321  0.78387694  0.27770268  1
  H+  H343  1  0.57796994  0.41260937  0.07870013  1
  H+  H344  1  0.72517649  0.61646619  0.52058065  1
  H+  H345  1  0.32360331  0.39210817  0.76499807  1
  H+  H346  1  0.89587987  0.56942185  0.22948628  1
  H+  H347  1  0.69045997  0.57490546  0.20376895  1
  H+  H348  1  0.51478625  0.59056932  0.76729110  1
  H+  H349  1  0.16270673  0.08077134  0.89536114  1
  H+  H350  1  0.07537086  0.41158214  0.07371804  1
  H+  H351  1  0.57693637  0.90854576  0.73058808  1
  H+  H352  1  0.16862104  0.58671129  0.59819277  1
  H+  H353  1  0.82798824  0.65969762  0.03651499  1
  H+  H354  1  0.69681449  0.49376717  0.70685209  1
  H+  H355  1  0.97844558  0.61416430  0.32298339  1
  H+  H356  1  0.78225196  0.15626498  0.84247065  1
  H+  H357  1  0.18592184  0.09068169  0.26251356  1
  H+  H358  1  0.56102456  0.64948096  0.47050502  1
  H+  H359  1  0.42458740  0.34997349  0.93591250  1
  H+  H360  1  0.84998269  0.71754674  0.85618751  1
  H+  H361  1  0.41682942  0.83610756  0.57363524  1
  H+  H362  1  0.42843338  0.09668134  0.61160676  1
  H+  H363  1  0.37606187  0.14643494  0.67642276  1
  H+  H364  1  0.67813098  0.08521461  0.21934918  1
  H+  H365  1  0.42513743  0.34612327  0.21653165  1
  H+  H366  1  0.89974168  0.11839181  0.31846189  1
  H+  H367  1  0.16774477  0.83044528  0.57269520  1
  H+  H368  1  0.83221627  0.91560319  0.09541258  1
  H+  H369  1  0.33752367  0.18238823  0.44306147  1
  H+  H370  1  0.12531606  0.91146640  0.00518397  1
  H+  H371  1  0.34311236  0.92260823  0.06282492  1
  H+  H372  1  0.09100999  0.66392514  0.76635711  1
  H+  H373  1  0.91880193  0.08292850  0.88666059  1
  H+  H374  1  0.59719940  0.17478335  0.10277395  1
  H+  H375  1  0.33348566  0.18436694  0.08656313  1
  H+  H376  1  0.20164548  0.07250492  0.58311620  1
  H+  H377  1  0.43679699  0.09060527  0.90202462  1
  H+  H378  1  0.83261797  0.17497720  0.09349199  1
  H+  H379  1  0.07229416  0.42050680  0.39579060  1
  H+  H380  1  0.09438725  0.96223110  0.82756093  1
  H+  H381  1  0.54352547  0.68041228  0.38186292  1
  H+  H382  1  0.91855102  0.33460991  0.25463698  1
  H+  H383  1  0.86907573  0.35631000  0.16865592  1
  O2-  O384  1  0.09251220  0.17238458  0.14381586  1
  O2-  O385  1  0.05326869  0.20039443  0.47144720  1
  O2-  O386  1  0.08437742  0.16597160  0.80124929  1
  O2-  O387  1  0.06235323  0.41256676  0.15199009  1
  O2-  O388  1  0.07808975  0.42639497  0.47824715  1
  O2-  O389  1  0.08047377  0.41928278  0.81270379  1
  O2-  O390  1  0.05875492  0.64102543  0.15460814  1
  O2-  O391  1  0.08624743  0.67408275  0.46891255  1
  O2-  O392  1  0.08432374  0.66083270  0.81176986  1
  O2-  O393  1  0.10161520  0.93019530  0.14653002  1
  O2-  O394  1  0.08345092  0.91456921  0.49079405  1
  O2-  O395  1  0.06494766  0.90370039  0.80953667  1
  O2-  O396  1  0.33632122  0.20174143  0.13104246  1
  O2-  O397  1  0.34471515  0.18136746  0.48740633  1
  O2-  O398  1  0.29992101  0.08114680  0.79883993  1
  O2-  O399  1  0.33976075  0.41929609  0.12948336  1
  O2-  O400  1  0.33293899  0.42339202  0.48651253  1
  O2-  O401  1  0.31241330  0.36874075  0.80805923  1
  O2-  O402  1  0.31806099  0.65842211  0.14439574  1
  O2-  O403  1  0.32804319  0.66207769  0.49717727  1
  O2-  O404  1  0.33226028  0.65474034  0.82100138  1
  O2-  O405  1  0.33938142  0.92155205  0.13922383  1
  O2-  O406  1  0.33403586  0.92037182  0.48806667  1
  O2-  O407  1  0.35478568  0.93266490  0.79643589  1
  O2-  O408  1  0.60602757  0.17723000  0.14879400  1
  O2-  O409  1  0.57983055  0.17717303  0.50618623  1
  O2-  O410  1  0.60937161  0.18993079  0.81728766  1
  O2-  O411  1  0.58260679  0.41305664  0.13051500  1
  O2-  O412  1  0.57917360  0.41847497  0.49209618  1
  O2-  O413  1  0.61636853  0.45818772  0.82855543  1
  O2-  O414  1  0.59391829  0.65816685  0.15608642  1
  O2-  O415  1  0.57761105  0.66535829  0.51254521  1
  O2-  O416  1  0.53606783  0.60804576  0.80994752  1
  O2-  O417  1  0.55179071  0.84482770  0.12724641  1
  O2-  O418  1  0.57733900  0.91784209  0.47527324  1
  O2-  O419  1  0.55688122  0.88412168  0.80719441  1
  O2-  O420  1  0.83124108  0.17304335  0.13976831  1
  O2-  O421  1  0.74498012  0.17196713  0.43382724  1
  O2-  O422  1  0.83831200  0.17938381  0.82034787  1
  O2-  O423  1  0.79128679  0.39404623  0.15038350  1
  O2-  O424  1  0.83051971  0.42988628  0.48683715  1
  O2-  O425  1  0.84412982  0.41795357  0.81921968  1
  O2-  O426  1  0.84230900  0.66712414  0.12368801  1
  O2-  O427  1  0.82911927  0.66908647  0.49371806  1
  O2-  O428  1  0.82165274  0.65394831  0.86575478  1
  O2-  O429  1  0.83445944  0.91692068  0.14123178  1
  O2-  O430  1  0.83113555  0.91292989  0.48482442  1
  O2-  O431  1  0.83630338  0.91289337  0.80746321  1
  O2-  O432  1  0.17790031  0.09439115  0.18828591  1
  O2-  O433  1  0.21783055  0.05980168  0.54272285  1
  O2-  O434  1  0.15547912  0.07310725  0.85016449  1
  O2-  O435  1  0.17796435  0.33846691  0.17073692  1
  O2-  O436  1  0.16611760  0.35079625  0.52042448  1
  O2-  O437  1  0.15310594  0.32607640  0.85236622  1
  O2-  O438  1  0.14773096  0.56940225  0.18388554  1
  O2-  O439  1  0.16395936  0.58602993  0.51844648  1
  O2-  O440  1  0.16559798  0.57865922  0.85749571  1
  O2-  O441  1  0.17933718  0.84905784  0.17506483  1
  O2-  O442  1  0.16570374  0.83070411  0.52684159  1
  O2-  O443  1  0.14196163  0.82452355  0.85011434  1
  O2-  O444  1  0.40879245  0.07280979  0.19551682  1
  O2-  O445  1  0.41569493  0.08652931  0.52988825  1
  O2-  O446  1  0.44309434  0.09236071  0.85658766  1
  O2-  O447  1  0.43069833  0.34803598  0.17166797  1
  O2-  O448  1  0.41195812  0.34007350  0.53243287  1
  O2-  O449  1  0.45321457  0.41105717  0.87952399  1
  O2-  O450  1  0.42012630  0.58636731  0.17540596  1
  O2-  O451  1  0.40611111  0.57889641  0.55249405  1
  O2-  O452  1  0.43239110  0.59981601  0.89827168  1
  O2-  O453  1  0.40680793  0.82536413  0.18635767  1
  O2-  O454  1  0.41281679  0.83670502  0.52787028  1
  O2-  O455  1  0.40107194  0.82398942  0.84861039  1
  O2-  O456  1  0.68069596  0.09641690  0.17444065  1
  O2-  O457  1  0.65150032  0.07790908  0.52569625  1
  O2-  O458  1  0.68368961  0.11941199  0.87295803  1
  O2-  O459  1  0.70646512  0.35249518  0.18026693  1
  O2-  O460  1  0.66352057  0.34589636  0.53642475  1
  O2-  O461  1  0.68020585  0.34535521  0.86048505  1
  O2-  O462  1  0.67145908  0.57386400  0.16220532  1
  O2-  O463  1  0.66294220  0.58546036  0.53231569  1
  O2-  O464  1  0.65140512  0.54834045  0.84591945  1
  O2-  O465  1  0.67611170  0.82955830  0.18780872  1
  O2-  O466  1  0.66301512  0.84210304  0.52490405  1
  O2-  O467  1  0.68040684  0.84407696  0.85187461  1
  O2-  O468  1  0.92806985  0.09092379  0.17205915  1
  O2-  O469  1  0.99344305  0.11096537  0.58791380  1
  O2-  O470  1  0.92030547  0.07768985  0.84218527  1
  O2-  O471  1  0.90565811  0.33217727  0.18082254  1
  O2-  O472  1  0.92266286  0.36400738  0.54628334  1
  O2-  O473  1  0.93108572  0.36158889  0.86273943  1
  O2-  O474  1  0.89121305  0.56222419  0.18460179  1
  O2-  O475  1  0.92767357  0.59465720  0.52052976  1
  O2-  O476  1  0.92448773  0.58218281  0.85227052  1
  O2-  O477  1  0.91486963  0.82713091  0.17442234  1
  O2-  O478  1  0.91463129  0.83515088  0.52518567  1
  O2-  O479  1  0.90485086  0.82324698  0.85569806  1
  O2-  O480  1  0.19856444  0.08150657  0.30610507  1
  O2-  O481  1  0.18403301  0.08957009  0.65607364  1
  O2-  O482  1  0.17055581  0.09297272  0.97334073  1
  O2-  O483  1  0.15848545  0.35313243  0.30264943  1
  O2-  O484  1  0.18884110  0.35746174  0.64240025  1
  O2-  O485  1  0.16297919  0.34186222  0.97482815  1
  O2-  O486  1  0.15592675  0.58635096  0.30539537  1
  O2-  O487  1  0.16857080  0.58501469  0.64354545  1
  O2-  O488  1  0.16397909  0.58252040  0.97989985  1
  O2-  O489  1  0.17537666  0.83867202  0.29504806  1
  O2-  O490  1  0.17646044  0.83676611  0.64995877  1
  O2-  O491  1  0.20230751  0.90007094  0.96358312  1
  O2-  O492  1  0.30761293  0.02190239  0.29112975  1
  O2-  O493  1  0.43059163  0.09809856  0.65677473  1
  O2-  O494  1  0.42521260  0.08891504  0.97873279  1
  O2-  O495  1  0.41017655  0.35267543  0.29893014  1
  O2-  O496  1  0.39826930  0.32739849  0.65091674  1
  O2-  O497  1  0.41577081  0.33071866  0.98060700  1
  O2-  O498  1  0.39877153  0.57208637  0.29576027  1
  O2-  O499  1  0.47674186  0.55607296  0.69627119  1
  O2-  O500  1  0.32572725  0.45957403  0.97563052  1
  O2-  O501  1  0.42072051  0.83316980  0.30917272  1
  O2-  O502  1  0.41487572  0.83143107  0.65009600  1
  O2-  O503  1  0.41989349  0.83672660  0.97132573  1
  O2-  O504  1  0.68183431  0.07697740  0.29597013  1
  O2-  O505  1  0.68422110  0.08118044  0.64324943  1
  O2-  O506  1  0.66907769  0.09562435  0.98436865  1
  O2-  O507  1  0.69190736  0.34904383  0.32654322  1
  O2-  O508  1  0.69028196  0.33789711  0.65430537  1
  O2-  O509  1  0.66670418  0.32832271  0.98120289  1
  O2-  O510  1  0.65096136  0.58019490  0.34310401  1
  O2-  O511  1  0.56644707  0.50118183  0.63586619  1
  O2-  O512  1  0.63614265  0.56051849  0.96953161  1
  O2-  O513  1  0.67008667  0.84186062  0.30770604  1
  O2-  O514  1  0.67528758  0.84273659  0.64758832  1
  O2-  O515  1  0.66366222  0.83411789  0.97591414  1
  O2-  O516  1  0.92946419  0.07974314  0.31270795  1
  O2-  O517  1  0.86914743  0.08554410  0.69518898  1
  O2-  O518  1  0.86296010  0.06280088  0.96167586  1
  O2-  O519  1  0.91739392  0.33129069  0.30072873  1
  O2-  O520  1  0.82444284  0.23392219  0.70854901  1
  O2-  O521  1  0.91969813  0.33364505  0.97771588  1
  O2-  O522  1  0.91616524  0.57672115  0.31042108  1
  O2-  O523  1  0.93733916  0.59290339  0.64413989  1
  O2-  O524  1  0.92009440  0.57336375  0.97449741  1
  O2-  O525  1  0.94043882  0.80194287  0.30186828  1
  O2-  O526  1  0.93068916  0.85570935  0.64748450  1
  O2-  O527  1  0.92088541  0.85270502  0.97987396  1
  O2-  O528  1  0.09924505  0.17585114  0.01852216  1
  O2-  O529  1  0.07718640  0.15266503  0.35951819  1
  O2-  O530  1  0.11131408  0.18623865  0.67540037  1
  O2-  O531  1  0.07765178  0.41575458  0.02833311  1
  O2-  O532  1  0.07164359  0.42197019  0.35048461  1
  O2-  O533  1  0.09553299  0.41881765  0.68393310  1
  O2-  O534  1  0.08224165  0.66026991  0.02412314  1
  O2-  O535  1  0.08067397  0.67470511  0.34435642  1
  O2-  O536  1  0.09727827  0.67164059  0.68965863  1
  O2-  O537  1  0.08904785  0.93349413  0.02280377  1
  O2-  O538  1  0.08437271  0.92622461  0.36004287  1
  O2-  O539  1  0.09498755  0.92598066  0.68938664  1
  O2-  O540  1  0.31858856  0.13791602  0.02074535  1
  O2-  O541  1  0.34566411  0.20020735  0.35735327  1
  O2-  O542  1  0.34206437  0.17292589  0.69311938  1
  O2-  O543  1  0.38088470  0.44640300  0.01921073  1
  O2-  O544  1  0.31884743  0.42368538  0.35893193  1
  O2-  O545  1  0.34262283  0.41674336  0.69318825  1
  O2-  O546  1  0.33349276  0.68004816  0.01753631  1
  O2-  O547  1  0.32847166  0.65647662  0.33216126  1
  O2-  O548  1  0.32722156  0.66086476  0.68784005  1
  O2-  O549  1  0.34512692  0.92438865  0.01708281  1
  O2-  O550  1  0.32963661  0.90329184  0.36056158  1
  O2-  O551  1  0.34384506  0.92917491  0.66794424  1
  O2-  O552  1  0.58548295  0.16860636  0.02990129  1
  O2-  O553  1  0.62926404  0.19922359  0.38674533  1
  O2-  O554  1  0.60583969  0.17312012  0.69325535  1
  O2-  O555  1  0.57500134  0.41143444  0.02030585  1
  O2-  O556  1  0.58974063  0.41511007  0.37628908  1
  O2-  O557  1  0.63736311  0.44799152  0.71124661  1
  O2-  O558  1  0.55599676  0.65494264  -0.01866682  1
  O2-  O559  1  0.56712363  0.67292195  0.34399118  1
  O2-  O560  1  0.47932329  0.63303658  0.67009002  1
  O2-  O561  1  0.58116882  0.91550449  0.01829182  1
  O2-  O562  1  0.58875184  0.92529003  0.35123616  1
  O2-  O563  1  0.58430411  0.91826160  0.68584362  1
  O2-  O564  1  0.83022132  0.17223084  0.02020437  1
  O2-  O565  1  0.85572816  0.16291102  0.32881243  1
  O2-  O566  1  0.84875849  0.10984094  0.63719130  1
  O2-  O567  1  0.83897506  0.40970455  0.01421953  1
  O2-  O568  1  0.84990322  0.41667564  0.33936734  1
  O2-  O569  1  0.87825595  0.41708478  0.64364070  1
  O2-  O570  1  0.81090081  0.63563781  -0.00483918  1
  O2-  O571  1  0.83291696  0.65195398  0.36648631  1
  O2-  O572  1  0.90941900  0.71083148  0.70056421  1
  O2-  O573  1  0.82539574  0.91198451  0.01983426  1
  O2-  O574  1  0.82722755  0.92160376  0.35353177  1
  O2-  O575  1  0.83183341  0.92056904  0.68883201  1
