# generated using pymatgen
data_H2O
_symmetry_space_group_name_H-M   'P 1'
_cell_length_a   17.99279707
_cell_length_b   18.00271596
_cell_length_c   22.00433570
_cell_angle_alpha   89.99412708
_cell_angle_beta   89.99930333
_cell_angle_gamma   120.00329525
_symmetry_Int_Tables_number   1
_chemical_formula_structural   H2O
_chemical_formula_sum   'H384 O192'
_cell_volume   6172.50115482
_cell_formula_units_Z   192
loop_
 _symmetry_equiv_pos_site_id
 _symmetry_equiv_pos_as_xyz
  1  'x, y, z'
loop_
 _atom_type_symbol
 _atom_type_oxidation_number
  H+  1.0
  O2-  -2.0
loop_
 _atom_site_type_symbol
 _atom_site_label
 _atom_site_symmetry_multiplicity
 _atom_site_fract_x
 _atom_site_fract_y
 _atom_site_fract_z
 _atom_site_occupancy
  H+  H0  1  0.09153042  0.66495989  0.07294880  1
  H+  H1  1  0.94847782  0.87655431  0.31808265  1
  H+  H2  1  0.87673057  0.80414444  0.97963905  1
  H+  H3  1  0.84006848  0.07481776  0.95146633  1
  H+  H4  1  0.13590358  0.87053445  0.65490933  1
  H+  H5  1  0.50244565  0.38393999  0.17434152  1
  H+  H6  1  0.94946431  0.73341698  0.04159017  1
  H+  H7  1  -0.03361855  0.60742141  0.82301720  1
  H+  H8  1  0.59857431  0.45665633  0.01032417  1
  H+  H9  1  0.12656946  0.07652093  0.33925942  1
  H+  H10  1  0.86724265  0.22327785  0.67443113  1
  H+  H11  1  0.27118064  0.40955555  0.67336317  1
  H+  H12  1  0.66939971  0.80264202  0.99068289  1
  H+  H13  1  0.56906756  0.62968949  0.83948712  1
  H+  H14  1  0.57743251  0.41184703  0.76589034  1
  H+  H15  1  0.04272230  0.15700719  0.00459514  1
  H+  H16  1  0.60042083  0.22696424  0.67012875  1
  H+  H17  1  0.58252757  0.18006935  0.39484608  1
  H+  H18  1  0.11908886  0.10431648  0.50079810  1
  H+  H19  1  0.77119230  0.12946035  0.82564345  1
  H+  H20  1  0.13614954  0.38600622  0.97952240  1
  H+  H21  1  0.98485853  0.36350179  0.33555307  1
  H+  H22  1  0.22698419  0.86860928  0.65547846  1
  H+  H23  1  0.24282417  0.88053503  0.16949599  1
  H+  H24  1  0.97240588  0.36233223  0.65847130  1
  H+  H25  1  0.86308497  0.97648396  0.15984039  1
  H+  H26  1  0.37892697  0.01920066  0.31492006  1
  H+  H27  1  0.10947118  0.65695968  0.64955723  1
  H+  H28  1  0.87148874  0.14937898  0.01855639  1
  H+  H29  1  0.78329701  0.90720803  0.00049278  1
  H+  H30  1  0.63124605  0.35451953  0.83879679  1
  H+  H31  1  1.00778933  0.37709636  0.82530462  1
  H+  H32  1  0.87993546  0.35847269  0.99573309  1
  H+  H33  1  0.71679519  0.60115470  0.66043432  1
  H+  H34  1  -0.03179245  0.11422693  0.16907851  1
  H+  H35  1  0.34903522  0.87757743  0.65371035  1
  H+  H36  1  0.26939307  0.12757608  0.66874634  1
  H+  H37  1  1.01644919  0.88732203  0.48537055  1
  H+  H38  1  -0.01725514  0.11474479  0.82757685  1
  H+  H39  1  0.23224281  0.37296881  0.32210318  1
  H+  H40  1  0.37950882  0.37718006  0.48787314  1
  H+  H41  1  0.36294861  0.35156155  0.98636897  1
  H+  H42  1  0.12914486  0.36485656  0.68181238  1
  H+  H43  1  0.87245915  -0.00379479  1.00156341  1
  H+  H44  1  0.35999244  0.59561925  0.98300013  1
  H+  H45  1  0.35995441  0.43101500  0.64326480  1
  H+  H46  1  0.15295711  0.59656782  0.69138392  1
  H+  H47  1  0.87182555  0.38731892  0.35094005  1
  H+  H48  1  0.11718962  0.23598297  0.81717486  1
  H+  H49  1  0.40052514  0.55991414  0.66151049  1
  H+  H50  1  0.49531403  0.64134092  0.66127831  1
  H+  H51  1  0.89788706  0.86884211  0.65571055  1
  H+  H52  1  0.62731236  0.86601513  0.33186561  1
  H+  H53  1  0.50510959  0.65692044  0.81165816  1
  H+  H54  1  0.12525448  0.39934509  0.15832433  1
  H+  H55  1  0.11106262  0.17818677  0.34427328  1
  H+  H56  1  0.47507965  0.84104789  -0.02285261  1
  H+  H57  1  0.48593326  0.12213868  1.00076660  1
  H+  H58  1  0.08805172  0.54718359  0.54374002  1
  H+  H59  1  0.88313671  0.61611829  0.81667692  1
  H+  H60  1  0.76808691  0.87515651  0.82187369  1
  H+  H61  1  0.13901462  0.52095132  0.33904171  1
  H+  H62  1  0.13878812  0.11028164  0.65196420  1
  H+  H63  1  0.87719581  0.35927572  0.83946332  1
  H+  H64  1  0.60950405  0.64749982  0.34319636  1
  H+  H65  1  0.77706328  0.64833891  0.82287384  1
  H+  H66  1  0.31604996  0.38572584  0.07020364  1
  H+  H67  1  0.34672495  0.67330455  0.08959735  1
  H+  H68  1  0.11608925  0.13309177  1.00821636  1
  H+  H69  1  0.25162644  0.61969662  0.34228093  1
  H+  H70  1  0.63938484  0.26875159  0.99306735  1
  H+  H71  1  0.38055214  0.52054841  0.33079698  1
  H+  H72  1  0.26338112  0.88557662  0.48496423  1
  H+  H73  1  0.86584262  0.13467877  0.49390010  1
  H+  H74  1  0.59383872  0.58780392  0.99408742  1
  H+  H75  1  0.64605612  0.36423054  0.17157751  1
  H+  H76  1  0.11266626  0.37323924  0.50232348  1
  H+  H77  1  0.63971283  0.85978446  0.18345753  1
  H+  H78  1  0.52333967  0.38327449  0.33514824  1
  H+  H79  1  0.19347278  0.07434641  0.17766730  1
  H+  H80  1  0.37689865  0.60751413  0.17159782  1
  H+  H81  1  0.93099837  0.84605955  0.59459081  1
  H+  H82  1  0.93054885  0.29928917  0.17245720  1
  H+  H83  1  0.13463940  0.85543894  0.99278270  1
  H+  H84  1  0.63695726  0.36631798  0.66141970  1
  H+  H85  1  0.61592490  0.87931290  0.83948513  1
  H+  H86  1  0.43986968  0.71939027  0.11570830  1
  H+  H87  1  0.73025972  0.86327745  0.17693555  1
  H+  H88  1  0.82348104  0.66024229  0.44227572  1
  H+  H89  1  0.35645219  0.47264017  0.15739978  1
  H+  H90  1  0.88155943  0.86605370  0.50090848  1
  H+  H91  1  0.28158106  0.15378892  0.82442524  1
  H+  H92  1  0.47688172  0.60054775  0.00341763  1
  H+  H93  1  0.35933636  0.93183618  -0.03364577  1
  H+  H94  1  0.22408607  0.38530589  0.97777423  1
  H+  H95  1  0.87373060  1.02232155  0.50517621  1
  H+  H96  1  0.14360705  0.02213028  0.99390324  1
  H+  H97  1  0.48092826  0.12981622  0.83838922  1
  H+  H98  1  0.76702655  0.88891472  0.49594776  1
  H+  H99  1  0.99241095  0.61432409  0.32568553  1
  H+  H100  1  0.41632957  0.29671267  0.16802616  1
  H+  H101  1  0.74507088  0.63339795  0.33578440  1
  H+  H102  1  0.88109124  0.27107584  0.99623421  1
  H+  H103  1  0.37508923  0.15229449  -0.00139585  1
  H+  H104  1  0.63848222  1.02786523  0.33880826  1
  H+  H105  1  0.14799189  0.73301347  0.35055258  1
  H+  H106  1  0.36370134  0.78057306  0.64377908  1
  H+  H107  1  0.37728628  0.00994317  0.65004482  1
  H+  H108  1  0.61543217  0.22411914  0.16254222  1
  H+  H109  1  0.59960719  1.01011951  0.65435525  1
  H+  H110  1  0.12177411  0.26034328  0.51692541  1
  H+  H111  1  0.71682981  0.09483401  0.51274414  1
  H+  H112  1  0.64766592  0.36765511  0.50825237  1
  H+  H113  1  0.90334910  0.59487059  0.00792147  1
  H+  H114  1  0.14324715  0.61484865  0.33832933  1
  H+  H115  1  0.26844366  0.87490984  0.99564192  1
  H+  H116  1  0.05679121  0.89841267  0.82459159  1
  H+  H117  1  0.63512580  0.77683960  0.50563541  1
  H+  H118  1  0.85262360  0.95883447  0.66665927  1
  H+  H119  1  0.62650389  0.60819765  0.50734137  1
  H+  H120  1  0.35926359  0.88856061  0.15480421  1
  H+  H121  1  0.32817327  0.91482329  0.09339096  1
  H+  H122  1  0.89113908  0.10951820  0.82960555  1
  H+  H123  1  0.52282613  0.37755086  0.67313353  1
  H+  H124  1  0.75589507  0.88854679  0.34406868  1
  H+  H125  1  0.09924099  0.13089781  0.16477271  1
  H+  H126  1  0.77186299  0.37940630  1.00910888  1
  H+  H127  1  0.77322868  0.63704420  0.17062088  1
  H+  H128  1  0.72390414  0.36123562  0.83783912  1
  H+  H129  1  0.24565746  0.30405193  0.03447240  1
  H+  H130  1  0.88737831  0.86417588  0.16859869  1
  H+  H131  1  0.85576131  0.63276626  0.50043185  1
  H+  H132  1  0.12325807  0.39782167  0.34192850  1
  H+  H133  1  0.38582202  0.83856789  0.98687420  1
  H+  H134  1  0.35470583  0.62454664  0.34479019  1
  H+  H135  1  0.38610831  0.24471938  0.65565631  1
  H+  H136  1  0.63545172  0.01567012  0.98374838  1
  H+  H137  1  0.61356130  0.46578259  0.82789204  1
  H+  H138  1  0.85460043  0.68352266  0.01794056  1
  H+  H139  1  0.07983128  0.41988223  0.06589067  1
  H+  H140  1  0.38608980  0.03092374  0.16307198  1
  H+  H141  1  0.66094413  0.07942572  0.89305879  1
  H+  H142  1  0.61324217  0.23589625  0.48828026  1
  H+  H143  1  0.01374336  0.38410173  0.00852496  1
  H+  H144  1  0.70723432  0.09337439  0.18487077  1
  H+  H145  1  0.42913166  0.33927631  0.26343558  1
  H+  H146  1  0.10114221  0.38334859  0.82034642  1
  H+  H147  1  0.64799499  0.83793483  0.60108980  1
  H+  H148  1  0.39077409  0.04132719  1.00387424  1
  H+  H149  1  0.63086904  0.47888535  0.16324806  1
  H+  H150  1  0.46553466  0.86946152  0.18072763  1
  H+  H151  1  0.37291796  0.65712153  0.67376978  1
  H+  H152  1  0.13670749  0.27628516  0.17163043  1
  H+  H153  1  0.37866849  0.15217164  0.15229349  1
  H+  H154  1  0.88921424  0.36157791  0.50615239  1
  H+  H155  1  0.25823826  0.85356324  0.81820349  1
  H+  H156  1  0.60816492  0.97185127  0.83279975  1
  H+  H157  1  0.85843634  0.95791393  0.81879775  1
  H+  H158  1  0.12165724  0.14961198  0.82185020  1
  H+  H159  1  0.98588129  0.59032797  1.00011453  1
  H+  H160  1  0.61343794  0.47027945  0.33597315  1
  H+  H161  1  0.02136275  0.89053527  0.00790544  1
  H+  H162  1  0.37902619  0.53797218  0.52118479  1
  H+  H163  1  0.64906046  0.06648776  0.56775503  1
  H+  H164  1  0.67065293  0.33384899  0.56846149  1
  H+  H165  1  0.63981138  0.60952109  0.17579111  1
  H+  H166  1  0.16738388  0.32255238  0.72478162  1
  H+  H167  1  0.60730020  0.13146663  0.16877412  1
  H+  H168  1  0.39405299  0.83857500  0.56334483  1
  H+  H169  1  0.25443494  0.61910137  1.00339287  1
  H+  H170  1  0.51117971  0.13679668  0.66776190  1
  H+  H171  1  0.34985273  0.63962603  0.49818951  1
  H+  H172  1  0.63035929  0.88300970  0.98516313  1
  H+  H173  1  0.30786109  0.18160589  0.15262338  1
  H+  H174  1  1.00679312  0.13268530  0.49621467  1
  H+  H175  1  0.37345638  0.15819974  0.82572063  1
  H+  H176  1  0.68497892  0.60071589  1.00671834  1
  H+  H177  1  0.38296566  0.78179515  0.16663719  1
  H+  H178  1  0.46664677  0.61322743  0.33120062  1
  H+  H179  1  0.64029276  0.11876828  0.33590282  1
  H+  H180  1  0.57096799  0.88339900  0.66676143  1
  H+  H181  1  0.11594093  0.72150795  1.01159052  1
  H+  H182  1  0.88078590  0.77591797  0.50356892  1
  H+  H183  1  0.40654285  0.59538289  0.92246623  1
  H+  H184  1  0.89482385  0.89752921  -0.01199657  1
  H+  H185  1  0.37547857  1.00780364  0.49459396  1
  H+  H186  1  0.61564774  0.63727542  0.67606152  1
  H+  H187  1  0.11944457  0.46509708  0.50291972  1
  H+  H188  1  0.61656144  0.37857560  0.01132071  1
  H+  H189  1  0.11395529  0.71993560  0.16910513  1
  H+  H190  1  0.39796373  0.74928391  0.82644530  1
  H+  H191  1  0.48693201  0.35132945  0.50302498  1
  H+  H192  1  0.51743906  0.64123899  0.49811017  1
  H+  H193  1  0.63040080  0.35980579  0.31906559  1
  H+  H194  1  0.72392446  0.36206163  0.66138466  1
  H+  H195  1  0.34639559  0.85593116  0.81179634  1
  H+  H196  1  0.60387405  0.97207837  0.18854503  1
  H+  H197  1  0.10380120  0.21356078  0.66699890  1
  H+  H198  1  0.19911200  0.90768947  0.33361331  1
  H+  H199  1  0.91638534  0.07471064  0.23083401  1
  H+  H200  1  0.06359341  0.85764002  0.34560816  1
  H+  H201  1  0.11965001  0.74155045  0.83835222  1
  H+  H202  1  0.59047750  0.41627232  0.43396075  1
  H+  H203  1  0.52585780  0.13933558  0.33332373  1
  H+  H204  1  0.62733338  0.77582439  0.84826572  1
  H+  H205  1  0.38287239  0.27232924  0.97941668  1
  H+  H206  1  0.01329387  0.86003603  0.16682798  1
  H+  H207  1  0.62946375  0.86274250  0.50244360  1
  H+  H208  1  0.36754248  0.13537711  0.33209973  1
  H+  H209  1  0.12600824  0.51681516  0.99145007  1
  H+  H210  1  0.83771716  0.87811930  0.34004031  1
  H+  H211  1  0.27865238  0.13346282  0.33910701  1
  H+  H212  1  0.97747210  0.35782581  0.50597179  1
  H+  H213  1  0.85764082  0.22079094  0.82974676  1
  H+  H214  1  0.72205414  0.10629247  -0.00670598  1
  H+  H215  1  0.39328141  0.27504975  0.32163507  1
  H+  H216  1  0.11541851  0.47129034  0.67670607  1
  H+  H217  1  0.52498491  0.89364461  0.34200060  1
  H+  H218  1  0.22785179  0.37679830  0.82531140  1
  H+  H219  1  0.17285088  0.58322797  0.23615956  1
  H+  H220  1  0.22967829  0.36127191  0.16995502  1
  H+  H221  1  0.78159400  0.38836282  0.50140289  1
  H+  H222  1  0.90469901  0.61368245  0.32355106  1
  H+  H223  1  0.37474826  0.78205116  0.49973375  1
  H+  H224  1  0.38013561  0.32808068  0.65425650  1
  H+  H225  1  0.84928177  0.11807614  0.16919841  1
  H+  H226  1  0.61340149  0.47640465  0.49344728  1
  H+  H227  1  0.87858528  0.76876399  0.17661604  1
  H+  H228  1  0.13263123  0.60856942  -0.00569638  1
  H+  H229  1  0.37368010  0.39355243  0.15998925  1
  H+  H230  1  0.48467022  0.88650818  0.65827304  1
  H+  H231  1  0.37986666  0.11414735  0.49162129  1
  H+  H232  1  0.43033846  0.47101488  0.46678187  1
  H+  H233  1  0.12211400  0.65922382  0.50142025  1
  H+  H234  1  0.66008221  0.83276644  0.27402051  1
  H+  H235  1  0.82654084  0.19238078  0.18052831  1
  H+  H236  1  0.90276770  0.08080110  0.56645178  1
  H+  H237  1  0.36753290  0.40586183  0.82011126  1
  H+  H238  1  0.86024809  0.38424433  0.67164958  1
  H+  H239  1  0.84694126  0.62296751  0.66626867  1
  H+  H240  1  0.86616660  0.46545946  0.01187756  1
  H+  H241  1  0.87002917  0.38592675  0.16295604  1
  H+  H242  1  0.14888048  0.04301241  0.83493711  1
  H+  H243  1  0.58925080  0.67285027  0.73464986  1
  H+  H244  1  0.83202425  0.40599173  0.10285664  1
  H+  H245  1  0.97222740  0.61755555  0.65968743  1
  H+  H246  1  0.38379076  0.28406351  0.83221117  1
  H+  H247  1  0.51536164  0.87112750  0.82962141  1
  H+  H248  1  0.85545167  0.47520536  0.82209919  1
  H+  H249  1  0.86157035  0.47399884  0.67301931  1
  H+  H250  1  0.14557111  0.61516895  0.17770677  1
  H+  H251  1  0.02685097  0.62819832  0.16404404  1
  H+  H252  1  0.88853090  0.52429013  0.50729091  1
  H+  H253  1  0.15448677  0.92669685  0.80865193  1
  H+  H254  1  0.61271092  0.12966786  1.00710552  1
  H+  H255  1  0.34825725  0.70345253  -0.00299852  1
  H+  H256  1  0.02471528  0.89353456  0.66040900  1
  H+  H257  1  0.14055403  0.02254894  0.65018179  1
  H+  H258  1  0.13056579  0.86960929  0.50623674  1
  H+  H259  1  0.47802721  0.11706775  0.16766283  1
  H+  H260  1  0.11876448  0.51414489  0.83629530  1
  H+  H261  1  0.62443557  0.78273731  0.66075984  1
  H+  H262  1  0.36651715  0.38629013  0.33187472  1
  H+  H263  1  0.89716876  0.51811139  0.17038687  1
  H+  H264  1  0.42210752  0.60996774  0.57291300  1
  H+  H265  1  0.51410124  0.88565938  0.49273405  1
  H+  H266  1  0.86745799  0.23050818  0.34738249  1
  H+  H267  1  0.61634107  0.22243193  0.82431460  1
  H+  H268  1  0.10419833  0.62103920  0.82075187  1
  H+  H269  1  0.62628620  0.26297797  0.32059100  1
  H+  H270  1  0.52837730  0.14241138  0.48562056  1
  H+  H271  1  0.25813164  0.63378443  0.49607290  1
  H+  H272  1  0.60511593  0.47389727  0.67250503  1
  H+  H273  1  0.09781599  0.81446321  0.84849954  1
  H+  H274  1  0.55973556  0.68625239  0.02091744  1
  H+  H275  1  -0.02857031  0.11012885  0.32370345  1
  H+  H276  1  0.71611564  0.60908948  0.51091336  1
  H+  H277  1  0.33998935  0.41101249  0.39421109  1
  H+  H278  1  0.86827276  0.23010113  0.49398954  1
  H+  H279  1  0.88097044  0.10769135  0.65811311  1
  H+  H280  1  0.10594837  0.98068021  0.48863499  1
  H+  H281  1  0.14083823  0.86881961  0.18272819  1
  H+  H282  1  0.38382627  0.21896915  0.48887014  1
  H+  H283  1  0.37657287  0.09815906  0.64972192  1
  H+  H284  1  0.38835226  0.77755207  0.32959776  1
  H+  H285  1  0.73360572  0.35841897  0.17487141  1
  H+  H286  1  0.86201321  0.73946659  0.81531990  1
  H+  H287  1  0.96577392  0.77344141  0.88099568  1
  H+  H288  1  0.84168370  0.16430547  0.73353379  1
  H+  H289  1  0.67340970  0.84382303  0.90496810  1
  H+  H290  1  0.08122204  0.16457817  0.10256738  1
  H+  H291  1  0.59776440  0.41638387  0.10302445  1
  H+  H292  1  0.91216432  0.32915803  0.59984963  1
  H+  H293  1  0.90739305  0.32978600  0.89925783  1
  H+  H294  1  0.57415434  0.89787849  0.03766080  1
  H+  H295  1  0.34240008  0.43142320  0.75736473  1
  H+  H296  1  0.11423476  0.74450435  0.66513255  1
  H+  H297  1  0.63053511  0.10462837  0.83162466  1
  H+  H298  1  0.09243761  0.41745899  0.40640690  1
  H+  H299  1  0.82664545  0.41061140  0.76612358  1
  H+  H300  1  0.58792676  0.16189353  0.06851659  1
  H+  H301  1  0.77407304  0.14178760  0.34974265  1
  H+  H302  1  0.83027041  0.89899096  0.72475481  1
  H+  H303  1  0.89866631  0.82960539  0.25802405  1
  H+  H304  1  0.09445551  0.67393946  0.40562675  1
  H+  H305  1  0.66735070  0.32825458  0.93358229  1
  H+  H306  1  0.14979671  0.31776224  0.57652061  1
  H+  H307  1  0.83753101  0.17138476  0.42341354  1
  H+  H308  1  0.88427409  0.73897711  0.33889488  1
  H+  H309  1  0.82429207  0.16056579  0.07596675  1
  H+  H310  1  0.65127877  0.57424221  0.60439110  1
  H+  H311  1  0.16647498  0.57933633  0.58756649  1
  H+  H312  1  0.56713798  0.64855532  0.11569280  1
  H+  H313  1  0.16787928  0.35046254  0.88385899  1
  H+  H314  1  0.60751670  0.97110404  0.49607570  1
  H+  H315  1  0.10341211  0.25847545  0.34240043  1
  H+  H316  1  0.60030805  0.73007436  0.34425180  1
  H+  H317  1  0.66312178  0.32830762  0.25484722  1
  H+  H318  1  0.14291399  0.00038235  0.33168786  1
  H+  H319  1  0.91975469  0.08946749  0.91619070  1
  H+  H320  1  0.08516630  0.66322111  0.75984050  1
  H+  H321  1  0.92926600  0.71251005  0.38796734  1
  H+  H322  1  0.73448428  0.53554073  0.88116475  1
  H+  H323  1  0.39496322  0.57329964  0.23333968  1
  H+  H324  1  0.15879038  0.07800209  0.55577720  1
  H+  H325  1  0.13099459  0.49222264  0.16137931  1
  H+  H326  1  0.96476598  0.09892934  0.65168640  1
  H+  H327  1  0.06801948  0.41049412  0.73413324  1
  H+  H328  1  0.61727085  0.10632319  0.65223145  1
  H+  H329  1  0.41564213  0.08212667  0.25852333  1
  H+  H330  1  0.31987442  0.65586653  0.40616229  1
  H+  H331  1  0.35111555  0.88206782  0.48165114  1
  H+  H332  1  0.09502365  0.95130013  0.16796193  1
  H+  H333  1  0.74053048  0.70275390  0.29790027  1
  H+  H334  1  0.92924238  0.57631591  0.22967483  1
  H+  H335  1  0.83569641  0.92186688  0.09894298  1
  H+  H336  1  0.97421275  0.61777892  0.50623451  1
  H+  H337  1  0.58613110  0.92278327  0.12765288  1
  H+  H338  1  0.24915064  0.61564381  0.67467037  1
  H+  H339  1  0.34826176  0.18828671  0.05507023  1
  H+  H340  1  0.17121810  0.34695886  0.26260306  1
  H+  H341  1  0.16356392  0.84079428  0.56575233  1
  H+  H342  1  0.91423238  0.58183463  0.60042876  1
  H+  H343  1  0.07827001  0.15635432  0.72496198  1
  H+  H344  1  0.62122287  0.72324616  0.16422802  1
  H+  H345  1  0.67254776  0.56526758  0.90735278  1
  H+  H346  1  0.23039778  0.11346902  0.99157514  1
  H+  H347  1  0.41015372  0.83363936  0.27056100  1
  H+  H348  1  0.82541249  0.91939763  0.43618601  1
  H+  H349  1  0.94966679  0.84804909  0.89837883  1
  H+  H350  1  0.32130588  0.90643118  0.71953176  1
  H+  H351  1  0.42579822  0.10879910  0.89899471  1
  H+  H352  1  0.36942486  0.54876915  0.80434734  1
  H+  H353  1  0.42269261  0.31192607  0.56030958  1
  H+  H354  1  0.82075660  0.66543094  0.71929820  1
  H+  H355  1  0.47494365  0.37115520  0.83698139  1
  H+  H356  1  0.09727007  0.91077820  0.40972581  1
  H+  H357  1  0.17193659  0.09395718  0.89765444  1
  H+  H358  1  0.41027143  0.80604304  0.88601596  1
  H+  H359  1  0.15669123  0.81519061  0.93441788  1
  H+  H360  1  0.33118649  0.15996827  0.72892303  1
  H+  H361  1  0.57989857  0.91863992  0.40419933  1
  H+  H362  1  0.65869018  0.08043894  0.24892806  1
  H+  H363  1  0.27930062  0.86465267  0.38421046  1
  H+  H364  1  0.85275145  0.66390600  0.12487986  1
  H+  H365  1  0.07722769  0.90304958  0.06798106  1
  H+  H366  1  0.11368718  0.74295839  0.49691384  1
  H+  H367  1  0.20595059  0.86932753  0.24213651  1
  H+  H368  1  0.57835554  0.16460936  0.76441431  1
  H+  H369  1  0.40499869  0.06510600  0.55950361  1
  H+  H370  1  0.67514128  0.58685429  0.23521530  1
  H+  H371  1  0.06805739  0.17663572  0.43868124  1
  H+  H372  1  0.87579320  0.47667277  0.34893335  1
  H+  H373  1  0.57368842  0.66464569  0.43735352  1
  H+  H374  1  0.84228618  0.41923337  0.44170461  1
  H+  H375  1  0.14412461  0.05848139  0.23948471  1
  H+  H376  1  0.92977537  0.33725397  0.27485398  1
  H+  H377  1  0.33699957  0.66205634  0.74098164  1
  H+  H378  1  0.08952527  0.92859015  0.71982200  1
  H+  H379  1  0.40468904  0.33848669  0.91644856  1
  H+  H380  1  0.15043901  0.57568993  0.89431997  1
  H+  H381  1  0.35000558  0.15979257  0.42676403  1
  H+  H382  1  1.00521847  0.39146094  0.17748056  1
  H+  H383  1  0.89085713  0.01342084  0.32252187  1
  O2-  O384  1  0.07573530  0.16576797  0.14809721  1
  O2-  O385  1  0.06839947  0.16462756  0.48264951  1
  O2-  O386  1  0.08928533  0.17512866  0.80250427  1
  O2-  O387  1  0.09591857  0.43114381  0.14498293  1
  O2-  O388  1  0.08725162  0.40799616  0.48404689  1
  O2-  O389  1  0.06659358  0.40987703  0.80667822  1
  O2-  O390  1  0.09012936  0.66392127  0.14971994  1
  O2-  O391  1  0.08711635  0.68060675  0.48226411  1
  O2-  O392  1  0.07712931  0.65622648  0.80439327  1
  O2-  O393  1  0.07605772  0.89146488  0.15420737  1
  O2-  O394  1  0.07887635  0.91778216  0.47304367  1
  O2-  O395  1  0.10969734  0.94160911  0.80280736  1
  O2-  O396  1  0.36169407  0.19322620  0.13397195  1
  O2-  O397  1  0.35421088  0.15807670  0.47225349  1
  O2-  O398  1  0.34054552  0.18514195  0.80681780  1
  O2-  O399  1  0.33416928  0.41165910  0.14248551  1
  O2-  O400  1  0.37130664  0.42446356  0.47135501  1
  O2-  O401  1  0.33600500  0.43279505  0.80193659  1
  O2-  O402  1  0.38047509  0.69672854  0.12850405  1
  O2-  O403  1  0.31507269  0.66141847  0.47683676  1
  O2-  O404  1  0.35128199  0.64849140  0.80379915  1
  O2-  O405  1  0.32773700  0.91868955  0.13814921  1
  O2-  O406  1  0.31912781  0.91065838  0.46270061  1
  O2-  O407  1  0.31521647  0.88559239  0.79961228  1
  O2-  O408  1  0.58157042  0.16304868  0.14853173  1
  O2-  O409  1  0.57805313  0.18470001  0.46229501  1
  O2-  O410  1  0.58374699  0.16189935  0.80976436  1
  O2-  O411  1  0.60059416  0.41756005  0.14948709  1
  O2-  O412  1  0.58841627  0.41528899  0.47887321  1
  O2-  O413  1  0.57396008  0.40768750  0.81172876  1
  O2-  O414  1  0.59459964  0.66101367  0.15569571  1
  O2-  O415  1  0.57681339  0.66356730  0.48260728  1
  O2-  O416  1  0.56816942  0.67566006  0.81686559  1
  O2-  O417  1  0.57664069  0.91156965  0.17103931  1
  O2-  O418  1  0.57428593  0.91023985  0.47770702  1
  O2-  O419  1  0.58096477  0.90816434  0.82266003  1
  O2-  O420  1  0.81050140  0.14200297  0.15540793  1
  O2-  O421  1  0.83857473  0.16955234  0.47618075  1
  O2-  O422  1  0.83314127  0.16050901  0.81490020  1
  O2-  O423  1  0.83269905  0.40841397  0.14880959  1
  O2-  O424  1  0.84324994  0.41975582  0.48793403  1
  O2-  O425  1  0.82570623  0.41218341  0.81164859  1
  O2-  O426  1  0.83652074  0.67516271  0.16499073  1
  O2-  O427  1  0.82314640  0.66189684  0.48690279  1
  O2-  O428  1  0.83013737  0.68100721  0.79894395  1
  O2-  O429  1  0.83425267  0.91609424  0.14409505  1
  O2-  O430  1  0.82874473  0.92017464  0.48142229  1
  O2-  O431  1  0.82738856  0.89688120  0.80722356  1
  O2-  O432  1  0.13635952  0.05464427  0.19412499  1
  O2-  O433  1  0.14939466  0.07255154  0.51099675  1
  O2-  O434  1  0.17588489  0.10166047  0.85272543  1
  O2-  O435  1  0.16956048  0.33701522  0.18556345  1
  O2-  O436  1  0.15315997  0.32105942  0.53237536  1
  O2-  O437  1  0.16654164  0.34221236  0.83798452  1
  O2-  O438  1  0.17648619  0.58523653  0.19158865  1
  O2-  O439  1  0.15058803  0.57452648  0.54281876  1
  O2-  O440  1  0.14674611  0.57506994  0.84928148  1
  O2-  O441  1  0.18751673  0.85420908  0.19728063  1
  O2-  O442  1  0.16128446  0.83899669  0.51962257  1
  O2-  O443  1  0.14263376  0.80119307  0.85857194  1
  O2-  O444  1  0.41561060  0.08996578  0.18006180  1
  O2-  O445  1  0.40744831  0.06799681  0.51266467  1
  O2-  O446  1  0.42322978  0.11428120  0.85477574  1
  O2-  O447  1  0.44033411  0.35336730  0.18807936  1
  O2-  O448  1  0.42466157  0.31529218  0.51491094  1
  O2-  O449  1  0.41281115  0.34433504  0.85010658  1
  O2-  O450  1  0.38933800  0.56444942  0.18903421  1
  O2-  O451  1  0.41088485  0.60026239  0.52711774  1
  O2-  O452  1  0.40601245  0.61027999  0.79366276  1
  O2-  O453  1  0.40193493  0.83899411  0.18595539  1
  O2-  O454  1  0.40224135  0.84184486  0.51342926  1
  O2-  O455  1  0.41940670  0.81042156  0.84141010  1
  O2-  O456  1  0.64939569  0.07211089  0.20328677  1
  O2-  O457  1  0.65552626  0.06331959  0.52140406  1
  O2-  O458  1  0.65888904  0.07246592  0.84813469  1
  O2-  O459  1  0.67137514  0.32903131  0.18862347  1
  O2-  O460  1  0.67600818  0.33567605  0.52282159  1
  O2-  O461  1  0.66404788  0.32792291  0.85508806  1
  O2-  O462  1  0.67046267  0.57824730  0.19091728  1
  O2-  O463  1  0.65419235  0.57522990  0.52222528  1
  O2-  O464  1  0.69633940  0.55681976  0.86869458  1
  O2-  O465  1  0.67168476  0.83043095  0.19534183  1
  O2-  O466  1  0.66557097  0.83811068  0.51741619  1
  O2-  O467  1  0.66202722  0.83787897  0.85873759  1
  O2-  O468  1  0.90833222  0.08040009  0.18540306  1
  O2-  O469  1  0.90348900  0.08375693  0.51962704  1
  O2-  O470  1  0.92329462  0.08076304  0.84411765  1
  O2-  O471  1  0.94355883  0.35258374  0.19269613  1
  O2-  O472  1  0.91625479  0.32651375  0.51926185  1
  O2-  O473  1  0.90660041  0.32760333  0.85385545  1
  O2-  O474  1  0.93354544  0.57801066  0.18473434  1
  O2-  O475  1  0.91396852  0.58592947  0.52083813  1
  O2-  O476  1  0.90514481  0.58104597  0.83517387  1
  O2-  O477  1  0.91429251  0.83324150  0.18863844  1
  O2-  O478  1  0.91655314  0.83840555  0.51107352  1
  O2-  O479  1  0.96664986  0.82387033  0.86374032  1
  O2-  O480  1  0.16206723  0.06007142  0.31575211  1
  O2-  O481  1  0.17308409  0.08474976  0.63636934  1
  O2-  O482  1  0.16934090  0.08148147  0.97813362  1
  O2-  O483  1  0.17176279  0.35089053  0.30823610  1
  O2-  O484  1  0.16726685  0.33713785  0.68194756  1
  O2-  O485  1  0.17129238  0.36851211  0.95493154  1
  O2-  O486  1  0.17299948  0.58288712  0.32366770  1
  O2-  O487  1  0.18006876  0.57746355  0.66158154  1
  O2-  O488  1  0.15978558  0.57716308  0.97566502  1
  O2-  O489  1  0.24511991  0.90351445  0.31000856  1
  O2-  O490  1  0.16353184  0.83682418  0.64015819  1
  O2-  O491  1  0.16549448  0.82519619  0.97952312  1
  O2-  O492  1  0.41523095  0.07989172  0.30407485  1
  O2-  O493  1  0.40741696  0.07035075  0.63186342  1
  O2-  O494  1  0.42475022  0.09844243  0.98588218  1
  O2-  O495  1  0.42554339  0.33654385  0.30932196  1
  O2-  O496  1  0.41686144  0.30660385  0.63936151  1
  O2-  O497  1  0.40227207  0.33361653  0.96451910  1
  O2-  O498  1  0.40468641  0.58228148  0.31901654  1
  O2-  O499  1  0.43515650  0.61787137  0.64393208  1
  O2-  O500  1  0.39408960  0.57142674  0.96338279  1
  O2-  O501  1  0.42222613  0.83638855  0.31447292  1
  O2-  O502  1  0.38635630  0.83748304  0.62578502  1
  O2-  O503  1  0.41187655  0.80711991  0.96833884  1
  O2-  O504  1  0.67163874  0.08873437  0.32278709  1
  O2-  O505  1  0.63903308  0.06959924  0.63684028  1
  O2-  O506  1  0.66394010  0.07871220  0.97493196  1
  O2-  O507  1  0.65666215  0.32548535  0.30267625  1
  O2-  O508  1  0.66407206  0.33378965  0.64486859  1
  O2-  O509  1  0.66924313  0.32945153  0.97915456  1
  O2-  O510  1  0.70540124  0.64325513  0.31129161  1
  O2-  O511  1  0.65208874  0.57200951  0.64943114  1
  O2-  O512  1  0.63533844  0.56882219  0.98039653  1
  O2-  O513  1  0.65537748  0.83163506  0.31930523  1
  O2-  O514  1  0.63098644  0.83620325  0.64388628  1
  O2-  O515  1  0.69026051  0.85947305  0.97360422  1
  O2-  O516  1  0.93707763  0.05978328  0.29777772  1
  O2-  O517  1  0.90495526  0.07348132  0.63703076  1
  O2-  O518  1  0.89908930  0.08907560  0.95984283  1
  O2-  O519  1  0.92484108  0.33087209  0.31971563  1
  O2-  O520  1  0.91137939  0.33255843  0.64495354  1
  O2-  O521  1  0.91136620  0.32959172  0.97871890  1
  O2-  O522  1  0.93257652  0.58096023  0.31073364  1
  O2-  O523  1  0.91236778  0.57917036  0.64572710  1
  O2-  O524  1  0.92430893  0.55995798  0.98826563  1
  O2-  O525  1  0.89407759  0.82761841  0.30504209  1
  O2-  O526  1  0.93758422  0.84847617  0.63912928  1
  O2-  O527  1  0.92281992  0.86271543  0.97249247  1
  O2-  O528  1  0.09422333  0.16877530  0.02711176  1
  O2-  O529  1  0.07339174  0.19835110  0.35932763  1
  O2-  O530  1  0.07624143  0.15301854  0.67947086  1
  O2-  O531  1  0.07552718  0.41773877  0.02068580  1
  O2-  O532  1  0.09094311  0.42400781  0.36117614  1
  O2-  O533  1  0.07562011  0.41005211  0.68825518  1
  O2-  O534  1  0.08871285  0.66195631  0.02745937  1
  O2-  O535  1  0.10176736  0.67386562  0.36028473  1
  O2-  O536  1  0.08423913  0.68034935  0.67740826  1
  O2-  O537  1  0.07998785  0.90729301  0.02302513  1
  O2-  O538  1  0.11242686  0.90800113  0.36322507  1
  O2-  O539  1  0.08976184  0.92504471  0.67516643  1
  O2-  O540  1  0.34182424  0.18182229  0.01005309  1
  O2-  O541  1  0.33995728  0.16656551  0.35066229  1
  O2-  O542  1  0.33056219  0.15359653  0.68367938  1
  O2-  O543  1  0.29719954  0.35990697  0.02804247  1
  O2-  O544  1  0.33510157  0.41409961  0.34917498  1
  O2-  O545  1  0.33557035  0.44615232  0.67728571  1
  O2-  O546  1  0.31672059  0.64664205  0.01758278  1
  O2-  O547  1  0.32091382  0.65404785  0.35940012  1
  O2-  O548  1  0.33009351  0.66923860  0.69316485  1
  O2-  O549  1  0.33226138  0.90676275  0.00535129  1
  O2-  O550  1  0.25030281  0.83557251  0.34495004  1
  O2-  O551  1  0.31974477  0.91306336  0.67473193  1
  O2-  O552  1  0.58503323  0.16201900  0.02322066  1
  O2-  O553  1  0.58575381  0.17561939  0.34779008  1
  O2-  O554  1  0.56814125  0.16833895  0.68795353  1
  O2-  O555  1  0.58380441  0.40294498  0.03155661  1
  O2-  O556  1  0.58544106  0.41080653  0.34964392  1
  O2-  O557  1  0.58101574  0.41380322  0.69016599  1
  O2-  O558  1  0.53410703  0.62456297  0.02643271  1
  O2-  O559  1  0.57136759  0.66823579  0.35792270  1
  O2-  O560  1  0.58887887  0.67172396  0.68979780  1
  O2-  O561  1  0.58295462  0.90464830  -0.00602324  1
  O2-  O562  1  0.58528674  0.92386541  0.35794935  1
  O2-  O563  1  0.54140038  0.91479365  0.68004185  1
  O2-  O564  1  0.82944040  0.16628058  0.03092996  1
  O2-  O565  1  0.83456778  0.17148029  0.36584689  1
  O2-  O566  1  0.84814446  0.16452979  0.68889534  1
  O2-  O567  1  0.83035750  0.40395638  0.02744767  1
  O2-  O568  1  0.84535791  0.41936693  0.36816857  1
  O2-  O569  1  0.82919652  0.41340714  0.68771919  1
  O2-  O570  1  0.89441957  0.68084274  0.04663416  1
  O2-  O571  1  0.87803259  0.68813421  0.36237010  1
  O2-  O572  1  0.81104656  0.64888343  0.67600439  1
  O2-  O573  1  0.84496302  0.93662469  0.01799566  1
  O2-  O574  1  0.81785681  0.91593718  0.35706466  1
  O2-  O575  1  0.83510013  0.89994978  0.67978563  1
