# generated using pymatgen
data_H2O
_symmetry_space_group_name_H-M   'P 1'
_cell_length_a   17.98777962
_cell_length_b   17.98175015
_cell_length_c   21.98646778
_cell_angle_alpha   89.96300648
_cell_angle_beta   90.04512487
_cell_angle_gamma   120.00072154
_symmetry_Int_Tables_number   1
_chemical_formula_structural   H2O
_chemical_formula_sum   'H384 O192'
_cell_volume   6158.74612059
_cell_formula_units_Z   192
loop_
 _symmetry_equiv_pos_site_id
 _symmetry_equiv_pos_as_xyz
  1  'x, y, z'
loop_
 _atom_type_symbol
 _atom_type_oxidation_number
  H+  1.0
  O2-  -2.0
loop_
 _atom_site_type_symbol
 _atom_site_label
 _atom_site_symmetry_multiplicity
 _atom_site_fract_x
 _atom_site_fract_y
 _atom_site_fract_z
 _atom_site_occupancy
  H+  H0  1  0.86619047  0.89759774  0.48334546  1
  H+  H1  1  0.85174433  0.17423605  0.09938888  1
  H+  H2  1  0.11515917  0.14632891  0.82464887  1
  H+  H3  1  0.11640450  0.74575712  0.51133545  1
  H+  H4  1  0.52001878  0.37586731  0.48843472  1
  H+  H5  1  0.56494876  0.40508368  0.09446525  1
  H+  H6  1  0.36196838  0.71622422  0.50094645  1
  H+  H7  1  0.98061668  0.09658336  0.66113837  1
  H+  H8  1  0.63832520  0.78234073  0.69366681  1
  H+  H9  1  0.88720054  0.86320706  0.32595197  1
  H+  H10  1  0.53548836  0.39758312  0.82487032  1
  H+  H11  1  0.27320198  0.62630168  0.50005881  1
  H+  H12  1  0.74178942  0.62933122  0.17281602  1
  H+  H13  1  0.88673966  1.00991435  0.17093784  1
  H+  H14  1  0.41605067  0.09387082  0.26448845  1
  H+  H15  1  0.98848418  0.58733857  0.97334520  1
  H+  H16  1  0.78252249  0.89330606  0.33479888  1
  H+  H17  1  0.39794835  0.86128052  0.16666343  1
  H+  H18  1  0.14450084  0.90777791  0.64983685  1
  H+  H19  1  0.35419333  0.22116918  0.34035693  1
  H+  H20  1  0.60975158  -0.03768862  0.48311141  1
  H+  H21  1  0.07709572  0.84512909  0.02770079  1
  H+  H22  1  0.53876884  0.41535730  0.67295326  1
  H+  H23  1  0.66795293  0.57858574  0.27327117  1
  H+  H24  1  0.22754564  0.85807942  0.39905634  1
  H+  H25  1  0.38598840  0.06315798  1.00031129  1
  H+  H26  1  0.72204013  0.85979551  0.99243734  1
  H+  H27  1  0.73029781  0.62113129  0.00750184  1
  H+  H28  1  0.10550985  0.20269827  0.66689460  1
  H+  H29  1  0.49814328  0.64039232  0.80062212  1
  H+  H30  1  0.37940663  0.62263633  0.83713711  1
  H+  H31  1  0.37020088  0.85892247  0.97841388  1
  H+  H32  1  0.67663666  0.73551526  0.65671829  1
  H+  H33  1  0.16662347  0.05311140  0.56229356  1
  H+  H34  1  0.84748105  0.72399352  0.35496880  1
  H+  H35  1  0.69974896  0.65039470  0.50713982  1
  H+  H36  1  0.36867169  0.11633834  0.67133267  1
  H+  H37  1  0.60928811  0.37699964  0.48762963  1
  H+  H38  1  0.09708130  0.72576634  0.01186775  1
  H+  H39  1  0.13976443  0.35726277  0.50218730  1
  H+  H40  1  0.98661401  0.37002923  0.50593016  1
  H+  H41  1  0.34598695  -0.02767744  0.67094687  1
  H+  H42  1  0.91697226  0.85248298  0.56333520  1
  H+  H43  1  0.34569912  0.47141196  0.15534657  1
  H+  H44  1  0.90628980  0.29136408  0.66116764  1
  H+  H45  1  0.82242997  0.73841827  0.50402861  1
  H+  H46  1  0.62712112  0.84668367  0.52359746  1
  H+  H47  1  0.79499946  0.11675467  0.15657927  1
  H+  H48  1  0.91319341  0.08319687  0.93469262  1
  H+  H49  1  0.40242400  0.77472490  0.32043649  1
  H+  H50  1  0.91068828  0.61520336  0.81757271  1
  H+  H51  1  0.79161255  0.13371814  0.35679104  1
  H+  H52  1  0.98482936  0.11718474  0.50952508  1
  H+  H53  1  0.61277168  0.12044783  0.96042621  1
  H+  H54  1  0.17711027  0.88259581  0.82607867  1
  H+  H55  1  0.22207767  0.35686451  0.32328627  1
  H+  H56  1  0.02955732  0.39638152  0.83447384  1
  H+  H57  1  0.34101054  0.22016975  0.16897256  1
  H+  H58  1  0.88510349  0.52747877  0.67011270  1
  H+  H59  1  0.86671265  0.39012219  0.34440385  1
  H+  H60  1  0.85929140  0.38849287  0.67470831  1
  H+  H61  1  0.34296063  0.46534053  0.66459747  1
  H+  H62  1  0.11008829  0.57773526  0.98934547  1
  H+  H63  1  0.62013547  0.87176681  0.82703348  1
  H+  H64  1  0.53032406  0.13462248  0.96613291  1
  H+  H65  1  0.05638315  0.65628337  0.82888635  1
  H+  H66  1  0.61762670  0.48446622  1.01301075  1
  H+  H67  1  0.86682594  0.72239710  0.15843959  1
  H+  H68  1  0.85418283  0.88787106  1.00903280  1
  H+  H69  1  0.34742142  0.72128951  0.00053409  1
  H+  H70  1  0.12534959  0.36649223  0.84331689  1
  H+  H71  1  0.48221417  0.60806502  0.51451686  1
  H+  H72  1  0.37148918  0.24365306  0.83718215  1
  H+  H73  1  0.62896948  0.75199133  0.17200447  1
  H+  H74  1  0.08955484  0.44752753  1.01078899  1
  H+  H75  1  0.65255508  0.52982456  0.84750740  1
  H+  H76  1  0.03928968  0.65875015  0.15889714  1
  H+  H77  1  0.88232799  0.16195044  -0.00274162  1
  H+  H78  1  0.13243147  0.35821778  0.32333318  1
  H+  H79  1  0.88023027  0.18819556  0.73961792  1
  H+  H80  1  0.10779531  0.21838268  0.15978133  1
  H+  H81  1  0.86227480  0.87768060  0.16056481  1
  H+  H82  1  0.52385213  0.88705815  0.99945020  1
  H+  H83  1  0.65763783  1.00477875  0.33204063  1
  H+  H84  1  0.82433501  0.91792049  1.06681599  1
  H+  H85  1  0.58609198  0.89982098  0.09212739  1
  H+  H86  1  0.87074535  0.54996760  0.91677931  1
  H+  H87  1  0.96970426  0.23239161  0.70595493  1
  H+  H88  1  0.86578964  0.97046474  0.67910093  1
  H+  H89  1  0.87092909  0.88518178  0.83834296  1
  H+  H90  1  0.64794249  0.01253590  0.83353655  1
  H+  H91  1  0.59565728  0.43347639  0.76512225  1
  H+  H92  1  0.61829588  0.72295865  0.51499671  1
  H+  H93  1  0.47166080  0.45581371  -0.04248171  1
  H+  H94  1  0.34669875  0.46487586  0.33500889  1
  H+  H95  1  0.47212161  0.21996930  0.56883413  1
  H+  H96  1  0.24232385  0.14912678  -0.02489093  1
  H+  H97  1  0.91838553  0.88967010  0.66011250  1
  H+  H98  1  0.91356734  0.54174200  0.15580603  1
  H+  H99  1  0.64564050  0.27458406  0.50903896  1
  H+  H100  1  0.60880989  0.87836053  -0.00330416  1
  H+  H101  1  0.09883773  0.36442639  0.01127789  1
  H+  H102  1  0.21744159  0.10591254  0.18198349  1
  H+  H103  1  0.31372764  0.91501544  0.10865198  1
  H+  H104  1  0.36627320  0.47685499  0.49268651  1
  H+  H105  1  0.81134778  0.15870727  0.55265414  1
  H+  H106  1  0.22937532  0.36876135  0.16935342  1
  H+  H107  1  0.40782858  0.04725821  0.16560322  1
  H+  H108  1  0.12105320  0.85311086  0.34930417  1
  H+  H109  1  0.47332026  0.14931155  0.16582438  1
  H+  H110  1  0.11059869  0.63925375  0.66769171  1
  H+  H111  1  0.63011377  0.28928181  0.66410269  1
  H+  H112  1  0.37722856  0.19919166  0.74618181  1
  H+  H113  1  0.85171235  0.64982109  0.01060917  1
  H+  H114  1  0.10582934  0.62481426  0.34536691  1
  H+  H115  1  0.15220253  1.04390290  0.82708266  1
  H+  H116  1  0.01836617  0.61828273  0.50808490  1
  H+  H117  1  0.01909702  0.13434290  0.00504599  1
  H+  H118  1  0.40880757  0.95459743  0.08955249  1
  H+  H119  1  0.13977348  0.60375285  0.51150462  1
  H+  H120  1  0.86980733  0.48020946  0.33661238  1
  H+  H121  1  0.08339045  0.43390798  0.73996921  1
  H+  H122  1  0.11124984  0.97100916  0.17311202  1
  H+  H123  1  0.36990221  0.00555348  0.51629465  1
  H+  H124  1  0.22775517  0.62143202  0.66235752  1
  H+  H125  1  0.59796692  0.23342379  0.36034380  1
  H+  H126  1  0.97823136  0.35118563  0.18705153  1
  H+  H127  1  0.76251575  0.37030451  0.00095075  1
  H+  H128  1  0.40047708  0.37573695  0.83451057  1
  H+  H129  1  0.69931181  0.62668066  0.66493375  1
  H+  H130  1  0.18177056  0.81744572  0.00413723  1
  H+  H131  1  0.44488355  0.58966271  0.67308680  1
  H+  H132  1  0.32662950  1.00254168  0.51819109  1
  H+  H133  1  0.13326387  0.37039296  0.17305476  1
  H+  H134  1  0.63955358  0.23503225  0.36725160  1
  H+  H135  1  0.11251701  0.46697378  0.33915073  1
  H+  H136  1  0.20423478  0.59033613  -0.00234005  1
  H+  H137  1  0.87342719  0.98987212  0.48311654  1
  H+  H138  1  0.02210516  0.13724063  0.82920440  1
  H+  H139  1  0.14819912  0.77832762  0.19705074  1
  H+  H140  1  0.65734055  0.13026628  0.17397209  1
  H+  H141  1  0.13918134  0.64982085  0.84361322  1
  H+  H142  1  0.97316918  0.61613893  0.66683599  1
  H+  H143  1  0.05957875  0.90509314  0.78338519  1
  H+  H144  1  0.60573680  0.12129109  0.70066729  1
  H+  H145  1  0.89631219  0.10424982  0.16846208  1
  H+  H146  1  0.66733659  0.09335423  0.30885921  1
  H+  H147  1  0.78707460  0.87247555  0.68348700  1
  H+  H148  1  0.23002196  0.35933275  0.50123309  1
  H+  H149  1  0.02199118  0.12685249  0.15849498  1
  H+  H150  1  0.17472510  0.09852307  0.89124127  1
  H+  H151  1  0.46327813  0.11365828  0.84446659  1
  H+  H152  1  0.88778646  0.10800294  0.84026293  1
  H+  H153  1  0.72161141  0.09956675  0.48362461  1
  H+  H154  1  0.09378826  0.86471703  0.49516097  1
  H+  H155  1  0.89143632  0.27618107  0.34546505  1
  H+  H156  1  0.73552069  0.84991735  0.83727868  1
  H+  H157  1  0.63511178  0.72472772  0.35133092  1
  H+  H158  1  0.62671641  0.41675009  0.67230161  1
  H+  H159  1  0.67633432  0.58220558  0.91001004  1
  H+  H160  1  0.87385429  0.13595715  0.51588728  1
  H+  H161  1  0.53718631  0.87671881  0.33720472  1
  H+  H162  1  0.26540068  0.47726601  0.77987890  1
  H+  H163  1  0.73694421  0.11476150  0.98949191  1
  H+  H164  1  0.46669364  0.35594983  0.32783008  1
  H+  H165  1  0.37424353  0.60443717  0.16322533  1
  H+  H166  1  0.97554550  0.60506651  0.32323473  1
  H+  H167  1  0.13201040  0.09647475  0.51114505  1
  H+  H168  1  0.19900165  0.83419052  0.49689411  1
  H+  H169  1  0.48152872  0.84917666  0.84452549  1
  H+  H170  1  0.37135333  0.10619492  0.32454340  1
  H+  H171  1  0.87473629  0.72154848  0.84736918  1
  H+  H172  1  0.80074891  0.42484603  0.14809649  1
  H+  H173  1  0.37278435  0.97054824  0.31005096  1
  H+  H174  1  0.64876796  0.85610048  0.32777837  1
  H+  H175  1  0.40337655  0.32744418  0.27005799  1
  H+  H176  1  0.54048638  0.28865408  0.13053677  1
  H+  H177  1  0.25709765  0.62177131  0.83070562  1
  H+  H178  1  0.86190608  0.76421604  0.00760421  1
  H+  H179  1  0.35679753  0.71851978  0.15270603  1
  H+  H180  1  0.11839440  0.22138797  0.49289809  1
  H+  H181  1  0.34745719  0.13534297  0.16868472  1
  H+  H182  1  0.64461425  0.37271308  0.83562907  1
  H+  H183  1  0.89816137  0.28089743  0.51263970  1
  H+  H184  1  0.21880252  0.60924564  0.32820401  1
  H+  H185  1  0.37699154  0.27357447  0.50702149  1
  H+  H186  1  0.90418908  0.62504662  0.16353397  1
  H+  H187  1  0.12135496  0.47424364  0.49586812  1
  H+  H188  1  0.61885243  0.91688522  0.66901872  1
  H+  H189  1  0.40924734  0.25589753  0.68417666  1
  H+  H190  1  0.88771650  1.01814038  0.84383198  1
  H+  H191  1  0.46083260  0.59836613  0.16692826  1
  H+  H192  1  0.88259323  0.35071332  0.84635415  1
  H+  H193  1  0.35262414  0.37802289  0.33908462  1
  H+  H194  1  0.59989384  0.46517244  0.33728069  1
  H+  H195  1  0.73197732  0.36648855  0.50652012  1
  H+  H196  1  0.86694592  0.39053277  0.49243147  1
  H+  H197  1  0.84231547  0.62865797  0.68329507  1
  H+  H198  1  0.07981136  0.40495534  0.10340749  1
  H+  H199  1  0.37493545  0.52369267  0.98933574  1
  H+  H200  1  0.52636233  0.86984056  0.15157604  1
  H+  H201  1  0.10732896  0.21878151  0.33605828  1
  H+  H202  1  0.10532611  0.96946950  0.34516749  1
  H+  H203  1  0.97082430  0.85510306  0.32894431  1
  H+  H204  1  0.24347325  0.87996947  -0.08843911  1
  H+  H205  1  0.52055254  0.87487937  0.49510130  1
  H+  H206  1  0.21826507  0.10664268  0.33173293  1
  H+  H207  1  0.47352975  0.08322183  0.36113821  1
  H+  H208  1  0.36450112  0.40020273  0.00154155  1
  H+  H209  1  0.28766431  0.72736280  0.37679831  1
  H+  H210  1  0.29573046  0.93599035  0.43989836  1
  H+  H211  1  0.63533421  0.84261698  0.16981716  1
  H+  H212  1  0.65175166  1.01982600  -0.01032350  1
  H+  H213  1  0.21538956  0.33617393  0.65371143  1
  H+  H214  1  0.50081259  0.17797782  0.70085116  1
  H+  H215  1  0.61046513  0.40433822  0.15779093  1
  H+  H216  1  0.41185166  0.86566494  0.30692189  1
  H+  H217  1  0.35159402  0.71804432  0.82875562  1
  H+  H218  1  0.51317008  0.63415648  0.00215177  1
  H+  H219  1  0.26665252  0.38424479  0.00400871  1
  H+  H220  1  0.57205688  0.60948640  0.70364681  1
  H+  H221  1  0.69697887  0.12920008  0.70777473  1
  H+  H222  1  0.89867958  0.10732166  0.66042343  1
  H+  H223  1  0.35155399  0.63449455  0.99966381  1
  H+  H224  1  0.56318132  0.23097197  0.08837379  1
  H+  H225  1  0.12693136  0.10190397  0.17845157  1
  H+  H226  1  0.14451577  0.12258340  0.98104401  1
  H+  H227  1  0.10271660  0.95854862  0.49429140  1
  H+  H228  1  0.22702355  0.86094363  0.65795840  1
  H+  H229  1  0.60397427  0.72172425  0.00485542  1
  H+  H230  1  0.66749886  -0.01386906  0.17198174  1
  H+  H231  1  0.71040111  0.68143386  0.21038130  1
  H+  H232  1  0.37974675  0.85020701  0.50880871  1
  H+  H233  1  0.62960951  0.15053893  0.17612424  1
  H+  H234  1  0.52546069  0.40181103  0.00170243  1
  H+  H235  1  0.66835751  0.34008583  0.60098619  1
  H+  H236  1  0.84565084  0.93170434  0.39706972  1
  H+  H237  1  0.38306297  -0.02011023  0.82587130  1
  H+  H238  1  0.39340378  0.60993799  0.50796612  1
  H+  H239  1  1.02546497  0.41086690  0.67986301  1
  H+  H240  1  0.54388012  0.05892588  0.37958386  1
  H+  H241  1  0.73949943  0.38731779  0.32011584  1
  H+  H242  1  0.23429556  0.86560585  0.21212265  1
  H+  H243  1  0.78560057  0.63269191  0.84783500  1
  H+  H244  1  1.01302100  0.91189613  0.64032858  1
  H+  H245  1  0.36046967  0.59648989  0.31818564  1
  H+  H246  1  0.63937217  0.37499864  0.99553086  1
  H+  H247  1  0.40815623  0.57995796  0.60430646  1
  H+  H248  1  0.35616415  0.64150485  0.67657496  1
  H+  H249  1  0.26162215  0.94598167  -0.03564547  1
  H+  H250  1  0.64354700  0.28303426  0.84047835  1
  H+  H251  1  0.76380020  0.63186444  0.35338607  1
  H+  H252  1  0.59931837  -0.01273387  0.69579835  1
  H+  H253  1  0.63507288  0.61193911  0.00013980  1
  H+  H254  1  0.97625193  0.85759560  0.17824688  1
  H+  H255  1  0.95553251  0.31373763  1.00849407  1
  H+  H256  1  0.32896623  0.67097187  0.73806959  1
  H+  H257  1  1.02279226  0.37837852  0.34440756  1
  H+  H258  1  0.77089531  0.87282545  0.16226427  1
  H+  H259  1  0.11481004  0.88443925  0.18006493  1
  H+  H260  1  0.53494538  0.15366845  0.52239439  1
  H+  H261  1  0.58315706  0.16039090  0.87609479  1
  H+  H262  1  0.36119567  0.89031843  0.66875934  1
  H+  H263  1  0.08990017  0.41529577  0.43518448  1
  H+  H264  1  0.86879661  0.47619664  -0.04021333  1
  H+  H265  1  0.27888601  0.15664590  0.82756118  1
  H+  H266  1  0.36585470  0.15400711  0.50170672  1
  H+  H267  1  0.10789365  0.72587279  0.67158275  1
  H+  H268  1  0.63476593  0.10207193  0.48708294  1
  H+  H269  1  0.88429742  1.00377030  0.32470684  1
  H+  H270  1  0.45747016  0.35568805  0.17250675  1
  H+  H271  1  0.63750507  0.60471454  0.33442919  1
  H+  H272  1  0.60145384  0.62382578  0.15584494  1
  H+  H273  1  0.38083844  0.19193631  -0.00665231  1
  H+  H274  1  0.78102882  0.38524028  0.83195527  1
  H+  H275  1  0.12527148  0.49042886  0.83312685  1
  H+  H276  1  0.47265465  0.86550153  0.66152021  1
  H+  H277  1  0.11384875  0.47389770  0.16002131  1
  H+  H278  1  0.87850677  0.02899884  0.99639257  1
  H+  H279  1  0.86774970  0.22198586  0.82979217  1
  H+  H280  1  0.66412042  0.33056970  0.16615974  1
  H+  H281  1  0.39148878  0.37136168  0.66060929  1
  H+  H282  1  0.13201799  0.26675827  0.99285456  1
  H+  H283  1  0.77030913  0.38912892  0.67765220  1
  H+  H284  1  0.98237060  0.86686436  0.87263578  1
  H+  H285  1  0.37058282  0.35959667  0.17339948  1
  H+  H286  1  0.89568897  0.25934735  0.18599706  1
  H+  H287  1  0.13685097  0.61438630  0.17242252  1
  H+  H288  1  0.57149618  0.40013984  0.39368723  1
  H+  H289  1  0.38978675  0.56783723  0.25906527  1
  H+  H290  1  0.22182978  0.60859782  0.16927004  1
  H+  H291  1  0.40859934  0.58423029  0.92927327  1
  H+  H292  1  0.32687202  0.16232744  0.40023096  1
  H+  H293  1  0.67469855  0.82275733  0.26800025  1
  H+  H294  1  0.31371651  0.41202592  0.72486201  1
  H+  H295  1  0.89120356  0.52315848  0.51494290  1
  H+  H296  1  0.07018117  0.90750395  0.40451051  1
  H+  H297  1  0.24405293  0.39843617  0.82093403  1
  H+  H298  1  0.92024387  0.32530638  0.28115677  1
  H+  H299  1  0.66717363  0.82221316  0.93111857  1
  H+  H300  1  0.68187316  0.07595609  0.88971517  1
  H+  H301  1  0.08176520  0.15770525  0.43633843  1
  H+  H302  1  0.65785429  0.81576588  0.58375272  1
  H+  H303  1  0.92083099  0.58069936  0.57600947  1
  H+  H304  1  0.16656619  0.33648093  0.23743913  1
  H+  H305  1  0.90875157  0.83197312  0.92267408  1
  H+  H306  1  0.92199720  0.07161817  0.25808222  1
  H+  H307  1  0.63994591  0.62145104  0.60702487  1
  H+  H308  1  0.32308480  0.67516898  0.41116883  1
  H+  H309  1  0.28790031  0.04602884  0.63550727  1
  H+  H310  1  0.58664250  0.89766723  0.40200160  1
  H+  H311  1  0.92377286  0.34774489  0.60025941  1
  H+  H312  1  0.79049365  0.67524798  0.44548065  1
  H+  H313  1  0.17123494  0.79244396  0.84118234  1
  H+  H314  1  0.17395791  0.57206365  0.89528671  1
  H+  H315  1  0.91692920  0.53068907  0.81771540  1
  H+  H316  1  0.82985994  0.66650870  0.09607805  1
  H+  H317  1  0.43169959  0.36579344  0.90288835  1
  H+  H318  1  0.13858106  0.53104866  0.66525123  1
  H+  H319  1  0.95566166  0.85168507  1.00918623  1
  H+  H320  1  0.69835804  0.06174229  0.60122915  1
  H+  H321  1  0.15980614  0.30670224  0.59389121  1
  H+  H322  1  0.16312830  0.57727845  0.26659328  1
  H+  H323  1  0.55466304  0.14137943  0.45540292  1
  H+  H324  1  0.84459052  0.91230148  0.77475614  1
  H+  H325  1  0.64628303  0.76126309  0.83039283  1
  H+  H326  1  0.92807023  0.57979409  0.25908528  1
  H+  H327  1  0.91168547  0.82504938  0.23461986  1
  H+  H328  1  0.33514532  0.89721531  0.35868917  1
  H+  H329  1  0.08123806  0.16105300  0.06289305  1
  H+  H330  1  0.33312448  0.41733388  0.43218825  1
  H+  H331  1  0.13329994  0.95858855  0.73823092  1
  H+  H332  1  0.42616377  0.82431468  0.22361922  1
  H+  H333  1  0.56807341  0.65157079  0.09652976  1
  H+  H334  1  0.32165705  0.65984142  0.09291574  1
  H+  H335  1  0.06403669  0.89849820  0.07733358  1
  H+  H336  1  0.38379857  0.77545096  0.66413988  1
  H+  H337  1  0.64622188  0.37991679  0.31631368  1
  H+  H338  1  0.78091811  0.13045166  0.81910377  1
  H+  H339  1  0.42338808  0.34383520  0.60143052  1
  H+  H340  1  0.07367708  0.15519985  0.73093328  1
  H+  H341  1  0.12748984  0.27636576  0.83960343  1
  H+  H342  1  0.41295521  0.83014829  0.92845992  1
  H+  H343  1  0.92400726  0.07715241  0.56915995  1
  H+  H344  1  0.17309473  0.57792132  0.57091290  1
  H+  H345  1  0.16556283  0.82699221  0.59755031  1
  H+  H346  1  0.68783193  0.09696374  0.59624103  1
  H+  H347  1  0.01064148  0.59047952  0.04276732  1
  H+  H348  1  0.66614651  0.34242568  0.93619462  1
  H+  H349  1  0.36371281  0.92801732  0.76449477  1
  H+  H350  1  0.31478274  0.40921800  0.09572931  1
  H+  H351  1  0.83591860  0.40494467  0.77151273  1
  H+  H352  1  0.66246165  0.19857719  0.05592235  1
  H+  H353  1  0.41215546  0.12240540  0.58815305  1
  H+  H354  1  0.81765882  0.65362218  0.74494523  1
  H+  H355  1  0.84043283  0.34863237  0.00294824  1
  H+  H356  1  0.58421993  0.90282529  0.77140117  1
  H+  H357  1  0.60610101  0.66655519  0.41092585  1
  H+  H358  1  0.61386320  0.13092812  0.81990088  1
  H+  H359  1  0.40639181  0.86957326  0.83664680  1
  H+  H360  1  0.17040199  0.82843781  0.30110947  1
  H+  H361  1  0.41183003  0.82860028  0.57079318  1
  H+  H362  1  0.37826889  0.53475273  0.83422969  1
  H+  H363  1  0.26652424  0.12799804  0.49437804  1
  H+  H364  1  0.98103723  0.10633283  0.32195834  1
  H+  H365  1  0.10903711  0.13009375  0.33902454  1
  H+  H366  1  0.83094582  0.17572641  0.42025669  1
  H+  H367  1  0.07507157  0.64557326  0.44555600  1
  H+  H368  1  0.38721794  0.36637422  0.50555584  1
  H+  H369  1  0.10419992  0.71282494  0.35605823  1
  H+  H370  1  0.11500287  0.71777080  0.11081058  1
  H+  H371  1  0.37862899  0.27794029  0.98612251  1
  H+  H372  1  0.70097894  0.23117280  0.07334964  1
  H+  H373  1  0.15838781  0.33019007  0.93480982  1
  H+  H374  1  0.15694766  0.07450558  0.27261562  1
  H+  H375  1  0.90610905  0.31065653  0.90467700  1
  H+  H376  1  0.56504508  0.18877749  0.75234626  1
  H+  H377  1  0.71001154  0.04024193  0.23329515  1
  H+  H378  1  0.83690484  0.42276639  0.43420409  1
  H+  H379  1  0.84967121  0.43152524  0.08677331  1
  H+  H380  1  0.41008799  0.10138748  0.93296946  1
  H+  H381  1  0.69780106  0.38531988  0.22655948  1
  H+  H382  1  -0.04101698  0.85492250  0.50025531  1
  H+  H383  1  0.37956352  0.12309414  0.84332108  1
  O2-  O384  1  0.08296067  0.15988432  0.14340393  1
  O2-  O385  1  0.08462983  0.15870574  0.48140032  1
  O2-  O386  1  0.08041355  0.17325972  0.81139930  1
  O2-  O387  1  0.08915284  0.41176950  0.14897873  1
  O2-  O388  1  0.08871282  0.41344328  0.48061639  1
  O2-  O389  1  0.08842748  0.42291685  0.81828366  1
  O2-  O390  1  0.10487410  0.69302566  0.15214797  1
  O2-  O391  1  0.08086055  0.64867992  0.49069213  1
  O2-  O392  1  0.11528688  0.68933096  0.84633081  1
  O2-  O393  1  0.08265302  0.90900490  0.16027188  1
  O2-  O394  1  0.06807838  0.89839851  0.47829772  1
  O2-  O395  1  0.12086596  0.94618468  0.78278604  1
  O2-  O396  1  0.30992629  0.15861403  0.15707949  1
  O2-  O397  1  0.32610821  0.16693101  0.47858743  1
  O2-  O398  1  0.34231718  0.18442917  0.81908413  1
  O2-  O399  1  0.31159531  0.40899719  0.14211172  1
  O2-  O400  1  0.33480204  0.41629575  0.47758141  1
  O2-  O401  1  0.29192672  0.44495292  0.79525332  1
  O2-  O402  1  0.32269823  0.65767434  0.13877801  1
  O2-  O403  1  0.33351319  0.65794187  0.48224488  1
  O2-  O404  1  0.32411678  0.65889289  0.81212584  1
  O2-  O405  1  0.37165962  0.93939465  0.12521222  1
  O2-  O406  1  0.27594463  0.87613638  0.42970733  1
  O2-  O407  1  0.39934710  0.94418779  0.80183575  1
  O2-  O408  1  0.54976656  0.23738793  0.13029829  1
  O2-  O409  1  0.58353661  0.16336274  0.49560402  1
  O2-  O410  1  0.58354573  0.16291803  0.82901093  1
  O2-  O411  1  0.55337508  0.38588654  0.13869368  1
  O2-  O412  1  0.57592017  0.40014831  0.46737202  1
  O2-  O413  1  0.59608602  0.42582417  0.81082465  1
  O2-  O414  1  0.56480971  0.64775579  0.14225560  1
  O2-  O415  1  0.58951157  0.66145119  0.49628955  1
  O2-  O416  1  0.54623191  0.66852879  0.76961329  1
  O2-  O417  1  0.58657225  0.89394608  0.13735549  1
  O2-  O418  1  0.58003579  0.89783397  0.48009718  1
  O2-  O419  1  0.58922836  0.90316575  0.81641530  1
  O2-  O420  1  0.85406995  0.16328148  0.14309216  1
  O2-  O421  1  0.83757412  0.16581469  0.51266245  1
  O2-  O422  1  0.84401550  0.16424117  0.80910723  1
  O2-  O423  1  0.85905130  0.44673785  0.13053186  1
  O2-  O424  1  0.83396103  0.41879298  0.47995640  1
  O2-  O425  1  0.84015635  0.40396202  0.81698876  1
  O2-  O426  1  0.83586819  0.66200283  0.14347960  1
  O2-  O427  1  0.77879817  0.67922507  0.49057852  1
  O2-  O428  1  0.84732818  0.66169079  0.83320463  1
  O2-  O429  1  0.83089260  0.90797752  0.14684492  1
  O2-  O430  1  0.84598047  0.93366532  0.46178317  1
  O2-  O431  1  0.83855062  0.91179465  0.82039599  1
  O2-  O432  1  0.15525997  0.07220846  0.19740139  1
  O2-  O433  1  0.16177273  0.06304452  0.51720764  1
  O2-  O434  1  0.17465506  0.10205984  0.84447951  1
  O2-  O435  1  0.16591059  0.33813276  0.18918702  1
  O2-  O436  1  0.16846003  0.32394607  0.51378335  1
  O2-  O437  1  0.15696853  0.33527034  0.85792911  1
  O2-  O438  1  0.16181872  0.57861102  0.18598224  1
  O2-  O439  1  0.17407542  0.57612798  0.52453919  1
  O2-  O440  1  0.17553446  0.57501471  0.85071652  1
  O2-  O441  1  0.17299336  0.83432038  0.22052418  1
  O2-  O442  1  0.14610701  0.80988802  0.52132162  1
  O2-  O443  1  0.20871322  0.85716856  0.84461664  1
  O2-  O444  1  0.42230438  0.10101954  0.18669988  1
  O2-  O445  1  0.44776378  0.16160140  0.55335827  1
  O2-  O446  1  0.40426821  0.08779357  0.86052686  1
  O2-  O447  1  0.39908921  0.32971623  0.19127629  1
  O2-  O448  1  0.41350469  0.33309598  0.52259700  1
  O2-  O449  1  0.42832549  0.34842842  0.85542949  1
  O2-  O450  1  0.39915445  0.56982250  0.18010600  1
  O2-  O451  1  0.41980814  0.57780761  0.52612610  1
  O2-  O452  1  0.41480822  0.59399248  0.85004374  1
  O2-  O453  1  0.42050568  0.82329688  0.17803770  1
  O2-  O454  1  0.41180354  0.82385283  0.52459880  1
  O2-  O455  1  0.42084017  0.82733603  0.85686825  1
  O2-  O456  1  0.72027805  0.03416472  0.18996443  1
  O2-  O457  1  0.66081879  0.06815553  0.47170922  1
  O2-  O458  1  0.67971798  0.07480329  0.84445367  1
  O2-  O459  1  0.69801464  0.39041609  0.17977208  1
  O2-  O460  1  0.67188242  0.33512702  0.52325310  1
  O2-  O461  1  0.67454877  0.34335322  0.85418872  1
  O2-  O462  1  0.68881537  0.62349618  0.19469208  1
  O2-  O463  1  0.63129651  0.61905332  0.52694933  1
  O2-  O464  1  0.68519142  0.58827704  0.86524249  1
  O2-  O465  1  0.66381700  0.81201133  0.18772090  1
  O2-  O466  1  0.65324411  0.81307476  0.53903206  1
  O2-  O467  1  0.67314092  0.81754788  0.85017395  1
  O2-  O468  1  0.92267404  0.07092299  0.18591763  1
  O2-  O469  1  0.92351972  0.08726915  0.52401765  1
  O2-  O470  1  0.91762888  0.07888653  0.85874669  1
  O2-  O471  1  0.92317549  0.31521034  0.20759320  1
  O2-  O472  1  0.92626650  0.34306329  0.52200300  1
  O2-  O473  1  0.91283846  0.31869166  0.86035469  1
  O2-  O474  1  0.94254924  0.60151896  0.17478505  1
  O2-  O475  1  0.92873037  0.58204963  0.53067810  1
  O2-  O476  1  0.94839511  0.59178091  0.80668704  1
  O2-  O477  1  0.91367174  0.82723786  0.18895399  1
  O2-  O478  1  0.90264866  0.83997352  0.51853642  1
  O2-  O479  1  0.92015472  0.83697671  0.87617315  1
  O2-  O480  1  0.15653936  0.07504447  0.31861911  1
  O2-  O481  1  0.19440083  0.03185609  0.62772687  1
  O2-  O482  1  0.18320767  0.10552191  0.96157559  1
  O2-  O483  1  0.16240415  0.32856742  0.30437651  1
  O2-  O484  1  0.15600428  0.29927749  0.63862404  1
  O2-  O485  1  0.16034100  0.32891366  0.98055933  1
  O2-  O486  1  0.15998645  0.57339478  0.31195447  1
  O2-  O487  1  0.16989516  0.58879229  0.64332975  1
  O2-  O488  1  0.14527356  0.54965501  0.98336395  1
  O2-  O489  1  0.15506472  0.82232216  0.34502799  1
  O2-  O490  1  0.16669036  0.83677875  0.64238869  1
  O2-  O491  1  0.13209200  0.78272477  1.03162734  1
  O2-  O492  1  0.40279686  0.07752242  0.30810614  1
  O2-  O493  1  0.35145183  0.06537858  0.64336844  1
  O2-  O494  1  0.42326013  0.11551427  0.97803833  1
  O2-  O495  1  0.40370727  0.32555788  0.31546479  1
  O2-  O496  1  0.42931285  0.34860884  0.64667671  1
  O2-  O497  1  0.44015463  0.39396995  0.96476089  1
  O2-  O498  1  0.38483316  0.56205384  0.30414802  1
  O2-  O499  1  0.39270961  0.57458547  0.64841864  1
  O2-  O500  1  0.40716151  0.58459116  0.97488453  1
  O2-  O501  1  0.44029566  0.82966077  0.29945904  1
  O2-  O502  1  0.41351215  0.83450749  0.64450602  1
  O2-  O503  1  0.40676227  0.83309280  0.97464279  1
  O2-  O504  1  0.69803615  0.06174825  0.31239665  1
  O2-  O505  1  0.63569559  0.08846683  0.70843383  1
  O2-  O506  1  0.68121716  0.07731440  0.96966862  1
  O2-  O507  1  0.68668874  0.36634181  0.29496241  1
  O2-  O508  1  0.66809176  0.34650522  0.64632906  1
  O2-  O509  1  0.66873991  0.34365970  0.98130895  1
  O2-  O510  1  0.66242513  0.56935964  0.31770616  1
  O2-  O511  1  0.65172755  0.63591979  0.65126824  1
  O2-  O512  1  0.66802578  0.58303267  0.98997535  1
  O2-  O513  1  0.68359711  0.83050463  0.31288541  1
  O2-  O514  1  0.68097770  0.79380484  0.66221710  1
  O2-  O515  1  0.66192089  0.82625601  0.97590758  1
  O2-  O516  1  0.92063862  0.07129753  0.30459060  1
  O2-  O517  1  0.91756785  0.06789456  0.64469758  1
  O2-  O518  1  0.91169989  0.08908379  0.98020033  1
  O2-  O519  1  0.92299600  0.33481511  0.32658772  1
  O2-  O520  1  0.91973319  0.34855104  0.64559376  1
  O2-  O521  1  0.89642617  0.28118212  0.98914830  1
  O2-  O522  1  0.91866307  0.57285665  0.30345909  1
  O2-  O523  1  0.91164100  0.58577893  0.65209677  1
  O2-  O524  1  0.90597907  0.52941377  0.93568347  1
  O2-  O525  1  0.91109516  0.82670456  0.31224306  1
  O2-  O526  1  0.95142499  0.87334180  0.63261859  1
  O2-  O527  1  0.89605907  0.82825981  0.99180203  1
  O2-  O528  1  0.08053879  0.16441747  0.01772901  1
  O2-  O529  1  0.07579063  0.15910606  0.35205818  1
  O2-  O530  1  0.06999935  0.14442921  0.68645624  1
  O2-  O531  1  0.06260616  0.38788573  0.02858275  1
  O2-  O532  1  0.08649195  0.40740644  0.35542985  1
  O2-  O533  1  0.08528271  0.43903532  0.69476244  1
  O2-  O534  1  0.03795813  0.61454683  0.00383159  1
  O2-  O535  1  0.07448747  0.65025429  0.36575015  1
  O2-  O536  1  0.07674784  0.66488698  0.68334289  1
  O2-  O537  1  0.05498859  0.88526126  0.03344229  1
  O2-  O538  1  0.07294074  0.90811031  0.35855674  1
  O2-  O539  1  0.12886524  0.95492594  0.65962113  1
  O2-  O540  1  0.34490987  0.21829432  -0.00007037  1
  O2-  O541  1  0.32389685  0.15979370  0.35471201  1
  O2-  O542  1  0.40565988  0.20518895  0.70589759  1
  O2-  O543  1  0.32548828  0.41924069  0.02181717  1
  O2-  O544  1  0.31871300  0.40555044  0.35314256  1
  O2-  O545  1  0.32215694  0.40616279  0.68079328  1
  O2-  O546  1  0.31899130  0.66155514  0.01670236  1
  O2-  O547  1  0.31311149  0.69152090  0.36858578  1
  O2-  O548  1  0.33256935  0.67768366  0.69202253  1
  O2-  O549  1  0.26575306  0.89503902  -0.04426026  1
  O2-  O550  1  0.35385342  0.90842839  0.31575558  1
  O2-  O551  1  0.32616221  0.91329223  0.68704976  1
  O2-  O552  1  0.58526662  0.15266489  -0.05478179  1
  O2-  O553  1  0.50328641  0.07412480  0.39635949  1
  O2-  O554  1  0.55894236  0.18680348  0.70753497  1
  O2-  O555  1  0.58197466  0.42110820  0.02347059  1
  O2-  O556  1  0.56788922  0.40248164  0.34775153  1
  O2-  O557  1  0.59732155  0.44533116  0.69061677  1
  O2-  O558  1  0.57187302  0.66146870  0.02034631  1
  O2-  O559  1  0.60401430  0.66482712  0.36608809  1
  O2-  O560  1  0.51875466  0.59542818  0.72754393  1
  O2-  O561  1  0.58386437  0.91284602  0.01417429  1
  O2-  O562  1  0.59512777  0.90475621  0.35675430  1
  O2-  O563  1  0.57715450  0.92334657  0.69326968  1
  O2-  O564  1  0.85300980  0.19334068  0.01500100  1
  O2-  O565  1  0.84441587  0.17795816  0.37711176  1
  O2-  O566  1  0.90809081  0.20413665  0.69792830  1
  O2-  O567  1  0.82651926  0.39438443  0.00968377  1
  O2-  O568  1  0.83758220  0.42218836  0.35753435  1
  O2-  O569  1  0.82915326  0.41532685  0.69538193  1
  O2-  O570  1  0.81996634  0.67426434  0.02975533  1
  O2-  O571  1  0.81524409  0.67001999  0.37806814  1
  O2-  O572  1  0.80266387  0.64591789  0.70136220  1
  O2-  O573  1  0.82434758  0.92084939  0.02149397  1
  O2-  O574  1  0.84454295  0.92841888  0.34844716  1
  O2-  O575  1  0.84557972  0.91322505  0.69903834  1
