# generated using pymatgen
data_H2O
_symmetry_space_group_name_H-M   'P 1'
_cell_length_a   17.99443267
_cell_length_b   17.98080680
_cell_length_c   21.98572314
_cell_angle_alpha   90.02449731
_cell_angle_beta   89.98904153
_cell_angle_gamma   120.01578862
_symmetry_Int_Tables_number   1
_chemical_formula_structural   H2O
_chemical_formula_sum   'H384 O192'
_cell_volume   6159.55820165
_cell_formula_units_Z   192
loop_
 _symmetry_equiv_pos_site_id
 _symmetry_equiv_pos_as_xyz
  1  'x, y, z'
loop_
 _atom_type_symbol
 _atom_type_oxidation_number
  H+  1.0
  O2-  -2.0
loop_
 _atom_site_type_symbol
 _atom_site_label
 _atom_site_symmetry_multiplicity
 _atom_site_fract_x
 _atom_site_fract_y
 _atom_site_fract_z
 _atom_site_occupancy
  H+  H0  1  0.60177640  0.38589174  0.48907207  1
  H+  H1  1  0.22130883  0.60985473  0.50082293  1
  H+  H2  1  0.46155563  0.11002017  0.17309247  1
  H+  H3  1  0.24489964  0.13099920  0.98058875  1
  H+  H4  1  0.40176490  0.54070920  0.25709294  1
  H+  H5  1  0.53709112  0.92020222  0.81654685  1
  H+  H6  1  0.40108666  0.74275558  0.85953104  1
  H+  H7  1  0.38272415  0.85657605  0.49895123  1
  H+  H8  1  0.79191291  0.38482067  0.83665223  1
  H+  H9  1  0.82488677  0.18719458  0.75902126  1
  H+  H10  1  0.52355039  0.63608833  0.65719626  1
  H+  H11  1  0.51463265  0.13795407  0.34475527  1
  H+  H12  1  0.86541657  0.39675413  0.49506138  1
  H+  H13  1  0.50408594  0.01601267  0.89953562  1
  H+  H14  1  0.13027461  0.08473420  0.82855546  1
  H+  H15  1  0.37351322  0.63079761  0.01272872  1
  H+  H16  1  0.12985234  0.98189880  0.15613320  1
  H+  H17  1  0.58465113  0.12157605  0.17008583  1
  H+  H18  1  0.38250456  0.86174849  0.17733313  1
  H+  H19  1  1.02798689  0.13953363  0.34234527  1
  H+  H20  1  0.27110143  0.63478921  0.65105281  1
  H+  H21  1  0.97684991  0.85803814  0.50724167  1
  H+  H22  1  0.60981327  0.63336073  0.01573040  1
  H+  H23  1  0.09275467  0.73683790  0.34019974  1
  H+  H24  1  0.28858638  0.42173970  0.81972955  1
  H+  H25  1  0.27456254  0.87692882  0.66828522  1
  H+  H26  1  0.85587488  0.96962097  0.66019457  1
  H+  H27  1  0.16572749  0.33383622  0.56149227  1
  H+  H28  1  0.73135235  0.86932728  0.33342616  1
  H+  H29  1  0.86943656  1.10237961  0.65307110  1
  H+  H30  1  0.89187627  0.36519849  0.66076894  1
  H+  H31  1  0.40341359  0.93346910  0.82578602  1
  H+  H32  1  0.27335605  0.38325327  0.48570590  1
  H+  H33  1  0.38520650  0.38530695  1.01555408  1
  H+  H34  1  0.61261529  0.22916889  0.68132808  1
  H+  H35  1  0.83560747  0.70607777  0.82990188  1
  H+  H36  1  0.97364689  0.85961335  0.65478195  1
  H+  H37  1  0.23105544  0.12835072  0.65519629  1
  H+  H38  1  0.61771126  0.88983440  0.66120713  1
  H+  H39  1  0.13158299  0.39305515  0.16169919  1
  H+  H40  1  0.28891344  0.95449295  0.79265031  1
  H+  H41  1  -0.02256009  0.37097659  0.50399465  1
  H+  H42  1  0.02932649  0.13276597  0.48633959  1
  H+  H43  1  0.68449696  0.39668204  0.86985341  1
  H+  H44  1  0.61279010  0.23232419  0.49646253  1
  H+  H45  1  0.39157211  0.76320496  1.00977542  1
  H+  H46  1  0.74566030  0.21164122  0.19916295  1
  H+  H47  1  0.99883816  0.36807873  0.17764967  1
  H+  H48  1  0.61113252  0.48611738  0.66709439  1
  H+  H49  1  0.86457771  0.38867566  0.34124030  1
  H+  H50  1  0.86314134  0.48471218  0.49140855  1
  H+  H51  1  0.47988773  0.15684305  0.81867500  1
  H+  H52  1  0.63717622  0.11495209  0.66089629  1
  H+  H53  1  0.60920581  0.87576815  0.48352239  1
  H+  H54  1  0.64627177  0.08172220  0.87901327  1
  H+  H55  1  0.59002292  0.67182444  0.42590602  1
  H+  H56  1  0.70644127  0.10033604  0.32608119  1
  H+  H57  1  1.00150567  0.88050980  0.16683071  1
  H+  H58  1  0.42999457  0.75277089  0.83219319  1
  H+  H59  1  0.97128553  0.60009297  0.18052462  1
  H+  H60  1  0.63659847  0.77004351  0.49470094  1
  H+  H61  1  0.11661119  0.01499682  0.31329565  1
  H+  H62  1  0.36223143  0.13549653  0.49493984  1
  H+  H63  1  0.78526926  0.69367368  0.32135677  1
  H+  H64  1  0.95849035  0.60891393  0.84307995  1
  H+  H65  1  0.12631290  0.24565032  0.66607341  1
  H+  H66  1  0.12987467  0.48372010  0.16621155  1
  H+  H67  1  0.09335435  0.42459892  0.08055292  1
  H+  H68  1  0.11059102  0.88519705  0.01102618  1
  H+  H69  1  0.40675119  0.53968159  0.83003504  1
  H+  H70  1  0.37686647  0.26488570  0.32841553  1
  H+  H71  1  0.26636907  0.59483571  0.33290664  1
  H+  H72  1  1.03507556  0.13510415  1.00217673  1
  H+  H73  1  0.64107625  0.86905663  0.32817223  1
  H+  H74  1  0.78060119  0.39452573  0.68406713  1
  H+  H75  1  0.39251053  0.35767456  0.17440110  1
  H+  H76  1  0.16931637  0.32895046  0.86836942  1
  H+  H77  1  0.76497184  0.14881365  0.50171729  1
  H+  H78  1  0.84361592  0.84081232  0.84567288  1
  H+  H79  1  0.52799946  0.87937250  1.01636528  1
  H+  H80  1  -0.00815346  0.86338313  0.80637179  1
  H+  H81  1  0.66089812  0.01394481  1.00802147  1
  H+  H82  1  0.58868265  0.01286016  0.18125978  1
  H+  H83  1  0.62166374  0.72945117  0.33598333  1
  H+  H84  1  0.13937624  0.86490021  0.51048858  1
  H+  H85  1  0.61875812  0.46046330  0.18428194  1
  H+  H86  1  0.47953760  0.86143198  0.65090257  1
  H+  H87  1  0.47252419  0.35997257  0.49368420  1
  H+  H88  1  0.36064250  0.24466999  0.66239699  1
  H+  H89  1  0.07496980  0.64163864  0.33548819  1
  H+  H90  1  0.13322374  0.61311864  0.50122433  1
  H+  H91  1  0.73932298  0.12029546  0.84674196  1
  H+  H92  1  0.90021971  0.28480860  0.33118817  1
  H+  H93  1  0.15870851  0.40612702  0.84478747  1
  H+  H94  1  0.61087822  0.38111064  0.33532508  1
  H+  H95  1  0.91216295  0.11909201  0.17957390  1
  H+  H96  1  0.48211987  0.60371625  0.97944358  1
  H+  H97  1  0.88298025  0.61237995  0.65844627  1
  H+  H98  1  1.00865385  0.90817510  0.81860836  1
  H+  H99  1  0.64242879  0.65514031  0.34242840  1
  H+  H100  1  0.47529240  0.59553854  0.21049669  1
  H+  H101  1  0.40033729  0.26085458  0.00374169  1
  H+  H102  1  0.66698507  0.79151672  1.04629119  1
  H+  H103  1  0.24435577  0.54660362  0.78967770  1
  H+  H104  1  0.36375727  0.15566319  0.66678218  1
  H+  H105  1  0.54149747  0.36999762  0.01998378  1
  H+  H106  1  0.86479514  0.22812906  0.66941377  1
  H+  H107  1  0.75139650  0.61941366  0.82836842  1
  H+  H108  1  0.63642409  0.60959240  0.64742997  1
  H+  H109  1  0.51791818  0.87214314  0.48382397  1
  H+  H110  1  0.39044984  0.77085685  0.65013660  1
  H+  H111  1  0.62107494  0.73902045  0.81122857  1
  H+  H112  1  0.03723614  0.13880236  0.16108226  1
  H+  H113  1  0.66636112  0.76268045  0.14508159  1
  H+  H114  1  0.87603683  0.64884127  0.16687757  1
  H+  H115  1  0.40939477  0.08550352  0.27097698  1
  H+  H116  1  0.17475454  0.61305404  0.32890170  1
  H+  H117  1  0.37322201  0.78468208  0.33289219  1
  H+  H118  1  0.36398159  0.22428332  0.16107257  1
  H+  H119  1  0.57379135  0.41072858  0.42747364  1
  H+  H120  1  0.11714676  0.23032821  0.33886635  1
  H+  H121  1  0.64193365  0.62883897  0.13219468  1
  H+  H122  1  0.91026612  0.38080694  0.84860279  1
  H+  H123  1  0.55274009  0.09205666  0.94945629  1
  H+  H124  1  0.88677430  0.09770660  0.33447032  1
  H+  H125  1  -0.11362109  0.77173204  0.38916028  1
  H+  H126  1  0.85799573  0.88072491  0.49485906  1
  H+  H127  1  0.67707592  0.98462787  0.14446802  1
  H+  H128  1  0.13877123  0.85920149  0.16760467  1
  H+  H129  1  0.35606997  0.71680112  0.48537366  1
  H+  H130  1  0.38067731  0.14932937  0.81185904  1
  H+  H131  1  0.35389730  0.87743931  0.01760353  1
  H+  H132  1  0.18245024  0.99229056  0.82078151  1
  H+  H133  1  0.38271163  0.60532696  0.49826438  1
  H+  H134  1  0.57589339  0.15069495  0.85094750  1
  H+  H135  1  0.66664631  0.34363596  0.73797664  1
  H+  H136  1  0.87059553  -0.03144920  0.34695412  1
  H+  H137  1  0.63522846  0.21609777  0.01101235  1
  H+  H138  1  0.21702344  0.81473982  0.86167369  1
  H+  H139  1  0.81568644  0.13745120  0.41012781  1
  H+  H140  1  0.87058543  0.47926006  0.83309596  1
  H+  H141  1  0.36070225  0.22490150  0.49181292  1
  H+  H142  1  0.90487336  0.11812383  -0.00874470  1
  H+  H143  1  0.13152173  0.60990189  0.65574424  1
  H+  H144  1  0.38729754  0.51872126  0.49472397  1
  H+  H145  1  0.90612715  0.02659403  0.17921807  1
  H+  H146  1  0.11636100  0.98181524  0.49697575  1
  H+  H147  1  0.33271152  0.41636087  0.39548763  1
  H+  H148  1  0.12887193  0.53462609  0.84995270  1
  H+  H149  1  0.35590097  0.97020950  0.16877359  1
  H+  H150  1  0.09005102  0.71532005  0.82856589  1
  H+  H151  1  0.63228585  0.87094281  0.83171112  1
  H+  H152  1  0.78172759  0.89083566  0.01469028  1
  H+  H153  1  0.26216328  0.12789897  0.34200328  1
  H+  H154  1  0.86497833  0.59910576  0.84377788  1
  H+  H155  1  0.47064208  0.12835992  0.66202875  1
  H+  H156  1  0.23001815  0.61269723  0.17742297  1
  H+  H157  1  0.15819821  0.13517706  0.97858366  1
  H+  H158  1  0.10397913  0.71476051  0.16893490  1
  H+  H159  1  0.22733435  0.36870863  0.65746361  1
  H+  H160  1  0.61746157  0.23450333  0.16111708  1
  H+  H161  1  -0.01176142  0.37391445  0.32997483  1
  H+  H162  1  0.47295540  0.86490578  0.18097109  1
  H+  H163  1  0.92096439  0.33829513  0.59985770  1
  H+  H164  1  0.63600125  0.98546562  0.82219960  1
  H+  H165  1  0.90643775  0.28203225  1.00140968  1
  H+  H166  1  0.63974338  1.02698305  0.65435240  1
  H+  H167  1  0.76458479  0.65285309  0.17724647  1
  H+  H168  1  0.13450900  0.36394855  0.66144863  1
  H+  H169  1  0.76573090  0.38966598  0.16367812  1
  H+  H170  1  0.24929636  0.36063863  1.00633134  1
  H+  H171  1  0.47636637  0.11577728  0.50877323  1
  H+  H172  1  0.26638491  0.14597003  0.81227966  1
  H+  H173  1  1.02930871  0.39574695  1.01731863  1
  H+  H174  1  0.01828065  0.63456937  0.66955931  1
  H+  H175  1  0.18404666  0.09373666  0.89045702  1
  H+  H176  1  0.82909251  0.41555388  0.39926502  1
  H+  H177  1  0.69532974  0.57472973  0.26793054  1
  H+  H178  1  0.39064790  1.05739957  0.80224833  1
  H+  H179  1  0.12731951  0.14689945  0.66115058  1
  H+  H180  1  0.63855302  0.75913627  0.98185629  1
  H+  H181  1  0.63466388  0.26592928  0.32569840  1
  H+  H182  1  0.20858462  0.86958457  0.32767791  1
  H+  H183  1  0.76838463  0.04465673  0.38447157  1
  H+  H184  1  0.20637688  0.62752232  0.85550857  1
  H+  H185  1  0.37339983  0.10869708  0.17471931  1
  H+  H186  1  0.40617710  0.83555694  0.27050745  1
  H+  H187  1  0.16548662  0.86046063  0.84283547  1
  H+  H188  1  0.90776417  0.29284447  0.84495383  1
  H+  H189  1  0.35528017  0.53856149  0.34720513  1
  H+  H190  1  0.87640629  0.39361132  1.01809049  1
  H+  H191  1  0.88772249  0.52590165  0.65652318  1
  H+  H192  1  0.35855274  0.27375548  0.83858212  1
  H+  H193  1  0.48829891  0.40155416  0.83195356  1
  H+  H194  1  0.36154644  0.37966832  0.48351921  1
  H+  H195  1  0.52099758  0.88537614  0.33847306  1
  H+  H196  1  0.39484178  0.51836399  0.99252744  1
  H+  H197  1  0.14387447  0.11744898  0.16967924  1
  H+  H198  1  0.77071197  0.88322704  0.49304504  1
  H+  H199  1  0.64521525  0.13218876  1.01991961  1
  H+  H200  1  0.85309953  0.63308287  1.01882411  1
  H+  H201  1  0.88457775  0.85951785  0.65445021  1
  H+  H202  1  0.76865707  0.89228554  0.81692639  1
  H+  H203  1  0.32259944  0.16021785  0.40181362  1
  H+  H204  1  0.63242481  0.62817425  0.83860721  1
  H+  H205  1  0.36450905  0.40250232  0.81523552  1
  H+  H206  1  0.37050131  0.46916319  0.16953427  1
  H+  H207  1  0.36080357  0.48346361  0.65675572  1
  H+  H208  1  0.78770567  0.23675403  0.79453363  1
  H+  H209  1  0.61740652  0.62194961  0.94348490  1
  H+  H210  1  0.61475926  0.53563821  0.85499263  1
  H+  H211  1  0.88371152  0.64273457  0.48317548  1
  H+  H212  1  -0.05621377  0.61314035  0.32810803  1
  H+  H213  1  0.88786682  0.86440925  0.00375362  1
  H+  H214  1  0.52212956  0.37885438  0.33540781  1
  H+  H215  1  0.03816107  0.40360946  0.82856307  1
  H+  H216  1  0.72559221  0.35447772  0.32351148  1
  H+  H217  1  0.85930952  0.72094832  0.67410218  1
  H+  H218  1  0.13627000  0.27370533  0.50277573  1
  H+  H219  1  0.63427248  0.77259828  0.64871659  1
  H+  H220  1  0.38537803  0.37464124  0.64874931  1
  H+  H221  1  0.72486059  0.85981386  0.65060614  1
  H+  H222  1  0.86851560  0.51525894  0.32557676  1
  H+  H223  1  0.37438455  0.65808289  0.33148200  1
  H+  H224  1  0.52916720  0.64223742  0.48412374  1
  H+  H225  1  0.61738252  0.25079880  0.83767391  1
  H+  H226  1  0.11668609  0.99423514  0.67452863  1
  H+  H227  1  0.23675737  0.60800182  0.00780613  1
  H+  H228  1  0.79535654  0.89572066  0.16819560  1
  H+  H229  1  0.10621742  0.19347053  0.81753666  1
  H+  H230  1  0.12646231  0.49328760  1.01745958  1
  H+  H231  1  0.21911087  0.85410307  1.00618516  1
  H+  H232  1  0.34589533  0.89280095  0.33953826  1
  H+  H233  1  -0.07210152  0.18888776  0.52487606  1
  H+  H234  1  1.01212584  0.11583982  0.81558768  1
  H+  H235  1  0.60009808  0.13150883  0.34550093  1
  H+  H236  1  0.80266070  0.14124917  0.01707002  1
  H+  H237  1  0.88614573  0.89779047  0.16502585  1
  H+  H238  1  0.96154459  0.60903125  1.00351918  1
  H+  H239  1  0.68052689  0.83926120  0.24061763  1
  H+  H240  1  0.08638489  0.62704696  0.83200043  1
  H+  H241  1  0.89590553  0.02479756  0.99183975  1
  H+  H242  1  0.84524072  0.92592823  0.07203328  1
  H+  H243  1  0.86438781  0.49608126  0.17023065  1
  H+  H244  1  0.37930525  0.11544607  0.33034385  1
  H+  H245  1  0.37115311  0.72123692  0.17020468  1
  H+  H246  1  0.38795199  0.02574765  0.50848784  1
  H+  H247  1  0.73757321  0.20311395  0.16559004  1
  H+  H248  1  0.10785586  0.62751595  0.17062314  1
  H+  H249  1  0.42624329  0.59348980  0.89110547  1
  H+  H250  1  0.27108681  0.13631902  0.16126513  1
  H+  H251  1  0.90233499  0.24191547  0.16596007  1
  H+  H252  1  0.11078203  0.38754330  0.49064528  1
  H+  H253  1  0.86478888  0.47789253  1.01346225  1
  H+  H254  1  0.52582765  0.37675956  0.17271282  1
  H+  H255  1  0.11444235  0.47813178  0.66908789  1
  H+  H256  1  0.14156736  0.11407657  0.50364683  1
  H+  H257  1  0.12430148  0.48051405  0.33493315  1
  H+  H258  1  0.86738370  0.84094022  0.35746488  1
  H+  H259  1  0.72217386  0.60554987  0.65429189  1
  H+  H260  1  0.02089875  0.89186579  0.26069457  1
  H+  H261  1  0.86036828  0.72512142  1.01853979  1
  H+  H262  1  0.34874487  0.98237541  0.34103234  1
  H+  H263  1  0.87818751  0.73463326  0.48752859  1
  H+  H264  1  0.05175712  0.93768330  0.72700617  1
  H+  H265  1  0.28130969  0.38260233  0.16192847  1
  H+  H266  1  0.78412752  0.76458710  0.88900171  1
  H+  H267  1  0.63126281  0.35078744  0.17727247  1
  H+  H268  1  0.12899196  0.76669015  0.66373949  1
  H+  H269  1  0.38707168  0.61209309  0.64163187  1
  H+  H270  1  0.86279833  0.97264493  0.82155170  1
  H+  H271  1  0.13095407  0.10965587  0.32602756  1
  H+  H272  1  0.13345515  0.85788829  0.66441264  1
  H+  H273  1  0.11341177  0.72976297  0.49672500  1
  H+  H274  1  0.87211256  0.17984035  0.07049102  1
  H+  H275  1  0.11697392  0.86415276  0.31074827  1
  H+  H276  1  0.36941505  0.63165214  0.17737367  1
  H+  H277  1  0.47437143  0.37400666  0.65138537  1
  H+  H278  1  0.26900916  0.87779620  0.16733392  1
  H+  H279  1  0.14567109  0.27535457  0.16914406  1
  H+  H280  1  0.88921714  0.10914002  0.84038715  1
  H+  H281  1  0.65117692  0.86797590  0.18064994  1
  H+  H282  1  0.73056951  0.37235408  0.50560501  1
  H+  H283  1  0.56786520  0.39056571  0.82874235  1
  H+  H284  1  0.13404013  0.36388862  0.32378758  1
  H+  H285  1  0.35901781  0.11729850  0.01723849  1
  H+  H286  1  0.09162014  0.72024575  1.01918635  1
  H+  H287  1  0.12347928  0.22540959  1.00823714  1
  H+  H288  1  0.34098271  0.60084948  0.80717492  1
  H+  H289  1  0.60087586  0.92631359  0.10092261  1
  H+  H290  1  -0.00747184  0.86656073  0.32677979  1
  H+  H291  1  0.18249236  0.36601963  0.96305620  1
  H+  H292  1  0.33691589  0.32049182  0.89185445  1
  H+  H293  1  0.15655961  0.57910750  0.59383284  1
  H+  H294  1  0.34871114  0.94846327  0.73908822  1
  H+  H295  1  0.84833723  0.68044753  0.10633802  1
  H+  H296  1  0.70274976  0.07331996  0.95036537  1
  H+  H297  1  0.83232888  0.42405185  0.10427017  1
  H+  H298  1  0.32521557  0.91029651  0.07375153  1
  H+  H299  1  0.17096397  0.33251563  0.23009922  1
  H+  H300  1  0.41734698  0.82526347  0.95299803  1
  H+  H301  1  0.83245018  0.91590650  0.41016404  1
  H+  H302  1  0.64876414  0.13455770  0.50739813  1
  H+  H303  1  0.90274122  0.57151322  0.23916076  1
  H+  H304  1  0.33500749  0.43015517  0.71940666  1
  H+  H305  1  0.17595952  0.57828783  0.23918935  1
  H+  H306  1  0.58112773  0.17072852  0.43814984  1
  H+  H307  1  0.07592555  0.67335554  0.43611871  1
  H+  H308  1  0.74036123  0.35450252  1.00585681  1
  H+  H309  1  0.34651777  0.65804426  0.07578784  1
  H+  H310  1  0.09034667  0.16940727  0.42869182  1
  H+  H311  1  0.02636006  0.38837983  0.67316345  1
  H+  H312  1  0.67075980  0.34673741  0.56399914  1
  H+  H313  1  0.58190377  0.16622394  0.73588638  1
  H+  H314  1  0.91271906  0.81920060  0.56456171  1
  H+  H315  1  0.36596936  0.87955772  0.66636392  1
  H+  H316  1  0.40761123  0.85538263  0.85464594  1
  H+  H317  1  0.05944349  0.65562998  0.07528881  1
  H+  H318  1  0.23064660  0.11303544  0.50652848  1
  H+  H319  1  0.60883148  0.06642761  0.24418601  1
  H+  H320  1  0.67980230  0.10378197  0.56730610  1
  H+  H321  1  0.91335177  0.59170880  0.56226509  1
  H+  H322  1  0.77246114  0.14122409  0.67148763  1
  H+  H323  1  0.66604880  0.31732318  0.23319286  1
  H+  H324  1  0.93431417  0.33576015  0.23472759  1
  H+  H325  1  0.16947087  0.08660921  0.23108275  1
  H+  H326  1  0.16541085  0.58698289  0.95548538  1
  H+  H327  1  0.86822201  0.06554219  0.58843603  1
  H+  H328  1  0.61275999  0.86961166  0.01713625  1
  H+  H329  1  0.68674700  0.33476753  0.92043285  1
  H+  H330  1  0.58458219  0.66845080  0.71601880  1
  H+  H331  1  0.32666559  0.64695986  0.43028261  1
  H+  H332  1  0.74788625  0.62743640  0.37490942  1
  H+  H333  1  0.53238293  0.65189980  0.81486188  1
  H+  H334  1  0.07190832  0.65886267  0.73145663  1
  H+  H335  1  0.91404597  0.79443423  0.18010806  1
  H+  H336  1  0.90132194  0.82328163  0.94440118  1
  H+  H337  1  0.32449703  0.64708902  0.70994380  1
  H+  H338  1  0.84898039  0.42374271  0.73654232  1
  H+  H339  1  0.41291552  0.82505453  0.55656494  1
  H+  H340  1  0.32801320  0.92089162  0.43516537  1
  H+  H341  1  0.83310347  0.91376919  0.72199852  1
  H+  H342  1  0.66189506  0.84016313  0.89038741  1
  H+  H343  1  0.59963483  0.40217171  0.07888645  1
  H+  H344  1  0.08281290  0.16581698  0.72209325  1
  H+  H345  1  0.59037455  0.92227758  0.72051412  1
  H+  H346  1  0.57912637  0.91023628  0.39943016  1
  H+  H347  1  0.11091416  0.47699509  0.49046666  1
  H+  H348  1  0.15986133  0.82803102  0.23024441  1
  H+  H349  1  0.41491638  0.32241967  0.23457669  1
  H+  H350  1  0.09219245  0.43324401  0.76565856  1
  H+  H351  1  0.92781910  0.08128042  0.27383758  1
  H+  H352  1  0.15709724  0.82084457  0.94813662  1
  H+  H353  1  0.43531662  0.32308012  0.94677742  1
  H+  H354  1  0.09464317  0.92207673  0.09529925  1
  H+  H355  1  0.61841862  0.01340985  0.33094198  1
  H+  H356  1  0.59020736  0.16495950  0.09793174  1
  H+  H357  1  0.16629380  0.83196441  0.56942604  1
  H+  H358  1  0.15848100  0.93553903  0.76080919  1
  H+  H359  1  0.64723195  0.34715653  0.00864627  1
  H+  H360  1  0.93626462  0.34544980  0.94365525  1
  H+  H361  1  0.82361427  0.65778864  0.73218186  1
  H+  H362  1  0.35386881  0.41868549  0.07196539  1
  H+  H363  1  0.90106325  0.57551023  0.94334201  1
  H+  H364  1  0.88510198  0.28481223  0.50411818  1
  H+  H365  1  0.08588802  0.92012722  0.43932156  1
  H+  H366  1  0.66419679  0.83096608  0.55467368  1
  H+  H367  1  0.63192979  0.37722599  0.68607307  1
  H+  H368  1  0.56426707  0.43246109  0.72866657  1
  H+  H369  1  0.41339206  0.33554294  0.55408810  1
  H+  H370  1  0.16814847  0.09001136  0.59638319  1
  H+  H371  1  0.08690608  0.41996806  0.39560266  1
  H+  H372  1  0.33329012  0.15749323  0.07248904  1
  H+  H373  1  0.09198682  0.16586826  0.09826902  1
  H+  H374  1  0.81419171  0.15319869  0.16068077  1
  H+  H375  1  -0.01982998  0.62080249  0.50575295  1
  H+  H376  1  0.32597986  0.19026386  0.75067252  1
  H+  H377  1  0.22402218  0.36627974  0.32302079  1
  H+  H378  1  0.38351521  0.35691252  0.32411599  1
  H+  H379  1  1.02342872  0.88687799  1.01172905  1
  H+  H380  1  0.41305827  0.09893829  0.60253678  1
  H+  H381  1  0.92116963  0.07959864  0.89874577  1
  H+  H382  1  0.27548554  0.88884404  0.49691655  1
  H+  H383  1  0.41890498  0.57838976  0.58525837  1
  O2-  O384  1  0.09663225  0.17119738  0.14374123  1
  O2-  O385  1  0.08981492  0.16708147  0.47523108  1
  O2-  O386  1  0.07060781  0.13958786  0.79606743  1
  O2-  O387  1  0.10045316  0.42372906  0.14795202  1
  O2-  O388  1  0.07919756  0.41618046  0.47528941  1
  O2-  O389  1  0.09758714  0.43938195  0.81124708  1
  O2-  O390  1  0.07123986  0.65224783  0.15832101  1
  O2-  O391  1  0.08044024  0.66920006  0.48107910  1
  O2-  O392  1  0.05804848  0.65592122  0.81157810  1
  O2-  O393  1  0.10015194  0.92118029  0.14189396  1
  O2-  O394  1  0.08454028  0.91940990  0.48369014  1
  O2-  O395  1  0.18865465  0.94555392  0.80006171  1
  O2-  O396  1  0.33207091  0.16347385  0.14521206  1
  O2-  O397  1  0.32811207  0.16215574  0.47982814  1
  O2-  O398  1  0.32648865  0.18819214  0.79747358  1
  O2-  O399  1  0.34312627  0.41223470  0.14894074  1
  O2-  O400  1  0.33200086  0.41157441  0.46786745  1
  O2-  O401  1  0.34432281  0.44008761  0.79817292  1
  O2-  O402  1  0.34323309  0.66092258  0.15536626  1
  O2-  O403  1  0.32352501  0.65400605  0.47509434  1
  O2-  O404  1  0.29237311  0.60513816  0.78931634  1
  O2-  O405  1  0.33126604  0.90953055  0.15480642  1
  O2-  O406  1  0.33491175  0.91955330  0.48016925  1
  O2-  O407  1  0.34989501  0.97085853  0.78477773  1
  O2-  O408  1  0.57959351  0.17011356  0.14323473  1
  O2-  O409  1  0.58367460  0.17084617  0.48371628  1
  O2-  O410  1  0.58024742  0.19272309  0.81934611  1
  O2-  O411  1  0.58838568  0.40493062  0.16169539  1
  O2-  O412  1  0.56593642  0.40827144  0.47287488  1
  O2-  O413  1  0.54758024  0.42929649  0.81608263  1
  O2-  O414  1  0.67749478  0.74282350  0.10504756  1
  O2-  O415  1  0.58965518  0.67644001  0.47145437  1
  O2-  O416  1  0.59196369  0.67809699  0.79781962  1
  O2-  O417  1  0.61579113  0.94270974  0.14555628  1
  O2-  O418  1  0.57688135  0.90345351  0.46694461  1
  O2-  O419  1  0.59355107  0.92982111  0.80262872  1
  O2-  O420  1  0.87386001  0.17962853  0.14761722  1
  O2-  O421  1  0.83194523  0.18037876  0.48026051  1
  O2-  O422  1  0.81593441  0.20328889  0.80218963  1
  O2-  O423  1  0.82697688  0.42722940  0.15024394  1
  O2-  O424  1  0.83215369  0.42331845  0.47856774  1
  O2-  O425  1  0.84977323  0.41827557  0.81802975  1
  O2-  O426  1  0.85576501  0.68791951  0.15297074  1
  O2-  O427  1  0.86682762  0.68295497  0.45886207  1
  O2-  O428  1  0.81124946  0.64727903  0.81236269  1
  O2-  O429  1  0.85363029  0.92666275  0.14980510  1
  O2-  O430  1  0.83320749  0.91560078  0.48085097  1
  O2-  O431  1  0.82931062  0.91365201  0.80446766  1
  O2-  O432  1  0.17364095  0.08666917  0.18572589  1
  O2-  O433  1  0.16883563  0.08253751  0.52178993  1
  O2-  O434  1  0.17693086  0.07664103  0.84457358  1
  O2-  O435  1  0.17641560  0.33600844  0.18469045  1
  O2-  O436  1  0.16598174  0.33479563  0.51643357  1
  O2-  O437  1  0.20041320  0.39130243  0.86413877  1
  O2-  O438  1  0.17011445  0.58095298  0.19266272  1
  O2-  O439  1  0.16062555  0.58029624  0.51656524  1
  O2-  O440  1  0.14782102  0.59066901  0.87088476  1
  O2-  O441  1  0.16355918  0.82435362  0.18517884  1
  O2-  O442  1  0.16817106  0.83287023  0.52394891  1
  O2-  O443  1  0.16069568  0.80972173  0.86554406  1
  O2-  O444  1  0.40400202  0.07845772  0.19106464  1
  O2-  O445  1  0.41533962  0.08659860  0.52279263  1
  O2-  O446  1  0.41513287  0.11920613  0.82353800  1
  O2-  O447  1  0.41987898  0.32405854  0.18880082  1
  O2-  O448  1  0.40940382  0.32906952  0.50911074  1
  O2-  O449  1  0.38212193  0.32870873  0.86331512  1
  O2-  O450  1  0.41276054  0.56408871  0.21449206  1
  O2-  O451  1  0.41638706  0.57799069  0.51181309  1
  O2-  O452  1  0.43023109  0.59924602  0.84602594  1
  O2-  O453  1  0.41327348  0.83138945  0.19415084  1
  O2-  O454  1  0.40865948  0.82109806  0.51124772  1
  O2-  O455  1  0.44032357  0.91799172  0.85111996  1
  O2-  O456  1  0.57771215  0.05421063  0.20399760  1
  O2-  O457  1  0.68673496  0.11212627  0.52227366  1
  O2-  O458  1  0.69410194  0.07053041  0.87011566  1
  O2-  O459  1  0.66398969  0.31871317  0.18645426  1
  O2-  O460  1  0.66927828  0.33942547  0.52004021  1
  O2-  O461  1  0.68893996  0.34501874  0.87374678  1
  O2-  O462  1  0.70245212  0.63174889  0.19190328  1
  O2-  O463  1  0.77334226  0.62998289  0.44699131  1
  O2-  O464  1  0.65239553  0.59659490  0.86595622  1
  O2-  O465  1  0.68481637  0.84168105  0.19438738  1
  O2-  O466  1  0.66744624  0.83289628  0.50959930  1
  O2-  O467  1  0.66457465  0.84163734  0.84593635  1
  O2-  O468  1  0.93891330  0.08640113  0.19658919  1
  O2-  O469  1  0.87526593  0.13813331  0.51088059  1
  O2-  O470  1  0.91871747  0.07825802  0.85217874  1
  O2-  O471  1  0.93784373  0.33069301  0.18999596  1
  O2-  O472  1  0.91791109  0.34438005  0.52149945  1
  O2-  O473  1  0.94181237  0.35081874  0.86301570  1
  O2-  O474  1  0.90807449  0.57141806  0.19168611  1
  O2-  O475  1  0.91723972  0.59328333  0.51658261  1
  O2-  O476  1  0.89908291  0.57334442  0.86001032  1
  O2-  O477  1  0.94613022  0.85683043  0.19050072  1
  O2-  O478  1  0.91558307  0.81960174  0.51886072  1
  O2-  O479  1  0.84141972  0.79331264  0.87109336  1
  O2-  O480  1  0.15882242  0.07755501  0.30970636  1
  O2-  O481  1  0.16818372  0.09506861  0.64243362  1
  O2-  O482  1  0.20196237  0.13148121  0.95284573  1
  O2-  O483  1  0.16347797  0.33222822  0.30871191  1
  O2-  O484  1  0.16420845  0.33259271  0.64596903  1
  O2-  O485  1  0.18745581  0.33058402  0.99443901  1
  O2-  O486  1  0.18736469  0.57208996  0.30965976  1
  O2-  O487  1  0.16024871  0.57881496  0.63947354  1
  O2-  O488  1  0.17398227  0.57793499  0.99864747  1
  O2-  O489  1  0.15028195  0.83313184  0.30940547  1
  O2-  O490  1  0.16179705  0.82758430  0.64824415  1
  O2-  O491  1  0.15719772  0.82458690  0.99287287  1
  O2-  O492  1  0.41057673  0.08521684  0.31634620  1
  O2-  O493  1  0.41212809  0.10899600  0.64704871  1
  O2-  O494  1  0.55178049  0.07507657  0.90642914  1
  O2-  O495  1  0.41013406  0.32334251  0.30988714  1
  O2-  O496  1  0.41443193  0.34249765  0.63505392  1
  O2-  O497  1  0.43379176  0.32287367  0.99129425  1
  O2-  O498  1  0.38535839  0.50696270  0.33190885  1
  O2-  O499  1  0.41781034  0.58021935  0.63143763  1
  O2-  O500  1  0.41884962  0.57731358  0.97476631  1
  O2-  O501  1  0.40599700  0.84237081  0.31598039  1
  O2-  O502  1  0.41879316  0.83192140  0.63640889  1
  O2-  O503  1  0.42150181  0.82599061  0.99721015  1
  O2-  O504  1  0.64532781  0.07480038  0.31477384  1
  O2-  O505  1  0.67146757  0.09003670  0.64427956  1
  O2-  O506  1  0.69745609  0.07523673  0.99535710  1
  O2-  O507  1  0.66711422  0.32290570  0.30475524  1
  O2-  O508  1  0.66553877  0.34602566  0.69367662  1
  O2-  O509  1  0.68009436  0.31957038  0.98958424  1
  O2-  O510  1  0.68121141  0.55299484  0.22474474  1
  O2-  O511  1  0.66251690  0.57325653  0.63884297  1
  O2-  O512  1  0.59463745  0.64478135  0.97487356  1
  O2-  O513  1  0.67389191  0.84159010  0.31287725  1
  O2-  O514  1  0.66453627  0.83462555  0.63621301  1
  O2-  O515  1  0.66441186  0.81442898  1.00458222  1
  O2-  O516  1  0.92693925  0.07888508  0.31950428  1
  O2-  O517  1  0.88721684  0.06618891  0.63031461  1
  O2-  O518  1  0.92771209  0.08288147  0.97218391  1
  O2-  O519  1  0.92585686  0.34316659  0.31541118  1
  O2-  O520  1  0.92164482  0.33469617  0.64543713  1
  O2-  O521  1  0.93395454  0.34411636  0.98903551  1
  O2-  O522  1  0.89113224  0.57283784  0.30610387  1
  O2-  O523  1  0.91518907  0.58545920  0.64005245  1
  O2-  O524  1  0.89953059  0.57248431  0.98838501  1
  O2-  O525  1  0.89226868  0.80238045  0.35075606  1
  O2-  O526  1  0.91357542  0.82617044  0.64120999  1
  O2-  O527  1  0.91359550  0.83000398  0.98843942  1
  O2-  O528  1  0.09356499  0.16323176  0.02020950  1
  O2-  O529  1  0.08969171  0.17068496  0.35616382  1
  O2-  O530  1  0.09577270  0.17856062  0.67738072  1
  O2-  O531  1  0.09074337  0.42742765  0.03318444  1
  O2-  O532  1  0.08623896  0.41814533  0.35020564  1
  O2-  O533  1  0.08720831  0.41931231  0.68821458  1
  O2-  O534  1  0.05417570  0.65896657  0.03076382  1
  O2-  O535  1  0.05794982  0.67718143  0.35824664  1
  O2-  O536  1  0.07819037  0.66287614  0.68626829  1
  O2-  O537  1  0.08410522  0.91929741  0.02527892  1
  O2-  O538  1  0.04619376  0.90221915  0.30216196  1
  O2-  O539  1  0.08741932  0.93565186  0.69412320  1
  O2-  O540  1  0.33860549  0.15715731  0.02634645  1
  O2-  O541  1  0.32291451  0.16088470  0.35618087  1
  O2-  O542  1  0.32897951  0.18453479  0.68002727  1
  O2-  O543  1  0.35543487  0.41741964  0.02630342  1
  O2-  O544  1  0.32958722  0.41610785  0.34848954  1
  O2-  O545  1  0.32847309  0.42291343  0.67441848  1
  O2-  O546  1  0.34464523  0.66129165  0.03043633  1
  O2-  O547  1  0.32866849  0.61334068  0.35568019  1
  O2-  O548  1  0.33167434  0.66125982  0.66592656  1
  O2-  O549  1  0.32220785  0.90695962  0.02861678  1
  O2-  O550  1  0.31444881  0.92108616  0.35531381  1
  O2-  O551  1  0.33530494  0.90969701  0.68125615  1
  O2-  O552  1  0.60525599  0.15491599  0.02619218  1
  O2-  O553  1  0.57522024  0.16710796  0.35995817  1
  O2-  O554  1  0.58286436  0.16697951  0.69103633  1
  O2-  O555  1  0.60140851  0.39465122  0.03437946  1
  O2-  O556  1  0.58124861  0.41040137  0.35155782  1
  O2-  O557  1  0.57517331  0.42450152  0.68590654  1
  O2-  O558  1  0.61528486  0.65006447  0.10131135  1
  O2-  O559  1  0.59650649  0.66920675  0.34959223  1
  O2-  O560  1  0.58484610  0.66778325  0.67084041  1
  O2-  O561  1  0.58972981  0.90820679  0.02922319  1
  O2-  O562  1  0.58149862  0.91623229  0.35192893  1
  O2-  O563  1  0.58770207  0.92141042  0.67544519  1
  O2-  O564  1  0.86551463  0.17813516  0.02502493  1
  O2-  O565  1  0.80081189  0.10420015  0.37063455  1
  O2-  O566  1  0.83249647  0.16984098  0.68861753  1
  O2-  O567  1  0.83991495  0.41763021  0.03183066  1
  O2-  O568  1  0.82794467  0.41311350  0.35382662  1
  O2-  O569  1  0.84335032  0.42213786  0.69132253  1
  O2-  O570  1  0.82978526  0.66733528  0.03770156  1
  O2-  O571  1  0.73501257  0.63803983  0.33155967  1
  O2-  O572  1  0.82948318  0.65969667  0.68700636  1
  O2-  O573  1  0.84292413  0.92572463  0.02625993  1
  O2-  O574  1  0.83166127  0.91031839  0.36352998  1
  O2-  O575  1  0.83312545  0.90976838  0.67691947  1
