# generated using pymatgen
data_H2O
_symmetry_space_group_name_H-M   'P 1'
_cell_length_a   17.98217294
_cell_length_b   17.97742664
_cell_length_c   21.99301452
_cell_angle_alpha   90.00643698
_cell_angle_beta   90.00054381
_cell_angle_gamma   120.00553666
_symmetry_Int_Tables_number   1
_chemical_formula_structural   H2O
_chemical_formula_sum   'H384 O192'
_cell_volume   6156.88230224
_cell_formula_units_Z   192
loop_
 _symmetry_equiv_pos_site_id
 _symmetry_equiv_pos_as_xyz
  1  'x, y, z'
loop_
 _atom_type_symbol
 _atom_type_oxidation_number
  H+  1.0
  O2-  -2.0
loop_
 _atom_site_type_symbol
 _atom_site_label
 _atom_site_symmetry_multiplicity
 _atom_site_fract_x
 _atom_site_fract_y
 _atom_site_fract_z
 _atom_site_occupancy
  H+  H0  1  0.13535558  0.02369751  0.98975813  1
  H+  H1  1  0.15037689  0.11792382  0.33264815  1
  H+  H2  1  0.56325792  0.83321850  0.45951496  1
  H+  H3  1  0.13519622  0.86741038  0.83615900  1
  H+  H4  1  0.13938663  0.35422403  0.32592718  1
  H+  H5  1  0.20943176  0.36487023  0.16429104  1
  H+  H6  1  0.39253062  0.27651505  0.30893066  1
  H+  H7  1  0.98272659  0.35600562  0.51107365  1
  H+  H8  1  0.52547985  0.13202066  0.49896279  1
  H+  H9  1  0.60796350  0.63805092  0.16313801  1
  H+  H10  1  0.89098338  0.61301194  0.65466614  1
  H+  H11  1  0.05402530  0.15499101  0.37913589  1
  H+  H12  1  0.35429819  0.47495857  0.67316090  1
  H+  H13  1  0.82448378  0.59617312  -0.04804826  1
  H+  H14  1  0.85785100  0.73221452  0.99748243  1
  H+  H15  1  0.63152954  0.62244745  0.00251852  1
  H+  H16  1  0.38579946  0.50208398  0.49484753  1
  H+  H17  1  0.50427127  0.88444039  0.14832915  1
  H+  H18  1  0.11188321  0.69738104  0.34382774  1
  H+  H19  1  0.22407895  0.59977841  0.32406632  1
  H+  H20  1  0.61132166  0.47314792  0.49252100  1
  H+  H21  1  0.47463050  0.58039749  0.17519577  1
  H+  H22  1  0.35715595  0.71583933  0.33785144  1
  H+  H23  1  0.85558660  0.22386499  0.82127831  1
  H+  H24  1  0.26979876  0.38047104  0.67084730  1
  H+  H25  1  0.63583337  0.36635661  0.65466438  1
  H+  H26  1  0.92440825  0.60119062  0.25832876  1
  H+  H27  1  0.38123253  0.76177322  0.50985670  1
  H+  H28  1  0.39378866  0.13559987  0.66558743  1
  H+  H29  1  0.46993844  0.85208044  0.32327254  1
  H+  H30  1  0.01337588  0.36490636  0.67768463  1
  H+  H31  1  0.63348576  0.52148125  0.66203980  1
  H+  H32  1  0.63558616  0.34798974  0.16797111  1
  H+  H33  1  0.11608695  0.13578029  0.00291110  1
  H+  H34  1  0.86309928  0.47301894  0.67721973  1
  H+  H35  1  0.38730507  0.26776075  0.51141236  1
  H+  H36  1  0.78560209  0.64732225  0.84399709  1
  H+  H37  1  0.87172538  0.38355607  0.49835574  1
  H+  H38  1  0.64446482  0.76203116  0.66298747  1
  H+  H39  1  0.26791756  0.36537453  0.48799789  1
  H+  H40  1  0.74928286  0.15321213  0.31443925  1
  H+  H41  1  0.10032316  0.36230794  0.67865219  1
  H+  H42  1  0.49148115  0.81784067  0.97098461  1
  H+  H43  1  0.06860157  0.78758026  0.52736645  1
  H+  H44  1  0.63772782  0.26200287  0.35118649  1
  H+  H45  1  0.86324741  0.13128253  0.33891715  1
  H+  H46  1  0.28016306  0.88187269  0.67673701  1
  H+  H47  1  0.78340491  0.14716686  -0.00500824  1
  H+  H48  1  0.37500735  0.73310307  0.68240247  1
  H+  H49  1  0.22395104  0.60442622  0.99639554  1
  H+  H50  1  0.36416636  0.73598792  0.15873553  1
  H+  H51  1  0.13585096  0.61048409  0.84038769  1
  H+  H52  1  0.41453104  0.32877402  0.93538431  1
  H+  H53  1  0.61393841  0.23484438  0.67526483  1
  H+  H54  1  0.71743606  0.86021634  0.32899942  1
  H+  H55  1  0.02398320  0.61869950  0.49655648  1
  H+  H56  1  0.83298523  0.92407642  0.39726723  1
  H+  H57  1  0.63827087  0.86140406  -0.00933927  1
  H+  H58  1  0.62190265  0.73235442  0.83100810  1
  H+  H59  1  0.66758191  0.08261794  1.03818975  1
  H+  H60  1  0.38375062  0.62057332  0.67482541  1
  H+  H61  1  0.63660649  0.36384182  0.99404824  1
  H+  H62  1  0.38088024  0.35062392  0.99689296  1
  H+  H63  1  0.89549404  0.27967655  0.98664048  1
  H+  H64  1  0.27268606  0.88470576  0.49426834  1
  H+  H65  1  0.88756811  0.02930816  0.83358535  1
  H+  H66  1  0.77854615  0.89242526  0.82592835  1
  H+  H67  1  0.11344428  0.47576309  0.00793850  1
  H+  H68  1  0.38547177  0.36867408  0.65700277  1
  H+  H69  1  0.22748277  0.10958311  -0.01097205  1
  H+  H70  1  0.16201452  0.32870431  0.89738176  1
  H+  H71  1  0.69442207  0.05204967  0.66064895  1
  H+  H72  1  0.78282620  0.38482476  0.49377395  1
  H+  H73  1  0.35949775  0.37118420  0.48760923  1
  H+  H74  1  0.16684984  0.08279473  0.23210082  1
  H+  H75  1  0.13801052  0.25264909  0.66398712  1
  H+  H76  1  0.13213679  0.26967826  0.99365272  1
  H+  H77  1  0.36708624  0.87900632  0.68190658  1
  H+  H78  1  0.34952775  0.72178388  0.82817950  1
  H+  H79  1  0.98150225  0.87669350  0.50236668  1
  H+  H80  1  0.26514827  0.37289808  1.00416343  1
  H+  H81  1  0.63577451  0.36121640  0.49876151  1
  H+  H82  1  0.78141415  0.88626528  0.67104290  1
  H+  H83  1  0.39454984  0.89321277  0.95296310  1
  H+  H84  1  0.20885968  0.87167422  0.99657092  1
  H+  H85  1  0.22383020  0.86760197  0.84211224  1
  H+  H86  1  0.61050964  0.38136659  0.34720148  1
  H+  H87  1  0.60936855  0.14022501  0.83045555  1
  H+  H88  1  0.01732324  0.89074311  0.00527587  1
  H+  H89  1  0.38061965  0.85081961  0.51154803  1
  H+  H90  1  0.14236929  1.02501756  0.17134362  1
  H+  H91  1  0.12455477  0.20739081  0.45764374  1
  H+  H92  1  0.87381849  0.89905252  0.49147883  1
  H+  H93  1  0.60896987  0.22883803  0.83210332  1
  H+  H94  1  0.15446282  0.84146250  0.34740699  1
  H+  H95  1  0.38313171  0.98257311  0.34298587  1
  H+  H96  1  0.11543975  0.13066271  0.15758308  1
  H+  H97  1  0.63016712  0.27179142  -0.00934484  1
  H+  H98  1  0.63473491  0.27008721  0.50259860  1
  H+  H99  1  0.69151591  0.11317970  0.25540734  1
  H+  H100  1  0.89326268  0.51595169  0.51032693  1
  H+  H101  1  0.88362786  0.35748876  0.83638915  1
  H+  H102  1  0.89086160  0.65232869  0.15458993  1
  H+  H103  1  0.13026803  0.58973593  0.32836272  1
  H+  H104  1  1.02752179  0.89477235  0.81835100  1
  H+  H105  1  0.63081058  0.39852596  0.83399035  1
  H+  H106  1  0.47014311  0.36258796  0.16539658  1
  H+  H107  1  0.83911581  0.91640628  0.05726176  1
  H+  H108  1  0.39565501  0.63538214  0.85409214  1
  H+  H109  1  0.63489671  0.53090763  0.85692573  1
  H+  H110  1  0.22221502  0.35937629  0.83768468  1
  H+  H111  1  0.12588093  0.32621635  0.50432695  1
  H+  H112  1  0.86021598  0.47019473  0.82416615  1
  H+  H113  1  0.09868329  0.10233450  0.68729329  1
  H+  H114  1  0.37521195  0.86228505  0.84201592  1
  H+  H115  1  0.72881970  0.62747942  -0.00132936  1
  H+  H116  1  0.36321962  0.12773832  1.00157303  1
  H+  H117  1  0.33114319  0.90081668  0.01970445  1
  H+  H118  1  0.42081033  0.79053241  0.91931793  1
  H+  H119  1  0.77181371  0.38668828  0.67355129  1
  H+  H120  1  0.89752593  0.12460239  0.51222599  1
  H+  H121  1  0.86665889  0.73174934  0.65310839  1
  H+  H122  1  0.52041402  0.63617289  0.68206651  1
  H+  H123  1  -0.01156911  0.62177352  0.81391728  1
  H+  H124  1  0.92662802  0.85086996  0.59818215  1
  H+  H125  1  0.10246038  0.49936919  0.16840729  1
  H+  H126  1  0.22708036  0.59374879  0.50597887  1
  H+  H127  1  0.60206375  0.88491847  0.33526086  1
  H+  H128  1  0.99724376  0.88346848  0.17328154  1
  H+  H129  1  0.45558365  0.69262797  0.90574344  1
  H+  H130  1  0.77556202  0.64145992  0.65177363  1
  H+  H131  1  0.89089691  1.02412812  -0.01432848  1
  H+  H132  1  0.88610314  0.86454640  0.98541855  1
  H+  H133  1  0.60743438  0.47476129  1.00745338  1
  H+  H134  1  0.11487669  0.91038868  0.48620612  1
  H+  H135  1  0.38630765  0.27120541  0.83776871  1
  H+  H136  1  0.13927381  0.78490533  0.66103019  1
  H+  H137  1  0.64208562  0.61089683  0.50489285  1
  H+  H138  1  0.26319607  0.12844662  0.52973441  1
  H+  H139  1  0.87033076  0.40612300  0.16165171  1
  H+  H140  1  0.89280699  0.11461515  0.98527226  1
  H+  H141  1  0.64337596  1.01017159  0.17031229  1
  H+  H142  1  0.87373700  0.89358136  0.67194253  1
  H+  H143  1  0.89214664  0.78214685  0.83475385  1
  H+  H144  1  0.87124224  0.88851760  0.15022616  1
  H+  H145  1  0.89647184  0.26857924  0.32991453  1
  H+  H146  1  0.62372364  0.12063276  0.99693011  1
  H+  H147  1  0.47293142  0.36195093  0.83931760  1
  H+  H148  1  0.26501441  0.62808033  0.83009476  1
  H+  H149  1  0.86571663  -0.02688792  0.14656151  1
  H+  H150  1  0.82145634  0.28707188  0.19964152  1
  H+  H151  1  0.36743872  0.69568286  0.00157428  1
  H+  H152  1  1.02744228  0.37291368  0.34066308  1
  H+  H153  1  0.87357562  0.13437518  0.14425979  1
  H+  H154  1  0.12858662  0.01999491  0.33049619  1
  H+  H155  1  -0.02837133  0.61644314  0.32538534  1
  H+  H156  1  0.91787472  0.08879630  0.89272844  1
  H+  H157  1  0.12005175  0.45308667  0.49755881  1
  H+  H158  1  0.68047425  0.81710431  0.59996304  1
  H+  H159  1  0.77747470  0.88819245  0.99932328  1
  H+  H160  1  0.37668472  0.86902174  0.17455922  1
  H+  H161  1  0.87858268  0.35440638  0.66219860  1
  H+  H162  1  0.49440176  0.13653411  0.66952423  1
  H+  H163  1  0.87608513  0.98909069  0.49310140  1
  H+  H164  1  0.16105624  0.30654355  0.60322527  1
  H+  H165  1  0.97377581  0.35813581  0.83489812  1
  H+  H166  1  0.64069068  0.86656475  0.84253326  1
  H+  H167  1  0.42406329  0.09063841  0.22568939  1
  H+  H168  1  0.35954648  0.98634777  0.16568520  1
  H+  H169  1  0.12324375  0.72735598  0.16490919  1
  H+  H170  1  0.52440504  0.13796915  0.14607873  1
  H+  H171  1  0.51177612  0.13448697  -0.00426826  1
  H+  H172  1  0.22926263  0.86902018  0.17669441  1
  H+  H173  1  0.46912762  0.11556686  0.83997206  1
  H+  H174  1  0.52888643  0.65360069  0.84060639  1
  H+  H175  1  0.34623604  0.99444820  0.01056043  1
  H+  H176  1  0.13056575  0.51826389  0.84006138  1
  H+  H177  1  0.81423578  0.67146549  0.16170570  1
  H+  H178  1  0.65754718  0.12994391  0.51890191  1
  H+  H179  1  0.51398396  0.87136609  0.49287613  1
  H+  H180  1  0.11220192  0.72558104  1.01298412  1
  H+  H181  1  0.11324211  0.70609926  0.49337261  1
  H+  H182  1  0.37588757  0.28586562  0.16774102  1
  H+  H183  1  0.39946649  0.11226148  0.31815840  1
  H+  H184  1  0.16138184  0.31462937  0.23576852  1
  H+  H185  1  0.63955606  0.88636028  0.65638111  1
  H+  H186  1  0.08717239  0.39594776  0.43727689  1
  H+  H187  1  0.89508038  0.78337507  0.51171202  1
  H+  H188  1  0.06767699  0.88146667  0.34962253  1
  H+  H189  1  -0.00274287  0.38694900  0.15260838  1
  H+  H190  1  0.96392572  0.09170954  0.30493319  1
  H+  H191  1  0.12435380  0.60728145  0.17430282  1
  H+  H192  1  0.23175714  0.35852040  0.32251389  1
  H+  H193  1  0.98551606  0.87931898  0.65792301  1
  H+  H194  1  0.97895047  0.10804647  0.16445902  1
  H+  H195  1  0.77978156  0.64272074  0.32697812  1
  H+  H196  1  0.12725186  0.03215528  0.51769911  1
  H+  H197  1  0.38465479  0.10540167  0.52146858  1
  H+  H198  1  0.18049018  0.93197540  0.32354377  1
  H+  H199  1  0.11724898  0.63916956  0.01300016  1
  H+  H200  1  0.72922922  0.36274508  0.16527669  1
  H+  H201  1  0.61091106  0.98192365  0.83803086  1
  H+  H202  1  0.78377049  0.63757719  0.51077016  1
  H+  H203  1  0.96880664  0.88106197  0.33027713  1
  H+  H204  1  0.11697540  0.46062635  0.34136607  1
  H+  H205  1  0.32256989  0.46890396  0.15532576  1
  H+  H206  1  0.59564490  0.96336380  -0.00553082  1
  H+  H207  1  0.02409962  0.38783127  0.00336347  1
  H+  H208  1  0.57027900  0.91418473  0.39200640  1
  H+  H209  1  0.10854937  0.38393908  0.82963369  1
  H+  H210  1  0.62713367  0.12851995  0.33116333  1
  H+  H211  1  0.38798942  0.12157035  0.16934768  1
  H+  H212  1  0.12877206  0.25304299  0.17190633  1
  H+  H213  1  0.86389033  0.38650157  0.00844153  1
  H+  H214  1  0.35420931  0.38169719  0.82734616  1
  H+  H215  1  0.63667579  0.77187912  0.99421580  1
  H+  H216  1  0.46453843  0.86195206  0.84068210  1
  H+  H217  1  0.74353134  0.87231182  0.50623830  1
  H+  H218  1  0.72293232  0.36087323  0.84460587  1
  H+  H219  1  0.48483715  0.10272571  0.32258716  1
  H+  H220  1  0.14074656  0.03697541  0.62419890  1
  H+  H221  1  0.89668513  0.53650516  0.16843855  1
  H+  H222  1  0.13508837  0.23864696  0.35266569  1
  H+  H223  1  0.88225386  0.64199356  0.32035777  1
  H+  H224  1  0.36581819  0.21768034  0.00168428  1
  H+  H225  1  0.89631305  0.60745979  0.51752788  1
  H+  H226  1  0.62698186  0.61855189  0.85412650  1
  H+  H227  1  0.36644770  0.62616967  0.49157121  1
  H+  H228  1  0.89569206  0.87289829  0.83595169  1
  H+  H229  1  0.84511123  0.67149593  0.56618624  1
  H+  H230  1  0.70370398  0.86055063  0.17770920  1
  H+  H231  1  0.59631123  0.45491065  0.16035345  1
  H+  H232  1  0.86714731  0.21957199  0.15047060  1
  H+  H233  1  0.37003437  0.23421936  0.67033135  1
  H+  H234  1  0.51579903  0.38415212  0.66805119  1
  H+  H235  1  0.23435960  0.63180044  0.66117979  1
  H+  H236  1  0.73780636  0.09023670  0.16553636  1
  H+  H237  1  -0.00929452  0.62328611  0.17042223  1
  H+  H238  1  0.13350327  0.35989838  0.99515139  1
  H+  H239  1  0.69448492  0.57662916  0.16609565  1
  H+  H240  1  0.52610139  0.62839637  0.33793022  1
  H+  H241  1  0.29164471  0.90315606  0.34549931  1
  H+  H242  1  0.38766225  0.51725043  0.33176479  1
  H+  H243  1  0.53257938  0.63628441  0.48735519  1
  H+  H244  1  0.12191268  0.89095493  0.15587232  1
  H+  H245  1  0.49683828  0.86864609  0.65852925  1
  H+  H246  1  0.87444529  0.22724730  0.49435132  1
  H+  H247  1  0.11138914  0.22889417  0.82388910  1
  H+  H248  1  0.61686011  0.22143991  0.14562429  1
  H+  H249  1  -0.00786442  0.10574702  0.66598687  1
  H+  H250  1  0.35849359  0.97833785  0.82998980  1
  H+  H251  1  0.43328556  0.02722148  0.95872103  1
  H+  H252  1  0.36696888  0.64974898  0.16645030  1
  H+  H253  1  0.27301423  0.14244924  0.82240499  1
  H+  H254  1  0.35686689  0.45866400  0.00990679  1
  H+  H255  1  0.66575524  0.31771675  0.41001006  1
  H+  H256  1  0.14017008  0.12454973  0.53638860  1
  H+  H257  1  0.78667424  0.37612474  0.34772931  1
  H+  H258  1  0.27409264  0.14113356  0.15714742  1
  H+  H259  1  0.87251879  0.01078267  0.31802524  1
  H+  H260  1  0.47653038  0.35821189  0.50171317  1
  H+  H261  1  0.86763788  0.73885649  0.32736858  1
  H+  H262  1  0.12680282  0.65653203  0.66963320  1
  H+  H263  1  0.77361260  0.38276365  1.01095472  1
  H+  H264  1  0.08627059  0.16169026  0.09681053  1
  H+  H265  1  0.14780306  0.87866440  0.65851800  1
  H+  H266  1  0.02577026  0.13364447  0.00285367  1
  H+  H267  1  0.59860887  0.72275207  0.16649442  1
  H+  H268  1  0.59033729  0.66114480  0.39488674  1
  H+  H269  1  0.41857630  0.57945387  0.94721698  1
  H+  H270  1  0.72591267  0.11462158  0.84123807  1
  H+  H271  1  0.13658312  0.58900242  0.50475784  1
  H+  H272  1  0.51819195  0.62943390  0.01266282  1
  H+  H273  1  0.64477980  0.52148504  0.32361512  1
  H+  H274  1  0.27416954  0.12943920  0.32364856  1
  H+  H275  1  0.89706598  0.35857645  0.33113793  1
  H+  H276  1  0.38873631  0.01897129  0.51801429  1
  H+  H277  1  0.13559517  0.11620613  0.83638854  1
  H+  H278  1  0.85477924  0.88726073  0.33704239  1
  H+  H279  1  0.89091081  0.01555003  0.65994149  1
  H+  H280  1  0.57392135  0.16794539  0.05634777  1
  H+  H281  1  0.32507801  0.40948240  0.76784715  1
  H+  H282  1  0.63224091  0.76778720  0.32854508  1
  H+  H283  1  0.36589272  0.38236470  0.33158081  1
  H+  H284  1  0.91433462  0.79263779  0.17021176  1
  H+  H285  1  0.10317854  0.88618032  1.00362670  1
  H+  H286  1  0.62102712  0.72740206  0.49110599  1
  H+  H287  1  0.41688267  0.89726449  -0.01697972  1
  H+  H288  1  0.41043171  0.60061358  0.61219556  1
  H+  H289  1  0.85138726  0.41228384  0.40150581  1
  H+  H290  1  0.57323374  0.40698591  0.72849192  1
  H+  H291  1  0.63247491  0.60987852  0.66522470  1
  H+  H292  1  0.57975605  0.41775444  0.43089965  1
  H+  H293  1  0.10049000  0.67990608  0.76558498  1
  H+  H294  1  0.16720150  0.84184013  0.23398754  1
  H+  H295  1  0.36052664  0.13949088  0.82477028  1
  H+  H296  1  0.58634183  0.87374772  0.15073806  1
  H+  H297  1  0.58148515  0.17604879  0.73616220  1
  H+  H298  1  0.66810676  0.47728768  0.78982181  1
  H+  H299  1  0.67030037  0.33742226  0.59721776  1
  H+  H300  1  0.86001484  0.56879949  0.89755474  1
  H+  H301  1  0.33227797  0.65863766  0.06926529  1
  H+  H302  1  0.64458596  0.93847479  0.71284046  1
  H+  H303  1  0.40948397  0.83517530  0.23102629  1
  H+  H304  1  0.80278079  0.15153723  0.72825946  1
  H+  H305  1  0.44234942  0.54417581  0.55157784  1
  H+  H306  1  0.09454901  0.66993644  0.10226481  1
  H+  H307  1  0.65625086  0.87276772  0.51690194  1
  H+  H308  1  0.33972145  0.91883261  0.43964041  1
  H+  H309  1  0.02025361  0.14013793  0.82459184  1
  H+  H310  1  0.56798352  0.92235579  0.78074123  1
  H+  H311  1  0.06497781  0.41772970  0.09638794  1
  H+  H312  1  0.33418854  0.65529000  0.43335572  1
  H+  H313  1  0.78549807  0.14055411  0.49906967  1
  H+  H314  1  0.41945294  0.56867135  0.27114958  1
  H+  H315  1  0.65721031  0.57161978  0.23318577  1
  H+  H316  1  0.90357736  0.32066980  0.24102546  1
  H+  H317  1  0.58117369  0.66359143  0.74096596  1
  H+  H318  1  0.92163856  0.33885256  0.92823017  1
  H+  H319  1  0.90803482  0.07415292  0.21804835  1
  H+  H320  1  0.07661679  0.15307841  0.73893776  1
  H+  H321  1  0.42073350  0.34345857  0.25445038  1
  H+  H322  1  0.32977467  0.91281904  0.77277859  1
  H+  H323  1  0.86817716  0.26106133  0.65803939  1
  H+  H324  1  0.85556247  0.13516857  0.82096465  1
  H+  H325  1  0.33306591  0.16767424  0.09756301  1
  H+  H326  1  0.40792297  0.08461359  0.89901226  1
  H+  H327  1  0.03389911  0.64871280  0.67477779  1
  H+  H328  1  0.83752519  0.92205177  0.76601428  1
  H+  H329  1  0.16392660  0.57965761  0.93708803  1
  H+  H330  1  0.42770820  0.83109482  0.60520707  1
  H+  H331  1  0.07381915  0.64183667  0.40354799  1
  H+  H332  1  0.56711199  0.90420865  0.05405835  1
  H+  H333  1  0.70370389  0.12113848  0.57788360  1
  H+  H334  1  0.42656757  0.09298252  0.60805479  1
  H+  H335  1  0.33264390  0.66895737  0.74038364  1
  H+  H336  1  0.07730358  0.40796156  0.76862401  1
  H+  H337  1  0.43404433  0.48335739  0.19615934  1
  H+  H338  1  0.33096654  0.40319644  0.39333190  1
  H+  H339  1  0.55575827  0.05055452  0.36843850  1
  H+  H340  1  0.09221268  0.93779960  0.72864920  1
  H+  H341  1  0.84327675  0.17098968  0.05369600  1
  H+  H342  1  0.84014299  0.16283866  0.40141083  1
  H+  H343  1  0.92961993  0.08674380  0.60039422  1
  H+  H344  1  0.66082013  0.57683154  0.56689208  1
  H+  H345  1  0.91830544  0.32836278  0.56870209  1
  H+  H346  1  0.52610722  0.38747701  0.33134307  1
  H+  H347  1  0.83828214  0.67283569  0.05691998  1
  H+  H348  1  0.11671050  0.98411661  0.82059650  1
  H+  H349  1  0.66328072  0.33489866  0.90451048  1
  H+  H350  1  0.29062109  0.41206171  0.09387745  1
  H+  H351  1  0.92106600  0.83624395  0.92743622  1
  H+  H352  1  0.51921924  0.38419474  0.00426881  1
  H+  H353  1  0.92730615  0.57477233  0.60710736  1
  H+  H354  1  0.67099281  0.08913794  0.90297132  1
  H+  H355  1  0.15556637  0.83383018  0.93447560  1
  H+  H356  1  0.38296697  0.85307861  0.32855661  1
  H+  H357  1  0.08986752  0.92210478  0.09666389  1
  H+  H358  1  0.57592622  0.40372034  0.09776401  1
  H+  H359  1  0.58215761  0.14764938  0.43905130  1
  H+  H360  1  0.30155253  0.13651179  0.46605406  1
  H+  H361  1  0.82428718  0.40631379  0.76935625  1
  H+  H362  1  0.66039433  0.59233760  0.93276463  1
  H+  H363  1  0.86579659  0.65151521  0.81468501  1
  H+  H364  1  0.36060740  0.62838721  0.33802632  1
  H+  H365  1  0.34587351  0.17640293  0.37389855  1
  H+  H366  1  0.31901872  0.92793121  0.10737730  1
  H+  H367  1  0.64632298  0.83065114  0.23746594  1
  H+  H368  1  0.33962317  0.17338319  0.72939398  1
  H+  H369  1  0.67313219  0.83615486  0.89989393  1
  H+  H370  1  0.99234766  0.13729081  0.51689444  1
  H+  H371  1  0.14911139  0.56357585  0.23421092  1
  H+  H372  1  0.11889618  0.73247478  0.82793687  1
  H+  H373  1  0.92084913  0.84814077  0.26537228  1
  H+  H374  1  0.38038825  0.59101537  0.00850686  1
  H+  H375  1  0.14975372  0.82784337  0.56926259  1
  H+  H376  1  0.84116100  0.42845229  0.09826339  1
  H+  H377  1  0.16677902  0.08538283  0.89459211  1
  H+  H378  1  0.64206642  0.60936016  0.32326217  1
  H+  H379  1  0.58009833  0.66819676  0.07075143  1
  H+  H380  1  0.91706803  0.58272627  0.76370686  1
  H+  H381  1  0.41669662  0.33915618  0.59718498  1
  H+  H382  1  0.07768222  0.93951378  0.42791547  1
  H+  H383  1  0.17383936  0.59169864  0.60302476  1
  O2-  O384  1  0.08458784  0.16117879  0.14276321  1
  O2-  O385  1  0.11236323  0.20730471  0.50236741  1
  O2-  O386  1  0.08091324  0.16721348  0.80922142  1
  O2-  O387  1  0.05830653  0.42009252  0.14220149  1
  O2-  O388  1  0.08830490  0.39219378  0.48258703  1
  O2-  O389  1  0.07776883  0.41379853  0.81458052  1
  O2-  O390  1  0.09260917  0.66686880  0.14965758  1
  O2-  O391  1  0.08353988  0.64650750  0.47775405  1
  O2-  O392  1  0.09316781  0.67290747  0.81083985  1
  O2-  O393  1  0.09492496  0.92508690  0.14236994  1
  O2-  O394  1  0.08359515  0.94059747  0.47587183  1
  O2-  O395  1  0.08787300  0.92512840  0.80198423  1
  O2-  O396  1  0.33473531  0.17401781  0.14276437  1
  O2-  O397  1  0.32027556  0.15247940  0.50796625  1
  O2-  O398  1  0.33412423  0.17328299  0.80825276  1
  O2-  O399  1  0.27069066  0.42847829  0.13197782  1
  O2-  O400  1  0.32716790  0.39959069  0.47166101  1
  O2-  O401  1  0.32104697  0.40842790  0.81277379  1
  O2-  O402  1  0.33803412  0.67635546  0.14350910  1
  O2-  O403  1  0.33509837  0.65548214  0.47901222  1
  O2-  O404  1  0.32621663  0.66078706  0.81518944  1
  O2-  O405  1  0.32556777  0.92409590  0.15238648  1
  O2-  O406  1  0.33420245  0.91411021  0.48523042  1
  O2-  O407  1  0.32798582  0.91598269  0.81881934  1
  O2-  O408  1  0.58139433  0.16366191  0.12633530  1
  O2-  O409  1  0.58504521  0.16413019  0.48250855  1
  O2-  O410  1  0.57843864  0.16918485  0.81512090  1
  O2-  O411  1  0.57146899  0.39666753  0.14309215  1
  O2-  O412  1  0.57986851  0.41287417  0.47621839  1
  O2-  O413  1  0.61640148  0.44129857  0.81361681  1
  O2-  O414  1  0.57357701  0.66376031  0.14829518  1
  O2-  O415  1  0.59340998  0.66827472  0.47395508  1
  O2-  O416  1  0.58569812  0.66967066  0.82096784  1
  O2-  O417  1  0.56236566  0.90592773  0.12960253  1
  O2-  O418  1  0.57082526  0.88822998  0.47348193  1
  O2-  O419  1  0.57887344  0.91986631  0.82388478  1
  O2-  O420  1  0.84282988  0.16435129  0.12852215  1
  O2-  O421  1  0.84523711  0.16573866  0.48071502  1
  O2-  O422  1  0.82134961  0.16231853  0.80727156  1
  O2-  O423  1  0.84388839  0.43802822  0.14456007  1
  O2-  O424  1  0.84447552  0.41660972  0.48203877  1
  O2-  O425  1  0.82591672  0.40801561  0.81499830  1
  O2-  O426  1  0.86557842  0.68798940  0.13768118  1
  O2-  O427  1  0.84622474  0.67048375  0.52044174  1
  O2-  O428  1  0.83096857  0.67997364  0.81408314  1
  O2-  O429  1  0.83534600  0.91166629  0.13356554  1
  O2-  O430  1  0.84343345  0.92976395  0.47668999  1
  O2-  O431  1  0.83925925  0.92392391  0.81130325  1
  O2-  O432  1  0.16892645  0.08561642  0.18683330  1
  O2-  O433  1  0.15813333  0.08217348  0.54640901  1
  O2-  O434  1  0.16726103  0.08620609  0.84904236  1
  O2-  O435  1  0.15392536  0.31352985  0.19005522  1
  O2-  O436  1  0.16101686  0.29928421  0.51937446  1
  O2-  O437  1  0.16018711  0.32809856  0.85207455  1
  O2-  O438  1  0.14186109  0.56335632  0.18857888  1
  O2-  O439  1  0.16695887  0.55991584  0.52107811  1
  O2-  O440  1  0.16344004  0.57831302  0.85671444  1
  O2-  O441  1  0.16662199  0.83391170  0.18971997  1
  O2-  O442  1  0.13113730  0.81548082  0.52476702  1
  O2-  O443  1  0.16195698  0.83609905  0.85521121  1
  O2-  O444  1  0.41741160  0.08869545  0.18076122  1
  O2-  O445  1  0.42074265  0.07971416  0.53237404  1
  O2-  O446  1  0.40766669  0.08586779  0.85259698  1
  O2-  O447  1  0.41198644  0.34616186  0.18211049  1
  O2-  O448  1  0.41630133  0.33075698  0.51819839  1
  O2-  O449  1  0.41510393  0.33084666  0.85631107  1
  O2-  O450  1  0.42311056  0.53160210  0.19510241  1
  O2-  O451  1  0.42401112  0.56000993  0.51433473  1
  O2-  O452  1  0.44344982  0.64121890  0.88084103  1
  O2-  O453  1  0.40839265  0.83840474  0.18564508  1
  O2-  O454  1  0.41259241  0.82203074  0.52529933  1
  O2-  O455  1  0.40323413  0.82697401  0.85180796  1
  O2-  O456  1  0.69166419  0.05401205  0.19437576  1
  O2-  O457  1  0.69464912  0.10800854  0.53400690  1
  O2-  O458  1  0.66551329  0.08421705  0.85857630  1
  O2-  O459  1  0.67032646  0.32126135  0.17881786  1
  O2-  O460  1  0.67029929  0.33349456  0.50980378  1
  O2-  O461  1  0.66177155  0.33479082  0.85820074  1
  O2-  O462  1  0.64325724  0.56667498  0.18795140  1
  O2-  O463  1  0.66652143  0.57625180  0.52162795  1
  O2-  O464  1  0.65679002  0.58952742  0.87458306  1
  O2-  O465  1  0.64391058  0.82889579  0.19154599  1
  O2-  O466  1  0.68359291  0.83741530  0.52320509  1
  O2-  O467  1  0.67335277  0.83770641  0.85416797  1
  O2-  O468  1  0.91574659  0.07803166  0.17312651  1
  O2-  O469  1  0.93203200  0.09777819  0.52877517  1
  O2-  O470  1  0.91567870  0.09070773  0.84718445  1
  O2-  O471  1  0.88403673  0.31498040  0.19672697  1
  O2-  O472  1  0.92122890  0.33000700  0.52301707  1
  O2-  O473  1  0.91253536  0.32529577  0.84999084  1
  O2-  O474  1  0.92919926  0.59783440  0.18468079  1
  O2-  O475  1  0.92787444  0.57619979  0.52704644  1
  O2-  O476  1  0.92351525  0.58853494  0.80738462  1
  O2-  O477  1  0.93585338  0.85075328  0.18773226  1
  O2-  O478  1  0.92203291  0.84628269  0.52016621  1
  O2-  O479  1  0.92734050  0.84341429  0.84956426  1
  O2-  O480  1  0.16933481  0.08080813  0.31283257  1
  O2-  O481  1  0.13610048  0.03239971  0.66942401  1
  O2-  O482  1  0.16721425  0.08392851  0.97368904  1
  O2-  O483  1  0.16947354  0.32316231  0.31011039  1
  O2-  O484  1  0.16486989  0.31207497  0.64801784  1
  O2-  O485  1  0.16323573  0.33002959  0.97810984  1
  O2-  O486  1  0.16305238  0.56493381  0.30920560  1
  O2-  O487  1  0.17583962  0.61150544  0.64514605  1
  O2-  O488  1  0.16303799  0.57852813  0.98254249  1
  O2-  O489  1  0.19058326  0.88353290  0.31687184  1
  O2-  O490  1  0.17117295  0.84362158  0.64143784  1
  O2-  O491  1  0.15036405  0.83233789  0.97983835  1
  O2-  O492  1  0.42578982  0.07760551  0.30512553  1
  O2-  O493  1  0.42890911  0.10407503  0.65299048  1
  O2-  O494  1  0.41533627  0.06779596  0.97178027  1
  O2-  O495  1  0.42278905  0.33903800  0.30071025  1
  O2-  O496  1  0.41765165  0.33943021  0.64252768  1
  O2-  O497  1  0.41646415  0.32638359  0.98076233  1
  O2-  O498  1  0.41889464  0.57761851  0.31575197  1
  O2-  O499  1  0.41332454  0.58999814  0.65540098  1
  O2-  O500  1  0.41576417  0.56627015  0.99162651  1
  O2-  O501  1  0.40739642  0.81956750  0.30999906  1
  O2-  O502  1  0.43456621  0.83520357  0.65029526  1
  O2-  O503  1  0.44368563  0.76687879  0.95055225  1
  O2-  O504  1  0.70246873  0.15312027  0.29045082  1
  O2-  O505  1  0.71641877  0.11479238  0.66208723  1
  O2-  O506  1  0.65831769  0.08839334  0.99505079  1
  O2-  O507  1  0.66291277  0.32114864  0.36553473  1
  O2-  O508  1  0.66954329  0.33841794  0.64222225  1
  O2-  O509  1  0.66616812  0.33374549  0.97793461  1
  O2-  O510  1  0.67435797  0.58145255  0.30656629  1
  O2-  O511  1  0.66281849  0.58168312  0.64652559  1
  O2-  O512  1  0.66425519  0.59364389  0.98488686  1
  O2-  O513  1  0.65668351  0.82847249  0.31459005  1
  O2-  O514  1  0.68005673  0.82105381  0.64527820  1
  O2-  O515  1  0.66925132  0.83097234  0.97700317  1
  O2-  O516  1  0.90298569  0.06996478  0.29813008  1
  O2-  O517  1  0.92934305  0.07875921  0.64664626  1
  O2-  O518  1  0.92380883  0.08486588  0.97069358  1
  O2-  O519  1  0.92728499  0.32845034  0.31281528  1
  O2-  O520  1  0.90527704  0.32180507  0.64527355  1
  O2-  O521  1  0.92424977  0.34102249  0.97376102  1
  O2-  O522  1  0.91740037  0.60334292  0.30407376  1
  O2-  O523  1  0.92247273  0.58030435  0.65211598  1
  O2-  O524  1  0.80655120  0.56065200  0.91512853  1
  O2-  O525  1  0.91062074  0.84200319  0.31044103  1
  O2-  O526  1  0.92467792  0.84645701  0.64371177  1
  O2-  O527  1  0.91558721  0.83189587  0.97301254  1
  O2-  O528  1  0.08509210  0.16429408  0.02052582  1
  O2-  O529  1  0.11661645  0.18572539  0.37918461  1
  O2-  O530  1  0.07565049  0.14226185  0.69291710  1
  O2-  O531  1  0.08207456  0.41497347  0.02356591  1
  O2-  O532  1  0.08819090  0.40037202  0.35668593  1
  O2-  O533  1  0.07172520  0.39235763  0.69538022  1
  O2-  O534  1  0.09008412  0.66912576  0.03325725  1
  O2-  O535  1  0.07063872  0.63942091  0.35726333  1
  O2-  O536  1  0.09460848  0.68498418  0.68767704  1
  O2-  O537  1  0.07798644  0.92108552  0.02034346  1
  O2-  O538  1  0.06624274  0.93324653  0.36039721  1
  O2-  O539  1  0.09188029  0.93918759  0.68172553  1
  O2-  O540  1  0.33311745  0.15719578  0.01698187  1
  O2-  O541  1  0.33873204  0.16347862  0.33062180  1
  O2-  O542  1  0.34530610  0.17364091  0.68413136  1
  O2-  O543  1  0.32269773  0.39808754  0.02486155  1
  O2-  O544  1  0.33280117  0.40944847  0.34811578  1
  O2-  O545  1  0.33083991  0.41398979  0.68488656  1
  O2-  O546  1  0.32725789  0.64306608  0.02486681  1
  O2-  O547  1  0.32714341  0.65514825  0.35363747  1
  O2-  O548  1  0.33864300  0.67171277  0.69468507  1
  O2-  O549  1  0.30564763  0.93542474  0.03220321  1
  O2-  O550  1  0.34988632  0.92400687  0.36212340  1
  O2-  O551  1  0.33463126  0.90477443  0.69934841  1
  O2-  O552  1  0.57446281  0.16876931  0.00953985  1
  O2-  O553  1  0.57459527  0.11092352  0.36047642  1
  O2-  O554  1  0.57798753  0.17532155  0.69082696  1
  O2-  O555  1  0.57982573  0.41439110  0.02049963  1
  O2-  O556  1  0.58426308  0.41843898  0.35090401  1
  O2-  O557  1  0.57700781  0.41193485  0.68383395  1
  O2-  O558  1  0.58062417  0.66559297  0.02510318  1
  O2-  O559  1  0.58842831  0.65895948  0.34951065  1
  O2-  O560  1  0.58147227  0.66260753  0.69546152  1
  O2-  O561  1  0.57498989  0.90403942  0.00850287  1
  O2-  O562  1  0.56831193  0.91279766  0.34706248  1
  O2-  O563  1  0.62090329  0.92736297  0.67183395  1
  O2-  O564  1  0.84382961  0.17230145  0.00775216  1
  O2-  O565  1  0.84073752  0.16709855  0.35597413  1
  O2-  O566  1  0.80567874  0.14922712  0.68263458  1
  O2-  O567  1  0.83250296  0.41226240  0.02811655  1
  O2-  O568  1  0.84857895  0.40627036  0.35646535  1
  O2-  O569  1  0.83046949  0.41238749  0.69188152  1
  O2-  O570  1  0.82223957  0.67146416  0.01359514  1
  O2-  O571  1  0.84227113  0.67598285  0.33869307  1
  O2-  O572  1  0.83840899  0.66949951  0.64316120  1
  O2-  O573  1  0.83917053  0.91931593  0.01143007  1
  O2-  O574  1  0.82545650  0.91902855  0.35209059  1
  O2-  O575  1  0.84180874  0.92349275  0.68593884  1
