# generated using pymatgen
data_H2O
_symmetry_space_group_name_H-M   'P 1'
_cell_length_a   17.98683194
_cell_length_b   17.98568526
_cell_length_c   21.99274355
_cell_angle_alpha   90.02779818
_cell_angle_beta   89.96084278
_cell_angle_gamma   119.97098567
_symmetry_Int_Tables_number   1
_chemical_formula_structural   H2O
_chemical_formula_sum   'H384 O192'
_cell_volume   6163.37368501
_cell_formula_units_Z   192
loop_
 _symmetry_equiv_pos_site_id
 _symmetry_equiv_pos_as_xyz
  1  'x, y, z'
loop_
 _atom_type_symbol
 _atom_type_oxidation_number
  H+  1.0
  O2-  -2.0
loop_
 _atom_site_type_symbol
 _atom_site_label
 _atom_site_symmetry_multiplicity
 _atom_site_fract_x
 _atom_site_fract_y
 _atom_site_fract_z
 _atom_site_occupancy
  H+  H0  1  0.61072239  0.38400178  0.82212741  1
  H+  H1  1  0.65808227  0.30475615  0.52989890  1
  H+  H2  1  0.68331991  0.84560647  0.83453190  1
  H+  H3  1  0.00827938  0.71383803  0.77999725  1
  H+  H4  1  0.30620228  0.18154773  0.15832681  1
  H+  H5  1  0.07716208  0.17177626  0.07020753  1
  H+  H6  1  0.11805986  -0.01780699  0.67855154  1
  H+  H7  1  0.60581426  -0.01116373  0.14770178  1
  H+  H8  1  0.38702802  0.77535668  0.50634560  1
  H+  H9  1  0.12627391  0.26094418  0.33194388  1
  H+  H10  1  0.21052699  0.87973536  0.15082043  1
  H+  H11  1  0.55177785  0.16692825  0.54777772  1
  H+  H12  1  0.68220852  0.08118198  0.60953495  1
  H+  H13  1  0.83534703  0.20892618  0.84135319  1
  H+  H14  1  0.58241633  0.66644680  0.75973087  1
  H+  H15  1  0.23466142  0.86168638  0.83565122  1
  H+  H16  1  0.11769416  0.70371409  0.49241570  1
  H+  H17  1  0.60139885  0.39146743  0.35021400  1
  H+  H18  1  0.33698203  0.95464018  0.51371721  1
  H+  H19  1  0.65030811  0.54571569  0.66067372  1
  H+  H20  1  0.87567315  0.86069705  0.99026220  1
  H+  H21  1  0.86491766  0.33342346  0.80106842  1
  H+  H22  1  0.37081648  0.40533285  0.34337372  1
  H+  H23  1  0.87511583  0.00477576  0.50913354  1
  H+  H24  1  0.14614176  0.60973326  0.65938277  1
  H+  H25  1  0.25908989  0.86456573  0.49784284  1
  H+  H26  1  0.87458550  0.58601335  0.85195242  1
  H+  H27  1  0.22615926  0.85890927  0.66134917  1
  H+  H28  1  0.16669963  -0.03515218  0.48600702  1
  H+  H29  1  0.39566786  0.02560280  1.00259497  1
  H+  H30  1  -0.00229988  0.82102953  0.46954666  1
  H+  H31  1  0.13161892  0.94747216  0.50993783  1
  H+  H32  1  0.13906059  0.59354098  0.50311708  1
  H+  H33  1  0.62493461  0.64098013  0.99629048  1
  H+  H34  1  0.29289000  0.63387000  0.66467319  1
  H+  H35  1  0.47685604  0.61442170  0.83593652  1
  H+  H36  1  0.13879722  0.86204615  0.65858326  1
  H+  H37  1  0.92194047  0.65260997  0.31738461  1
  H+  H38  1  0.86129135  0.48201719  0.29666313  1
  H+  H39  1  0.71577331  0.87193436  0.33138819  1
  H+  H40  1  0.48734377  0.38750495  0.51119416  1
  H+  H41  1  0.34681367  0.72273347  0.84395216  1
  H+  H42  1  0.05156868  0.87170994  0.32141432  1
  H+  H43  1  0.13800584  0.00934877  0.32724840  1
  H+  H44  1  0.84920533  0.19195510  0.10446013  1
  H+  H45  1  0.39991244  0.29719767  0.51672805  1
  H+  H46  1  0.62898290  0.49101038  0.15593475  1
  H+  H47  1  0.62172417  0.40746045  0.49811217  1
  H+  H48  1  0.88800112  0.02370435  0.66044058  1
  H+  H49  1  0.90061789  0.84486189  0.82757873  1
  H+  H50  1  0.23105936  0.12151422  0.67143777  1
  H+  H51  1  0.17809882  0.85229408  0.22005432  1
  H+  H52  1  0.58022709  0.42878175  0.40891622  1
  H+  H53  1  0.08949434  0.00060041  0.17644944  1
  H+  H54  1  0.74907518  0.62195923  0.17673643  1
  H+  H55  1  0.89101207  0.29456495  0.65351967  1
  H+  H56  1  0.89301592  0.59725678  0.99635561  1
  H+  H57  1  0.16209828  0.62110486  0.30365091  1
  H+  H58  1  0.12588897  0.88691346  0.82939074  1
  H+  H59  1  0.26442247  0.60863459  0.85229666  1
  H+  H60  1  0.64026945  0.76076436  -0.00384596  1
  H+  H61  1  0.36052937  0.51999441  0.17531892  1
  H+  H62  1  0.71833895  0.62911625  0.50398018  1
  H+  H63  1  0.12072391  0.36270060  0.67110134  1
  H+  H64  1  0.64840765  1.01601839  0.66729766  1
  H+  H65  1  0.79792586  0.89221495  0.15952570  1
  H+  H66  1  0.90992652  0.39016738  0.33062731  1
  H+  H67  1  0.19191269  0.10009815  0.99310246  1
  H+  H68  1  0.74308011  0.11172909  0.32693996  1
  H+  H69  1  0.49888709  0.64201131  0.49716258  1
  H+  H70  1  0.11400987  0.23635190  0.16463329  1
  H+  H71  1  0.11969263  0.97462255  0.82779936  1
  H+  H72  1  0.87816241  0.16026561  0.67566335  1
  H+  H73  1  0.80221736  0.65313292  0.05421929  1
  H+  H74  1  0.52098673  0.38351275  0.82411880  1
  H+  H75  1  0.90198839  0.39049650  0.65380796  1
  H+  H76  1  0.60645865  0.35397545  -0.01681431  1
  H+  H77  1  0.64495651  0.04373085  0.51441668  1
  H+  H78  1  0.37788401  0.51392663  0.33914984  1
  H+  H79  1  0.36963957  0.26988858  0.66421107  1
  H+  H80  1  1.02954049  0.63385530  1.00521197  1
  H+  H81  1  0.13608047  0.27623286  0.99411145  1
  H+  H82  1  0.35188343  0.88992058  1.02185916  1
  H+  H83  1  0.61053865  0.48464389  -0.00119147  1
  H+  H84  1  0.11213061  0.46308157  0.48892688  1
  H+  H85  1  0.11499439  0.72830545  0.00138135  1
  H+  H86  1  0.35679746  0.85166145  0.83900782  1
  H+  H87  1  0.34814821  -0.02418354  0.11518951  1
  H+  H88  1  0.06666866  0.87090158  0.16653234  1
  H+  H89  1  0.46761664  0.10922023  0.83681642  1
  H+  H90  1  0.69968564  0.08698000  0.84640190  1
  H+  H91  1  0.27587148  0.63307676  0.32516620  1
  H+  H92  1  1.00545183  0.87901348  1.00497011  1
  H+  H93  1  0.14672128  0.53869858  1.01883238  1
  H+  H94  1  0.84804477  0.13328951  0.86382233  1
  H+  H95  1  0.52260339  0.88652095  0.67234100  1
  H+  H96  1  0.81273912  0.92002696  0.85372966  1
  H+  H97  1  0.88227052  0.26971257  0.76057070  1
  H+  H98  1  0.09535075  0.13244584  0.00953980  1
  H+  H99  1  0.49438047  0.39311855  0.17177258  1
  H+  H100  1  0.13245300  0.12250469  0.50710526  1
  H+  H101  1  0.62794950  0.74745162  0.49215699  1
  H+  H102  1  0.85462318  0.73150205  0.49046299  1
  H+  H103  1  0.39163195  0.12269946  0.52011507  1
  H+  H104  1  0.18655318  0.06412806  0.17193068  1
  H+  H105  1  0.68884354  0.33505731  0.66123405  1
  H+  H106  1  0.47329812  0.09882046  0.67195331  1
  H+  H107  1  0.99242539  0.62906403  0.30286771  1
  H+  H108  1  0.37246679  0.77941396  0.17527834  1
  H+  H109  1  0.33167563  0.16527938  0.74077464  1
  H+  H110  1  0.45549412  0.86440941  0.33515389  1
  H+  H111  1  0.37031004  0.40459264  0.15824816  1
  H+  H112  1  0.90813269  0.84178642  0.25614179  1
  H+  H113  1  0.14666091  0.73339696  0.32889364  1
  H+  H114  1  0.27976081  0.59110225  0.16114338  1
  H+  H115  1  0.05801815  0.90896194  0.06640590  1
  H+  H116  1  0.39189248  0.28699423  0.99348780  1
  H+  H117  1  0.27947428  0.15776831  0.51280890  1
  H+  H118  1  0.63800642  0.16228438  0.54700610  1
  H+  H119  1  0.66303777  0.14938732  -0.01247497  1
  H+  H120  1  0.85744473  0.23322543  0.34607604  1
  H+  H121  1  0.70052028  0.31554659  0.31531783  1
  H+  H122  1  0.63711221  0.86423543  0.66351989  1
  H+  H123  1  0.37782900  0.61905315  0.33191459  1
  H+  H124  1  0.85981483  0.46497840  0.19216014  1
  H+  H125  1  0.86883641  0.55451198  0.24540578  1
  H+  H126  1  0.13101377  0.74450933  0.15299996  1
  H+  H127  1  0.11407433  0.81127475  0.49989307  1
  H+  H128  1  0.32673227  0.66736882  0.06505904  1
  H+  H129  1  0.34587103  0.38825707  0.67868296  1
  H+  H130  1  0.63670173  0.52804278  0.32750708  1
  H+  H131  1  0.14542171  0.88140520  0.32549998  1
  H+  H132  1  0.10809214  0.23185648  0.68423774  1
  H+  H133  1  0.24523526  0.36844867  0.84340775  1
  H+  H134  1  0.83351978  0.41794012  0.75567639  1
  H+  H135  1  0.15594824  0.81010163  0.56578281  1
  H+  H136  1  0.20274550  0.26269242  0.55840573  1
  H+  H137  1  0.58491301  0.26892233  0.35402203  1
  H+  H138  1  0.39607671  0.26531507  0.16254452  1
  H+  H139  1  0.09204256  0.74477879  0.81936296  1
  H+  H140  1  0.44079143  0.07751459  0.49313525  1
  H+  H141  1  0.84898733  0.89347656  0.33622437  1
  H+  H142  1  0.76551675  0.89218386  0.49945983  1
  H+  H143  1  0.59768262  0.18015100  0.64282847  1
  H+  H144  1  0.77090858  0.88773044  0.67015861  1
  H+  H145  1  0.87802455  0.72703846  0.66108016  1
  H+  H146  1  0.14069304  0.61984764  -0.00216752  1
  H+  H147  1  0.38865002  0.36571783  0.83561555  1
  H+  H148  1  0.14711077  0.50299624  0.85187668  1
  H+  H149  1  0.64134461  0.63975950  0.15650650  1
  H+  H150  1  0.36195363  0.13323221  0.68284887  1
  H+  H151  1  0.98535064  0.91584019  0.51993033  1
  H+  H152  1  0.37003536  0.64419560  0.48671910  1
  H+  H153  1  0.10777810  0.00934396  0.99256067  1
  H+  H154  1  0.38218792  0.78865890  1.00306807  1
  H+  H155  1  0.63744571  0.87837917  0.51008575  1
  H+  H156  1  0.85930402  0.45788989  0.82240922  1
  H+  H157  1  0.41385243  0.62366313  0.17585254  1
  H+  H158  1  0.73916719  0.13301813  0.50810428  1
  H+  H159  1  0.20139388  0.68681011  0.15472983  1
  H+  H160  1  0.36990286  0.48287053  0.82920942  1
  H+  H161  1  0.14327303  0.37372266  0.19580230  1
  H+  H162  1  0.97649793  0.12368890  0.17479430  1
  H+  H163  1  0.21888632  0.86755877  1.00059720  1
  H+  H164  1  0.86183888  0.72254946  0.00591881  1
  H+  H165  1  0.22585682  0.36579091  0.17854401  1
  H+  H166  1  0.87166467  0.63824708  0.64564067  1
  H+  H167  1  0.60888992  0.23243725  -0.00126848  1
  H+  H168  1  0.37574108  0.72328987  0.66506294  1
  H+  H169  1  0.90942594  1.04998592  0.84409909  1
  H+  H170  1  0.63399033  0.16453598  0.15648035  1
  H+  H171  1  0.30800142  0.94552244  0.30113876  1
  H+  H172  1  0.53993081  0.63884264  0.66788173  1
  H+  H173  1  0.57576108  0.06859048  0.30295367  1
  H+  H174  1  0.90633873  0.29533918  0.18317510  1
  H+  H175  1  0.72151405  0.35655028  0.82938135  1
  H+  H176  1  0.26396370  0.39877216  0.68361325  1
  H+  H177  1  0.28089195  0.64664954  0.00333241  1
  H+  H178  1  0.97329600  0.11890911  1.00002288  1
  H+  H179  1  0.78762971  0.40764305  0.48413235  1
  H+  H180  1  0.64147708  0.61863547  0.32507690  1
  H+  H181  1  0.59624598  0.84516734  0.84735041  1
  H+  H182  1  0.78622471  0.14940200  0.67960527  1
  H+  H183  1  0.11789270  0.47992364  0.67041275  1
  H+  H184  1  0.03230230  0.61840027  0.47517906  1
  H+  H185  1  0.34982621  -0.04598140  0.82771902  1
  H+  H186  1  0.07906119  0.34792438  0.96354811  1
  H+  H187  1  0.86437111  0.70742404  0.84396522  1
  H+  H188  1  0.23001641  0.11854642  0.84161645  1
  H+  H189  1  0.46580167  0.88181001  0.99573464  1
  H+  H190  1  0.89041934  0.74285608  0.16213127  1
  H+  H191  1  0.57396006  0.93157924  0.05542696  1
  H+  H192  1  0.31736289  0.13833267  0.01848629  1
  H+  H193  1  0.73071639  0.86511377  0.99385535  1
  H+  H194  1  0.52526254  0.89445422  0.15103926  1
  H+  H195  1  0.86511783  0.45394481  1.01555420  1
  H+  H196  1  0.61492392  0.11498044  0.67624942  1
  H+  H197  1  0.48750403  0.86204201  0.83242251  1
  H+  H198  1  0.87693198  0.27870238  0.49742825  1
  H+  H199  1  0.86882096  0.14972466  0.16160371  1
  H+  H200  1  0.36713892  0.09383153  0.28812026  1
  H+  H201  1  0.16827071  0.83528533  0.89616054  1
  H+  H202  1  0.04085432  0.40145500  -0.06756706  1
  H+  H203  1  0.09619564  0.11761188  0.34157239  1
  H+  H204  1  -0.02077975  0.11180067  0.66130346  1
  H+  H205  1  0.03316974  0.14243934  0.83262082  1
  H+  H206  1  0.26739620  0.39372163  1.00650851  1
  H+  H207  1  0.57927445  0.94995208  0.83146762  1
  H+  H208  1  0.63143160  0.26908715  0.83062821  1
  H+  H209  1  0.60378432  0.97180428  0.34581342  1
  H+  H210  1  0.77740114  0.42268131  0.66268478  1
  H+  H211  1  0.35849891  0.13514978  0.83544928  1
  H+  H212  1  0.39173365  0.11364427  0.14802721  1
  H+  H213  1  0.52185944  0.89433209  0.50105774  1
  H+  H214  1  0.88759263  0.52198863  0.62371816  1
  H+  H215  1  0.26176028  0.13245775  0.31613799  1
  H+  H216  1  0.77041844  0.62550223  0.83698825  1
  H+  H217  1  0.64136445  0.37625181  0.15912083  1
  H+  H218  1  0.88304106  0.12544375  0.33161077  1
  H+  H219  1  0.00990406  0.39112509  0.81700019  1
  H+  H220  1  0.12964783  0.48333668  0.23378948  1
  H+  H221  1  0.38138274  0.28790162  0.31663996  1
  H+  H222  1  0.73730118  0.13432461  0.16567134  1
  H+  H223  1  0.59393159  0.88075134  0.34481511  1
  H+  H224  1  0.55326903  0.63924736  0.15591005  1
  H+  H225  1  0.59888465  0.71535558  0.82419478  1
  H+  H226  1  0.63938525  0.26879849  0.15138867  1
  H+  H227  1  0.55878664  0.25604014  0.32495826  1
  H+  H228  1  0.72866383  0.61052016  0.97291188  1
  H+  H229  1  0.32920734  0.45893772  0.51175979  1
  H+  H230  1  0.78541774  0.15552930  1.01230740  1
  H+  H231  1  0.84631983  0.35909365  0.02394094  1
  H+  H232  1  0.57239382  0.14962069  0.32188249  1
  H+  H233  1  0.91439658  0.39137798  0.18291848  1
  H+  H234  1  0.89201273  0.86669060  0.66228488  1
  H+  H235  1  0.43810321  0.06448921  0.29234455  1
  H+  H236  1  0.36056596  0.72395287  0.33764796  1
  H+  H237  1  0.01078223  0.12729337  0.33961692  1
  H+  H238  1  0.35392089  -0.03526153  0.68614071  1
  H+  H239  1  0.85675975  0.43018777  0.12078734  1
  H+  H240  1  0.96556565  0.59951592  0.84097513  1
  H+  H241  1  0.38080809  0.86088132  0.50771337  1
  H+  H242  1  0.47956609  0.61959897  0.99523373  1
  H+  H243  1  0.70899171  0.02916251  0.28420055  1
  H+  H244  1  0.15980493  0.65435738  0.82915060  1
  H+  H245  1  0.42064453  0.12336051  0.99885859  1
  H+  H246  1  0.36759346  0.64056358  0.83681711  1
  H+  H247  1  0.51768650  0.40092263  0.00468503  1
  H+  H248  1  0.37894111  0.36981352  -0.00694552  1
  H+  H249  1  0.13000862  0.63575602  0.85580261  1
  H+  H250  1  0.60347078  -0.00983727  0.99689501  1
  H+  H251  1  0.12779991  0.86133267  0.99570316  1
  H+  H252  1  0.66703907  0.77648301  0.17493175  1
  H+  H253  1  0.47158323  0.37304720  0.33176177  1
  H+  H254  1  -0.01573599  0.87162535  0.66318463  1
  H+  H255  1  0.87649321  0.03311896  0.32858838  1
  H+  H256  1  0.63235070  0.77936809  0.32724710  1
  H+  H257  1  0.64145957  0.77699145  0.66046299  1
  H+  H258  1  0.54138384  0.13378407  0.00790488  1
  H+  H259  1  0.21585956  0.63214653  0.24355449  1
  H+  H260  1  0.62872350  0.51589200  0.83238039  1
  H+  H261  1  0.10743931  0.14326898  0.16281070  1
  H+  H262  1  0.39314501  0.62478982  0.99544413  1
  H+  H263  1  0.35819618  0.48257963  0.00586734  1
  H+  H264  1  0.42478109  0.55289790  0.47908494  1
  H+  H265  1  0.85757599  0.72515032  0.33442504  1
  H+  H266  1  0.52737027  0.64276575  0.34137500  1
  H+  H267  1  0.22936521  0.59907516  0.50481000  1
  H+  H268  1  0.22257001  0.33717166  0.51407175  1
  H+  H269  1  0.10527640  0.36712968  0.34360500  1
  H+  H270  1  0.85573353  0.98113878  0.00308176  1
  H+  H271  1  0.64635100  0.42949060  0.67335615  1
  H+  H272  1  0.63423999  0.65413400  0.67296975  1
  H+  H273  1  -0.02770486  0.10156844  0.50553459  1
  H+  H274  1  0.91989959  0.88660989  0.15734163  1
  H+  H275  1  0.11789808  0.14530604  0.68109623  1
  H+  H276  1  0.59866656  0.12527507  0.82103859  1
  H+  H277  1  0.04474491  0.40949139  0.20220414  1
  H+  H278  1  0.39215359  0.82836280  0.90299072  1
  H+  H279  1  0.74355064  0.62975806  0.65346955  1
  H+  H280  1  0.40561358  0.52476045  0.65684763  1
  H+  H281  1  0.77784415  0.63297638  0.33709341  1
  H+  H282  1  0.88846962  1.12464646  -0.00781290  1
  H+  H283  1  0.82321271  0.17495869  0.40944967  1
  H+  H284  1  0.81062567  0.79177341  0.26878101  1
  H+  H285  1  1.01272921  0.37483532  0.34206631  1
  H+  H286  1  0.36025271  0.22671520  0.83341398  1
  H+  H287  1  0.86549434  0.51980050  0.52142404  1
  H+  H288  1  0.68436611  0.83598541  0.23365492  1
  H+  H289  1  0.17602928  0.33158338  0.93242788  1
  H+  H290  1  0.15822322  0.27873809  0.84052216  1
  H+  H291  1  0.93815323  0.10148202  0.90747937  1
  H+  H292  1  0.85445950  0.15495968  0.48919908  1
  H+  H293  1  0.16212693  0.32478690  0.27559292  1
  H+  H294  1  0.57918433  0.92361298  0.44169938  1
  H+  H295  1  0.15772503  0.08218335  0.89649470  1
  H+  H296  1  0.83290133  0.92266965  0.06288653  1
  H+  H297  1  0.63044410  0.05947494  0.89582737  1
  H+  H298  1  0.82896532  0.92048850  0.72962960  1
  H+  H299  1  0.06715037  0.42733602  0.07260892  1
  H+  H300  1  0.33932146  0.43393668  0.40524539  1
  H+  H301  1  0.85549784  0.88852515  0.49896838  1
  H+  H302  1  0.86585845  0.46866329  0.37573899  1
  H+  H303  1  0.70256325  0.38855198  0.56722149  1
  H+  H304  1  0.91075035  0.82998194  0.93325180  1
  H+  H305  1  0.91301838  0.09051220  0.23224439  1
  H+  H306  1  0.08961037  0.91808133  0.73528266  1
  H+  H307  1  0.39335530  0.05320351  0.19797353  1
  H+  H308  1  0.18011241  0.55332580  0.91703602  1
  H+  H309  1  0.38739210  0.86497991  0.66348388  1
  H+  H310  1  0.66044923  0.58206748  0.91800006  1
  H+  H311  1  0.33059021  0.42616090  0.09954556  1
  H+  H312  1  0.82825698  0.92253806  0.40024849  1
  H+  H313  1  0.15621002  0.04943033  0.51662432  1
  H+  H314  1  0.99339203  0.86064069  0.84180727  1
  H+  H315  1  0.64022231  0.20681961  0.43531122  1
  H+  H316  1  0.58709070  0.43310514  0.09544957  1
  H+  H317  1  0.92848923  0.85155538  0.57151900  1
  H+  H318  1  0.14411358  0.06377910  0.26832460  1
  H+  H319  1  0.42340831  0.59100888  0.89940763  1
  H+  H320  1  0.68152680  0.58899534  0.23260452  1
  H+  H321  1  0.61702740  0.49493679  0.49808869  1
  H+  H322  1  0.33681244  0.42614736  0.76835899  1
  H+  H323  1  0.12332118  0.13037607  0.82689052  1
  H+  H324  1  0.73272124  0.15427965  0.93726724  1
  H+  H325  1  0.87717415  0.98743751  0.15474897  1
  H+  H326  1  0.17107562  0.57385445  0.60037035  1
  H+  H327  1  0.91570242  0.34301825  0.55572261  1
  H+  H328  1  0.62527900  0.16339637  0.42148332  1
  H+  H329  1  0.62288347  0.65453592  0.49511292  1
  H+  H330  1  0.34182979  0.18456247  0.45725419  1
  H+  H331  1  0.06424138  0.84596056  0.41535377  1
  H+  H332  1  0.43200014  0.36351275  0.23151345  1
  H+  H333  1  0.41156691  0.07234799  0.61552090  1
  H+  H334  1  0.91643036  0.50260354  0.70098583  1
  H+  H335  1  0.57705161  0.16051000  0.76149065  1
  H+  H336  1  0.07617129  0.40173429  0.40871342  1
  H+  H337  1  0.65820175  0.82792567  0.93486527  1
  H+  H338  1  0.11992700  0.72140850  0.66678025  1
  H+  H339  1  0.02341905  0.39527530  0.66802380  1
  H+  H340  1  0.32883059  0.66621555  0.43084200  1
  H+  H341  1  0.62895898  0.60632923  0.82921888  1
  H+  H342  1  0.41937632  0.84176698  0.60119979  1
  H+  H343  1  0.39802097  0.57856029  0.27100624  1
  H+  H344  1  0.87983669  0.66519051  0.12248553  1
  H+  H345  1  0.66801561  0.84507209  0.56864866  1
  H+  H346  1  0.36688775  0.39592698  0.50038417  1
  H+  H347  1  0.01927318  0.39805240  0.07062215  1
  H+  H348  1  0.08600028  0.16470705  0.76224952  1
  H+  H349  1  0.78196023  0.97538413  0.81718685  1
  H+  H350  1  0.11160593  0.68191788  0.09572417  1
  H+  H351  1  0.92663456  0.34376987  0.27426059  1
  H+  H352  1  0.92073696  0.56468626  0.93812803  1
  H+  H353  1  0.57052731  0.90214221  0.73574439  1
  H+  H354  1  0.34029916  0.15504537  0.35871586  1
  H+  H355  1  0.08213374  0.66532017  0.72512926  1
  H+  H356  1  0.06509748  0.15063037  0.42986313  1
  H+  H357  1  0.32059792  0.89774408  0.74231040  1
  H+  H358  1  0.59538115  0.43850380  0.72864699  1
  H+  H359  1  0.63458944  0.32218858  0.92307721  1
  H+  H360  1  0.36001686  0.84891179  0.32102430  1
  H+  H361  1  0.41548821  0.33817083  0.89694541  1
  H+  H362  1  0.41805887  0.07957132  0.89962540  1
  H+  H363  1  0.15248784  0.32576815  0.61548416  1
  H+  H364  1  0.09738994  0.20962177  0.49202787  1
  H+  H365  1  0.17122286  0.09945939  0.61235665  1
  H+  H366  1  0.37494071  0.19523037  0.07169488  1
  H+  H367  1  0.91787453  0.07480482  0.57328715  1
  H+  H368  1  0.11832474  0.66987666  0.38605883  1
  H+  H369  1  0.40742544  0.34038357  0.61062023  1
  H+  H370  1  0.87464387  0.40589578  0.48528345  1
  H+  H371  1  0.66839511  0.59738172  0.56866696  1
  H+  H372  1  0.67772143  0.10035744  0.22340871  1
  H+  H373  1  0.69629949  0.35280781  0.20850048  1
  H+  H374  1  0.59195133  0.67746864  0.39814728  1
  H+  H375  1  0.60290777  0.66980819  0.06108470  1
  H+  H376  1  0.42260616  0.82663194  0.23377675  1
  H+  H377  1  0.81945859  0.68551050  0.42688674  1
  H+  H378  1  0.78041297  0.37705031  0.28041456  1
  H+  H379  1  0.60460608  0.18888328  0.09200694  1
  H+  H380  1  0.01650299  0.38084950  0.48753602  1
  H+  H381  1  0.93327161  0.29555426  0.98191535  1
  H+  H382  1  0.07506004  0.43787325  0.76460991  1
  H+  H383  1  0.43387424  0.59031681  0.60278727  1
  O2-  O384  1  0.08105669  0.17616100  0.14707642  1
  O2-  O385  1  0.06370144  0.14943007  0.47658275  1
  O2-  O386  1  0.09135655  0.16329243  0.81092445  1
  O2-  O387  1  0.10916520  0.43974006  0.20162412  1
  O2-  O388  1  0.07698328  0.40352920  0.47242955  1
  O2-  O389  1  0.06416552  0.44392051  0.80828849  1
  O2-  O390  1  0.12716072  0.68996688  0.13964362  1
  O2-  O391  1  0.09430840  0.64741922  0.46987246  1
  O2-  O392  1  0.04396368  0.69329844  0.79837673  1
  O2-  O393  1  0.03629726  0.90105669  0.14994743  1
  O2-  O394  1  0.03972444  0.80834757  0.45155811  1
  O2-  O395  1  0.09024909  0.91422986  0.81392621  1
  O2-  O396  1  0.36579690  0.20398531  0.14646914  1
  O2-  O397  1  0.34165293  0.18268670  0.50151107  1
  O2-  O398  1  0.32662676  0.16459542  0.82047327  1
  O2-  O399  1  0.33312618  0.42819491  0.14526100  1
  O2-  O400  1  0.32489461  0.41422282  0.48416171  1
  O2-  O401  1  0.34275628  0.42277383  0.81392165  1
  O2-  O402  1  0.25764949  0.61779560  0.13238534  1
  O2-  O403  1  0.33225188  0.66811662  0.47601886  1
  O2-  O404  1  0.32350738  0.65945642  0.83063875  1
  O2-  O405  1  0.30953095  0.91484043  0.09957643  1
  O2-  O406  1  0.32139656  0.90461305  0.48843269  1
  O2-  O407  1  0.31774613  0.89391435  0.81419521  1
  O2-  O408  1  0.60622454  0.19654629  0.13800353  1
  O2-  O409  1  0.61186548  0.19825368  0.56074833  1
  O2-  O410  1  0.57391427  0.16072601  0.80654707  1
  O2-  O411  1  0.59034578  0.43106351  0.14124224  1
  O2-  O412  1  0.58718799  0.43342442  0.48241557  1
  O2-  O413  1  0.58149409  0.41657070  0.80950669  1
  O2-  O414  1  0.61031039  0.66876356  0.13783288  1
  O2-  O415  1  0.59829162  0.68810677  0.47490401  1
  O2-  O416  1  0.57540412  0.65796928  0.80578329  1
  O2-  O417  1  0.58033370  0.93129931  0.12953121  1
  O2-  O418  1  0.58326625  0.92657446  0.48690495  1
  O2-  O419  1  0.54984447  0.88837980  0.81865830  1
  O2-  O420  1  0.84221338  0.18459870  0.14925939  1
  O2-  O421  1  0.82034176  0.17960929  0.47459288  1
  O2-  O422  1  0.80484892  0.15128589  0.86263219  1
  O2-  O423  1  0.89129492  0.45120516  0.15840330  1
  O2-  O424  1  0.84933488  0.44243336  0.47341684  1
  O2-  O425  1  0.82497396  0.40238890  0.80010557  1
  O2-  O426  1  0.85138127  0.68076506  0.15280331  1
  O2-  O427  1  0.80275363  0.70127933  0.46616048  1
  O2-  O428  1  0.83282831  0.64596205  0.83454006  1
  O2-  O429  1  0.85466967  0.92813724  0.13791893  1
  O2-  O430  1  0.82786897  0.92158988  0.48399453  1
  O2-  O431  1  0.81595269  0.94670884  0.81431353  1
  O2-  O432  1  0.13466978  0.06046862  0.18877422  1
  O2-  O433  1  0.17363576  0.10863290  0.52883185  1
  O2-  O434  1  0.16528908  0.08733235  0.85141894  1
  O2-  O435  1  0.16739687  0.33278620  0.19607267  1
  O2-  O436  1  0.17502162  0.29071321  0.53807333  1
  O2-  O437  1  0.18605463  0.33417091  0.86118814  1
  O2-  O438  1  0.25704321  0.68432335  0.17150686  1
  O2-  O439  1  0.16918140  0.56393964  0.51989880  1
  O2-  O440  1  0.19862709  0.53868856  0.87852522  1
  O2-  O441  1  0.15856414  0.85191448  0.17671196  1
  O2-  O442  1  0.15725881  0.80061137  0.52105461  1
  O2-  O443  1  0.16823894  0.83682864  0.85117445  1
  O2-  O444  1  0.39922518  0.06368089  0.15330928  1
  O2-  O445  1  0.42271641  0.09166819  0.53121704  1
  O2-  O446  1  0.40912077  0.08085158  0.85518850  1
  O2-  O447  1  0.43270277  0.36197172  0.18622467  1
  O2-  O448  1  0.42579360  0.35916632  0.52540174  1
  O2-  O449  1  0.41494364  0.33167959  0.85187374  1
  O2-  O450  1  0.37067218  0.57375620  0.19803288  1
  O2-  O451  1  0.43521846  0.60230492  0.50373150  1
  O2-  O452  1  0.41799310  0.58964839  0.85424165  1
  O2-  O453  1  0.43068122  0.81886477  0.19029789  1
  O2-  O454  1  0.41663575  0.83545567  0.52191822  1
  O2-  O455  1  0.38950903  0.81856159  0.85842506  1
  O2-  O456  1  0.67545028  0.10685150  0.17901963  1
  O2-  O457  1  0.68083238  0.10043769  0.53366238  1
  O2-  O458  1  0.63548866  0.05627247  0.85139205  1
  O2-  O459  1  0.67511604  0.34643223  0.16603400  1
  O2-  O460  1  0.68533039  0.36795188  0.52453230  1
  O2-  O461  1  0.66133270  0.32969839  0.84500772  1
  O2-  O462  1  0.68653644  0.59193175  0.18707416  1
  O2-  O463  1  0.65983699  0.59302751  0.52281750  1
  O2-  O464  1  0.65892070  0.57743944  0.84725601  1
  O2-  O465  1  0.70934797  0.82995953  0.19504884  1
  O2-  O466  1  0.67083310  0.84936121  0.52302198  1
  O2-  O467  1  0.63403593  0.81975051  0.86197188  1
  O2-  O468  1  0.91475434  0.08905233  0.18688868  1
  O2-  O469  1  0.91298836  0.06959284  0.52612839  1
  O2-  O470  1  0.94443144  0.10774759  0.86141826  1
  O2-  O471  1  0.93657464  0.35221608  0.20268021  1
  O2-  O472  1  0.91472203  0.34146172  0.51037771  1
  O2-  O473  1  0.89095311  0.29532743  0.80142491  1
  O2-  O474  1  0.82767535  0.49154790  0.24813810  1
  O2-  O475  1  0.85675297  0.56123010  0.54770359  1
  O2-  O476  1  0.91034190  0.55810467  0.86062404  1
  O2-  O477  1  0.94894240  0.85568937  0.17605565  1
  O2-  O478  1  0.93120477  0.86267484  0.52579182  1
  O2-  O479  1  0.93143198  0.82936471  0.85656509  1
  O2-  O480  1  0.15616834  0.06945927  0.31277769  1
  O2-  O481  1  0.16920173  0.09544473  0.65724277  1
  O2-  O482  1  0.13528202  0.06951677  0.97453964  1
  O2-  O483  1  0.15535239  0.32229280  0.32065604  1
  O2-  O484  1  0.14999602  0.32737342  0.66018634  1
  O2-  O485  1  0.16631853  0.33558003  0.97782033  1
  O2-  O486  1  0.19576856  0.59803419  0.28165438  1
  O2-  O487  1  0.17318139  0.57535122  0.64562783  1
  O2-  O488  1  0.17129384  0.58592664  0.98970164  1
  O2-  O489  1  0.19152541  0.84324692  0.29590969  1
  O2-  O490  1  0.16727886  0.83117673  0.64243593  1
  O2-  O491  1  0.16129720  0.83503655  0.98081185  1
  O2-  O492  1  0.38023940  0.04887592  0.27590359  1
  O2-  O493  1  0.41162649  0.07520698  0.66017787  1
  O2-  O494  1  0.43526606  0.08107494  0.98234024  1
  O2-  O495  1  0.41435605  0.35129452  0.31163014  1
  O2-  O496  1  0.37760234  0.32546945  0.64993524  1
  O2-  O497  1  0.41428103  0.34540073  0.97662956  1
  O2-  O498  1  0.40844238  0.58413802  0.31645736  1
  O2-  O499  1  0.45570374  0.56518731  0.63210352  1
  O2-  O500  1  0.42005806  0.59119393  0.97980550  1
  O2-  O501  1  0.39942411  0.82579026  0.31558839  1
  O2-  O502  1  0.42530888  0.84421823  0.64636882  1
  O2-  O503  1  0.40137093  0.84758495  0.98783509  1
  O2-  O504  1  0.68997288  0.06638963  0.30239592  1
  O2-  O505  1  0.68072554  0.07790957  0.65529297  1
  O2-  O506  1  0.69537662  0.12041864  0.97112174  1
  O2-  O507  1  0.73267039  0.31705244  0.27871276  1
  O2-  O508  1  0.71510762  0.39407053  0.64698669  1
  O2-  O509  1  0.60720477  0.30484050  0.96369410  1
  O2-  O510  1  0.66974074  0.58656096  0.30978350  1
  O2-  O511  1  0.68111617  0.60620452  0.64284672  1
  O2-  O512  1  0.66688310  0.58725844  0.96443174  1
  O2-  O513  1  0.65698760  0.84017217  0.31360884  1
  O2-  O514  1  0.67135620  0.83899501  0.64604706  1
  O2-  O515  1  0.66813347  0.82556951  0.98007353  1
  O2-  O516  1  0.91042491  0.09323265  0.31343840  1
  O2-  O517  1  0.92092341  0.08307599  0.64259300  1
  O2-  O518  1  0.91490030  0.08966053  0.97960345  1
  O2-  O519  1  0.92582187  0.34334193  0.32067228  1
  O2-  O520  1  0.92506824  0.35300014  0.63616044  1
  O2-  O521  1  0.87193587  0.27170691  0.99731048  1
  O2-  O522  1  0.96393965  0.65862380  0.28606140  1
  O2-  O523  1  0.91178934  0.57830959  0.60038671  1
  O2-  O524  1  0.92621769  0.57006842  0.98372234  1
  O2-  O525  1  0.86583818  0.82091255  0.28977649  1
  O2-  O526  1  0.92555309  0.84192684  0.64433635  1
  O2-  O527  1  0.90518929  0.82835447  0.97851896  1
  O2-  O528  1  0.07168578  0.16835878  0.02458646  1
  O2-  O529  1  0.06942251  0.15021792  0.35828795  1
  O2-  O530  1  0.08148582  0.16888994  0.69802784  1
  O2-  O531  1  0.02489471  0.34585875  -0.04995662  1
  O2-  O532  1  0.07592627  0.39980709  0.35980728  1
  O2-  O533  1  0.08170731  0.41925933  0.68739684  1
  O2-  O534  1  0.09150339  0.66882192  0.01772914  1
  O2-  O535  1  0.12236476  0.67250381  0.34129114  1
  O2-  O536  1  0.09499022  0.66180284  0.68205025  1
  O2-  O537  1  0.06544836  0.91279041  0.02172427  1
  O2-  O538  1  0.10527419  0.90454419  0.34366542  1
  O2-  O539  1  0.08706703  0.92045030  0.68984394  1
  O2-  O540  1  0.37418416  0.18694345  0.02633073  1
  O2-  O541  1  0.32683261  0.16828826  0.31867809  1
  O2-  O542  1  0.33038009  0.16333785  0.69533863  1
  O2-  O543  1  0.32819832  0.42283837  0.02212923  1
  O2-  O544  1  0.34778792  0.44184297  0.36044636  1
  O2-  O545  1  0.32537313  0.42733394  0.69492262  1
  O2-  O546  1  0.34004258  0.67696966  0.02099928  1
  O2-  O547  1  0.33223653  0.66153374  0.34975868  1
  O2-  O548  1  0.35569229  0.66168092  0.66935030  1
  O2-  O549  1  0.32042405  0.92311874  0.03297754  1
  O2-  O550  1  0.28049139  0.88751094  0.32011165  1
  O2-  O551  1  0.32348667  0.90254062  0.69547654  1
  O2-  O552  1  0.60131914  0.17753980  0.01943366  1
  O2-  O553  1  0.53667121  0.08731490  0.31794853  1
  O2-  O554  1  0.58249140  0.14693564  0.68144121  1
  O2-  O555  1  0.57823695  0.42804208  0.01969419  1
  O2-  O556  1  0.57435254  0.42454919  0.36256530  1
  O2-  O557  1  0.60558147  0.44923304  0.68447092  1
  O2-  O558  1  0.59861136  0.67378243  0.01576221  1
  O2-  O559  1  0.58875600  0.67298854  0.35242158  1
  O2-  O560  1  0.59744893  0.67904241  0.68763514  1
  O2-  O561  1  0.56821894  0.93049480  0.00951108  1
  O2-  O562  1  0.56663304  0.91312449  0.36161611  1
  O2-  O563  1  0.58175660  0.91061277  0.69142364  1
  O2-  O564  1  0.84809986  0.18807148  0.02475529  1
  O2-  O565  1  0.82758139  0.17233999  0.36035944  1
  O2-  O566  1  0.84777982  0.18993338  0.68941120  1
  O2-  O567  1  0.82831364  0.39984430  0.03734235  1
  O2-  O568  1  0.88954351  0.46379581  0.33713874  1
  O2-  O569  1  0.87068884  0.45248448  0.68062193  1
  O2-  O570  1  0.83200885  0.65998082  0.01514790  1
  O2-  O571  1  0.83673515  0.66871038  0.35375942  1
  O2-  O572  1  0.84577582  0.66523938  0.67048009  1
  O2-  O573  1  0.82570011  0.91995597  0.01706736  1
  O2-  O574  1  0.82455723  0.92659895  0.35548216  1
  O2-  O575  1  0.83282049  0.91950340  0.68517955  1
