# generated using pymatgen
data_H2O
_symmetry_space_group_name_H-M   'P 1'
_cell_length_a   18.00382972
_cell_length_b   17.99725204
_cell_length_c   22.00886997
_cell_angle_alpha   89.98006767
_cell_angle_beta   90.00040456
_cell_angle_gamma   120.02599575
_symmetry_Int_Tables_number   1
_chemical_formula_structural   H2O
_chemical_formula_sum   'H384 O192'
_cell_volume   6174.26995353
_cell_formula_units_Z   192
loop_
 _symmetry_equiv_pos_site_id
 _symmetry_equiv_pos_as_xyz
  1  'x, y, z'
loop_
 _atom_type_symbol
 _atom_type_oxidation_number
  H+  1.0
  O2-  -2.0
loop_
 _atom_site_type_symbol
 _atom_site_label
 _atom_site_symmetry_multiplicity
 _atom_site_fract_x
 _atom_site_fract_y
 _atom_site_fract_z
 _atom_site_occupancy
  H+  H0  1  0.63023859  0.02361087  0.98704629  1
  H+  H1  1  0.91111964  0.19235102  0.12470347  1
  H+  H2  1  0.39279594  0.28042035  0.99763982  1
  H+  H3  1  0.13200721  0.52775035  0.32182805  1
  H+  H4  1  0.63805652  0.78957599  0.50195972  1
  H+  H5  1  0.58771310  0.38340306  0.81768284  1
  H+  H6  1  0.12437318  0.52083373  0.65806404  1
  H+  H7  1  0.97376024  0.11911354  0.99564938  1
  H+  H8  1  0.10491580  0.89769883  0.50329114  1
  H+  H9  1  0.64392156  0.61201806  0.17485182  1
  H+  H10  1  0.22888091  0.86677343  0.16250707  1
  H+  H11  1  0.02628086  0.13193490  0.34487797  1
  H+  H12  1  0.36575268  0.48427508  0.67508012  1
  H+  H13  1  0.58984534  0.64810054  0.48773055  1
  H+  H14  1  0.11189262  0.87812660  0.68014032  1
  H+  H15  1  0.61415477  -0.00777379  0.15692911  1
  H+  H16  1  0.76029160  0.13128782  0.00433254  1
  H+  H17  1  0.78424094  0.39370222  0.83610685  1
  H+  H18  1  0.90822671  0.78204598  0.50669921  1
  H+  H19  1  0.52305075  0.14728623  0.82047035  1
  H+  H20  1  0.57707708  0.51016892  0.50906264  1
  H+  H21  1  0.88172597  0.11472921  0.99638048  1
  H+  H22  1  0.84848325  0.63618125  0.01425793  1
  H+  H23  1  0.36743901  0.13889381  0.66727096  1
  H+  H24  1  0.39439152  0.76855002  0.33241611  1
  H+  H25  1  0.24582363  0.58296358  0.48298189  1
  H+  H26  1  0.63361510  0.77821802  -0.00377703  1
  H+  H27  1  0.53419723  0.40137294  0.34998644  1
  H+  H28  1  1.02968198  0.38199308  0.16346040  1
  H+  H29  1  0.77686872  0.65944412  0.03216750  1
  H+  H30  1  0.22144937  0.11902243  0.16457633  1
  H+  H31  1  0.38020907  0.02172732  0.98685563  1
  H+  H32  1  0.10589629  0.71980477  0.67884246  1
  H+  H33  1  0.62765150  0.11134452  0.98842446  1
  H+  H34  1  0.64360325  0.91860835  0.49870744  1
  H+  H35  1  0.27508076  0.88611677  -0.00256449  1
  H+  H36  1  0.96972173  0.60971022  0.66754209  1
  H+  H37  1  0.02437459  0.88350065  0.34353290  1
  H+  H38  1  0.10173301  0.10503013  0.68258456  1
  H+  H39  1  0.14448314  1.01589200  0.66737342  1
  H+  H40  1  0.66616424  0.09386731  0.89519491  1
  H+  H41  1  0.13267491  0.27543954  0.50441778  1
  H+  H42  1  0.39116342  0.36932394  0.99634682  1
  H+  H43  1  0.97127503  0.11001353  0.50419647  1
  H+  H44  1  0.83371536  0.14649782  0.73881711  1
  H+  H45  1  0.36111048  0.39214810  0.67188628  1
  H+  H46  1  0.08321974  0.17193254  0.43945480  1
  H+  H47  1  0.85491077  0.88804022  0.00027998  1
  H+  H48  1  0.47287404  0.62626332  0.50172891  1
  H+  H49  1  0.12988217  0.03920137  0.51446957  1
  H+  H50  1  0.63488357  0.12555985  0.32080841  1
  H+  H51  1  0.25611326  0.83610170  0.44183888  1
  H+  H52  1  1.03037825  0.89312296  0.15809282  1
  H+  H53  1  0.51716317  0.89069927  0.68165893  1
  H+  H54  1  0.40471713  0.82956562  0.73769265  1
  H+  H55  1  0.38246608  0.60600341  0.31976760  1
  H+  H56  1  0.60591871  0.71795963  0.16095925  1
  H+  H57  1  0.90510211  0.88610524  0.32271695  1
  H+  H58  1  0.32082787  0.63311416  0.39125061  1
  H+  H59  1  0.60358205  0.49004426  0.67096304  1
  H+  H60  1  0.36186620  0.90357179  0.82689223  1
  H+  H61  1  0.80042125  0.52674427  0.95172140  1
  H+  H62  1  0.79936156  0.40636946  0.15537960  1
  H+  H63  1  0.63416158  0.87223070  0.84180911  1
  H+  H64  1  0.88933799  0.49581373  0.16344292  1
  H+  H65  1  0.17750095  0.10372261  0.26214008  1
  H+  H66  1  0.60479257  0.89847997  0.15864481  1
  H+  H67  1  0.64179965  0.27191443  0.14197769  1
  H+  H68  1  0.10804353  0.14460667  0.50301458  1
  H+  H69  1  0.35658230  0.46881307  0.33174291  1
  H+  H70  1  0.42584667  0.93776648  0.47698656  1
  H+  H71  1  0.87441081  0.41471351  0.62784139  1
  H+  H72  1  0.77936548  0.39696885  0.34636371  1
  H+  H73  1  0.97415642  0.36232512  0.32688999  1
  H+  H74  1  0.35660350  0.78226972  0.47906024  1
  H+  H75  1  1.01558434  0.12875936  0.16167442  1
  H+  H76  1  0.88326701  0.31626807  0.65073089  1
  H+  H77  1  0.40446022  0.13385855  0.50272557  1
  H+  H78  1  -0.02298366  0.87761206  0.51563463  1
  H+  H79  1  0.14104231  0.62887947  -0.00331375  1
  H+  H80  1  0.91530509  0.66014062  0.48394311  1
  H+  H81  1  0.38827239  0.52775132  0.84847590  1
  H+  H82  1  0.51307397  0.13386649  -0.00235153  1
  H+  H83  1  0.49514320  0.37525454  0.82236583  1
  H+  H84  1  0.03094057  0.04121009  0.82545480  1
  H+  H85  1  0.72284321  0.86786735  -0.00548529  1
  H+  H86  1  0.60655886  0.64800992  0.82849787  1
  H+  H87  1  0.87103467  0.53192904  0.66978047  1
  H+  H88  1  0.23786204  0.64122118  0.17202495  1
  H+  H89  1  0.61941190  0.27643260  0.66011599  1
  H+  H90  1  0.83456527  0.38646533  0.60973955  1
  H+  H91  1  0.62459056  1.04137811  0.67144082  1
  H+  H92  1  0.59091502  0.22017976  0.34756983  1
  H+  H93  1  0.86099254  0.51394164  0.99637665  1
  H+  H94  1  0.85206786  0.72303160  0.82777762  1
  H+  H95  1  0.46831662  0.36840170  0.65634990  1
  H+  H96  1  0.63535618  0.37747623  0.35173098  1
  H+  H97  1  0.63912685  0.36498671  0.99839970  1
  H+  H98  1  0.11609075  0.72728227  0.83154331  1
  H+  H99  1  0.39869281  0.36599889  0.32906839  1
  H+  H100  1  0.86826017  0.14915707  0.83272473  1
  H+  H101  1  0.63475803  0.51603757  0.99100129  1
  H+  H102  1  0.86250115  -0.01851942  0.85055288  1
  H+  H103  1  0.86481428  -0.03568544  0.68129186  1
  H+  H104  1  0.75228992  0.61129987  0.50384443  1
  H+  H105  1  0.62147607  0.43493234  0.49841819  1
  H+  H106  1  0.32757965  0.73698354  0.46831301  1
  H+  H107  1  0.61583370  0.63882312  0.33610001  1
  H+  H108  1  0.23485418  0.13249747  0.99549751  1
  H+  H109  1  0.10606720  0.93125897  0.06146028  1
  H+  H110  1  0.74760362  0.64605538  0.48845062  1
  H+  H111  1  0.96378644  0.85151058  0.83771709  1
  H+  H112  1  0.35199189  0.17617876  0.42858467  1
  H+  H113  1  0.12005411  0.89490540  0.15787799  1
  H+  H114  1  0.52437630  0.90047499  0.82622673  1
  H+  H115  1  0.36239853  0.88892447  0.15583277  1
  H+  H116  1  0.74283140  0.40306876  0.68616266  1
  H+  H117  1  -0.01513389  0.35642255  0.49838812  1
  H+  H118  1  0.86438775  0.39046501  0.33737373  1
  H+  H119  1  0.28309542  0.14941314  0.33304998  1
  H+  H120  1  0.09010376  0.68110312  0.43561994  1
  H+  H121  1  0.65885053  0.09083087  0.59810424  1
  H+  H122  1  0.12975567  0.74519814  0.33523416  1
  H+  H123  1  0.02727562  0.37541532  0.67491457  1
  H+  H124  1  0.36132537  0.13186754  0.33557065  1
  H+  H125  1  0.26850126  0.38417574  0.15877981  1
  H+  H126  1  0.11272429  0.14633501  0.00508840  1
  H+  H127  1  0.35638654  0.47585527  0.15801683  1
  H+  H128  1  0.10541315  0.96087910  0.82776253  1
  H+  H129  1  0.64310495  0.57567739  0.89127765  1
  H+  H130  1  0.89185036  0.09550494  0.65755274  1
  H+  H131  1  0.10763043  0.27625853  0.70152313  1
  H+  H132  1  0.13760268  0.77968647  0.16471316  1
  H+  H133  1  0.73345316  0.87038527  0.31541322  1
  H+  H134  1  0.40120263  0.32053348  0.90579078  1
  H+  H135  1  0.34899479  0.63464783  0.66784000  1
  H+  H136  1  0.03751829  0.65817614  0.33723002  1
  H+  H137  1  0.39952114  0.97029663  0.41564811  1
  H+  H138  1  0.25817029  0.63323237  0.66476318  1
  H+  H139  1  0.26853087  0.89440882  0.83032851  1
  H+  H140  1  0.35288875  0.13607031  0.15626952  1
  H+  H141  1  0.36127786  0.47045544  0.48618357  1
  H+  H142  1  0.87182269  0.73735208  0.33238729  1
  H+  H143  1  0.62390508  0.86305101  0.65731536  1
  H+  H144  1  0.16673095  0.14472094  0.83753987  1
  H+  H145  1  0.60441473  0.22153870  0.00491320  1
  H+  H146  1  0.85629211  0.97757350  0.00371125  1
  H+  H147  1  0.36413764  0.14233055  1.00390393  1
  H+  H148  1  0.85184057  0.12846881  0.33211959  1
  H+  H149  1  0.31537253  0.67629065  0.76200181  1
  H+  H150  1  0.24647708  0.12791000  0.83771740  1
  H+  H151  1  0.89355078  0.27586994  0.82400453  1
  H+  H152  1  0.72428326  0.12508270  0.16844983  1
  H+  H153  1  0.97271026  0.11510063  0.84376777  1
  H+  H154  1  0.52604550  0.38985288  0.00536973  1
  H+  H155  1  0.77680319  0.89100059  0.49769120  1
  H+  H156  1  0.13473610  0.61312669  0.50255817  1
  H+  H157  1  0.30917563  0.94299278  0.31784570  1
  H+  H158  1  0.62155854  0.39136854  0.15269828  1
  H+  H159  1  0.87108383  0.22145864  0.48134437  1
  H+  H160  1  0.64532479  0.53106797  0.33580657  1
  H+  H161  1  0.11498946  0.48642892  1.01053891  1
  H+  H162  1  0.08773087  0.41490724  0.10368857  1
  H+  H163  1  0.34451749  0.68154884  0.09943835  1
  H+  H164  1  0.53057866  0.91707396  0.50503083  1
  H+  H165  1  0.87914810  0.86031242  0.84816879  1
  H+  H166  1  0.38382667  0.36215995  0.15853997  1
  H+  H167  1  0.73539137  0.63063234  0.66626921  1
  H+  H168  1  0.60913976  0.73947717  0.83265306  1
  H+  H169  1  0.41366795  0.04842892  0.49890227  1
  H+  H170  1  0.58045029  0.92608346  0.06121500  1
  H+  H171  1  0.10694584  0.22755505  0.33980067  1
  H+  H172  1  0.89745249  0.77865341  0.18028751  1
  H+  H173  1  0.17164857  0.83107490  0.90331198  1
  H+  H174  1  0.13863990  0.28434116  0.99595936  1
  H+  H175  1  0.35277904  0.88950433  0.68267313  1
  H+  H176  1  0.88310656  0.61655762  0.83846712  1
  H+  H177  1  0.12152799  0.40105599  1.00937522  1
  H+  H178  1  0.11757448  0.38806841  0.48418243  1
  H+  H179  1  0.38659228  0.86748086  -0.01370590  1
  H+  H180  1  0.87858930  0.10052628  0.18756116  1
  H+  H181  1  0.10876210  0.47283088  0.48678571  1
  H+  H182  1  0.86505174  0.12952592  0.48253173  1
  H+  H183  1  0.87469925  0.88481044  0.68678763  1
  H+  H184  1  0.60212124  0.13579029  0.15394827  1
  H+  H185  1  0.87900923  0.24128255  0.16589230  1
  H+  H186  1  0.54855425  0.78151887  0.20842133  1
  H+  H187  1  0.13543377  0.02785930  0.16908405  1
  H+  H188  1  0.88747278  0.23159239  0.65779714  1
  H+  H189  1  0.36619704  0.73164127  0.00175765  1
  H+  H190  1  0.59658830  0.63855381  0.68874478  1
  H+  H191  1  0.69061738  0.66906160  0.62723552  1
  H+  H192  1  0.79089909  0.38960958  0.01750042  1
  H+  H193  1  0.58843014  0.42245762  0.06445492  1
  H+  H194  1  0.12350830  0.77274114  0.51084231  1
  H+  H195  1  0.12302332  0.65789729  0.15362779  1
  H+  H196  1  0.47252017  0.36166825  0.15854924  1
  H+  H197  1  0.62221967  0.22870060  0.48830554  1
  H+  H198  1  0.12386695  0.60935757  0.65935749  1
  H+  H199  1  0.90417138  0.52318725  0.50674511  1
  H+  H200  1  0.35818344  -0.02448566  0.15200125  1
  H+  H201  1  0.47619480  0.87899038  0.17331768  1
  H+  H202  1  0.61048586  0.89121947  1.00448160  1
  H+  H203  1  0.16139907  0.88596420  0.31722429  1
  H+  H204  1  0.64883929  1.01232167  0.51035990  1
  H+  H205  1  0.02948205  0.64094465  0.49530433  1
  H+  H206  1  0.02461555  0.88207629  0.67661998  1
  H+  H207  1  0.20691861  0.86359478  0.51624185  1
  H+  H208  1  0.27176544  0.63052422  0.33123866  1
  H+  H209  1  0.37939289  0.23759471  0.48660389  1
  H+  H210  1  0.11336759  0.48407443  0.82854344  1
  H+  H211  1  0.14640310  0.77092781  0.99474211  1
  H+  H212  1  0.65759844  0.83871660  0.90274099  1
  H+  H213  1  0.88376024  0.39224430  0.49214854  1
  H+  H214  1  0.33396275  0.58397763  0.48755731  1
  H+  H215  1  0.15210156  0.13123372  0.32410243  1
  H+  H216  1  0.13112176  0.61066003  0.84490333  1
  H+  H217  1  0.35896912  0.22896777  0.15095777  1
  H+  H218  1  0.46541806  0.61854839  0.66691164  1
  H+  H219  1  0.65991012  0.12302946  0.52241720  1
  H+  H220  1  0.37874537  0.78842320  0.83271333  1
  H+  H221  1  0.83131625  0.66429511  0.73527470  1
  H+  H222  1  0.27683735  0.39013736  1.00505691  1
  H+  H223  1  0.52155098  0.63713043  1.00746133  1
  H+  H224  1  0.47335745  0.60914998  0.32041309  1
  H+  H225  1  0.61632068  0.72764034  0.32953126  1
  H+  H226  1  0.90136838  0.53593124  0.32601969  1
  H+  H227  1  0.61876138  0.36619234  0.65738619  1
  H+  H228  1  0.68583619  0.37080682  0.77892245  1
  H+  H229  1  0.53516121  0.14321234  0.49571586  1
  H+  H230  1  0.67232845  0.58376880  0.27272819  1
  H+  H231  1  0.77494531  0.89234038  0.85021447  1
  H+  H232  1  0.89474841  0.77170977  0.66427162  1
  H+  H233  1  0.60728395  0.14207584  0.67210204  1
  H+  H234  1  0.07871096  0.66117692  0.73854765  1
  H+  H235  1  0.10592475  0.13233680  0.15720594  1
  H+  H236  1  0.47515524  0.60703379  0.16908529  1
  H+  H237  1  0.14015543  0.62095684  0.32722646  1
  H+  H238  1  0.14263801  0.28289925  0.72287780  1
  H+  H239  1  0.56502249  0.15285170  0.09220540  1
  H+  H240  1  0.15323824  0.86761647  0.99071299  1
  H+  H241  1  0.00806779  0.09696223  0.67760674  1
  H+  H242  1  0.76332551  0.63225904  0.82476019  1
  H+  H243  1  0.89971084  0.62413523  0.32283495  1
  H+  H244  1  0.61216747  0.51964226  0.83144676  1
  H+  H245  1  0.32700013  0.26312055  0.85837956  1
  H+  H246  1  0.89605219  0.37319715  0.82871944  1
  H+  H247  1  0.38357005  0.27653286  0.65954809  1
  H+  H248  1  0.89353506  0.86513209  0.16989047  1
  H+  H249  1  0.10972099  0.38881138  0.33078513  1
  H+  H250  1  0.21808090  0.35822306  0.32257761  1
  H+  H251  1  0.37900815  0.02654958  0.65168660  1
  H+  H252  1  0.87655091  0.64158919  0.17172269  1
  H+  H253  1  0.12787898  0.40995836  0.66613934  1
  H+  H254  1  0.64042671  0.12537316  0.83434517  1
  H+  H255  1  0.36166678  0.38937185  0.82739022  1
  H+  H256  1  0.23096267  0.37549167  0.84479477  1
  H+  H257  1  0.21982168  0.85815585  0.66479410  1
  H+  H258  1  0.24145277  0.40256288  0.64832753  1
  H+  H259  1  0.72079320  0.59018500  0.95984920  1
  H+  H260  1  0.15870558  0.32662662  0.26349550  1
  H+  H261  1  0.86040151  -0.03736055  0.15857469  1
  H+  H262  1  0.89622513  0.26703119  -0.01428293  1
  H+  H263  1  0.26521210  0.65197426  0.82529402  1
  H+  H264  1  0.89075380  0.78749246  0.99849767  1
  H+  H265  1  0.22578710  0.61998919  -0.00536153  1
  H+  H266  1  0.46434471  0.10992787  0.16874148  1
  H+  H267  1  0.88511576  0.27107587  0.32667315  1
  H+  H268  1  0.61218335  0.64068027  1.00283174  1
  H+  H269  1  0.47240608  0.61972547  0.84941095  1
  H+  H270  1  0.24258015  0.86273355  0.42391498  1
  H+  H271  1  0.36694437  0.64319284  0.00697884  1
  H+  H272  1  0.23118479  0.10855693  0.66872182  1
  H+  H273  1  0.38993988  0.52776033  0.00003471  1
  H+  H274  1  0.47943388  0.55671922  0.53496437  1
  H+  H275  1  0.04613215  0.65789642  0.00590971  1
  H+  H276  1  0.58033796  0.31632925  0.51299577  1
  H+  H277  1  0.41520654  0.33881964  0.55968413  1
  H+  H278  1  0.33318937  0.41715233  0.06565963  1
  H+  H279  1  0.86219575  0.63720528  0.67405875  1
  H+  H280  1  0.05401595  0.83026690  0.38108066  1
  H+  H281  1  0.89875427  0.37185275  0.17667668  1
  H+  H282  1  0.53413153  0.87608108  0.35167263  1
  H+  H283  1  0.99649823  0.62986659  0.16680755  1
  H+  H284  1  0.13504687  0.35731667  0.17064253  1
  H+  H285  1  0.72600282  0.12879966  0.31937549  1
  H+  H286  1  0.61398871  0.77045381  0.66176690  1
  H+  H287  1  0.62138848  0.48006391  0.15991930  1
  H+  H288  1  0.13465959  0.85580645  0.84359246  1
  H+  H289  1  0.90742700  0.83167896  0.93376695  1
  H+  H290  1  0.09130673  0.42719847  0.76509521  1
  H+  H291  1  0.39284971  0.78620728  0.17419837  1
  H+  H292  1  0.83555813  0.91004498  0.09696676  1
  H+  H293  1  0.91660685  0.07237088  0.59255298  1
  H+  H294  1  0.39526079  0.19496429  0.83572477  1
  H+  H295  1  0.17190138  0.34486062  0.93694512  1
  H+  H296  1  0.64296013  0.86544124  0.33162090  1
  H+  H297  1  0.92355221  0.83120000  0.60431859  1
  H+  H298  1  0.08308828  0.41896394  0.39111015  1
  H+  H299  1  0.57219228  0.15776475  0.40316349  1
  H+  H300  1  0.14167640  0.37217500  0.84526085  1
  H+  H301  1  0.64015000  0.82614801  0.23728134  1
  H+  H302  1  0.16353661  0.58345551  0.90422256  1
  H+  H303  1  0.15928152  0.09311229  0.57490416  1
  H+  H304  1  0.58685357  0.66289336  0.10014672  1
  H+  H305  1  0.88451951  0.01591967  0.50263907  1
  H+  H306  1  0.85685032  0.42830405  0.43480739  1
  H+  H307  1  0.32187445  0.92926147  0.73287928  1
  H+  H308  1  0.18305323  0.37510202  0.58733642  1
  H+  H309  1  0.42442094  0.83688122  0.27954021  1
  H+  H310  1  0.33648915  0.42330866  0.76799940  1
  H+  H311  1  0.81748041  0.16324300  0.06516237  1
  H+  H312  1  0.78445141  0.64673888  0.33771029  1
  H+  H313  1  0.65455448  0.34647226  0.29074000  1
  H+  H314  1  0.87143721  0.48498896  0.83559961  1
  H+  H315  1  0.51398942  0.14120869  0.66898315  1
  H+  H316  1  0.81175331  0.43074015  0.74231062  1
  H+  H317  1  0.37155599  0.64798303  0.15821601  1
  H+  H318  1  0.08062896  0.92806741  0.44280184  1
  H+  H319  1  0.37112652  0.76876026  0.68204334  1
  H+  H320  1  0.83587257  0.16443851  0.39419923  1
  H+  H321  1  0.58622116  0.92613516  0.73316414  1
  H+  H322  1  0.15412056  0.82463519  0.60803658  1
  H+  H323  1  0.15434171  0.57655672  0.56305239  1
  H+  H324  1  0.92787717  0.31470979  0.55806727  1
  H+  H325  1  0.98138806  0.35538041  0.98723237  1
  H+  H326  1  0.63191156  0.28200724  0.81430590  1
  H+  H327  1  0.18646982  0.11889909  0.93395032  1
  H+  H328  1  0.35046773  0.16160527  0.73312477  1
  H+  H329  1  0.92943519  0.85004880  0.26402027  1
  H+  H330  1  0.58778176  0.43938546  0.41314219  1
  H+  H331  1  0.57981010  0.68253292  0.42278359  1
  H+  H332  1  0.56544149  0.67246641  0.74461704  1
  H+  H333  1  0.40565256  0.08440967  0.92858825  1
  H+  H334  1  0.61515335  0.98839767  0.82642536  1
  H+  H335  1  0.13428653  0.26750160  0.17130274  1
  H+  H336  1  0.77172066  0.10503603  0.68114851  1
  H+  H337  1  0.13559923  -0.01048011  1.00234074  1
  H+  H338  1  0.41894931  0.58611296  0.93988655  1
  H+  H339  1  0.57601193  0.17159193  0.75813591  1
  H+  H340  1  0.37183026  0.03084252  0.82954808  1
  H+  H341  1  0.32664520  0.41056238  0.39141212  1
  H+  H342  1  0.07853881  0.90583145  0.76650226  1
  H+  H343  1  0.05871876  0.10701683  0.76817286  1
  H+  H344  1  0.07711947  0.16862253  0.06488196  1
  H+  H345  1  0.67998191  0.31175875  0.20310928  1
  H+  H346  1  0.40395704  0.07279622  0.22724048  1
  H+  H347  1  0.41585407  0.84568782  0.89267643  1
  H+  H348  1  0.09378858  0.68367963  0.08950451  1
  H+  H349  1  0.41597926  0.58759211  0.60323605  1
  H+  H350  1  0.77873715  0.15072817  0.82937964  1
  H+  H351  1  0.17381153  0.60696045  0.22820157  1
  H+  H352  1  0.66786490  0.10154055  0.22972339  1
  H+  H353  1  0.67558193  0.33638816  0.94338924  1
  H+  H354  1  0.56722720  0.42850161  0.72885990  1
  H+  H355  1  0.85921607  0.43688843  0.07032832  1
  H+  H356  1  0.64568317  0.33193159  0.56542801  1
  H+  H357  1  0.18602675  0.85404603  0.25658036  1
  H+  H358  1  0.86191369  0.88536800  0.49949345  1
  H+  H359  1  0.22512513  0.36163137  0.49631338  1
  H+  H360  1  0.33476481  0.17087405  0.06501016  1
  H+  H361  1  0.48265984  0.37944088  0.50294089  1
  H+  H362  1  0.99808213  0.37754985  0.82179483  1
  H+  H363  1  0.66354476  0.83589216  0.56733448  1
  H+  H364  1  0.41587335  0.08983812  0.59215172  1
  H+  H365  1  0.91768667  0.33457444  0.23826264  1
  H+  H366  1  0.60525293  0.57141124  0.57121544  1
  H+  H367  1  0.84456415  0.67322315  0.11533231  1
  H+  H368  1  0.02369845  0.64148487  0.83187542  1
  H+  H369  1  0.36283427  0.38312334  0.48651088  1
  H+  H370  1  0.47572464  0.86819411  0.98662972  1
  H+  H371  1  0.92467450  0.58327095  0.56705313  1
  H+  H372  1  0.33585899  0.91928461  0.05688364  1
  H+  H373  1  0.73404091  0.61346234  0.17955573  1
  H+  H374  1  0.40735449  0.28302042  0.33101401  1
  H+  H375  1  0.47262912  0.91496936  0.56080504  1
  H+  H376  1  0.91722946  0.09848572  0.90461442  1
  H+  H377  1  0.88569553  0.69110504  0.42494469  1
  H+  H378  1  0.90885856  0.58807288  0.89960056  1
  H+  H379  1  0.90942395  0.06029034  0.23905464  1
  H+  H380  1  0.46441160  0.09412751  0.32905711  1
  H+  H381  1  0.41522381  0.58109877  0.22812088  1
  H+  H382  1  0.94236184  0.59809080  0.23087028  1
  H+  H383  1  0.60514153  0.92279433  0.40506159  1
  O2-  O384  1  0.07338987  0.16161165  0.14312204  1
  O2-  O385  1  0.07827095  0.17491706  0.48429100  1
  O2-  O386  1  0.06240083  0.10235981  0.81629904  1
  O2-  O387  1  0.08877579  0.40528786  0.14831787  1
  O2-  O388  1  0.08315597  0.41431697  0.46844497  1
  O2-  O389  1  0.08442896  0.42377218  0.81074102  1
  O2-  O390  1  0.08763457  0.68289685  0.13707815  1
  O2-  O391  1  0.09089409  0.67810980  0.48084975  1
  O2-  O392  1  0.08328288  0.66659675  0.81605129  1
  O2-  O393  1  0.09074781  0.92638525  0.14298607  1
  O2-  O394  1  0.08035057  0.93260967  0.48780731  1
  O2-  O395  1  0.07500499  0.90173139  0.81304934  1
  O2-  O396  1  0.32467611  0.16608229  0.13786813  1
  O2-  O397  1  0.35796025  0.17747347  0.47352908  1
  O2-  O398  1  0.36434107  0.13758620  0.81644256  1
  O2-  O399  1  0.32824501  0.41613396  0.14169359  1
  O2-  O400  1  0.33020224  0.41127786  0.47020727  1
  O2-  O401  1  0.33661874  0.42417555  0.81366664  1
  O2-  O402  1  0.34783238  0.68491044  0.14491421  1
  O2-  O403  1  0.29133036  0.58068582  0.45875525  1
  O2-  O404  1  0.31923891  0.69431028  0.80495654  1
  O2-  O405  1  0.33181775  0.91604600  0.13540996  1
  O2-  O406  1  0.39485599  0.96679489  0.46008783  1
  O2-  O407  1  0.32829978  0.93155044  0.81316561  1
  O2-  O408  1  0.56946196  0.16288418  0.13722653  1
  O2-  O409  1  0.59251722  0.16790778  0.47498760  1
  O2-  O410  1  0.58243413  0.17676290  0.80482287  1
  O2-  O411  1  0.59155311  0.42211484  0.13978850  1
  O2-  O412  1  0.57540709  0.44138401  0.48062092  1
  O2-  O413  1  0.55423246  0.41223286  0.80717187  1
  O2-  O414  1  0.58644608  0.65911763  0.14559270  1
  O2-  O415  1  0.57537524  0.68892729  0.46762704  1
  O2-  O416  1  0.57552252  0.67848518  0.81694461  1
  O2-  O417  1  0.58130240  0.93264512  0.13999275  1
  O2-  O418  1  0.62240679  0.95615585  0.48242933  1
  O2-  O419  1  0.58544209  0.92723069  0.81285991  1
  O2-  O420  1  0.85964859  0.18231036  0.14646460  1
  O2-  O421  1  0.84469679  0.16489250  0.46088443  1
  O2-  O422  1  0.83898235  0.17906636  0.81339202  1
  O2-  O423  1  0.86134977  0.43503515  0.14677808  1
  O2-  O424  1  0.86167565  0.43070051  0.47963747  1
  O2-  O425  1  0.84440214  0.42331274  0.82230584  1
  O2-  O426  1  0.84172281  0.66926642  0.16042516  1
  O2-  O427  1  0.91891244  0.71084379  0.46313525  1
  O2-  O428  1  0.82475050  0.66126608  0.81303756  1
  O2-  O429  1  0.83813103  0.90442144  0.14187497  1
  O2-  O430  1  0.83670219  0.91827810  0.48164424  1
  O2-  O431  1  0.83743764  0.91924428  0.85733152  1
  O2-  O432  1  0.16199058  0.08969128  0.18178654  1
  O2-  O433  1  0.15414734  0.09819994  0.53051848  1
  O2-  O434  1  0.22410945  0.16191207  0.85667510  1
  O2-  O435  1  0.16665025  0.32730732  0.18712914  1
  O2-  O436  1  0.16648260  0.33918741  0.51365687  1
  O2-  O437  1  0.17277715  0.34533521  0.86312144  1
  O2-  O438  1  0.17730496  0.61802889  0.18399489  1
  O2-  O439  1  0.15551790  0.57452034  0.51763256  1
  O2-  O440  1  0.16153556  0.57989204  0.85823096  1
  O2-  O441  1  0.17042593  0.84058139  0.18128118  1
  O2-  O442  1  0.14770426  0.83160733  0.53051392  1
  O2-  O443  1  0.17047729  0.83078726  0.85643757  1
  O2-  O444  1  0.40334191  0.07844560  0.18244404  1
  O2-  O445  1  0.43387730  0.10364253  0.52257447  1
  O2-  O446  1  0.40694272  0.09398022  0.84393735  1
  O2-  O447  1  0.41085986  0.32680770  0.16739742  1
  O2-  O448  1  0.41895232  0.34200235  0.51474180  1
  O2-  O449  1  0.38909702  0.30666098  0.86110560  1
  O2-  O450  1  0.41456238  0.58303598  0.18238327  1
  O2-  O451  1  0.43515052  0.57485799  0.52726195  1
  O2-  O452  1  0.41545024  0.58451872  0.86873471  1
  O2-  O453  1  0.41743030  0.84586549  0.19074156  1
  O2-  O454  1  0.46792417  0.89226587  0.52006239  1
  O2-  O455  1  0.41494776  0.85013736  0.84708973  1
  O2-  O456  1  0.66479946  0.09626880  0.18249683  1
  O2-  O457  1  0.67205773  0.08555992  0.54775843  1
  O2-  O458  1  0.67138937  0.09633276  0.84973509  1
  O2-  O459  1  0.67956030  0.32961973  0.16140831  1
  O2-  O460  1  0.63884837  0.32872174  0.52026171  1
  O2-  O461  1  0.66232850  0.34697727  0.81923231  1
  O2-  O462  1  0.67192467  0.58026436  0.19131023  1
  O2-  O463  1  0.57402817  0.56170112  0.53309819  1
  O2-  O464  1  0.64874404  0.57954871  0.84650428  1
  O2-  O465  1  0.60889027  0.81092669  0.19665020  1
  O2-  O466  1  0.67398798  0.84575186  0.52228059  1
  O2-  O467  1  0.66019527  0.83820387  0.85730189  1
  O2-  O468  1  0.90900334  0.06848081  0.19458563  1
  O2-  O469  1  0.91046718  0.07737526  0.51824127  1
  O2-  O470  1  0.91467223  0.09907227  0.85885796  1
  O2-  O471  1  0.92011212  0.33388084  0.19239491  1
  O2-  O472  1  0.92448455  0.32541109  0.51444762  1
  O2-  O473  1  0.92915744  0.34162972  0.82763051  1
  O2-  O474  1  0.93623571  0.59552611  0.18572580  1
  O2-  O475  1  0.93289481  0.58505492  0.52242723  1
  O2-  O476  1  0.91591480  0.58906212  0.85473174  1
  O2-  O477  1  0.92828343  0.84117465  0.18985141  1
  O2-  O478  1  0.91781638  0.83467469  0.52931126  1
  O2-  O479  1  0.90410775  0.82080909  0.85309735  1
  O2-  O480  1  0.18698512  0.10801656  0.30671084  1
  O2-  O481  1  0.17135012  0.07650980  0.65312439  1
  O2-  O482  1  0.17568053  0.10469093  0.97768950  1
  O2-  O483  1  0.15656729  0.32900635  0.30917809  1
  O2-  O484  1  0.19606138  0.40739631  0.62632065  1
  O2-  O485  1  0.17346772  0.34533828  0.98303472  1
  O2-  O486  1  0.16656152  0.58916814  0.30906606  1
  O2-  O487  1  0.15365965  0.58040241  0.64091063  1
  O2-  O488  1  0.16553973  0.59164876  0.97998656  1
  O2-  O489  1  0.19745402  0.86301792  0.30169054  1
  O2-  O490  1  0.15750623  0.82272724  0.65332073  1
  O2-  O491  1  0.17868209  0.83320427  0.97402507  1
  O2-  O492  1  0.40511930  0.06307961  0.30946426  1
  O2-  O493  1  0.41021525  0.08743332  0.63855729  1
  O2-  O494  1  0.41011389  0.08403028  0.97327880  1
  O2-  O495  1  0.43960136  0.34544367  0.32185647  1
  O2-  O496  1  0.40769344  0.33531206  0.64233122  1
  O2-  O497  1  0.42332043  0.34052321  0.98060173  1
  O2-  O498  1  0.41369100  0.57618173  0.30428446  1
  O2-  O499  1  0.40677989  0.58698239  0.64798823  1
  O2-  O500  1  0.42158457  0.58897149  0.98641288  1
  O2-  O501  1  0.43029177  0.83060893  0.32348297  1
  O2-  O502  1  0.40338747  0.83181728  0.69338816  1
  O2-  O503  1  0.41619953  0.83693801  0.96981971  1
  O2-  O504  1  0.67075444  0.10816500  0.29753791  1
  O2-  O505  1  0.65428594  0.10084681  0.65631937  1
  O2-  O506  1  0.66095345  0.08481016  0.97235029  1
  O2-  O507  1  0.66098970  0.34173223  0.33418407  1
  O2-  O508  1  0.65150901  0.33777772  0.64503073  1
  O2-  O509  1  0.67029541  0.33339464  0.98752045  1
  O2-  O510  1  0.67597828  0.59100274  0.31770128  1
  O2-  O511  1  0.67657354  0.61699231  0.64991456  1
  O2-  O512  1  0.66363769  0.57660141  0.97301390  1
  O2-  O513  1  0.67186338  0.83616469  0.30736685  1
  O2-  O514  1  0.64535122  0.82600117  0.64059777  1
  O2-  O515  1  0.66078809  0.83824516  0.98083994  1
  O2-  O516  1  0.90698649  0.04503793  0.32131860  1
  O2-  O517  1  0.92195100  0.06853686  0.63794658  1
  O2-  O518  1  0.91344954  0.08690001  0.97977519  1
  O2-  O519  1  0.91284913  0.33247083  0.31275642  1
  O2-  O520  1  0.92007082  0.29224197  0.64215191  1
  O2-  O521  1  0.93230727  0.31791926  0.96089737  1
  O2-  O522  1  0.93354142  0.59617686  0.31045833  1
  O2-  O523  1  0.91155851  0.58644462  0.64875379  1
  O2-  O524  1  0.85598234  0.56127652  0.97128446  1
  O2-  O525  1  0.92853666  0.84932378  0.31007929  1
  O2-  O526  1  0.93011235  0.83190225  0.64982479  1
  O2-  O527  1  0.90761566  0.84213599  0.97804951  1
  O2-  O528  1  0.07873962  0.17305974  0.01951593  1
  O2-  O529  1  0.08553471  0.16950787  0.35865454  1
  O2-  O530  1  0.06088568  0.11839307  0.70365108  1
  O2-  O531  1  0.08778916  0.42639980  0.02634159  1
  O2-  O532  1  0.08016755  0.42011199  0.34560007  1
  O2-  O533  1  0.08421145  0.42033184  0.68950403  1
  O2-  O534  1  0.10453331  0.68574231  0.02147837  1
  O2-  O535  1  0.09693820  0.68798492  0.35465901  1
  O2-  O536  1  0.07414584  0.65870444  0.69305688  1
  O2-  O537  1  0.11839746  0.93161281  0.01753632  1
  O2-  O538  1  0.07506631  0.88891183  0.36679896  1
  O2-  O539  1  0.08464710  0.91151190  0.69516511  1
  O2-  O540  1  0.33893659  0.17708258  0.01906705  1
  O2-  O541  1  0.34353996  0.17260731  0.34931213  1
  O2-  O542  1  0.34098083  0.16919505  0.69010056  1
  O2-  O543  1  0.33792272  0.41859546  0.02003823  1
  O2-  O544  1  0.32437050  0.40814538  0.34604740  1
  O2-  O545  1  0.33466345  0.42390200  0.69078468  1
  O2-  O546  1  0.33668162  0.67384281  0.02119754  1
  O2-  O547  1  0.33096180  0.65294191  0.34790857  1
  O2-  O548  1  0.31764618  0.66437271  0.68188952  1
  O2-  O549  1  0.33752177  0.92188712  0.01140013  1
  O2-  O550  1  0.37079630  0.97498554  0.33167676  1
  O2-  O551  1  0.32168343  0.92225855  0.68784513  1
  O2-  O552  1  0.57226226  0.15951875  0.01548912  1
  O2-  O553  1  0.56362843  0.15835152  0.35729312  1
  O2-  O554  1  0.57259172  0.17457581  0.68699353  1
  O2-  O555  1  0.58821616  0.42022472  0.01846728  1
  O2-  O556  1  0.59506414  0.43465600  0.36658091  1
  O2-  O557  1  0.57284445  0.42965326  0.68366278  1
  O2-  O558  1  0.58378914  0.66939576  0.02168683  1
  O2-  O559  1  0.58206738  0.66791507  0.34556513  1
  O2-  O560  1  0.56192748  0.66527693  0.69879421  1
  O2-  O561  1  0.58001758  0.92323095  0.01580787  1
  O2-  O562  1  0.59580934  0.90077979  0.36266204  1
  O2-  O563  1  0.57992679  0.92426783  0.68815600  1
  O2-  O564  1  0.82002275  0.15759585  0.02089812  1
  O2-  O565  1  0.83087636  0.16590764  0.34688707  1
  O2-  O566  1  0.83200108  0.13170376  0.69480600  1
  O2-  O567  1  0.85038627  0.43498351  0.02525676  1
  O2-  O568  1  0.84241186  0.42817266  0.35274203  1
  O2-  O569  1  0.78365497  0.45062962  0.71340176  1
  O2-  O570  1  0.83770206  0.67833348  0.03680599  1
  O2-  O571  1  0.84743289  0.67722745  0.34678704  1
  O2-  O572  1  0.83080056  0.66652560  0.68985546  1
  O2-  O573  1  0.82375862  0.91699381  0.01806832  1
  O2-  O574  1  0.86816940  0.96652604  0.34082801  1
  O2-  O575  1  0.84826177  0.91415231  0.70761354  1
