# generated using pymatgen
data_H2O
_symmetry_space_group_name_H-M   'P 1'
_cell_length_a   17.97825768
_cell_length_b   17.96775972
_cell_length_c   21.97723876
_cell_angle_alpha   90.00586038
_cell_angle_beta   90.00088792
_cell_angle_gamma   119.97281777
_symmetry_Int_Tables_number   1
_chemical_formula_structural   H2O
_chemical_formula_sum   'H384 O192'
_cell_volume   6149.84510419
_cell_formula_units_Z   192
loop_
 _symmetry_equiv_pos_site_id
 _symmetry_equiv_pos_as_xyz
  1  'x, y, z'
loop_
 _atom_type_symbol
 _atom_type_oxidation_number
  H+  1.0
  O2-  -2.0
loop_
 _atom_site_type_symbol
 _atom_site_label
 _atom_site_symmetry_multiplicity
 _atom_site_fract_x
 _atom_site_fract_y
 _atom_site_fract_z
 _atom_site_occupancy
  H+  H0  1  0.13495173  0.87952486  0.66166105  1
  H+  H1  1  0.34606009  0.23920025  0.50345130  1
  H+  H2  1  0.22094111  0.86632318  0.99444148  1
  H+  H3  1  0.95624256  0.85674320  0.67470547  1
  H+  H4  1  0.76781573  0.88646594  0.67243208  1
  H+  H5  1  0.27506517  0.14372695  0.00921680  1
  H+  H6  1  0.78039999  0.13614220  0.15340131  1
  H+  H7  1  0.17234583  0.33240269  0.56904863  1
  H+  H8  1  0.51588006  0.14421047  0.49180847  1
  H+  H9  1  0.19493451  0.82838329  0.60394966  1
  H+  H10  1  0.47051161  0.10703148  0.84154294  1
  H+  H11  1  0.60227533  0.72060069  0.67487862  1
  H+  H12  1  0.87091039  0.48867678  0.66402395  1
  H+  H13  1  0.64561689  0.38541816  0.98707966  1
  H+  H14  1  0.51542153  0.87776256  0.15701403  1
  H+  H15  1  0.12095488  0.48039381  0.67715741  1
  H+  H16  1  0.97403399  0.11191155  0.66289222  1
  H+  H17  1  0.64437017  0.51313613  0.33110993  1
  H+  H18  1  0.47363011  0.36856828  0.03602415  1
  H+  H19  1  0.75684507  0.10614957  0.32109175  1
  H+  H20  1  0.89553634  0.52560999  0.50673265  1
  H+  H21  1  0.15051582  0.28347758  0.83908494  1
  H+  H22  1  0.61128718  0.47718446  0.67599485  1
  H+  H23  1  0.33245922  0.00770758  0.33590103  1
  H+  H24  1  0.78620635  0.90131895  0.49454797  1
  H+  H25  1  0.10452473  0.37541057  0.49668963  1
  H+  H26  1  0.39376442  0.77622850  0.83385573  1
  H+  H27  1  0.33735560  0.14918326  0.34387841  1
  H+  H28  1  0.34716764  0.10780217  0.82571100  1
  H+  H29  1  0.86646705  0.72468270  0.49713907  1
  H+  H30  1  0.72591659  0.11640446  0.66236269  1
  H+  H31  1  0.60002601  0.22522592  0.67514396  1
  H+  H32  1  0.61453456  0.38979776  0.68088690  1
  H+  H33  1  0.58153132  0.45973746  0.10761440  1
  H+  H34  1  0.13047690  0.19093299  0.16926586  1
  H+  H35  1  0.39303098  0.78435048  0.50261340  1
  H+  H36  1  0.90049659  1.03229801  0.84366547  1
  H+  H37  1  0.36573840  0.23339878  0.01583178  1
  H+  H38  1  0.85790594  0.72826485  0.82632360  1
  H+  H39  1  0.89486091  0.35579765  0.82602687  1
  H+  H40  1  0.02923392  0.14944017  0.83162257  1
  H+  H41  1  0.12830425  0.11402174  0.33303572  1
  H+  H42  1  0.65948268  0.55409461  0.21617102  1
  H+  H43  1  0.88318892  0.28201007  0.17360260  1
  H+  H44  1  0.34948898  0.47670685  0.49714243  1
  H+  H45  1  0.38721229  0.89230795  0.15779294  1
  H+  H46  1  0.72172747  0.85711409  0.99339786  1
  H+  H47  1  0.64675374  0.87239437  0.50092869  1
  H+  H48  1  0.62290321  0.38097461  0.34523102  1
  H+  H49  1  0.37926903  0.76167988  0.17299452  1
  H+  H50  1  0.35940665  -0.01906116  1.00293497  1
  H+  H51  1  0.38722382  0.77573801  0.65752063  1
  H+  H52  1  1.03581401  0.17750638  0.16480397  1
  H+  H53  1  0.23576900  0.22870571  0.23063333  1
  H+  H54  1  0.58187965  0.65058462  0.06647759  1
  H+  H55  1  0.01213578  0.61909168  0.15900430  1
  H+  H56  1  0.84916774  0.86633025  0.16712088  1
  H+  H57  1  0.85944192  0.61904672  0.15820675  1
  H+  H58  1  0.16332871  0.75402086  0.51702866  1
  H+  H59  1  0.89435715  0.03922596  0.50629384  1
  H+  H60  1  0.88809403  0.61490369  0.99581903  1
  H+  H61  1  0.11183221  0.47288046  0.34301255  1
  H+  H62  1  0.10731459  0.87046090  0.82000048  1
  H+  H63  1  0.32213484  0.11583854  0.16507094  1
  H+  H64  1  0.67199120  0.88885813  0.31102428  1
  H+  H65  1  0.20422780  0.57379987  0.52541783  1
  H+  H66  1  0.63947132  0.53465505  0.84205127  1
  H+  H67  1  0.40382057  0.61519063  -0.01729831  1
  H+  H68  1  0.27203732  0.63205282  0.16010914  1
  H+  H69  1  0.38851433  0.36870229  0.51728199  1
  H+  H70  1  0.38532312  0.86580082  0.98757916  1
  H+  H71  1  0.35966037  -0.03167201  0.82974137  1
  H+  H72  1  0.73807629  0.61141153  0.50603558  1
  H+  H73  1  0.88558111  0.11320771  0.66320091  1
  H+  H74  1  0.41165191  0.57826438  0.23441348  1
  H+  H75  1  0.37887327  0.36358088  0.17545251  1
  H+  H76  1  0.86013227  0.22465481  -0.00071589  1
  H+  H77  1  0.71518579  0.61075598  0.65828915  1
  H+  H78  1  0.41500000  0.09773624  0.32019166  1
  H+  H79  1  1.01606030  0.63585858  1.00419852  1
  H+  H80  1  0.11324652  0.60214178  0.84084447  1
  H+  H81  1  0.53524318  0.38648974  0.34488505  1
  H+  H82  1  0.82899735  0.16353066  0.73580868  1
  H+  H83  1  0.90193106  1.02860347  0.32895725  1
  H+  H84  1  0.59867131  0.79127131  0.31482067  1
  H+  H85  1  0.60939501  0.88601944  0.00202676  1
  H+  H86  1  0.63375330  0.85793999  0.65700637  1
  H+  H87  1  0.60999105  0.84435319  0.84293430  1
  H+  H88  1  0.85473687  0.70703981  0.16278511  1
  H+  H89  1  0.88151006  0.26992011  0.50866981  1
  H+  H90  1  0.63523253  0.02745003  0.98830054  1
  H+  H91  1  0.01345017  0.63911823  0.82658510  1
  H+  H92  1  0.46813084  0.62699506  0.46042231  1
  H+  H93  1  0.83638210  0.94572133  0.18229774  1
  H+  H94  1  0.70836351  0.84297025  0.16751837  1
  H+  H95  1  0.63291702  0.12028210  0.50831518  1
  H+  H96  1  0.38338234  0.40070453  0.84385793  1
  H+  H97  1  0.57237707  0.71267361  0.83877365  1
  H+  H98  1  0.51041481  0.13537812  0.23519204  1
  H+  H99  1  0.70951894  0.33038626  0.67449028  1
  H+  H100  1  0.60703922  0.22298409  0.82715706  1
  H+  H101  1  0.54651470  0.09910936  0.31491873  1
  H+  H102  1  0.49075078  0.60195002  0.46566005  1
  H+  H103  1  0.11708796  0.23342040  0.00544514  1
  H+  H104  1  0.52630794  0.88586274  0.67012549  1
  H+  H105  1  0.38085906  0.89584815  0.67507832  1
  H+  H106  1  0.78512210  0.63599254  0.01189701  1
  H+  H107  1  0.11704400  0.51331926  0.84180871  1
  H+  H108  1  0.12921440  0.13871072  0.49733095  1
  H+  H109  1  0.48811746  0.60774518  0.98642878  1
  H+  H110  1  0.13261803  0.31696782  0.16543775  1
  H+  H111  1  0.63590914  0.76641743  0.99836013  1
  H+  H112  1  0.03360692  0.39095412  0.67209828  1
  H+  H113  1  0.26249576  0.67763255  0.48259912  1
  H+  H114  1  0.14956914  0.23747017  0.49282534  1
  H+  H115  1  0.20866241  0.09345158  0.52125518  1
  H+  H116  1  0.09420548  0.86174990  0.16386983  1
  H+  H117  1  0.40249758  0.29072040  0.33096033  1
  H+  H118  1  0.39759415  0.87497499  0.50039165  1
  H+  H119  1  0.93032017  0.09101741  0.27027888  1
  H+  H120  1  0.41100305  0.08662789  0.56649268  1
  H+  H121  1  0.36106487  0.63297839  0.16135115  1
  H+  H122  1  0.48353095  0.11759987  0.20693330  1
  H+  H123  1  0.10914627  0.13124826  0.67818705  1
  H+  H124  1  0.38389963  0.51790565  0.33149337  1
  H+  H125  1  0.89055482  0.11566412  0.84464630  1
  H+  H126  1  0.61107226  0.23396721  0.00239636  1
  H+  H127  1  0.02318159  0.88636272  0.32940359  1
  H+  H128  1  0.86130396  0.47222275  0.33993025  1
  H+  H129  1  0.22618590  0.36798072  0.99617266  1
  H+  H130  1  0.24709470  0.84797300  0.50825191  1
  H+  H131  1  0.87495535  0.86806597  0.66348006  1
  H+  H132  1  0.58372388  0.93375969  0.33774441  1
  H+  H133  1  0.38919929  0.36877664  0.01310246  1
  H+  H134  1  0.64402408  0.14298754  0.15032988  1
  H+  H135  1  0.09048188  0.18500710  0.06859215  1
  H+  H136  1  0.36192802  0.46820765  0.68140095  1
  H+  H137  1  0.96949592  0.60676150  0.31988489  1
  H+  H138  1  0.03401746  0.13937219  0.34673514  1
  H+  H139  1  0.47817718  0.35855182  0.67008536  1
  H+  H140  1  0.46542850  0.60676586  0.66249152  1
  H+  H141  1  0.88943611  0.86265672  1.00013233  1
  H+  H142  1  0.44071913  0.98693412  0.13390274  1
  H+  H143  1  0.37978160  0.39544846  0.34326019  1
  H+  H144  1  0.12474915  0.60733395  0.32550138  1
  H+  H145  1  0.27266566  0.51633587  0.55481899  1
  H+  H146  1  0.64151594  0.27839943  0.50651565  1
  H+  H147  1  0.36306666  0.47968723  0.16187747  1
  H+  H148  1  0.93588756  0.42075550  0.64030918  1
  H+  H149  1  0.26919555  0.64034872  0.67301613  1
  H+  H150  1  0.60777400  0.61677273  0.15679145  1
  H+  H151  1  0.44617642  0.36438076  0.93227094  1
  H+  H152  1  0.39351278  1.02241406  0.66745930  1
  H+  H153  1  0.11321898  0.50673745  0.98957516  1
  H+  H154  1  0.49795443  0.12618766  0.67400876  1
  H+  H155  1  0.86076120  0.21988670  0.82468793  1
  H+  H156  1  0.61624096  0.98604516  0.49474332  1
  H+  H157  1  0.83935733  0.40360465  0.87409449  1
  H+  H158  1  0.87858214  0.89980170  0.82884711  1
  H+  H159  1  0.08723003  0.41250715  0.76669282  1
  H+  H160  1  0.22517326  0.10731897  0.66578217  1
  H+  H161  1  0.13885691  0.57186772  0.92394162  1
  H+  H162  1  0.13304647  0.61042033  0.66723363  1
  H+  H163  1  0.83160874  0.33291516  0.69273996  1
  H+  H164  1  0.36312947  0.93081694  0.31924847  1
  H+  H165  1  0.72524509  0.37087078  0.99405063  1
  H+  H166  1  0.37552980  0.72511352  0.00137710  1
  H+  H167  1  0.15303107  0.27947505  0.33152112  1
  H+  H168  1  0.60293745  0.41964876  0.43317205  1
  H+  H169  1  0.15221230  0.36698442  0.33177979  1
  H+  H170  1  0.13573488  0.11507223  1.00224638  1
  H+  H171  1  0.38420336  0.27698972  0.17597215  1
  H+  H172  1  0.86295604  0.13645300  0.00331665  1
  H+  H173  1  0.44528327  0.85175639  0.33815164  1
  H+  H174  1  0.72044489  0.59266397  0.15948246  1
  H+  H175  1  0.60437895  0.70595961  0.15745635  1
  H+  H176  1  0.89240680  0.85911254  0.33331775  1
  H+  H177  1  0.05956721  0.88507483  0.63045014  1
  H+  H178  1  0.89350101  0.13385371  0.16805132  1
  H+  H179  1  0.52913320  0.89486774  0.49696410  1
  H+  H180  1  0.86060968  0.47644111  0.00387097  1
  H+  H181  1  0.64345573  1.01349673  0.16598458  1
  H+  H182  1  0.61048390  0.13449873  0.82402513  1
  H+  H183  1  0.33284312  -0.00258878  0.17904657  1
  H+  H184  1  0.36266064  0.88056380  0.82639928  1
  H+  H185  1  0.66552810  0.82837295  0.59853716  1
  H+  H186  1  0.11090502  0.39161520  0.99849506  1
  H+  H187  1  0.76489950  0.64301034  0.82553055  1
  H+  H188  1  0.47598511  0.11926113  0.99350939  1
  H+  H189  1  0.65625086  0.66462525  0.46720161  1
  H+  H190  1  0.76867612  0.13245499  0.82570833  1
  H+  H191  1  0.68665829  0.07100065  0.22586197  1
  H+  H192  1  0.91831586  0.34527640  0.59549949  1
  H+  H193  1  0.97042674  0.85821737  0.50494411  1
  H+  H194  1  1.01734545  0.38380506  0.99622969  1
  H+  H195  1  0.59221827  0.67519458  0.28898522  1
  H+  H196  1  0.86202908  0.22495215  0.67748184  1
  H+  H197  1  0.98354804  0.35594152  0.83301987  1
  H+  H198  1  0.47598335  0.86883058  0.98732272  1
  H+  H199  1  0.87483082  0.61789882  0.83784407  1
  H+  H200  1  0.53653791  0.40188893  0.84183905  1
  H+  H201  1  0.37085909  0.60096912  0.33046394  1
  H+  H202  1  0.77750478  0.63196417  0.34365243  1
  H+  H203  1  0.13968852  0.01489793  0.66691912  1
  H+  H204  1  0.84251375  0.72667080  0.67466076  1
  H+  H205  1  0.12236296  0.74866216  0.17070540  1
  H+  H206  1  0.34963931  0.83160611  0.33353095  1
  H+  H207  1  0.12553674  0.01420070  0.31868320  1
  H+  H208  1  0.66283831  0.08906386  0.32133369  1
  H+  H209  1  0.89319055  0.27869846  0.32994837  1
  H+  H210  1  0.07211803  0.88636634  0.75807917  1
  H+  H211  1  0.25617128  0.62266964  0.34110911  1
  H+  H212  1  0.20796628  0.84031283  0.16678622  1
  H+  H213  1  0.86644851  0.97713726  0.00959167  1
  H+  H214  1  0.10894545  0.73970114  0.34106514  1
  H+  H215  1  1.01655184  0.88632812  0.99896587  1
  H+  H216  1  0.85695042  -0.02233483  0.67071114  1
  H+  H217  1  0.12975797  0.59369540  0.17246895  1
  H+  H218  1  0.03936178  0.69286136  0.39167722  1
  H+  H219  1  0.25450912  0.19448711  0.47220117  1
  H+  H220  1  0.52076694  0.89032123  0.82506724  1
  H+  H221  1  0.88653180  0.14861089  0.34555718  1
  H+  H222  1  0.38777382  0.35568587  0.67137247  1
  H+  H223  1  0.38653433  0.11958149  0.99547111  1
  H+  H224  1  0.12963292  0.11605890  0.84758549  1
  H+  H225  1  0.86191076  0.14078495  0.49653943  1
  H+  H226  1  0.34599591  0.71048242  0.34174111  1
  H+  H227  1  0.86516623  0.38433172  0.49599459  1
  H+  H228  1  0.73682740  0.36175518  0.33085611  1
  H+  H229  1  0.36614883  0.47684372  1.00515322  1
  H+  H230  1  0.59994448  0.87206308  0.14799613  1
  H+  H231  1  0.64930701  0.27203912  0.32599269  1
  H+  H232  1  0.88832833  0.76732681  0.33177588  1
  H+  H233  1  0.22992708  0.35740715  0.66689301  1
  H+  H234  1  0.24928349  0.87009974  0.66578760  1
  H+  H235  1  0.92143902  1.06405692  0.15528130  1
  H+  H236  1  0.41760120  0.29977606  0.87897415  1
  H+  H237  1  0.24043332  0.37319454  0.84228152  1
  H+  H238  1  0.11373555  -0.01387033  0.99845742  1
  H+  H239  1  0.47367795  0.60428179  0.17510244  1
  H+  H240  1  0.61750140  0.62516310  0.00877932  1
  H+  H241  1  0.62955522  0.36101597  0.84188651  1
  H+  H242  1  0.79398963  0.89068241  0.35169011  1
  H+  H243  1  0.35663074  0.63716935  0.67337375  1
  H+  H244  1  0.14376759  0.36281706  0.66347843  1
  H+  H245  1  0.97570810  0.85347565  0.83754446  1
  H+  H246  1  0.77181413  0.14138685  0.49302803  1
  H+  H247  1  0.10072596  0.46287887  0.50413635  1
  H+  H248  1  0.11585684  0.89251376  0.32922098  1
  H+  H249  1  0.19142921  0.07654375  0.84332610  1
  H+  H250  1  0.63842082  0.49214196  0.49474641  1
  H+  H251  1  0.65574829  0.27691121  0.17038101  1
  H+  H252  1  0.87752265  0.50958176  0.16561434  1
  H+  H253  1  0.63660564  0.39311158  0.49820907  1
  H+  H254  1  0.91209668  0.50409554  0.68167278  1
  H+  H255  1  0.87488245  0.52890126  0.84019410  1
  H+  H256  1  0.66553420  0.79413589  0.49168319  1
  H+  H257  1  0.56407401  0.65954441  0.73361570  1
  H+  H258  1  0.36705547  0.98068463  0.48417528  1
  H+  H259  1  0.62241702  0.61277552  0.83968558  1
  H+  H260  1  0.22582591  0.86571157  0.32398642  1
  H+  H261  1  0.23071070  0.36589290  0.50846254  1
  H+  H262  1  0.63383484  0.02314481  0.83596586  1
  H+  H263  1  0.77128580  0.38781086  0.15841948  1
  H+  H264  1  0.24754989  0.16923211  0.18279136  1
  H+  H265  1  0.38898089  0.48884627  0.82789457  1
  H+  H266  1  0.09858605  -0.04873129  0.16212364  1
  H+  H267  1  0.31939253  0.17875271  0.82563991  1
  H+  H268  1  0.88162401  0.60602262  0.32519841  1
  H+  H269  1  0.61532500  0.97446503  0.67076931  1
  H+  H270  1  0.63509785  0.11243582  0.66362918  1
  H+  H271  1  0.13497553  0.76789413  0.84247517  1
  H+  H272  1  0.63948018  0.59812352  0.32754426  1
  H+  H273  1  0.49923190  0.38136184  0.13373480  1
  H+  H274  1  0.62418578  0.60551044  0.65601075  1
  H+  H275  1  0.89887953  0.64916554  0.65640782  1
  H+  H276  1  0.10664606  0.72390903  1.00687183  1
  H+  H277  1  0.09799502  -0.03736357  0.49503174  1
  H+  H278  1  0.11306535  0.22223225  0.67365365  1
  H+  H279  1  0.11474910  0.88942436  -0.00512467  1
  H+  H280  1  0.11978401  0.38701419  0.82750222  1
  H+  H281  1  0.45649206  0.60211265  0.89008370  1
  H+  H282  1  0.36608676  0.22130910  0.67549985  1
  H+  H283  1  0.38717751  0.11250462  0.66584185  1
  H+  H284  1  0.03457368  0.65966412  0.67264434  1
  H+  H285  1  0.39296100  0.65615980  0.81755451  1
  H+  H286  1  0.11713378  0.60501346  0.50942026  1
  H+  H287  1  0.37382003  0.11454874  0.51127383  1
  H+  H288  1  0.61461336  0.14626603  -0.00321865  1
  H+  H289  1  0.66731140  0.58199493  0.56043837  1
  H+  H290  1  0.60899973  0.17533711  0.09478969  1
  H+  H291  1  0.10267615  0.64779648  0.44625492  1
  H+  H292  1  0.16178664  0.08669499  0.93977183  1
  H+  H293  1  0.40476794  0.81953064  0.23396227  1
  H+  H294  1  0.33991747  0.92175567  0.06101464  1
  H+  H295  1  0.32997877  0.60080288  0.51735483  1
  H+  H296  1  0.92159573  0.08593227  0.93855609  1
  H+  H297  1  0.16403207  0.83329937  0.93348594  1
  H+  H298  1  0.63709744  0.81134905  0.90279396  1
  H+  H299  1  0.58385329  0.91590160  0.76744670  1
  H+  H300  1  0.07754118  0.66754429  0.76879245  1
  H+  H301  1  0.91292367  0.83163118  0.56690448  1
  H+  H302  1  0.15398331  0.56995875  0.60713318  1
  H+  H303  1  0.34782859  0.92198968  0.73673772  1
  H+  H304  1  0.32356263  0.03997115  0.24009600  1
  H+  H305  1  0.85344685  0.92693414  0.40976153  1
  H+  H306  1  0.84424383  0.17222186  0.40180852  1
  H+  H307  1  0.91108493  0.32976493  0.92707772  1
  H+  H308  1  0.83252059  0.91591052  0.06805470  1
  H+  H309  1  0.28535169  0.38749174  0.34425328  1
  H+  H310  1  0.83485778  0.41492492  0.43692640  1
  H+  H311  1  0.34844011  0.66531020  0.05950717  1
  H+  H312  1  0.90996115  0.33809892  0.23417775  1
  H+  H313  1  0.67766540  0.33353785  0.23053369  1
  H+  H314  1  0.07393095  0.65263256  0.10066426  1
  H+  H315  1  0.41991697  0.83815625  0.59891458  1
  H+  H316  1  0.75381155  0.37820102  0.84042080  1
  H+  H317  1  0.43565107  0.34832633  0.26987044  1
  H+  H318  1  0.63868512  0.82455975  0.21972496  1
  H+  H319  1  0.58362080  0.42112995  0.77577528  1
  H+  H320  1  0.55914161  0.92789714  0.40801161  1
  H+  H321  1  0.34676138  0.67773015  0.76426241  1
  H+  H322  1  0.32518452  0.16735178  0.10336546  1
  H+  H323  1  0.57158393  0.15289774  0.43347887  1
  H+  H324  1  0.66411678  0.08494196  0.89479241  1
  H+  H325  1  0.15005961  0.51486775  0.17799203  1
  H+  H326  1  0.86159763  0.38849418  0.15960748  1
  H+  H327  1  0.08481777  0.17194510  0.77037072  1
  H+  H328  1  0.41292380  0.33117823  0.57509128  1
  H+  H329  1  0.08251561  0.41273913  0.40229443  1
  H+  H330  1  0.07237847  0.91517834  0.43099289  1
  H+  H331  1  0.86697856  0.38559287  0.34211814  1
  H+  H332  1  0.32813158  0.15117079  0.73049040  1
  H+  H333  1  0.57717372  0.91651932  0.05914609  1
  H+  H334  1  0.26946936  0.40103920  0.15685287  1
  H+  H335  1  0.17271282  0.10389605  0.26838503  1
  H+  H336  1  0.10670887  0.17122115  0.40252532  1
  H+  H337  1  0.81787073  0.66569339  0.73296963  1
  H+  H338  1  0.33242939  0.42423917  0.06852377  1
  H+  H339  1  0.73532292  0.36365537  0.51026618  1
  H+  H340  1  0.65504329  0.32813318  0.90226877  1
  H+  H341  1  0.95943288  0.84563487  0.17529141  1
  H+  H342  1  0.31581887  0.66503362  0.42989107  1
  H+  H343  1  0.91648912  0.09460943  0.56608648  1
  H+  H344  1  0.41720288  0.83537271  0.89452147  1
  H+  H345  1  0.16112967  0.82590372  0.26526886  1
  H+  H346  1  0.54625002  0.02939051  0.35950587  1
  H+  H347  1  0.72556040  0.11485337  0.98856690  1
  H+  H348  1  0.97923456  0.11678529  0.99885669  1
  H+  H349  1  0.50637934  0.64012233  0.32686246  1
  H+  H350  1  0.91999590  0.83083495  0.89941927  1
  H+  H351  1  0.33150060  0.19563873  0.40362180  1
  H+  H352  1  0.87452582  0.63870182  0.49516250  1
  H+  H353  1  0.57266640  0.16475989  0.73904175  1
  H+  H354  1  0.83799475  0.66262672  0.40329240  1
  H+  H355  1  0.15719364  0.57777731  0.26669237  1
  H+  H356  1  0.98906100  0.60967731  0.50695198  1
  H+  H357  1  0.90150420  0.81714534  0.23500995  1
  H+  H358  1  0.34075855  0.42146450  0.43708008  1
  H+  H359  1  0.11545583  0.60475502  -0.00837162  1
  H+  H360  1  0.14996545  0.06493708  0.57998054  1
  H+  H361  1  0.22561437  0.85646502  0.84025744  1
  H+  H362  1  0.89318336  0.77425689  1.00199970  1
  H+  H363  1  0.62730636  0.69764319  0.40993461  1
  H+  H364  1  0.90633410  0.57000847  0.22654123  1
  H+  H365  1  0.98098698  0.36766191  0.32904865  1
  H+  H366  1  0.17264788  0.33953778  0.93424696  1
  H+  H367  1  0.83112210  0.41578454  0.06304461  1
  H+  H368  1  0.39179830  0.57141293  0.61000192  1
  H+  H369  1  0.97399483  0.35712273  0.50724030  1
  H+  H370  1  0.91195105  0.58696994  0.93268573  1
  H+  H371  1  0.84052457  0.17438437  0.09476116  1
  H+  H372  1  0.66617974  0.32689476  0.60854948  1
  H+  H373  1  0.66516335  0.09090527  0.56686381  1
  H+  H374  1  0.34008056  0.41124008  0.74145617  1
  H+  H375  1  0.84615376  0.93019699  0.77190813  1
  H+  H376  1  0.88016474  0.36068680  0.98667721  1
  H+  H377  1  0.84202469  0.66401277  0.07146255  1
  H+  H378  1  0.87070607  0.89282234  0.49786160  1
  H+  H379  1  0.79997891  0.35504089  0.75376898  1
  H+  H380  1  0.33934619  0.92240723  0.42299120  1
  H+  H381  1  0.93475249  0.62448007  0.59756166  1
  H+  H382  1  0.13098521  0.73265727  0.67932389  1
  H+  H383  1  0.41296525  0.08095984  0.90243792  1
  O2-  O384  1  0.09472475  0.21058022  0.14748982  1
  O2-  O385  1  0.14821255  0.18875281  0.46958499  1
  O2-  O386  1  0.08966605  0.17817329  0.81561059  1
  O2-  O387  1  0.13383429  0.42211504  0.14971679  1
  O2-  O388  1  0.07279246  0.40426847  0.48213302  1
  O2-  O389  1  0.08225833  0.40971161  0.81223072  1
  O2-  O390  1  0.07427092  0.64982735  0.14602243  1
  O2-  O391  1  0.09763013  0.64812354  0.49052492  1
  O2-  O392  1  0.07509853  0.66599893  0.81460504  1
  O2-  O393  1  0.06141213  0.89086585  0.15232288  1
  O2-  O394  1  0.06495950  0.90544484  0.47518535  1
  O2-  O395  1  0.06993681  0.89106180  0.80230433  1
  O2-  O396  1  0.32311294  0.16904936  0.14891378  1
  O2-  O397  1  0.30198970  0.18322385  0.48228602  1
  O2-  O398  1  0.30821672  0.12603671  0.80533851  1
  O2-  O399  1  0.32996515  0.41937665  0.14552957  1
  O2-  O400  1  0.33470201  0.41897140  0.48266900  1
  O2-  O401  1  0.35350856  0.42578735  0.82097185  1
  O2-  O402  1  0.33282683  0.66499382  0.14573764  1
  O2-  O403  1  0.31567938  0.67657951  0.47559620  1
  O2-  O404  1  0.35707888  0.68202523  0.80884256  1
  O2-  O405  1  0.38153088  0.94023940  0.13814353  1
  O2-  O406  1  0.34727484  0.92217386  0.46870170  1
  O2-  O407  1  0.33065835  0.91019827  0.81089896  1
  O2-  O408  1  0.61859490  0.17878124  0.13928325  1
  O2-  O409  1  0.57601791  0.17083044  0.47637745  1
  O2-  O410  1  0.57802817  0.16364704  0.80906386  1
  O2-  O411  1  0.53668785  0.40132420  0.09730724  1
  O2-  O412  1  0.60984471  0.42694449  0.47978629  1
  O2-  O413  1  0.59257926  0.42306753  0.82066360  1
  O2-  O414  1  0.57341715  0.64470829  0.14425174  1
  O2-  O415  1  0.66558447  0.71651773  0.44543459  1
  O2-  O416  1  0.54357013  0.64813940  0.82081840  1
  O2-  O417  1  0.57367246  0.90817143  0.13813771  1
  O2-  O418  1  0.58772700  0.92620613  0.47787970  1
  O2-  O419  1  0.58315589  0.91934459  0.81267364  1
  O2-  O420  1  0.84178316  0.17346969  0.14038467  1
  O2-  O421  1  0.83251060  0.17219480  0.47887596  1
  O2-  O422  1  0.82898498  0.15935787  0.80970907  1
  O2-  O423  1  0.83194750  0.41835661  0.14017758  1
  O2-  O424  1  0.83421033  0.41522603  0.48250745  1
  O2-  O425  1  0.81919903  0.40856179  0.83387152  1
  O2-  O426  1  0.82826933  0.64968690  0.14284149  1
  O2-  O427  1  0.83875756  0.66417475  0.48113548  1
  O2-  O428  1  0.82572195  0.66798857  0.81004188  1
  O2-  O429  1  0.81893030  0.89875281  0.15333020  1
  O2-  O430  1  0.84729824  0.92865103  0.48026808  1
  O2-  O431  1  0.85630419  0.93806630  0.81609968  1
  O2-  O432  1  0.20338117  0.17259557  0.21095874  1
  O2-  O433  1  0.14791651  0.06054000  0.53437079  1
  O2-  O434  1  0.14849960  0.07945467  0.86911219  1
  O2-  O435  1  0.16769162  0.37846327  0.17948856  1
  O2-  O436  1  0.16999006  0.33300822  0.52355362  1
  O2-  O437  1  0.17905788  0.34399279  0.85479699  1
  O2-  O438  1  0.16731529  0.57502530  0.19246961  1
  O2-  O439  1  0.14498055  0.55159639  0.53738323  1
  O2-  O440  1  0.13971322  0.57085250  0.86074580  1
  O2-  O441  1  0.15117022  0.81071933  0.18539010  1
  O2-  O442  1  0.19697881  0.81275743  0.53442277  1
  O2-  O443  1  0.16640154  0.82873268  0.85775597  1
  O2-  O444  1  0.30299793  0.02537969  0.19735775  1
  O2-  O445  1  0.41035094  0.09012532  0.52152632  1
  O2-  O446  1  0.41032815  0.07595218  0.85669316  1
  O2-  O447  1  0.41309269  0.33739395  0.19072289  1
  O2-  O448  1  0.41048099  0.33022976  0.52995258  1
  O2-  O449  1  0.44379450  0.36124899  0.88598853  1
  O2-  O450  1  0.41279530  0.57972507  0.18903757  1
  O2-  O451  1  0.33130261  0.55368470  0.54063684  1
  O2-  O452  1  0.45389466  0.60232091  0.84360566  1
  O2-  O453  1  0.41116172  0.82309386  0.18915503  1
  O2-  O454  1  0.42529353  0.84351307  0.51915367  1
  O2-  O455  1  0.41889095  0.83812110  0.84892635  1
  O2-  O456  1  0.68143291  0.07331107  0.18060169  1
  O2-  O457  1  0.66443541  0.09066434  0.52137771  1
  O2-  O458  1  0.66335451  0.08528181  0.84902504  1
  O2-  O459  1  0.67880183  0.33695377  0.18590418  1
  O2-  O460  1  0.67378342  0.33648250  0.52537117  1
  O2-  O461  1  0.65524025  0.32507959  0.85651164  1
  O2-  O462  1  0.65865206  0.56250997  0.17214326  1
  O2-  O463  1  0.67437997  0.57973384  0.51518762  1
  O2-  O464  1  0.66574151  0.59676173  0.85066729  1
  O2-  O465  1  0.64558935  0.81315468  0.17631067  1
  O2-  O466  1  0.68022803  0.84613358  0.51686695  1
  O2-  O467  1  0.62266245  0.79995317  0.85882937  1
  O2-  O468  1  0.92774159  0.10635420  0.18558648  1
  O2-  O469  1  0.91601675  0.09863336  0.52100518  1
  O2-  O470  1  0.92671565  0.09303298  0.86117090  1
  O2-  O471  1  0.90750010  0.34118670  0.18928359  1
  O2-  O472  1  0.91336074  0.33123548  0.52388681  1
  O2-  O473  1  0.92083301  0.32568667  0.84637493  1
  O2-  O474  1  0.90953050  0.57232002  0.18141860  1
  O2-  O475  1  0.92749531  0.58751416  0.51808284  1
  O2-  O476  1  0.90739227  0.58935903  0.85371660  1
  O2-  O477  1  0.89789973  0.81553048  0.18957929  1
  O2-  O478  1  0.90944753  0.82846512  0.52182787  1
  O2-  O479  1  0.91600272  0.82957229  0.85457277  1
  O2-  O480  1  0.15634312  0.08056105  0.31118862  1
  O2-  O481  1  0.16269140  0.07656583  0.65598068  1
  O2-  O482  1  0.16432535  0.08325523  0.98618066  1
  O2-  O483  1  0.18688092  0.34042467  0.31960893  1
  O2-  O484  1  0.17123212  0.32971153  0.64846008  1
  O2-  O485  1  0.16644800  0.33687218  0.97946717  1
  O2-  O486  1  0.15631001  0.57852655  0.31293215  1
  O2-  O487  1  0.16305728  0.57903008  0.65352800  1
  O2-  O488  1  0.14133876  0.57147193  0.97295543  1
  O2-  O489  1  0.16211641  0.83334665  0.31017480  1
  O2-  O490  1  0.18963187  0.83572318  0.64966257  1
  O2-  O491  1  0.16019215  0.83659832  0.97929075  1
  O2-  O492  1  0.35258830  0.06782245  0.31696823  1
  O2-  O493  1  0.42279712  0.08518076  0.65182112  1
  O2-  O494  1  0.41472924  0.08773711  0.97902427  1
  O2-  O495  1  0.44089396  0.35184752  0.31519249  1
  O2-  O496  1  0.41723502  0.32450782  0.65594803  1
  O2-  O497  1  0.42608645  0.34234455  1.00473005  1
  O2-  O498  1  0.40753684  0.57810075  0.31432713  1
  O2-  O499  1  0.40208813  0.57259914  0.65431310  1
  O2-  O500  1  0.43130296  0.58240294  0.96554223  1
  O2-  O501  1  0.38861430  0.81116403  0.31872573  1
  O2-  O502  1  0.42119743  0.83758359  0.64431382  1
  O2-  O503  1  0.41559590  0.83614049  0.97207026  1
  O2-  O504  1  0.69848464  0.06769405  0.30306958  1
  O2-  O505  1  0.66583404  0.08514863  0.64583284  1
  O2-  O506  1  0.66540392  0.08769512  0.97250169  1
  O2-  O507  1  0.67501185  0.33277990  0.31582136  1
  O2-  O508  1  0.65528163  0.31984985  0.65322218  1
  O2-  O509  1  0.66448276  0.34333290  0.97866725  1
  O2-  O510  1  0.67308320  0.57258244  0.31307124  1
  O2-  O511  1  0.65576146  0.57726712  0.64000354  1
  O2-  O512  1  0.66958947  0.55557791  1.00192009  1
  O2-  O513  1  0.61682186  0.84691076  0.29374180  1
  O2-  O514  1  0.66230128  0.82492280  0.64381728  1
  O2-  O515  1  0.66000918  0.82616124  0.98242784  1
  O2-  O516  1  0.93323969  0.08967368  0.31526167  1
  O2-  O517  1  0.91402854  0.08226199  0.64655444  1
  O2-  O518  1  0.91847041  0.08357955  0.98435110  1
  O2-  O519  1  0.91933201  0.33953802  0.31587386  1
  O2-  O520  1  0.92478626  0.36164451  0.64076224  1
  O2-  O521  1  0.90925601  0.32875081  0.97228929  1
  O2-  O522  1  0.90846239  0.57354445  0.30733679  1
  O2-  O523  1  0.95124763  0.65505082  0.63689715  1
  O2-  O524  1  0.91573366  0.58303566  0.97790720  1
  O2-  O525  1  0.91706081  0.82641128  0.31342169  1
  O2-  O526  1  0.90409042  0.83416295  0.65015129  1
  O2-  O527  1  0.92273492  0.83478502  0.98579003  1
  O2-  O528  1  0.08774441  0.17424790  0.02396160  1
  O2-  O529  1  0.09634519  0.16548842  0.35690256  1
  O2-  O530  1  0.07911311  0.16285649  0.69061481  1
  O2-  O531  1  0.07807910  0.42115275  0.00884065  1
  O2-  O532  1  0.08437971  0.41217183  0.35681590  1
  O2-  O533  1  0.09210908  0.41728836  0.68939178  1
  O2-  O534  1  0.07644462  0.66312274  0.02078857  1
  O2-  O535  1  0.07100592  0.68099572  0.36067294  1
  O2-  O536  1  0.09026323  0.67247842  0.69272183  1
  O2-  O537  1  0.08253540  0.92074182  0.00848567  1
  O2-  O538  1  0.08487517  0.92396656  0.34155896  1
  O2-  O539  1  0.09433567  0.90400922  0.66730995  1
  O2-  O540  1  0.33449455  0.17031090  0.02585594  1
  O2-  O541  1  0.33646486  0.20081924  0.35868801  1
  O2-  O542  1  0.33496659  0.15767308  0.68522474  1
  O2-  O543  1  0.33195555  0.41837379  0.02300249  1
  O2-  O544  1  0.34658815  0.42196120  0.35999790  1
  O2-  O545  1  0.33475562  0.40745605  0.69617869  1
  O2-  O546  1  0.35782430  0.66621561  0.01527321  1
  O2-  O547  1  0.31598389  0.65028945  0.35844803  1
  O2-  O548  1  0.33165479  0.67395700  0.68432788  1
  O2-  O549  1  0.32855333  0.91951140  0.01665492  1
  O2-  O550  1  0.31810729  0.91612202  0.34940742  1
  O2-  O551  1  0.35362934  0.92931158  0.69096083  1
  O2-  O552  1  0.58198297  0.17246613  0.01467786  1
  O2-  O553  1  0.56546493  0.09238220  0.35508861  1
  O2-  O554  1  0.56820265  0.16306906  0.69183368  1
  O2-  O555  1  0.64077658  0.48819450  -0.03143084  1
  O2-  O556  1  0.59568307  0.41340138  0.36263320  1
  O2-  O557  1  0.58345368  0.41893914  0.69560548  1
  O2-  O558  1  0.58896070  0.65762038  0.02121247  1
  O2-  O559  1  0.57175006  0.68086989  0.32883726  1
  O2-  O560  1  0.56901709  0.65933622  0.68871615  1
  O2-  O561  1  0.58125836  0.91983720  0.01379145  1
  O2-  O562  1  0.53966778  0.93185016  0.36521258  1
  O2-  O563  1  0.58669888  0.91421316  0.68571580  1
  O2-  O564  1  0.83012280  0.16521575  0.01661397  1
  O2-  O565  1  0.85047803  0.17431047  0.35628753  1
  O2-  O566  1  0.82893859  0.16462091  0.68947035  1
  O2-  O567  1  0.82949402  0.41490160  0.01704711  1
  O2-  O568  1  0.83305356  0.41301690  0.35768227  1
  O2-  O569  1  0.78007779  0.31870341  0.71722196  1
  O2-  O570  1  0.84561190  0.67077569  0.02531663  1
  O2-  O571  1  0.83853444  0.66325555  0.35753404  1
  O2-  O572  1  0.81435390  0.66521005  0.68723431  1
  O2-  O573  1  0.83580453  0.91554991  0.02322794  1
  O2-  O574  1  0.85435994  0.92453896  0.36275544  1
  O2-  O575  1  0.82856862  0.91755654  0.68703608  1
