# generated using pymatgen
data_H2O
_symmetry_space_group_name_H-M   'P 1'
_cell_length_a   17.98734123
_cell_length_b   17.98920456
_cell_length_c   22.00046172
_cell_angle_alpha   89.99075409
_cell_angle_beta   89.99119467
_cell_angle_gamma   120.00026959
_symmetry_Int_Tables_number   1
_chemical_formula_structural   H2O
_chemical_formula_sum   'H384 O192'
_cell_volume   6165.10048549
_cell_formula_units_Z   192
loop_
 _symmetry_equiv_pos_site_id
 _symmetry_equiv_pos_as_xyz
  1  'x, y, z'
loop_
 _atom_type_symbol
 _atom_type_oxidation_number
  H+  1.0
  O2-  -2.0
loop_
 _atom_site_type_symbol
 _atom_site_label
 _atom_site_symmetry_multiplicity
 _atom_site_fract_x
 _atom_site_fract_y
 _atom_site_fract_z
 _atom_site_occupancy
  H+  H0  1  0.63942959  0.36358239  0.83152923  1
  H+  H1  1  0.10019727  0.59944680  0.16747451  1
  H+  H2  1  0.62494704  0.64531944  0.33385467  1
  H+  H3  1  0.64964017  0.40175024  0.98835737  1
  H+  H4  1  0.22295625  0.35353714  1.04403270  1
  H+  H5  1  0.60751816  0.47210526  0.16556208  1
  H+  H6  1  0.14636221  0.35854856  0.01622721  1
  H+  H7  1  0.91644318  0.27683629  0.99465824  1
  H+  H8  1  0.02329682  0.13103255  0.49242962  1
  H+  H9  1  0.34567033  0.13707936  0.16239754  1
  H+  H10  1  0.24959530  0.59181343  0.06993886  1
  H+  H11  1  0.74840205  0.89207698  0.66054823  1
  H+  H12  1  0.62008183  0.48057030  0.82456570  1
  H+  H13  1  0.10635541  0.99799620  0.15464178  1
  H+  H14  1  0.08002982  0.95349038  0.66645666  1
  H+  H15  1  0.60816755  0.14450840  0.48616818  1
  H+  H16  1  0.91726823  0.56773245  0.25247350  1
  H+  H17  1  0.28326953  0.14636323  0.83732013  1
  H+  H18  1  0.85397790  0.38819142  0.48538565  1
  H+  H19  1  0.38808266  0.11169649  0.84494880  1
  H+  H20  1  0.89703055  0.62521547  0.98464442  1
  H+  H21  1  0.41728677  0.76812237  0.15917688  1
  H+  H22  1  0.14423533  0.23447013  0.66397045  1
  H+  H23  1  0.01441373  0.64890081  0.14441636  1
  H+  H24  1  0.78970812  0.88255466  0.82871703  1
  H+  H25  1  0.61663524  0.73292369  0.50802001  1
  H+  H26  1  0.63784991  0.27395795  0.83767858  1
  H+  H27  1  0.60438256  0.38228840  0.16080976  1
  H+  H28  1  0.43353041  0.95966032  0.78536374  1
  H+  H29  1  0.35830105  -0.01120545  0.32879190  1
  H+  H30  1  0.17373024  0.32256544  0.56186463  1
  H+  H31  1  0.38750640  0.34690376  0.83812550  1
  H+  H32  1  0.13256008  0.73620556  0.66880536  1
  H+  H33  1  0.13481905  1.10711034  0.49972637  1
  H+  H34  1  0.91632768  0.02649774  0.66695710  1
  H+  H35  1  0.10832783  0.73723492  -0.00663522  1
  H+  H36  1  0.39066037  0.27681568  -0.00754233  1
  H+  H37  1  0.76623217  0.37327353  0.67753395  1
  H+  H38  1  0.35952913  0.65603051  0.83471358  1
  H+  H39  1  0.02418807  0.87952381  0.82128687  1
  H+  H40  1  0.52862745  0.88838371  0.33717423  1
  H+  H41  1  0.12591739  0.10727365  0.32148111  1
  H+  H42  1  0.11092486  0.98307640  0.32538016  1
  H+  H43  1  0.62498613  0.49050335  0.48794579  1
  H+  H44  1  0.65747381  0.87976863  0.17560642  1
  H+  H45  1  0.27052150  0.38509920  0.49061639  1
  H+  H46  1  0.33528748  0.72624952  0.82859101  1
  H+  H47  1  0.62709464  0.36632489  0.65720642  1
  H+  H48  1  0.11536707  0.13622937  0.68861193  1
  H+  H49  1  0.64029999  0.03413643  0.49214254  1
  H+  H50  1  0.10451336  0.20707304  0.33902424  1
  H+  H51  1  0.93629912  0.87979357  0.67690410  1
  H+  H52  1  0.51796571  0.59467727  0.81005505  1
  H+  H53  1  0.46607335  0.11035048  0.17665694  1
  H+  H54  1  0.29146725  0.39861085  -0.02690386  1
  H+  H55  1  0.66753688  0.57766162  0.27263603  1
  H+  H56  1  0.64289466  0.86725165  0.32077551  1
  H+  H57  1  -0.01838715  0.85963545  0.49307986  1
  H+  H58  1  0.01675074  0.64362889  -0.00715962  1
  H+  H59  1  0.47341515  0.11483860  0.32565133  1
  H+  H60  1  0.37245749  0.38603178  0.67527400  1
  H+  H61  1  0.10264365  0.73259128  0.32539032  1
  H+  H62  1  0.28172777  0.63796523  0.50042195  1
  H+  H63  1  0.98605881  0.10395550  0.84778216  1
  H+  H64  1  0.64746430  0.76605664  0.83592575  1
  H+  H65  1  0.40058100  0.88075382  0.65961511  1
  H+  H66  1  0.61821219  0.39931833  0.49264405  1
  H+  H67  1  0.13397523  0.10811717  1.00057928  1
  H+  H68  1  0.48408734  0.59903229  0.66218796  1
  H+  H69  1  0.64504949  0.62535580  -0.00173532  1
  H+  H70  1  0.78378072  0.15044035  0.82823201  1
  H+  H71  1  0.78466110  0.41986528  0.99641186  1
  H+  H72  1  0.64163037  0.61324706  0.17944846  1
  H+  H73  1  0.04710047  0.38934200  1.01448572  1
  H+  H74  1  0.38399404  0.51931281  0.50869313  1
  H+  H75  1  0.12191046  0.22082270  1.02481843  1
  H+  H76  1  0.63320665  0.73599630  0.16650821  1
  H+  H77  1  0.66163203  0.15587338  0.15700529  1
  H+  H78  1  0.83154008  0.40906950  0.73298353  1
  H+  H79  1  -0.00242818  0.59518400  0.66724222  1
  H+  H80  1  0.86367790  0.12594509  0.33318228  1
  H+  H81  1  0.09267442  0.45730117  0.17539187  1
  H+  H82  1  0.46890278  0.36110985  0.18151066  1
  H+  H83  1  0.89335115  0.36736986  0.84268281  1
  H+  H84  1  0.68744892  0.86661024  0.60179928  1
  H+  H85  1  0.39935510  0.27955875  0.66993389  1
  H+  H86  1  0.63362723  0.27173604  0.17070499  1
  H+  H87  1  0.28072563  0.13179415  0.48440713  1
  H+  H88  1  0.72638896  0.62092605  0.66275501  1
  H+  H89  1  0.43891179  0.65423742  0.18395988  1
  H+  H90  1  0.53021115  0.64224804  0.50877563  1
  H+  H91  1  0.86414703  0.47607017  0.82449877  1
  H+  H92  1  0.39018712  0.78908277  0.33624895  1
  H+  H93  1  0.63897201  0.52109232  0.33268507  1
  H+  H94  1  0.89855206  0.02740048  1.00771672  1
  H+  H95  1  0.39006048  0.25839417  0.33350156  1
  H+  H96  1  0.10734419  0.13608524  0.11386825  1
  H+  H97  1  0.61220186  0.62469247  0.83213687  1
  H+  H98  1  0.38614544  0.61016304  0.51278601  1
  H+  H99  1  0.12625735  0.78691109  0.15246481  1
  H+  H100  1  0.37750028  0.11682027  0.66755359  1
  H+  H101  1  0.11565147  0.63254197  -0.01982763  1
  H+  H102  1  0.24146971  0.07407776  0.63188366  1
  H+  H103  1  0.86340248  0.75023951  0.15818745  1
  H+  H104  1  0.72374879  0.36287554  0.50724873  1
  H+  H105  1  0.53147229  0.39143164  0.82281589  1
  H+  H106  1  0.89250175  0.11317635  1.00318760  1
  H+  H107  1  0.38756311  0.12111362  0.99976495  1
  H+  H108  1  0.64566228  0.91815608  0.67511474  1
  H+  H109  1  0.41091926  0.32308080  0.60438171  1
  H+  H110  1  0.27553811  0.13257428  0.34365012  1
  H+  H111  1  0.15535067  0.53797824  0.66715238  1
  H+  H112  1  0.12003063  0.88888924  0.47542725  1
  H+  H113  1  0.38003828  0.22780263  0.83353617  1
  H+  H114  1  0.21894686  0.86885867  0.30476115  1
  H+  H115  1  0.27658810  0.36760576  0.66313741  1
  H+  H116  1  0.37216779  0.72876678  0.50016021  1
  H+  H117  1  0.52858859  0.38129504  0.34255637  1
  H+  H118  1  0.83523172  0.62142828  0.66800346  1
  H+  H119  1  0.10877468  0.89246215  0.32235964  1
  H+  H120  1  0.22685085  0.33924533  0.33064058  1
  H+  H121  1  0.86908267  0.07236752  0.52782064  1
  H+  H122  1  0.39807701  0.87057984  0.51454857  1
  H+  H123  1  0.88230752  0.28368443  0.48786995  1
  H+  H124  1  0.60022680  0.14492467  0.66001161  1
  H+  H125  1  0.77631646  0.89056833  0.33719071  1
  H+  H126  1  0.38039003  0.12339780  0.49638997  1
  H+  H127  1  0.86915451  0.33866304  0.65479464  1
  H+  H128  1  0.53288272  0.89530187  0.49142040  1
  H+  H129  1  0.25504005  0.28484277  0.79394943  1
  H+  H130  1  0.68744718  0.87625046  0.98421962  1
  H+  H131  1  0.26509396  0.89205797  0.66505604  1
  H+  H132  1  0.84711425  0.20082703  0.67023966  1
  H+  H133  1  0.88044852  0.52403019  0.49343714  1
  H+  H134  1  0.48250598  0.89882753  1.01087701  1
  H+  H135  1  0.61860876  0.26551535  0.65600169  1
  H+  H136  1  0.89728529  0.86116969  0.84486542  1
  H+  H137  1  0.77688650  0.64835546  0.33893042  1
  H+  H138  1  0.43054988  0.33305896  0.89846009  1
  H+  H139  1  0.97469581  0.61644297  0.83085881  1
  H+  H140  1  0.11296670  0.88329279  0.81308344  1
  H+  H141  1  0.72612500  0.60721727  0.17940159  1
  H+  H142  1  0.30165339  0.75525826  0.20877625  1
  H+  H143  1  0.63647342  0.10949910  0.83767802  1
  H+  H144  1  0.87273719  0.72977241  0.48937692  1
  H+  H145  1  0.64564786  0.53799489  0.99954131  1
  H+  H146  1  0.37750489  0.74247064  0.67544816  1
  H+  H147  1  0.65091557  0.85637847  0.84017554  1
  H+  H148  1  0.35549734  0.98404905  0.17313295  1
  H+  H149  1  0.65918473  0.33122080  0.59075683  1
  H+  H150  1  0.82831757  0.12150649  0.17192486  1
  H+  H151  1  0.37634259  0.99686173  0.49917864  1
  H+  H152  1  0.64746837  0.87612219  0.50617992  1
  H+  H153  1  0.23307240  0.27519240  0.60704048  1
  H+  H154  1  0.93323538  0.79611577  0.00046461  1
  H+  H155  1  0.35849187  0.53015355  0.81431721  1
  H+  H156  1  0.01823586  0.38522113  0.83121985  1
  H+  H157  1  0.76653242  0.38970128  0.15371852  1
  H+  H158  1  0.97915432  0.87849628  0.17647406  1
  H+  H159  1  0.71879333  0.09983435  0.31875076  1
  H+  H160  1  0.18653551  0.59140559  0.98532885  1
  H+  H161  1  0.61899565  0.73033725  0.01489321  1
  H+  H162  1  0.07621401  0.67348911  0.38700321  1
  H+  H163  1  0.09945576  0.47894541  0.35435674  1
  H+  H164  1  0.14938388  0.65107955  0.32038382  1
  H+  H165  1  0.22706365  0.85916812  0.83839306  1
  H+  H166  1  0.33869973  0.88043335  0.17814326  1
  H+  H167  1  0.38229588  0.94044167  0.44579225  1
  H+  H168  1  0.15591916  0.14022599  0.84493673  1
  H+  H169  1  0.14291007  0.48238219  0.35929354  1
  H+  H170  1  0.40174133  0.80525110  1.01168197  1
  H+  H171  1  0.10611741  0.63664400  0.82266610  1
  H+  H172  1  0.61700827  0.97621915  0.33510544  1
  H+  H173  1  0.15367614  0.52748158  0.51299283  1
  H+  H174  1  0.28476452  0.66843169  0.34527582  1
  H+  H175  1  0.39104821  0.02394192  0.84822133  1
  H+  H176  1  0.85984468  0.46351547  0.32780185  1
  H+  H177  1  0.51221891  0.14531716  0.67018679  1
  H+  H178  1  0.86974575  -0.03720221  0.49311444  1
  H+  H179  1  0.85296960  0.38575574  0.15184020  1
  H+  H180  1  0.88754555  0.03426903  0.32512290  1
  H+  H181  1  0.85231635  0.37192066  0.33216142  1
  H+  H182  1  0.60264652  0.95562814  0.12760302  1
  H+  H183  1  0.37210743  0.59904871  1.00901190  1
  H+  H184  1  0.72283117  0.35595357  0.31969313  1
  H+  H185  1  0.64825234  0.77951312  0.31789066  1
  H+  H186  1  0.38191009  0.11563599  0.32940880  1
  H+  H187  1  0.52367660  0.13531236  0.82689733  1
  H+  H188  1  0.84694767  0.50122784  0.64627000  1
  H+  H189  1  0.08731206  0.32465436  0.34645954  1
  H+  H190  1  0.01551121  0.63902066  0.47664766  1
  H+  H191  1  0.64104624  0.12875206  0.99276243  1
  H+  H192  1  0.38794371  0.87694724  0.32849207  1
  H+  H193  1  0.13434231  0.27031061  0.50043367  1
  H+  H194  1  0.85825042  0.63273849  0.82799272  1
  H+  H195  1  0.36509238  0.25092025  0.51255746  1
  H+  H196  1  0.89971868  0.89755285  1.01793993  1
  H+  H197  1  0.73234049  0.86789556  0.50591634  1
  H+  H198  1  0.24604945  0.62597271  0.66199708  1
  H+  H199  1  0.51803884  0.14423136  0.49080380  1
  H+  H200  1  0.86469099  0.89027451  0.33675460  1
  H+  H201  1  0.60638052  0.92154793  0.03630997  1
  H+  H202  1  0.12676039  0.33127957  0.18040041  1
  H+  H203  1  0.87152055  0.16240381  0.47241253  1
  H+  H204  1  0.77624876  0.38606495  0.82668829  1
  H+  H205  1  0.87347183  0.60705479  0.16140945  1
  H+  H206  1  0.64439218  0.99410216  0.19086649  1
  H+  H207  1  0.87907041  0.52147031  0.15653297  1
  H+  H208  1  0.60146063  0.91844946  0.77327156  1
  H+  H209  1  0.12535727  0.39457776  0.67868619  1
  H+  H210  1  0.21129252  0.60532720  0.83521921  1
  H+  H211  1  0.16657868  0.57302502  0.31737683  1
  H+  H212  1  0.54451118  0.64730614  0.17329901  1
  H+  H213  1  0.20988668  0.87209074  0.99061745  1
  H+  H214  1  1.02963042  0.13494333  1.02124534  1
  H+  H215  1  0.39464398  0.64234740  0.34049693  1
  H+  H216  1  0.54352296  0.88629018  0.83442020  1
  H+  H217  1  0.37782984  0.02825516  0.66115068  1
  H+  H218  1  0.11105909  0.39153146  0.83867902  1
  H+  H219  1  0.88290680  0.77508102  0.32445214  1
  H+  H220  1  0.94653585  0.11128488  0.18088112  1
  H+  H221  1  -0.02815678  0.36896210  0.50143532  1
  H+  H222  1  0.41725547  0.32083294  0.27362030  1
  H+  H223  1  0.63150923  0.27418653  0.50695171  1
  H+  H224  1  0.39558871  0.36713780  -0.02515055  1
  H+  H225  1  0.40458130  0.56412467  0.36036919  1
  H+  H226  1  -0.00156810  0.12235559  0.66396928  1
  H+  H227  1  0.14295689  0.25038408  0.17961406  1
  H+  H228  1  0.61098801  1.03286410  0.63496657  1
  H+  H229  1  0.35981789  0.44152955  0.32667423  1
  H+  H230  1  0.87212751  0.88656491  0.17080068  1
  H+  H231  1  0.12532620  0.01681976  0.98987271  1
  H+  H232  1  0.54155419  0.65592285  0.33831288  1
  H+  H233  1  0.84546441  0.20812723  0.32497886  1
  H+  H234  1  0.37866657  0.27569598  0.18031136  1
  H+  H235  1  0.90850807  0.30984386  0.12778707  1
  H+  H236  1  0.72718786  0.12578046  0.48941414  1
  H+  H237  1  0.63104764  0.10107970  0.32076583  1
  H+  H238  1  0.18533619  0.58862121  0.57141223  1
  H+  H239  1  -0.10757132  0.27763499  0.83816688  1
  H+  H240  1  0.77909056  0.14234956  0.00412872  1
  H+  H241  1  -0.04214767  0.32727511  0.31813592  1
  H+  H242  1  0.38308266  0.50263751  0.66197915  1
  H+  H243  1  0.37878828  0.48693239  0.97030510  1
  H+  H244  1  0.52716126  0.14092952  0.00993080  1
  H+  H245  1  0.34153399  0.89382894  0.00589514  1
  H+  H246  1  0.26648315  0.62241205  0.15298195  1
  H+  H247  1  0.12824727  0.87956359  0.15681623  1
  H+  H248  1  0.11353471  0.85582729  0.64984312  1
  H+  H249  1  0.60764698  0.62585250  0.66686211  1
  H+  H250  1  0.66138697  0.32935824  0.23026715  1
  H+  H251  1  0.60719071  0.22205629  0.33261074  1
  H+  H252  1  0.56859891  0.08092121  0.14164726  1
  H+  H253  1  0.11019381  0.23836357  0.83459397  1
  H+  H254  1  0.12130717  0.51277193  0.83664573  1
  H+  H255  1  0.64034534  0.52858592  0.65608405  1
  H+  H256  1  0.61703393  1.01189305  0.01671716  1
  H+  H257  1  0.00565760  0.12607719  0.33875576  1
  H+  H258  1  0.84267486  0.91393037  0.10521301  1
  H+  H259  1  0.89106023  0.85422536  0.49854567  1
  H+  H260  1  0.79127129  0.65860132  -0.00049316  1
  H+  H261  1  0.27545427  0.16668964  0.69713672  1
  H+  H262  1  0.50097112  0.68104075  0.86038545  1
  H+  H263  1  0.44919454  0.77781127  0.87596556  1
  H+  H264  1  0.68386894  0.84558978  0.23480516  1
  H+  H265  1  0.77305757  0.88672128  0.16673673  1
  H+  H266  1  0.64615613  1.02532687  0.84224371  1
  H+  H267  1  0.89299190  0.53160590  0.99003747  1
  H+  H268  1  0.11193084  0.38335756  0.50046452  1
  H+  H269  1  0.27054466  0.58678989  0.16791146  1
  H+  H270  1  0.27150031  0.13750749  0.00745211  1
  H+  H271  1  0.86210035  0.72300144  0.83254358  1
  H+  H272  1  0.97447883  0.86694454  0.32112993  1
  H+  H273  1  0.13448204  1.01795515  0.48929968  1
  H+  H274  1  0.34409207  0.98221176  0.00582932  1
  H+  H275  1  0.98546781  0.62448635  0.68323009  1
  H+  H276  1  0.13760543  0.77069581  0.83632951  1
  H+  H277  1  0.23464626  0.86733702  0.49745573  1
  H+  H278  1  0.72887515  0.61628127  0.84275577  1
  H+  H279  1  0.39015203  0.88102762  0.82768561  1
  H+  H280  1  0.30066392  0.92161771  0.38039597  1
  H+  H281  1  0.52826651  0.38649232  0.66920288  1
  H+  H282  1  0.38760617  0.52156515  0.83402505  1
  H+  H283  1  0.22273873  0.35796150  0.85204420  1
  H+  H284  1  0.25061841  0.37513423  0.13997977  1
  H+  H285  1  0.01315076  0.36425217  0.17420059  1
  H+  H286  1  0.88075274  0.97169604  0.83509376  1
  H+  H287  1  0.36552346  0.34100619  0.51631811  1
  H+  H288  1  0.59248237  0.41910559  0.39988382  1
  H+  H289  1  0.44160705  0.60799764  0.24488969  1
  H+  H290  1  0.47411795  0.62702743  1.00951424  1
  H+  H291  1  0.18333774  0.93505781  0.61923756  1
  H+  H292  1  0.33580780  0.40990678  0.43501974  1
  H+  H293  1  0.09721018  0.42316048  0.73833773  1
  H+  H294  1  0.83394101  0.91133516  0.43034164  1
  H+  H295  1  0.08625669  0.91834106  0.41716392  1
  H+  H296  1  0.33760755  0.17049766  0.74994217  1
  H+  H297  1  0.84015771  0.43686758  0.05666558  1
  H+  H298  1  0.17151762  0.31446693  0.26907787  1
  H+  H299  1  0.91778535  0.84045369  0.23917102  1
  H+  H300  1  0.08703943  0.40557140  0.08280244  1
  H+  H301  1  0.93055642  0.07271546  0.90865665  1
  H+  H302  1  0.41289000  0.09531092  0.56094499  1
  H+  H303  1  0.59137937  0.41819451  0.72822906  1
  H+  H304  1  0.88432500  0.61468136  0.49550647  1
  H+  H305  1  0.41370625  0.56781795  0.59929850  1
  H+  H306  1  0.16715437  0.84156206  0.55094811  1
  H+  H307  1  0.93927836  0.84131206  0.90263146  1
  H+  H308  1  0.89254319  0.31254093  0.59231118  1
  H+  H309  1  0.08499341  0.41256332  0.44134616  1
  H+  H310  1  0.34063793  0.41153093  0.10768682  1
  H+  H311  1  0.17490182  0.05116801  0.57713642  1
  H+  H312  1  0.08217278  0.87126419  -0.00437658  1
  H+  H313  1  0.58871786  0.92027215  0.42958621  1
  H+  H314  1  0.25346848  0.89365874  0.16074020  1
  H+  H315  1  0.67656170  0.59109932  0.56368788  1
  H+  H316  1  0.05533291  0.90084122  0.72851013  1
  H+  H317  1  0.41823036  0.08937917  0.94200069  1
  H+  H318  1  0.65187585  0.09800698  0.58017168  1
  H+  H319  1  0.16152999  0.66761688  0.68014846  1
  H+  H320  1  0.43485175  0.84316870  0.57009574  1
  H+  H321  1  0.67536545  0.36491459  0.92984128  1
  H+  H322  1  0.69403920  0.82462859  0.92980609  1
  H+  H323  1  0.09259758  0.18644263  0.77106158  1
  H+  H324  1  0.15518501  0.83843150  0.24770197  1
  H+  H325  1  0.82186076  0.15507146  0.06800498  1
  H+  H326  1  0.58130029  0.42750218  0.07020005  1
  H+  H327  1  0.66948815  0.58695895  0.90291771  1
  H+  H328  1  0.86698223  0.12601347  0.67957523  1
  H+  H329  1  0.10573786  0.72638634  0.47619674  1
  H+  H330  1  0.32872137  0.17276209  0.06724423  1
  H+  H331  1  0.82817244  0.25173399  0.17356290  1
  H+  H332  1  0.82714245  0.16921373  0.41084254  1
  H+  H333  1  0.87326967  0.56119123  0.58694221  1
  H+  H334  1  0.17327623  0.33811809  0.91542030  1
  H+  H335  1  0.63563370  0.35967367  0.32369027  1
  H+  H336  1  0.14530990  0.58743665  0.91393574  1
  H+  H337  1  0.49346095  0.88949333  0.66730927  1
  H+  H338  1  0.07563116  0.15617410  0.42948974  1
  H+  H339  1  0.92071566  0.58669341  0.89281070  1
  H+  H340  1  0.58901844  0.67396859  0.07596983  1
  H+  H341  1  0.30967968  0.37309333  0.75981908  1
  H+  H342  1  0.93202197  0.07241138  0.57655471  1
  H+  H343  1  0.39119308  0.69906951  0.10884951  1
  H+  H344  1  0.01142699  0.27641112  0.39251861  1
  H+  H345  1  0.97646485  0.59835227  0.31125075  1
  H+  H346  1  0.85523329  0.91552048  0.74107431  1
  H+  H347  1  0.80321745  0.87907062  1.00905560  1
  H+  H348  1  0.57627920  0.16771529  0.39390722  1
  H+  H349  1  0.33997647  0.67999988  0.73207749  1
  H+  H350  1  0.36718739  0.35979918  0.34204985  1
  H+  H351  1  0.66298486  1.00755025  0.70257732  1
  H+  H352  1  0.16007176  0.08959980  0.25877408  1
  H+  H353  1  0.43675645  0.84484234  0.91449990  1
  H+  H354  1  0.83938097  0.17234598  0.76806179  1
  H+  H355  1  0.59366516  0.16913317  0.06438401  1
  H+  H356  1  0.44148382  0.65434152  0.91985761  1
  H+  H357  1  0.57601468  0.65620299  0.72562826  1
  H+  H358  1  0.41108999  0.08630506  0.23835740  1
  H+  H359  1  0.07840817  0.67723971  0.08765949  1
  H+  H360  1  0.19601450  0.50691008  0.03315223  1
  H+  H361  1  0.91480631  0.11331005  0.24929689  1
  H+  H362  1  0.18001634  0.10361207  0.90392851  1
  H+  H363  1  0.06544954  0.92762318  0.09836162  1
  H+  H364  1  0.66801669  0.08975612  0.93531827  1
  H+  H365  1  0.83976176  0.68128243  0.39567032  1
  H+  H366  1  0.33634816  0.15942671  0.40838701  1
  H+  H367  1  0.10192181  0.68585781  0.76431454  1
  H+  H368  1  0.57921841  0.16550758  0.76526005  1
  H+  H369  1  0.81741864  0.40967298  0.42601091  1
  H+  H370  1  0.14223700  0.58964988  0.22768906  1
  H+  H371  1  0.52656598  0.39999694  0.00830258  1
  H+  H372  1  0.77989209  0.64314606  0.48960907  1
  H+  H373  1  0.90843071  0.31926395  0.25556384  1
  H+  H374  1  0.77865437  0.71001400  0.12064468  1
  H+  H375  1  0.82313760  0.65971482  0.73112272  1
  H+  H376  1  0.32142296  0.90703960  0.72466879  1
  H+  H377  1  0.15532786  0.83882675  0.92882230  1
  H+  H378  1  0.25861007  0.14194625  0.15731960  1
  H+  H379  1  0.38308457  0.82303238  0.24701095  1
  H+  H380  1  0.33830953  0.68407493  0.40935660  1
  H+  H381  1  0.84897390  0.68507902  0.05824577  1
  H+  H382  1  0.64507549  0.62374288  0.50785356  1
  H+  H383  1  0.94543824  0.33599887  0.93571279  1
  O2-  O384  1  0.10845358  0.13621839  0.15916881  1
  O2-  O385  1  0.08204125  0.16288345  0.47536339  1
  O2-  O386  1  0.09287104  0.18153675  0.81636634  1
  O2-  O387  1  0.07448820  0.39680228  0.16307470  1
  O2-  O388  1  0.08425351  0.41684172  0.48582501  1
  O2-  O389  1  0.08177195  0.41880147  0.81793144  1
  O2-  O390  1  0.07656820  0.68229747  0.13264897  1
  O2-  O391  1  0.07282502  0.66999348  0.45629870  1
  O2-  O392  1  0.08326574  0.67395139  0.80837354  1
  O2-  O393  1  0.07501125  0.93220995  0.14269083  1
  O2-  O394  1  0.08869863  0.91890639  0.46270523  1
  O2-  O395  1  0.07880396  0.90835640  0.79786435  1
  O2-  O396  1  0.32151301  0.17093696  0.14499736  1
  O2-  O397  1  0.34127827  0.16338214  0.47133843  1
  O2-  O398  1  0.34379006  0.16659259  0.81944220  1
  O2-  O399  1  0.28483416  0.40746907  0.10368441  1
  O2-  O400  1  0.33298056  0.41603175  0.47961115  1
  O2-  O401  1  0.29560698  0.34543885  0.80156603  1
  O2-  O402  1  0.43851114  0.73558093  0.13569764  1
  O2-  O403  1  0.34308242  0.67013722  0.48234262  1
  O2-  O404  1  0.31669990  0.66765157  0.81486499  1
  O2-  O405  1  0.32057932  0.92087895  0.15889647  1
  O2-  O406  1  0.35304102  0.93376156  0.48436406  1
  O2-  O407  1  0.37832378  0.92128053  0.80461356  1
  O2-  O408  1  0.60053296  0.14312590  0.14623741  1
  O2-  O409  1  0.57839512  0.17674301  0.47431830  1
  O2-  O410  1  0.58317615  0.16295870  0.81014024  1
  O2-  O411  1  0.57423273  0.41349871  0.14772356  1
  O2-  O412  1  0.59362285  0.43039349  0.47185276  1
  O2-  O413  1  0.59099923  0.42238213  0.80552483  1
  O2-  O414  1  0.60340149  0.67502521  0.15283368  1
  O2-  O415  1  0.59013511  0.67232122  0.49464431  1
  O2-  O416  1  0.57346920  0.64696389  0.81518726  1
  O2-  O417  1  0.60946679  0.93991519  0.16928705  1
  O2-  O418  1  0.59251069  0.92749442  0.47503488  1
  O2-  O419  1  0.60316865  0.91377181  0.81864481  1
  O2-  O420  1  0.77972951  0.11740322  0.14546026  1
  O2-  O421  1  0.83165556  0.18032842  0.45829360  1
  O2-  O422  1  0.84288714  0.18413886  0.81283132  1
  O2-  O423  1  0.82689489  0.42112522  0.13871923  1
  O2-  O424  1  0.81757445  0.41277709  0.47143398  1
  O2-  O425  1  0.83652764  0.41494976  0.81105319  1
  O2-  O426  1  0.82200596  0.69655193  0.13492718  1
  O2-  O427  1  0.83921745  0.66903989  0.47244047  1
  O2-  O428  1  0.82631487  0.66328005  0.81694269  1
  O2-  O429  1  0.83830586  0.91509656  0.15121355  1
  O2-  O430  1  0.83231124  0.90495942  0.47604070  1
  O2-  O431  1  0.85044642  0.91179730  0.81544614  1
  O2-  O432  1  0.15506922  0.08962238  0.17602391  1
  O2-  O433  1  0.16484910  0.07503923  0.51072065  1
  O2-  O434  1  0.19489369  0.12052626  0.86069787  1
  O2-  O435  1  0.16802062  0.31183982  0.19078979  1
  O2-  O436  1  0.16441762  0.33001314  0.51717181  1
  O2-  O437  1  0.16680398  0.34229415  0.87138146  1
  O2-  O438  1  0.11256746  0.55942574  0.19009304  1
  O2-  O439  1  0.19075014  0.58750003  0.52633438  1
  O2-  O440  1  0.15032438  0.57683216  0.84920343  1
  O2-  O441  1  0.15917209  0.84768327  0.16850647  1
  O2-  O442  1  0.17242360  0.83755124  0.50625832  1
  O2-  O443  1  0.16775735  0.83195048  0.85225682  1
  O2-  O444  1  0.40685571  0.08028699  0.19183871  1
  O2-  O445  1  0.41485353  0.09121775  0.51635225  1
  O2-  O446  1  0.42133327  0.08430020  0.86117615  1
  O2-  O447  1  0.41123013  0.33214958  0.20083192  1
  O2-  O448  1  0.36989085  0.29749531  0.54092328  1
  O2-  O449  1  0.43050819  0.33154720  0.85246874  1
  O2-  O450  1  0.44964124  0.60918817  0.20055010  1
  O2-  O451  1  0.41249236  0.57666599  0.52933215  1
  O2-  O452  1  0.45404047  0.68557492  0.87979989  1
  O2-  O453  1  0.35649049  0.80844897  0.20398054  1
  O2-  O454  1  0.42924856  0.83971867  0.52494921  1
  O2-  O455  1  0.44054809  0.82857162  0.87146765  1
  O2-  O456  1  0.75649911  0.17630020  0.17582968  1
  O2-  O457  1  0.66703087  0.09590716  0.50488332  1
  O2-  O458  1  0.66920931  0.08476330  0.85732763  1
  O2-  O459  1  0.66076241  0.33148080  0.18417911  1
  O2-  O460  1  0.66464561  0.33259150  0.52673160  1
  O2-  O461  1  0.66964211  0.33532097  0.84976167  1
  O2-  O462  1  0.66616329  0.57658521  0.19339576  1
  O2-  O463  1  0.67699511  0.59244750  0.51845944  1
  O2-  O464  1  0.66688335  0.58494847  0.85746187  1
  O2-  O465  1  0.68691572  0.84671868  0.18753382  1
  O2-  O466  1  0.67510225  0.84639523  0.52602360  1
  O2-  O467  1  0.67926085  0.82336604  0.85442331  1
  O2-  O468  1  0.91315448  0.13026321  0.20405916  1
  O2-  O469  1  0.92051856  0.06756073  0.53068270  1
  O2-  O470  1  0.92955959  0.06153437  0.86458867  1
  O2-  O471  1  0.89019867  0.31662634  0.16823804  1
  O2-  O472  1  0.90890735  0.33994166  0.50940524  1
  O2-  O473  1  0.92554913  0.33843626  0.85606553  1
  O2-  O474  1  0.91151789  0.58421376  0.16937734  1
  O2-  O475  1  0.91409502  0.58289957  0.51040578  1
  O2-  O476  1  0.91520315  0.58341390  0.84738894  1
  O2-  O477  1  0.91792423  0.84470677  0.19132479  1
  O2-  O478  1  0.92422292  0.82668127  0.51207312  1
  O2-  O479  1  0.92567920  0.82811977  0.85927032  1
  O2-  O480  1  0.16241647  0.08465037  0.30385563  1
  O2-  O481  1  0.18411299  0.03127005  0.61876248  1
  O2-  O482  1  0.16315538  0.07848389  0.98152192  1
  O2-  O483  1  0.16725359  0.31222218  0.31436658  1
  O2-  O484  1  0.20300113  0.30075146  0.62765745  1
  O2-  O485  1  0.18287596  0.33141901  1.00793626  1
  O2-  O486  1  0.19211146  0.63282329  0.30391873  1
  O2-  O487  1  0.18370434  0.59719811  0.64962956  1
  O2-  O488  1  0.13904641  0.59157313  0.96117690  1
  O2-  O489  1  0.15745978  0.83770929  0.29293151  1
  O2-  O490  1  0.16853106  0.87439222  0.62810383  1
  O2-  O491  1  0.14862651  0.83805213  0.97402048  1
  O2-  O492  1  0.41214780  0.08517046  0.30987193  1
  O2-  O493  1  0.40764805  0.08954618  0.64808757  1
  O2-  O494  1  0.41587690  0.08765224  0.98716005  1
  O2-  O495  1  0.42037076  0.32019613  0.31971991  1
  O2-  O496  1  0.42797157  0.33627743  0.64958625  1
  O2-  O497  1  0.42762266  0.33463322  0.97388057  1
  O2-  O498  1  0.42304753  0.60802577  0.32901592  1
  O2-  O499  1  0.41809663  0.56424884  0.64584985  1
  O2-  O500  1  0.41943489  0.60082065  0.98542675  1
  O2-  O501  1  0.41661351  0.84547708  0.31333091  1
  O2-  O502  1  0.43618794  0.85466831  0.64901891  1
  O2-  O503  1  0.42560155  0.85994206  0.99033599  1
  O2-  O504  1  0.65710677  0.06763660  0.30574219  1
  O2-  O505  1  0.63596676  0.09338012  0.62422698  1
  O2-  O506  1  0.67050503  0.09467169  0.98070177  1
  O2-  O507  1  0.66149513  0.32645264  0.30514162  1
  O2-  O508  1  0.65324773  0.32879523  0.63980000  1
  O2-  O509  1  0.69087823  0.38570230  0.97192108  1
  O2-  O510  1  0.66798827  0.58182205  0.31764399  1
  O2-  O511  1  0.66519195  0.58924759  0.64402266  1
  O2-  O512  1  0.67764860  0.59824597  0.98266932  1
  O2-  O513  1  0.67711404  0.84223924  0.30349611  1
  O2-  O514  1  0.69010917  0.87592288  0.64686160  1
  O2-  O515  1  0.70039153  0.83087055  0.97546558  1
  O2-  O516  1  0.91800125  0.09627567  0.31602761  1
  O2-  O517  1  0.93906073  0.08408820  0.64780129  1
  O2-  O518  1  0.92798452  0.08660299  0.99156273  1
  O2-  O519  1  0.90240990  0.31562612  0.30002983  1
  O2-  O520  1  0.88593603  0.29916639  0.63615312  1
  O2-  O521  1  0.95901878  0.33406777  0.97929635  1
  O2-  O522  1  0.91874705  0.55590391  0.29600192  1
  O2-  O523  1  0.83971638  0.54580683  0.62540643  1
  O2-  O524  1  0.92683103  0.59444402  0.97065274  1
  O2-  O525  1  0.91390673  0.83681160  0.30577761  1
  O2-  O526  1  0.87328926  0.85830965  0.66965360  1
  O2-  O527  1  0.96378184  0.85796839  0.98666808  1
  O2-  O528  1  0.09021028  0.15869314  0.03584435  1
  O2-  O529  1  0.06882564  0.14775213  0.35500987  1
  O2-  O530  1  0.09890270  0.17999512  0.69279817  1
  O2-  O531  1  0.10286483  0.41578396  0.03890999  1
  O2-  O532  1  0.03902552  0.32744000  0.36706521  1
  O2-  O533  1  0.10849542  0.43469010  0.69412332  1
  O2-  O534  1  0.08093785  0.67524971  0.00713687  1
  O2-  O535  1  0.08153547  0.67325538  0.34014154  1
  O2-  O536  1  0.15569862  0.71518582  0.70002075  1
  O2-  O537  1  0.05017117  0.89951470  0.01433406  1
  O2-  O538  1  0.07975853  0.92187641  0.34072302  1
  O2-  O539  1  0.03941061  0.89701517  0.68349392  1
  O2-  O540  1  0.33204766  0.17206326  0.02172699  1
  O2-  O541  1  0.33530830  0.15804609  0.35821515  1
  O2-  O542  1  0.33233013  0.17386952  0.70323613  1
  O2-  O543  1  0.35068150  0.42613810  -0.04246388  1
  O2-  O544  1  0.33452143  0.39179547  0.35353205  1
  O2-  O545  1  0.33353418  0.40825231  0.68780287  1
  O2-  O546  1  0.24633855  0.56762028  0.02954685  1
  O2-  O547  1  0.34344922  0.69261747  0.36346732  1
  O2-  O548  1  0.34552167  0.68149174  0.68751773  1
  O2-  O549  1  0.30638985  0.91999533  0.01584125  1
  O2-  O550  1  0.32293294  0.92443856  0.33949023  1
  O2-  O551  1  0.32510950  0.91748947  0.68064750  1
  O2-  O552  1  0.58935091  0.17056854  0.01976116  1
  O2-  O553  1  0.57400694  0.16189563  0.34869199  1
  O2-  O554  1  0.57460214  0.17706182  0.68180396  1
  O2-  O555  1  0.58536548  0.43716758  0.02516383  1
  O2-  O556  1  0.59059321  0.41439272  0.35358656  1
  O2-  O557  1  0.59053631  0.41463102  0.68252913  1
  O2-  O558  1  0.58120294  0.67163592  0.03055684  1
  O2-  O559  1  0.60440951  0.68685286  0.34110925  1
  O2-  O560  1  0.56772607  0.64747684  0.68154400  1
  O2-  O561  1  0.57958333  0.95647986  0.04209458  1
  O2-  O562  1  0.58836369  0.91491392  0.35215592  1
  O2-  O563  1  0.61592497  0.94845849  0.69692032  1
  O2-  O564  1  0.83616155  0.16429543  0.02403809  1
  O2-  O565  1  0.82115668  0.15143769  0.34546606  1
  O2-  O566  1  0.82726835  0.14562041  0.69274061  1
  O2-  O567  1  0.84562239  0.44516913  0.01213404  1
  O2-  O568  1  0.82419559  0.40428447  0.34639612  1
  O2-  O569  1  0.82758395  0.40439741  0.68749848  1
  O2-  O570  1  0.85255711  0.68782046  0.01322535  1
  O2-  O571  1  0.83798879  0.68603872  0.35037113  1
  O2-  O572  1  0.81825123  0.66162609  0.68661038  1
  O2-  O573  1  0.85730839  0.91419560  0.03229118  1
  O2-  O574  1  0.83538110  0.91964885  0.35498670  1
  O2-  O575  1  0.85731725  0.92405793  0.69518839  1
