# generated using pymatgen
data_H2O
_symmetry_space_group_name_H-M   'P 1'
_cell_length_a   17.99469611
_cell_length_b   17.98660826
_cell_length_c   22.00110092
_cell_angle_alpha   90.00656119
_cell_angle_beta   89.98721614
_cell_angle_gamma   120.00926541
_symmetry_Int_Tables_number   1
_chemical_formula_structural   H2O
_chemical_formula_sum   'H384 O192'
_cell_volume   6166.35142504
_cell_formula_units_Z   192
loop_
 _symmetry_equiv_pos_site_id
 _symmetry_equiv_pos_as_xyz
  1  'x, y, z'
loop_
 _atom_type_symbol
 _atom_type_oxidation_number
  H+  1.0
  O2-  -2.0
loop_
 _atom_site_type_symbol
 _atom_site_label
 _atom_site_symmetry_multiplicity
 _atom_site_fract_x
 _atom_site_fract_y
 _atom_site_fract_z
 _atom_site_occupancy
  H+  H0  1  0.61579443  0.74532429  0.66407701  1
  H+  H1  1  0.40938882  0.56837109  0.59832902  1
  H+  H2  1  0.80728673  0.89929781  0.82115664  1
  H+  H3  1  0.27078338  0.88162089  0.33499553  1
  H+  H4  1  0.14052526  0.76723945  0.83451438  1
  H+  H5  1  0.85942730  0.73588642  0.51427656  1
  H+  H6  1  0.42908477  0.83529862  0.92216334  1
  H+  H7  1  0.38303552  0.02113663  0.32616978  1
  H+  H8  1  0.27238561  0.39693069  0.34653219  1
  H+  H9  1  0.72638837  0.11233659  0.19054329  1
  H+  H10  1  0.64150444  0.26927356  0.51259693  1
  H+  H11  1  0.12431754  0.48661698  0.16707246  1
  H+  H12  1  0.72910869  0.87279572  0.66255712  1
  H+  H13  1  0.91842814  0.82922386  0.90570088  1
  H+  H14  1  0.63425846  0.51531206  0.51969239  1
  H+  H15  1  0.22624085  0.86731004  0.66361286  1
  H+  H16  1  0.65996991  0.07795197  0.24373848  1
  H+  H17  1  0.28394838  0.63142255  0.68024766  1
  H+  H18  1  0.62464064  0.39828091  0.15880180  1
  H+  H19  1  0.13802992  0.27742698  0.99037868  1
  H+  H20  1  0.43607793  0.76864821  0.96448460  1
  H+  H21  1  0.83103253  0.41745981  0.44379209  1
  H+  H22  1  0.11645283  0.72905665  1.02131756  1
  H+  H23  1  0.11677343  0.87513901  0.82188775  1
  H+  H24  1  0.01806590  0.15214764  0.16675161  1
  H+  H25  1  0.47991630  0.35979468  0.13932342  1
  H+  H26  1  0.62894121  0.61026331  0.66545402  1
  H+  H27  1  -0.01018685  0.36996218  0.83827008  1
  H+  H28  1  0.16936728  0.08221880  0.42274999  1
  H+  H29  1  0.64580533  0.15339972  0.00858091  1
  H+  H30  1  0.42011181  0.12707915  0.82921660  1
  H+  H31  1  0.47789927  0.38436895  0.36300606  1
  H+  H32  1  0.14434202  0.37666790  0.83810087  1
  H+  H33  1  0.56634021  0.78396901  0.86361830  1
  H+  H34  1  0.89887762  0.02988537  0.18034378  1
  H+  H35  1  0.89789916  0.36595867  0.14321065  1
  H+  H36  1  0.61843126  0.99126912  0.66767451  1
  H+  H37  1  0.64376016  0.59141009  0.85480886  1
  H+  H38  1  0.88128593  0.88999128  0.16558892  1
  H+  H39  1  0.72405829  0.61999914  0.31258861  1
  H+  H40  1  0.36065592  0.88370892  -0.00032696  1
  H+  H41  1  0.63206341  0.85475529  0.32209024  1
  H+  H42  1  0.36858780  0.23020513  0.14219660  1
  H+  H43  1  0.23843141  0.11781413  0.64205474  1
  H+  H44  1  0.38690822  0.28208014  0.99534852  1
  H+  H45  1  0.27073521  0.39037614  1.00592221  1
  H+  H46  1  0.23219459  0.86551458  0.17179867  1
  H+  H47  1  0.86524352  0.71951659  0.83235777  1
  H+  H48  1  0.77637746  0.37511041  0.83149763  1
  H+  H49  1  0.85460503  0.19279114  0.24960520  1
  H+  H50  1  0.58245480  0.71355090  0.16139398  1
  H+  H51  1  0.60423956  0.86053113  0.16798415  1
  H+  H52  1  0.88505080  0.61706809  0.50614430  1
  H+  H53  1  0.77348787  0.89066417  0.01527476  1
  H+  H54  1  0.86686691  -0.02214071  0.66997256  1
  H+  H55  1  0.61629540  0.72606072  0.01304453  1
  H+  H56  1  0.88298123  0.35503401  0.66220156  1
  H+  H57  1  -0.00114072  0.37102258  0.15275478  1
  H+  H58  1  0.14180217  0.77410788  0.51005906  1
  H+  H59  1  0.14278633  0.86543260  0.17311036  1
  H+  H60  1  0.78444353  0.41167255  0.00685523  1
  H+  H61  1  0.37327021  0.98120949  0.67179334  1
  H+  H62  1  0.64748244  0.28148972  0.16610377  1
  H+  H63  1  0.36435922  0.22247683  0.67291769  1
  H+  H64  1  0.08295709  0.16568866  0.72264720  1
  H+  H65  1  0.21924998  0.85915734  1.00912186  1
  H+  H66  1  0.01627674  0.64253534  0.67022761  1
  H+  H67  1  0.89830014  0.61485890  0.31158386  1
  H+  H68  1  0.41546526  0.83771963  0.56654753  1
  H+  H69  1  0.10826618  0.73175837  0.67503280  1
  H+  H70  1  0.77944462  0.62749931  0.83508642  1
  H+  H71  1  0.51903125  0.11555954  0.34669130  1
  H+  H72  1  0.86553950  0.39146324  0.50173900  1
  H+  H73  1  0.63485945  0.62064036  0.31989381  1
  H+  H74  1  0.66258805  0.30395377  1.00865120  1
  H+  H75  1  0.02447436  0.15471012  0.81595035  1
  H+  H76  1  0.11494222  0.64306748  0.49326416  1
  H+  H77  1  0.35107085  0.82096857  0.16145426  1
  H+  H78  1  0.57302872  0.17603628  0.00393077  1
  H+  H79  1  0.88572789  0.46953608  0.15334126  1
  H+  H80  1  0.13570774  0.85853940  0.32642038  1
  H+  H81  1  0.86797250  0.23160078  0.34077947  1
  H+  H82  1  0.89580540  0.11314143  0.98787125  1
  H+  H83  1  0.86765806  -0.02123266  0.49361191  1
  H+  H84  1  0.87188735  0.23012006  0.67062075  1
  H+  H85  1  0.59697666  0.61977691  0.49444625  1
  H+  H86  1  0.51888801  0.63778249  0.33315251  1
  H+  H87  1  0.89830211  0.54699910  1.00214074  1
  H+  H88  1  0.48416728  0.11524970  0.17408991  1
  H+  H89  1  0.88939545  0.02141157  0.99377060  1
  H+  H90  1  0.89894991  0.63562743  0.01312681  1
  H+  H91  1  0.48078253  0.59801229  0.85786157  1
  H+  H92  1  0.67488422  0.33017535  0.91092257  1
  H+  H93  1  0.38036388  0.52387711  0.33153721  1
  H+  H94  1  0.37520064  0.14436717  0.35328394  1
  H+  H95  1  0.97997513  0.37193324  0.65907916  1
  H+  H96  1  0.73586864  0.11399766  -0.01839010  1
  H+  H97  1  0.37501902  -0.01561671  0.82172461  1
  H+  H98  1  0.88880296  0.62402626  0.66007212  1
  H+  H99  1  0.25864387  0.90211814  0.49303744  1
  H+  H100  1  0.59507573  0.97976438  0.16656518  1
  H+  H101  1  0.60089665  1.02913673  0.83773787  1
  H+  H102  1  0.90452587  0.03326362  0.83330412  1
  H+  H103  1  0.97286056  0.86052414  0.66867361  1
  H+  H104  1  0.64010044  0.66601160  0.78179586  1
  H+  H105  1  0.12215631  0.72888344  0.16429343  1
  H+  H106  1  0.38811611  0.87514297  0.51095635  1
  H+  H107  1  0.59364514  0.28489493  0.34189369  1
  H+  H108  1  0.22785349  0.62721754  0.02130160  1
  H+  H109  1  0.11288469  0.38441756  0.49721362  1
  H+  H110  1  0.12103211  0.50300721  0.66889562  1
  H+  H111  1  0.36741649  0.46955171  0.83018480  1
  H+  H112  1  0.86886308  0.97407931  0.34047035  1
  H+  H113  1  0.61257493  0.49177383  0.34803811  1
  H+  H114  1  0.89340915  0.60631827  0.83675627  1
  H+  H115  1  0.37650563  0.23687596  0.83573836  1
  H+  H116  1  0.62041461  0.14169984  0.16867700  1
  H+  H117  1  0.71665237  0.63033209  0.16567417  1
  H+  H118  1  0.87841008  0.77225831  0.66595453  1
  H+  H119  1  0.16901462  0.83661757  0.60371834  1
  H+  H120  1  0.13938566  0.52638593  0.01034039  1
  H+  H121  1  0.89003919  0.86030066  0.32424173  1
  H+  H122  1  0.61569990  0.48395306  0.15771929  1
  H+  H123  1  0.01214842  0.87207097  0.50106669  1
  H+  H124  1  0.27593183  0.38394537  0.82627360  1
  H+  H125  1  0.79961624  0.89939087  0.17648779  1
  H+  H126  1  0.87195953  0.73024286  0.32253628  1
  H+  H127  1  0.37777313  0.85541843  0.31568064  1
  H+  H128  1  0.47518136  0.61041933  0.65450859  1
  H+  H129  1  0.56950606  0.64792125  0.43394309  1
  H+  H130  1  0.14775462  0.11179217  0.64094235  1
  H+  H131  1  0.12880658  0.63381820  0.65761753  1
  H+  H132  1  0.08504516  -0.08139438  0.10396586  1
  H+  H133  1  0.79335732  0.38395313  0.33830968  1
  H+  H134  1  0.13006687  0.61924967  1.01289221  1
  H+  H135  1  0.13424879  0.52074877  0.50265515  1
  H+  H136  1  0.53008736  0.14403673  0.50192435  1
  H+  H137  1  0.02246103  0.62851603  0.82727716  1
  H+  H138  1  -0.02043355  0.36004181  0.33234823  1
  H+  H139  1  0.88653627  0.52862066  0.50763990  1
  H+  H140  1  0.52861391  0.89491513  0.00249469  1
  H+  H141  1  0.30086981  0.15369842  0.18457221  1
  H+  H142  1  0.13172053  0.85776075  0.51251809  1
  H+  H143  1  0.02917575  0.64777873  0.49661027  1
  H+  H144  1  0.12763546  0.41863716  0.66616867  1
  H+  H145  1  0.13647655  0.11134354  -0.02910841  1
  H+  H146  1  1.00156319  0.60921073  0.16984231  1
  H+  H147  1  0.11028491  0.97570583  0.16191682  1
  H+  H148  1  0.32072105  0.13726158  0.85401816  1
  H+  H149  1  0.73837144  0.36721800  0.15845960  1
  H+  H150  1  0.38975380  0.35780514  0.13979894  1
  H+  H151  1  0.97293382  0.11463687  0.50635062  1
  H+  H152  1  0.38914507  0.05087278  0.51386387  1
  H+  H153  1  0.37119228  0.63106967  0.66983556  1
  H+  H154  1  0.65919961  0.81721434  0.84199090  1
  H+  H155  1  0.47669169  0.37011773  0.99656276  1
  H+  H156  1  0.02769399  0.87172145  0.82950809  1
  H+  H157  1  1.09786901  0.88132746  0.67456479  1
  H+  H158  1  0.57754039  0.91970300  0.43692237  1
  H+  H159  1  0.11485746  0.15877617  0.81412320  1
  H+  H160  1  0.35989831  0.61681819  0.00051548  1
  H+  H161  1  0.38903198  0.36164061  0.84064384  1
  H+  H162  1  0.97336781  0.85425666  0.17248117  1
  H+  H163  1  0.72998541  0.35924841  0.52041085  1
  H+  H164  1  0.17217467  0.08814816  0.54276834  1
  H+  H165  1  0.12804311  0.12993608  0.13551640  1
  H+  H166  1  0.11074320  -0.02357847  1.00700511  1
  H+  H167  1  0.10779382  0.22510484  0.50110851  1
  H+  H168  1  0.16880261  0.83418709  0.26443512  1
  H+  H169  1  0.22827837  0.85659329  0.83255713  1
  H+  H170  1  0.12208871  0.48834494  0.82836167  1
  H+  H171  1  0.11333996  0.47656660  0.34238696  1
  H+  H172  1  0.89031759  0.27830990  0.50681402  1
  H+  H173  1  0.13904050  0.28740072  0.17990072  1
  H+  H174  1  0.02270858  0.64109604  0.02029791  1
  H+  H175  1  0.12474886  0.40106214  0.00711098  1
  H+  H176  1  0.89132116  0.51742818  0.83477836  1
  H+  H177  1  0.63764768  0.09146675  0.90324550  1
  H+  H178  1  0.64387125  0.38263578  0.00009678  1
  H+  H179  1  0.86671078  0.13804525  0.67064001  1
  H+  H180  1  0.90024076  0.27612100  0.83270145  1
  H+  H181  1  0.52327245  0.89809192  0.49731263  1
  H+  H182  1  0.89618285  1.11328167  0.33116623  1
  H+  H183  1  0.35129538  0.36155167  0.48942180  1
  H+  H184  1  0.52578839  0.80636549  0.38298280  1
  H+  H185  1  0.27441372  0.38732964  0.16171898  1
  H+  H186  1  0.67698775  0.84553868  0.14377947  1
  H+  H187  1  0.28976892  0.98303196  0.45137586  1
  H+  H188  1  0.11533338  0.21416602  0.65995865  1
  H+  H189  1  0.62981067  0.09880346  0.33833097  1
  H+  H190  1  0.92885501  0.08362075  0.24337384  1
  H+  H191  1  0.37963481  0.35175950  0.65314779  1
  H+  H192  1  0.97627867  0.10929601  0.65542161  1
  H+  H193  1  0.87188197  0.14487714  0.82543187  1
  H+  H194  1  0.20987890  0.12598782  0.11412862  1
  H+  H195  1  0.11604119  0.97070652  0.35913790  1
  H+  H196  1  0.36795410  0.47368319  0.67375870  1
  H+  H197  1  0.22241850  0.66963409  0.63083243  1
  H+  H198  1  0.61653015  0.48365557  0.00902100  1
  H+  H199  1  0.62030934  0.38163722  0.50768917  1
  H+  H200  1  0.87244433  0.47889175  0.34673748  1
  H+  H201  1  0.22296568  0.13907877  0.81873506  1
  H+  H202  1  0.59667864  0.63051368  0.16159515  1
  H+  H203  1  0.37911437  0.61224466  0.32293331  1
  H+  H204  1  0.64627078  1.01827182  0.33327734  1
  H+  H205  1  0.22703276  0.61356131  0.83819500  1
  H+  H206  1  0.77882351  0.88681668  0.33671344  1
  H+  H207  1  0.87517255  0.14626665  0.19751252  1
  H+  H208  1  0.12599332  0.39735149  0.17006960  1
  H+  H209  1  0.44651518  0.09540802  0.98331888  1
  H+  H210  1  0.36226911  0.39600760  0.00809654  1
  H+  H211  1  0.35416193  0.73391342  0.48373047  1
  H+  H212  1  0.76169096  0.35395023  0.67915479  1
  H+  H213  1  0.76217227  0.28424539  0.27292607  1
  H+  H214  1  0.77876639  0.64502985  1.01658491  1
  H+  H215  1  0.22526593  0.61485920  0.32816831  1
  H+  H216  1  0.86806263  0.38143874  0.82524479  1
  H+  H217  1  0.02727691  0.88549037  0.33887447  1
  H+  H218  1  0.61659729  0.37408833  0.84012211  1
  H+  H219  1  0.62070561  0.90292019  0.67169125  1
  H+  H220  1  0.76552858  0.63348398  0.67928308  1
  H+  H221  1  0.36958019  -0.02730813  0.15995305  1
  H+  H222  1  0.24171630  0.63313796  0.18240812  1
  H+  H223  1  0.36345415  0.40058288  0.35909507  1
  H+  H224  1  0.39408139  0.77286189  0.65922904  1
  H+  H225  1  0.26662184  0.64380684  0.48450875  1
  H+  H226  1  0.89433951  0.36441237  0.33907936  1
  H+  H227  1  0.82580978  0.39424256  0.73505434  1
  H+  H228  1  0.64244376  0.03231894  0.50628988  1
  H+  H229  1  0.64182298  0.61445192  0.00120776  1
  H+  H230  1  0.23805931  0.37150837  0.67159518  1
  H+  H231  1  0.58056345  0.31707370  0.35079181  1
  H+  H232  1  0.13678004  0.36417429  0.33187585  1
  H+  H233  1  0.12050899  0.73039420  0.32742514  1
  H+  H234  1  0.39425073  0.11212095  0.17087462  1
  H+  H235  1  0.80355598  0.28760971  -0.05877960  1
  H+  H236  1  0.85777671  0.22769989  -0.01129992  1
  H+  H237  1  0.34418009  0.73698546  1.02459700  1
  H+  H238  1  0.77749634  0.14251984  0.49162496  1
  H+  H239  1  0.86461085  0.88613928  0.67183250  1
  H+  H240  1  0.61808223  0.13979678  0.49941348  1
  H+  H241  1  0.92090555  0.59742803  0.60033209  1
  H+  H242  1  0.35120343  0.71843343  0.33101497  1
  H+  H243  1  0.48140101  0.88116872  0.83196729  1
  H+  H244  1  0.09279784  0.66858904  0.10348329  1
  H+  H245  1  0.22304198  0.35390448  0.51434445  1
  H+  H246  1  0.61754634  0.92127683  0.82282520  1
  H+  H247  1  0.35426839  -0.03148877  0.99423261  1
  H+  H248  1  0.12043308  0.14027307  0.35782751  1
  H+  H249  1  0.83876949  0.91471486  0.43648794  1
  H+  H250  1  0.48906540  0.13049052  0.66238959  1
  H+  H251  1  0.60061259  0.45884853  0.66926528  1
  H+  H252  1  0.37733518  0.50078730  0.51613759  1
  H+  H253  1  0.22348976  0.11166838  0.97803431  1
  H+  H254  1  0.14051371  0.27632382  0.33172473  1
  H+  H255  1  0.39062028  0.29224528  0.35749664  1
  H+  H256  1  0.98607264  0.11369147  0.33454897  1
  H+  H257  1  0.36757696  0.88928821  0.66987423  1
  H+  H258  1  0.49836958  0.85261630  0.33576608  1
  H+  H259  1  0.88676303  0.86522874  0.51668782  1
  H+  H260  1  0.13041590  0.85957501  1.01377738  1
  H+  H261  1  0.88838874  0.77723936  1.00282930  1
  H+  H262  1  0.23469836  0.11249976  0.36863336  1
  H+  H263  1  0.14493884  0.32458681  0.70107511  1
  H+  H264  1  0.90945356  0.59781101  0.16040026  1
  H+  H265  1  0.83142111  0.64752403  0.17265696  1
  H+  H266  1  0.71863800  0.60889139  0.52255888  1
  H+  H267  1  0.47000136  0.60196995  0.17690228  1
  H+  H268  1  0.11491156  1.00875887  0.49941406  1
  H+  H269  1  0.73903344  0.12598178  0.65953641  1
  H+  H270  1  0.67768653  0.09286454  0.56576256  1
  H+  H271  1  0.60987615  0.72582061  0.33286031  1
  H+  H272  1  0.64154501  0.03086650  0.99087318  1
  H+  H273  1  0.53219711  0.38230369  0.83972483  1
  H+  H274  1  0.73304272  0.87687594  0.51070181  1
  H+  H275  1  0.47965666  0.86579793  0.65830721  1
  H+  H276  1  0.63740251  0.87296954  0.00706720  1
  H+  H277  1  0.39511930  0.11942794  0.66731651  1
  H+  H278  1  0.35198577  0.13217532  -0.00639895  1
  H+  H279  1  1.02727249  0.63502192  0.32591779  1
  H+  H280  1  0.90271743  0.86230905  0.84181923  1
  H+  H281  1  0.12420749  0.63296385  0.32679685  1
  H+  H282  1  0.41726356  0.33697078  0.90372616  1
  H+  H283  1  0.46256748  0.59168962  0.50991180  1
  H+  H284  1  0.02407463  0.38530140  0.49553324  1
  H+  H285  1  0.65578283  0.13637315  0.65417789  1
  H+  H286  1  0.13619016  0.60912243  0.83687235  1
  H+  H287  1  0.64759022  0.50525551  0.85689650  1
  H+  H288  1  0.40452097  0.57698219  0.90280287  1
  H+  H289  1  0.41655900  0.36011456  0.24828460  1
  H+  H290  1  0.41909114  0.08652729  0.27094284  1
  H+  H291  1  0.02065921  0.88954137  0.01282887  1
  H+  H292  1  0.39628658  0.81280165  0.25638888  1
  H+  H293  1  0.59903580  0.17160509  0.10598453  1
  H+  H294  1  0.85030834  0.42049516  0.08887379  1
  H+  H295  1  0.84342352  0.17697170  0.05096902  1
  H+  H296  1  0.13701503  0.28482424  0.83348096  1
  H+  H297  1  0.06962874  0.90304574  0.73779869  1
  H+  H298  1  0.36365757  0.73686277  0.82626963  1
  H+  H299  1  0.89717820  0.32627427  0.91548416  1
  H+  H300  1  0.36153327  0.18652434  0.41431480  1
  H+  H301  1  0.55911578  0.57542098  0.77873236  1
  H+  H302  1  0.80877967  0.68481547  0.45653717  1
  H+  H303  1  0.50280248  0.89064989  0.15852150  1
  H+  H304  1  0.40687119  0.56869002  0.24207986  1
  H+  H305  1  0.12573811  0.06465136  0.24433964  1
  H+  H306  1  0.46812027  0.35057552  0.65058070  1
  H+  H307  1  0.65594505  0.58867186  0.22450222  1
  H+  H308  1  0.16852228  0.58532074  0.26633105  1
  H+  H309  1  0.64650194  0.25377622  0.86170529  1
  H+  H310  1  0.16423071  0.33220568  0.57359081  1
  H+  H311  1  0.10218570  0.13070799  0.04867646  1
  H+  H312  1  0.88868595  0.86619915  -0.00117710  1
  H+  H313  1  0.67333019  0.85161302  0.60067394  1
  H+  H314  1  0.70970104  0.32710904  0.25034953  1
  H+  H315  1  0.59585829  0.43944683  0.41096386  1
  H+  H316  1  0.17515878  0.34389791  0.24073680  1
  H+  H317  1  0.50529319  0.11448631  0.84214170  1
  H+  H318  1  0.58487606  0.42035843  0.06601308  1
  H+  H319  1  0.32422389  0.66641994  0.39466165  1
  H+  H320  1  0.66321367  0.83544086  0.25961001  1
  H+  H321  1  0.87162130  0.76604367  0.17088156  1
  H+  H322  1  0.85654820  0.92669640  0.75863035  1
  H+  H323  1  0.34274223  0.92254489  0.76331439  1
  H+  H324  1  0.42711039  0.10053762  0.57648225  1
  H+  H325  1  0.32888730  0.42174085  0.09870406  1
  H+  H326  1  0.38324368  0.37343881  0.24613579  1
  H+  H327  1  0.65262103  0.29780142  0.60857530  1
  H+  H328  1  0.92717562  0.08633438  0.89538842  1
  H+  H329  1  0.92060070  0.33574780  0.56753597  1
  H+  H330  1  0.08965264  0.42906212  0.76796812  1
  H+  H331  1  0.88328184  0.11285264  0.50514614  1
  H+  H332  1  0.08027147  0.66090573  0.76707040  1
  H+  H333  1  0.84111616  0.65757209  0.37342266  1
  H+  H334  1  0.61386333  0.21245208  0.71761885  1
  H+  H335  1  0.34266067  0.67348735  0.77139783  1
  H+  H336  1  0.64675912  0.88211978  0.51103365  1
  H+  H337  1  0.10101920  0.13205447  0.49197354  1
  H+  H338  1  0.65743736  0.57576487  0.60960610  1
  H+  H339  1  0.39895623  0.18764030  0.51503368  1
  H+  H340  1  0.39066099  0.87672985  0.83655765  1
  H+  H341  1  0.56427996  0.68752015  0.72014693  1
  H+  H342  1  0.40348312  0.30406171  0.56264546  1
  H+  H343  1  0.16049073  0.58453902  0.55967094  1
  H+  H344  1  0.83874411  0.92206825  0.07188439  1
  H+  H345  1  0.33582517  0.16497415  0.73337811  1
  H+  H346  1  0.83055043  0.68179764  0.07909809  1
  H+  H347  1  0.57324003  0.65683742  0.06481904  1
  H+  H348  1  0.32567004  0.15667308  0.05600447  1
  H+  H349  1  0.14747609  0.61971716  0.17613369  1
  H+  H350  1  0.82933220  0.66439402  0.73659105  1
  H+  H351  1  0.92927444  0.57411876  0.25993741  1
  H+  H352  1  0.40931106  0.07741109  0.91627015  1
  H+  H353  1  0.32307631  0.40877778  0.44058519  1
  H+  H354  1  0.92037149  0.83434764  0.26234763  1
  H+  H355  1  0.33096852  0.91460939  0.39315935  1
  H+  H356  1  0.91293575  0.08102129  0.59817976  1
  H+  H357  1  0.91446590  0.83549954  0.57936364  1
  H+  H358  1  0.77756040  0.13806692  0.33852737  1
  H+  H359  1  1.02495894  0.12705786  1.00635330  1
  H+  H360  1  0.08617836  0.41764600  0.40229829  1
  H+  H361  1  0.65991647  0.83957722  0.94797823  1
  H+  H362  1  0.06869848  0.89423767  0.43931474  1
  H+  H363  1  0.10162214  0.42784884  0.07048359  1
  H+  H364  1  0.08171681  0.17555497  0.40548816  1
  H+  H365  1  0.57652673  0.93058649  0.06650297  1
  H+  H366  1  0.17276556  0.09571381  0.23909957  1
  H+  H367  1  0.57888310  0.14727468  0.40679453  1
  H+  H368  1  0.59335682  0.94787087  0.75809414  1
  H+  H369  1  0.16767654  0.09735879  0.87864240  1
  H+  H370  1  0.67558301  0.57945846  0.94572583  1
  H+  H371  1  0.86498294  0.39977976  -0.00431937  1
  H+  H372  1  0.59671159  0.36772141  0.66940787  1
  H+  H373  1  0.37763401  0.50399945  0.17573196  1
  H+  H374  1  0.84117095  0.17385429  0.76705783  1
  H+  H375  1  0.33722726  0.91869710  0.09831585  1
  H+  H376  1  0.34012177  0.41351235  0.73388596  1
  H+  H377  1  0.52898764  0.37429320  0.50046154  1
  H+  H378  1  0.16679945  0.33739976  0.93121362  1
  H+  H379  1  0.37137196  0.53575173  0.99726661  1
  H+  H380  1  0.83834103  0.17019800  0.43283935  1
  H+  H381  1  0.90374013  0.27776034  0.17203173  1
  H+  H382  1  0.06793629  0.19558742  0.10460442  1
  H+  H383  1  0.33006253  0.69459333  0.09349120  1
  O2-  O384  1  0.07648781  0.19072967  0.14829320  1
  O2-  O385  1  0.07384171  0.16771923  0.48119289  1
  O2-  O386  1  0.08289605  0.18756762  0.79720752  1
  O2-  O387  1  0.09426312  0.42559145  0.15229612  1
  O2-  O388  1  0.08454159  0.41501792  0.47953711  1
  O2-  O389  1  0.09078190  0.42460147  0.81263660  1
  O2-  O390  1  0.09461945  0.66767054  0.15052692  1
  O2-  O391  1  0.09028005  0.68030798  0.48383226  1
  O2-  O392  1  0.08418727  0.66014915  0.81202039  1
  O2-  O393  1  0.08628668  0.91554379  0.14983661  1
  O2-  O394  1  0.07208102  0.90004001  0.48436659  1
  O2-  O395  1  0.08327688  0.90345565  0.80843118  1
  O2-  O396  1  0.33044718  0.16339987  0.14564222  1
  O2-  O397  1  0.36733447  0.21499633  0.49680263  1
  O2-  O398  1  0.34890519  0.17498198  0.81944549  1
  O2-  O399  1  0.33390265  0.41833315  0.14442729  1
  O2-  O400  1  0.32095488  0.39429807  0.48488765  1
  O2-  O401  1  0.33664447  0.41012832  0.81148620  1
  O2-  O402  1  0.34016291  0.70448616  0.15806952  1
  O2-  O403  1  0.32346317  0.67712148  0.46426058  1
  O2-  O404  1  0.33389020  0.67549876  0.81536361  1
  O2-  O405  1  0.33484008  0.91336553  0.14341401  1
  O2-  O406  1  0.31171205  0.94883320  0.47046721  1
  O2-  O407  1  0.34420824  0.92309676  0.80885294  1
  O2-  O408  1  0.59169798  0.17195887  0.15069781  1
  O2-  O409  1  0.58857954  0.17068380  0.48354163  1
  O2-  O410  1  0.59510480  0.14261498  0.83640292  1
  O2-  O411  1  0.59026108  0.42342176  0.14284036  1
  O2-  O412  1  0.59091439  0.41299601  0.49300706  1
  O2-  O413  1  0.59430176  0.41284104  0.83013621  1
  O2-  O414  1  0.55647650  0.65282231  0.14859924  1
  O2-  O415  1  0.56141949  0.64293938  0.47827633  1
  O2-  O416  1  0.58608805  0.62844440  0.80267089  1
  O2-  O417  1  0.56387823  0.92237141  0.14602485  1
  O2-  O418  1  0.58330930  0.92912729  0.48118737  1
  O2-  O419  1  0.59169009  0.95295341  0.80425504  1
  O2-  O420  1  0.84986902  0.18456990  0.20524059  1
  O2-  O421  1  0.83893952  0.17213801  0.47786806  1
  O2-  O422  1  0.84480716  0.17857177  0.81210012  1
  O2-  O423  1  0.85245843  0.41080998  0.13475235  1
  O2-  O424  1  0.83140469  0.41897634  0.48921410  1
  O2-  O425  1  0.83330866  0.40755327  0.81145222  1
  O2-  O426  1  0.81564186  0.68441879  0.15068774  1
  O2-  O427  1  0.82505541  0.67492719  0.49653719  1
  O2-  O428  1  0.83533233  0.66096094  0.81365205  1
  O2-  O429  1  0.85279692  0.92617971  0.15317067  1
  O2-  O430  1  0.83878696  0.91662960  0.48161787  1
  O2-  O431  1  0.86520275  0.93011566  0.80489236  1
  O2-  O432  1  0.14702356  0.09646143  0.11040519  1
  O2-  O433  1  0.14697399  0.07277938  0.50056526  1
  O2-  O434  1  0.16514130  0.11314569  0.83579967  1
  O2-  O435  1  0.17552372  0.34763562  0.19487086  1
  O2-  O436  1  0.16197202  0.32885719  0.52902005  1
  O2-  O437  1  0.17149017  0.34266795  0.85301371  1
  O2-  O438  1  0.17909960  0.59124722  0.19273155  1
  O2-  O439  1  0.16343942  0.58263836  0.51476259  1
  O2-  O440  1  0.16605821  0.57797299  0.85122150  1
  O2-  O441  1  0.17234631  0.83462584  0.18865868  1
  O2-  O442  1  0.17122494  0.83644979  0.52527661  1
  O2-  O443  1  0.16900649  0.82845098  0.84770203  1
  O2-  O444  1  0.42311869  0.08211997  0.18799313  1
  O2-  O445  1  0.42770569  0.10844304  0.53097524  1
  O2-  O446  1  0.43730802  0.08893317  0.84931660  1
  O2-  O447  1  0.41790240  0.32430938  0.12889149  1
  O2-  O448  1  0.41283320  0.30546705  0.51666102  1
  O2-  O449  1  0.41904909  0.33199903  0.85830408  1
  O2-  O450  1  0.40827712  0.56535919  0.19466105  1
  O2-  O451  1  0.40549669  0.56072362  0.53089764  1
  O2-  O452  1  0.41865184  0.56482614  0.86139995  1
  O2-  O453  1  0.38636650  0.79691149  0.17741893  1
  O2-  O454  1  0.41746510  0.84350816  0.52093740  1
  O2-  O455  1  0.42475025  0.84889766  0.85187319  1
  O2-  O456  1  0.66379820  0.08185643  0.19786002  1
  O2-  O457  1  0.67597791  0.09339784  0.52020849  1
  O2-  O458  1  0.59400721  0.06992765  0.86873844  1
  O2-  O459  1  0.68111240  0.34365815  0.17751709  1
  O2-  O460  1  0.66919213  0.32539835  0.53537055  1
  O2-  O461  1  0.67328020  0.31694405  0.86679671  1
  O2-  O462  1  0.65380055  0.59035423  0.17902519  1
  O2-  O463  1  0.65734187  0.57554032  0.53464595  1
  O2-  O464  1  0.67896611  0.56819804  0.87091494  1
  O2-  O465  1  0.63547351  0.82812249  0.17685180  1
  O2-  O466  1  0.67586559  0.85394105  0.53009680  1
  O2-  O467  1  0.62409019  0.83399387  0.86563815  1
  O2-  O468  1  0.92480217  0.08916350  0.19779383  1
  O2-  O469  1  0.91170433  0.08091409  0.52066890  1
  O2-  O470  1  0.92691734  0.09200816  0.85040632  1
  O2-  O471  1  0.93260285  0.33189689  0.14607550  1
  O2-  O472  1  0.92134192  0.33877480  0.52175637  1
  O2-  O473  1  0.92749001  0.33659630  0.85048876  1
  O2-  O474  1  0.93748673  0.57059266  0.18127194  1
  O2-  O475  1  0.91941568  0.59082229  0.51886504  1
  O2-  O476  1  0.92482187  0.57711105  0.85002452  1
  O2-  O477  1  0.91423357  0.83203269  0.18811560  1
  O2-  O478  1  0.91397900  0.83241178  0.53280189  1
  O2-  O479  1  0.91807704  0.82199312  0.86066464  1
  O2-  O480  1  0.17158492  0.08010455  0.37746579  1
  O2-  O481  1  0.18846067  0.10344189  0.61607362  1
  O2-  O482  1  0.16536440  0.07903536  0.95934901  1
  O2-  O483  1  0.16954849  0.33659244  0.31598436  1
  O2-  O484  1  0.17365910  0.34324336  0.66176768  1
  O2-  O485  1  0.16735894  0.33786606  0.97695122  1
  O2-  O486  1  0.16334676  0.58585914  0.31233254  1
  O2-  O487  1  0.17068377  0.61485252  0.63887455  1
  O2-  O488  1  0.16790108  0.59228627  1.00113307  1
  O2-  O489  1  0.16644849  0.82875887  0.31019306  1
  O2-  O490  1  0.16605949  0.83541563  0.64910326  1
  O2-  O491  1  0.15659958  0.82345920  1.00534487  1
  O2-  O492  1  0.41569552  0.08346737  0.31608330  1
  O2-  O493  1  0.42853438  0.09197844  0.65099109  1
  O2-  O494  1  0.39205585  0.06980119  0.96188183  1
  O2-  O495  1  0.41318209  0.35385973  0.36407475  1
  O2-  O496  1  0.40554423  0.31815200  0.63689080  1
  O2-  O497  1  0.41643868  0.34225492  0.98070036  1
  O2-  O498  1  0.41041527  0.58181103  0.30944694  1
  O2-  O499  1  0.41302468  0.57449124  0.64579405  1
  O2-  O500  1  0.38931946  0.59184439  0.97791785  1
  O2-  O501  1  0.40476066  0.82163284  0.30130583  1
  O2-  O502  1  0.41938819  0.83281535  0.64325761  1
  O2-  O503  1  0.43418838  0.82201991  0.96683834  1
  O2-  O504  1  0.66890837  0.07690108  0.31874202  1
  O2-  O505  1  0.67800719  0.09784735  0.64328778  1
  O2-  O506  1  0.67346560  0.08999226  0.97221267  1
  O2-  O507  1  0.72984723  0.31076340  0.28748370  1
  O2-  O508  1  0.64697820  0.29698726  0.65490170  1
  O2-  O509  1  0.68269552  0.35888267  0.98722568  1
  O2-  O510  1  0.66244467  0.58889548  0.30202815  1
  O2-  O511  1  0.65656988  0.57624156  0.65555999  1
  O2-  O512  1  0.67303205  0.58235466  0.99117517  1
  O2-  O513  1  0.67044120  0.83549777  0.30417844  1
  O2-  O514  1  0.66884296  0.84726293  0.64737125  1
  O2-  O515  1  0.66661445  0.84135087  0.99247907  1
  O2-  O516  1  0.92575804  0.08152609  0.31785430  1
  O2-  O517  1  0.91414909  0.08070501  0.64380265  1
  O2-  O518  1  0.92492643  0.08063410  0.97650535  1
  O2-  O519  1  0.91781312  0.32998398  0.32025151  1
  O2-  O520  1  0.92103633  0.33304418  0.64408589  1
  O2-  O521  1  0.86233943  0.31142330  0.95597805  1
  O2-  O522  1  0.93020093  0.58327255  0.30477621  1
  O2-  O523  1  0.92411893  0.59949577  0.64530451  1
  O2-  O524  1  0.93395940  0.60994509  0.99917042  1
  O2-  O525  1  0.92162349  0.83158104  0.30849412  1
  O2-  O526  1  0.91036398  0.83292107  0.65080796  1
  O2-  O527  1  0.92023649  0.83715829  0.98486685  1
  O2-  O528  1  0.08638671  0.16313429  0.01978453  1
  O2-  O529  1  0.08764549  0.17157902  0.36015657  1
  O2-  O530  1  0.08184273  0.15630693  0.67732149  1
  O2-  O531  1  0.09899689  0.43342432  0.02587582  1
  O2-  O532  1  0.08566581  0.41618789  0.35660751  1
  O2-  O533  1  0.09278616  0.44257696  0.68219432  1
  O2-  O534  1  0.08615556  0.66550649  0.03450990  1
  O2-  O535  1  0.09027598  0.66668987  0.33914462  1
  O2-  O536  1  0.07834782  0.66944846  0.68623686  1
  O2-  O537  1  0.08110133  0.92102616  0.02900318  1
  O2-  O538  1  0.08431764  0.90627393  0.35855200  1
  O2-  O539  1  0.06217090  0.90362442  0.69170042  1
  O2-  O540  1  0.32619325  0.16491351  0.01181348  1
  O2-  O541  1  0.34530623  0.17341244  0.37095679  1
  O2-  O542  1  0.33835537  0.16208034  0.68881034  1
  O2-  O543  1  0.32941211  0.42288226  0.02423932  1
  O2-  O544  1  0.33033398  0.43313386  0.36479135  1
  O2-  O545  1  0.33645122  0.41223220  0.68820248  1
  O2-  O546  1  0.31816660  0.68146646  0.04544326  1
  O2-  O547  1  0.32273177  0.65913201  0.34813362  1
  O2-  O548  1  0.34604828  0.66700049  0.68576710  1
  O2-  O549  1  0.33560871  0.91530267  0.01862285  1
  O2-  O550  1  0.33238029  0.91131708  0.34825117  1
  O2-  O551  1  0.33921641  0.92065703  0.68594591  1
  O2-  O552  1  0.62384195  0.18984585  0.02776268  1
  O2-  O553  1  0.57650434  0.13167763  0.36310621  1
  O2-  O554  1  0.60653681  0.20564186  0.67322913  1
  O2-  O555  1  0.58387347  0.42014583  0.02043172  1
  O2-  O556  1  0.58148302  0.43457660  0.36734045  1
  O2-  O557  1  0.56301700  0.39638083  0.67564131  1
  O2-  O558  1  0.59015745  0.66424625  0.02161678  1
  O2-  O559  1  0.57939150  0.66578315  0.34795857  1
  O2-  O560  1  0.58254196  0.68347786  0.67912939  1
  O2-  O561  1  0.58625438  0.93133845  0.02176169  1
  O2-  O562  1  0.54890973  0.86073382  0.36099195  1
  O2-  O563  1  0.58822424  0.93214374  0.68554916  1
  O2-  O564  1  0.84047035  0.16930686  0.00700161  1
  O2-  O565  1  0.84029560  0.16703345  0.34754602  1
  O2-  O566  1  0.83734975  0.16935016  0.68562443  1
  O2-  O567  1  0.84607175  0.43446963  0.01937345  1
  O2-  O568  1  0.84365679  0.42109085  0.36529695  1
  O2-  O569  1  0.82275546  0.38495626  0.69012690  1
  O2-  O570  1  0.83806017  0.68086319  0.03309950  1
  O2-  O571  1  0.84059465  0.66529947  0.32968914  1
  O2-  O572  1  0.82707527  0.66797013  0.69115548  1
  O2-  O573  1  0.83552033  0.92151784  0.02674973  1
  O2-  O574  1  0.83788359  0.91247806  0.35334782  1
  O2-  O575  1  0.83593385  0.91868005  0.68808914  1
