# generated using pymatgen
data_H2O
_symmetry_space_group_name_H-M   'P 1'
_cell_length_a   17.99571877
_cell_length_b   18.00296813
_cell_length_c   22.01237627
_cell_angle_alpha   89.97766750
_cell_angle_beta   89.99552978
_cell_angle_gamma   120.02436842
_symmetry_Int_Tables_number   1
_chemical_formula_structural   H2O
_chemical_formula_sum   'H384 O192'
_cell_volume   6174.53306901
_cell_formula_units_Z   192
loop_
 _symmetry_equiv_pos_site_id
 _symmetry_equiv_pos_as_xyz
  1  'x, y, z'
loop_
 _atom_type_symbol
 _atom_type_oxidation_number
  H+  1.0
  O2-  -2.0
loop_
 _atom_site_type_symbol
 _atom_site_label
 _atom_site_symmetry_multiplicity
 _atom_site_fract_x
 _atom_site_fract_y
 _atom_site_fract_z
 _atom_site_occupancy
  H+  H0  1  0.88081943  1.01997386  -0.01542539  1
  H+  H1  1  0.12834298  0.36189671  -0.01219767  1
  H+  H2  1  0.93425218  0.36179843  0.59076667  1
  H+  H3  1  0.53031665  0.34116116  0.85133209  1
  H+  H4  1  0.07243716  0.93681472  0.82955490  1
  H+  H5  1  0.12805074  0.72363878  0.32196563  1
  H+  H6  1  0.89460642  0.52830412  0.65693009  1
  H+  H7  1  0.37091353  0.47848177  0.48837669  1
  H+  H8  1  0.36168328  0.63122301  0.50404418  1
  H+  H9  1  0.05127883  0.90010349  0.48672080  1
  H+  H10  1  0.43994954  0.33527597  0.52767938  1
  H+  H11  1  0.96321454  0.59471567  0.97399491  1
  H+  H12  1  0.11865903  0.22330174  0.80734009  1
  H+  H13  1  0.37511969  0.13570308  0.83074236  1
  H+  H14  1  0.38806723  0.77012732  0.51275729  1
  H+  H15  1  0.12544468  0.89099764  0.80920309  1
  H+  H16  1  0.14584553  0.36528913  0.81750986  1
  H+  H17  1  0.42652181  0.66808677  0.17107144  1
  H+  H18  1  0.36454461  0.38705760  0.48587341  1
  H+  H19  1  0.98758860  0.39110495  0.17337341  1
  H+  H20  1  0.86415403  0.98529790  0.34365124  1
  H+  H21  1  0.62508802  -0.01193062  0.68927115  1
  H+  H22  1  0.59343703  0.37958240  0.67338902  1
  H+  H23  1  0.72666247  0.61208103  0.65338586  1
  H+  H24  1  0.67205988  0.83125922  0.56328789  1
  H+  H25  1  0.49541944  0.57574860  0.80454744  1
  H+  H26  1  0.63317046  0.08579630  0.98360075  1
  H+  H27  1  0.13778317  0.62513347  0.51509318  1
  H+  H28  1  0.13055428  0.60430108  0.98122961  1
  H+  H29  1  0.25406714  0.37652210  -0.00436118  1
  H+  H30  1  0.06692500  0.91215780  0.03679762  1
  H+  H31  1  0.10025996  0.47352584  0.83276955  1
  H+  H32  1  1.01027086  0.38088139  1.00031190  1
  H+  H33  1  0.52162161  0.63702178  0.34003406  1
  H+  H34  1  0.62790767  0.62675744  0.98341211  1
  H+  H35  1  0.86289752  0.98226340  0.65632674  1
  H+  H36  1  0.86504178  0.19096451  0.50941227  1
  H+  H37  1  0.45281673  0.36386073  0.66261679  1
  H+  H38  1  0.94849116  0.86719985  0.96424276  1
  H+  H39  1  0.54804336  0.41198305  0.58108736  1
  H+  H40  1  0.84435821  0.67990687  0.40231770  1
  H+  H41  1  0.27926058  0.62841877  0.15158282  1
  H+  H42  1  0.86428654  0.45567647  0.00466262  1
  H+  H43  1  0.36878297  0.97514896  0.35775186  1
  H+  H44  1  0.37406072  0.85849347  0.16467991  1
  H+  H45  1  0.60827962  0.47472952  0.66246420  1
  H+  H46  1  0.22837372  0.85375324  -0.03012725  1
  H+  H47  1  0.61718382  0.86305260  0.00322911  1
  H+  H48  1  0.71726017  0.13079824  0.51552627  1
  H+  H49  1  0.10472857  0.66753504  0.24001164  1
  H+  H50  1  0.65917238  0.84283615  0.24533684  1
  H+  H51  1  0.53313997  0.79674355  0.78532368  1
  H+  H52  1  0.37427636  0.50854732  0.81982278  1
  H+  H53  1  0.72969678  0.62002269  0.17838314  1
  H+  H54  1  0.41498743  0.26596206  0.99019633  1
  H+  H55  1  0.64090375  0.87877123  0.83793060  1
  H+  H56  1  0.88166516  0.11858720  0.33830023  1
  H+  H57  1  0.20310672  0.09149275  0.33852880  1
  H+  H58  1  0.23693072  0.85475748  0.34486974  1
  H+  H59  1  0.14526887  0.58921501  0.17892949  1
  H+  H60  1  0.26829144  0.89560385  0.15893225  1
  H+  H61  1  0.38938124  0.60285443  0.83072841  1
  H+  H62  1  0.30355384  0.15024432  0.01539877  1
  H+  H63  1  0.42715630  0.26621752  0.83877375  1
  H+  H64  1  0.91092864  0.09486716  0.90410673  1
  H+  H65  1  0.36029454  0.71995810  0.83021938  1
  H+  H66  1  0.47221066  0.10950179  0.19051913  1
  H+  H67  1  -0.02388834  0.61684652  0.17957627  1
  H+  H68  1  0.74086734  0.40829022  0.97640541  1
  H+  H69  1  0.34482433  0.48334364  0.16906403  1
  H+  H70  1  0.28295895  0.65092747  0.67128711  1
  H+  H71  1  0.73505180  0.86295487  0.50528721  1
  H+  H72  1  0.46586765  0.84384584  0.83873405  1
  H+  H73  1  0.89889718  0.62688993  0.33200635  1
  H+  H74  1  0.25202213  0.33977513  0.14279918  1
  H+  H75  1  0.16032982  0.13484237  0.80529689  1
  H+  H76  1  0.46369082  0.85338801  0.99278114  1
  H+  H77  1  0.87860586  0.39037038  0.66026963  1
  H+  H78  1  0.51922945  0.39686221  0.15616992  1
  H+  H79  1  0.89156546  0.78619399  0.18409618  1
  H+  H80  1  0.63971798  0.03550588  0.51391448  1
  H+  H81  1  0.85129178  0.73244898  1.00478024  1
  H+  H82  1  0.60679978  0.26126855  0.52678706  1
  H+  H83  1  0.63140416  0.64758819  0.15529683  1
  H+  H84  1  0.62847750  0.51712938  0.51150853  1
  H+  H85  1  0.28867862  0.89928893  0.67016384  1
  H+  H86  1  0.52979832  0.88799595  0.50034174  1
  H+  H87  1  0.27767861  0.87787043  0.81856088  1
  H+  H88  1  0.34650205  0.38648707  0.69646911  1
  H+  H89  1  0.17897300  0.08514095  0.58224406  1
  H+  H90  1  0.75800279  0.89214104  0.00821956  1
  H+  H91  1  0.78064523  0.63060561  0.49087941  1
  H+  H92  1  0.12901448  0.27398105  -0.00823254  1
  H+  H93  1  0.38375351  0.85703380  0.51401631  1
  H+  H94  1  0.97290410  0.12294847  0.33001672  1
  H+  H95  1  0.16430677  0.32515743  0.26661791  1
  H+  H96  1  0.34524848  0.34528844  0.14164661  1
  H+  H97  1  0.51333176  0.13081685  0.34675072  1
  H+  H98  1  0.27038645  0.38234535  0.79471744  1
  H+  H99  1  0.58940368  0.56543933  0.81420933  1
  H+  H100  1  0.25926031  0.62922498  0.99537886  1
  H+  H101  1  0.10025026  0.46973028  0.00099008  1
  H+  H102  1  0.96140625  0.22582071  0.12355958  1
  H+  H103  1  0.62726654  0.46662130  0.30704193  1
  H+  H104  1  0.48116121  0.61299073  0.51231421  1
  H+  H105  1  0.15793136  0.92554923  0.05055864  1
  H+  H106  1  0.63609044  0.73877258  0.15138863  1
  H+  H107  1  0.62129807  0.72839553  0.49352179  1
  H+  H108  1  0.35308284  0.72636534  -0.00181624  1
  H+  H109  1  0.60934927  0.12634832  0.34662097  1
  H+  H110  1  0.14188957  0.84983944  0.95032272  1
  H+  H111  1  0.60766515  0.13772155  0.82231351  1
  H+  H112  1  0.49459980  0.36526264  -0.01066052  1
  H+  H113  1  0.86999870  -0.02413278  0.49939610  1
  H+  H114  1  0.60462899  0.89274584  0.17114893  1
  H+  H115  1  0.66107830  0.06343039  0.80137304  1
  H+  H116  1  0.42227902  0.83601444  0.27910889  1
  H+  H117  1  0.97136488  0.44309895  0.22390593  1
  H+  H118  1  0.86181322  0.40465403  0.16465394  1
  H+  H119  1  0.46790080  0.09990249  0.84291286  1
  H+  H120  1  0.40788894  0.63204627  0.33199887  1
  H+  H121  1  0.62328151  0.02309609  0.18380307  1
  H+  H122  1  0.88634924  0.11219056  -0.01354392  1
  H+  H123  1  0.01127815  0.41563459  0.48124000  1
  H+  H124  1  0.87768588  0.07800653  0.24198556  1
  H+  H125  1  0.38514287  0.01926404  0.18090702  1
  H+  H126  1  0.96078842  0.75205753  0.84485174  1
  H+  H127  1  0.13605361  0.79360318  0.19419965  1
  H+  H128  1  0.88029755  0.14451487  0.66663683  1
  H+  H129  1  0.60831259  0.72240775  0.81891514  1
  H+  H130  1  0.14538981  0.59865679  0.31281793  1
  H+  H131  1  0.57847790  0.36699249  0.53596850  1
  H+  H132  1  0.08122082  0.15813153  0.75171361  1
  H+  H133  1  0.78399539  0.37846052  0.66303564  1
  H+  H134  1  0.73975367  0.35965006  0.35531001  1
  H+  H135  1  0.63003784  0.29689657  0.19632159  1
  H+  H136  1  0.72857939  0.86271413  0.65733468  1
  H+  H137  1  0.07195672  0.29264836  0.60966092  1
  H+  H138  1  0.66923355  0.43459531  0.98066780  1
  H+  H139  1  0.64840326  0.87693650  0.33058661  1
  H+  H140  1  0.09750155  0.67734748  0.43919066  1
  H+  H141  1  0.97894871  0.40699841  0.85213495  1
  H+  H142  1  0.13090960  0.88678674  0.48107190  1
  H+  H143  1  0.88238574  0.52393466  0.81213857  1
  H+  H144  1  0.84440766  0.01199434  0.18687702  1
  H+  H145  1  0.36240140  0.96564063  0.83898919  1
  H+  H146  1  0.48697180  0.14792932  0.97042493  1
  H+  H147  1  0.34143186  0.40872836  0.38594206  1
  H+  H148  1  0.35271016  0.20806460  0.34505910  1
  H+  H149  1  0.11771291  0.14866515  1.01359089  1
  H+  H150  1  0.62504345  0.23961160  -0.00797205  1
  H+  H151  1  0.12297138  0.74393919  0.69722323  1
  H+  H152  1  0.95295378  0.81682620  0.80298565  1
  H+  H153  1  0.14249344  0.03441402  0.19101887  1
  H+  H154  1  0.86131871  0.48254454  0.35949206  1
  H+  H155  1  0.37063505  0.22703857  0.67585663  1
  H+  H156  1  0.48204852  0.86111267  0.33845179  1
  H+  H157  1  0.11819484  0.73869894  0.50458253  1
  H+  H158  1  0.69862671  0.57984329  0.83070535  1
  H+  H159  1  0.83333264  0.60450091  0.81345011  1
  H+  H160  1  0.35247645  0.51305817  0.19530319  1
  H+  H161  1  0.27915321  0.62789200  0.34464368  1
  H+  H162  1  0.12841204  0.76987738  0.79279427  1
  H+  H163  1  0.61968036  0.88952954  0.49838511  1
  H+  H164  1  0.90980497  0.34556057  0.89963506  1
  H+  H165  1  0.38711725  0.61831592  0.66236613  1
  H+  H166  1  0.87910092  0.25537404  0.82180320  1
  H+  H167  1  0.86900622  0.88554206  0.49197399  1
  H+  H168  1  0.53465749  0.90185160  0.67011395  1
  H+  H169  1  0.90508556  0.77715349  0.50293406  1
  H+  H170  1  0.61261741  0.72349661  0.67127132  1
  H+  H171  1  0.61414080  0.62375045  0.34539763  1
  H+  H172  1  0.12576524  0.40211487  0.66450370  1
  H+  H173  1  0.38931316  1.02492183  0.65598196  1
  H+  H174  1  0.11891250  0.46144269  0.15342826  1
  H+  H175  1  0.71334727  0.10932840  0.18869240  1
  H+  H176  1  0.81709008  0.21800624  0.19063907  1
  H+  H177  1  0.98878319  0.61626053  0.50207058  1
  H+  H178  1  0.85687936  0.27202612  0.49509466  1
  H+  H179  1  0.88777509  0.14436523  0.84087431  1
  H+  H180  1  0.16713929  1.05561960  0.01816786  1
  H+  H181  1  0.62679450  0.37939879  0.32282246  1
  H+  H182  1  0.61906087  0.63700061  0.49451985  1
  H+  H183  1  0.82168694  0.40853059  0.06718953  1
  H+  H184  1  0.78234835  0.92487799  0.82495367  1
  H+  H185  1  0.87104196  0.34821482  0.99432847  1
  H+  H186  1  0.73998910  0.14053687  0.82937481  1
  H+  H187  1  0.60494781  0.49629940  1.00244939  1
  H+  H188  1  0.83277696  0.92101421  0.39992455  1
  H+  H189  1  0.13860483  0.88316173  0.19566907  1
  H+  H190  1  0.35279009  0.24428945  0.51272019  1
  H+  H191  1  0.36469608  0.01196162  0.51380891  1
  H+  H192  1  0.10705257  0.71808871  -0.01408786  1
  H+  H193  1  0.46313470  0.86019706  0.16790992  1
  H+  H194  1  0.47419166  0.34488416  0.31184306  1
  H+  H195  1  0.98171697  0.34876095  0.32893264  1
  H+  H196  1  0.35629667  0.46190398  0.99868128  1
  H+  H197  1  0.12787271  0.25753621  0.17422394  1
  H+  H198  1  0.38009492  0.85275276  0.84498850  1
  H+  H199  1  0.61798104  0.24153874  1.02567271  1
  H+  H200  1  0.13505609  0.34951483  0.16827983  1
  H+  H201  1  0.16556040  0.31569951  0.59436794  1
  H+  H202  1  0.57212124  0.88813736  0.75400961  1
  H+  H203  1  0.86541424  0.64649515  0.16673137  1
  H+  H204  1  0.88737981  0.09067813  0.49818424  1
  H+  H205  1  0.64193955  0.37868592  0.23542657  1
  H+  H206  1  0.10059660  0.13168329  0.34161648  1
  H+  H207  1  0.35526027  0.72798380  0.14644023  1
  H+  H208  1  0.85684255  0.22412191  0.34472458  1
  H+  H209  1  0.27829510  0.37193723  0.33013700  1
  H+  H210  1  0.72924656  0.61409265  0.32890682  1
  H+  H211  1  0.37282036  0.88805160  0.35570476  1
  H+  H212  1  0.26036529  0.87250801  0.50833792  1
  H+  H213  1  0.99643702  0.38363626  0.65047533  1
  H+  H214  1  0.87128758  0.92670519  0.81938234  1
  H+  H215  1  0.60024536  0.73024624  1.00031008  1
  H+  H216  1  0.03655037  0.35607332  0.79936221  1
  H+  H217  1  0.58676855  0.18768244  0.73040599  1
  H+  H218  1  0.77027257  0.40142955  0.16673972  1
  H+  H219  1  0.51129607  0.66060059  0.17025464  1
  H+  H220  1  0.57688379  0.78052524  0.20332989  1
  H+  H221  1  0.96897581  0.10229280  0.64733261  1
  H+  H222  1  0.87015793  0.63067825  0.49023335  1
  H+  H223  1  0.13603878  0.01804785  0.63630863  1
  H+  H224  1  1.02728032  0.88192069  0.66030441  1
  H+  H225  1  0.88832434  0.05108892  0.83304741  1
  H+  H226  1  0.23293089  0.12090882  0.18045393  1
  H+  H227  1  0.13784276  0.63277219  0.70851042  1
  H+  H228  1  0.39505391  0.26895003  0.16998796  1
  H+  H229  1  0.61340921  0.14871349  0.18256737  1
  H+  H230  1  0.88484883  0.53130403  0.17172290  1
  H+  H231  1  0.63666342  0.61144695  0.65267476  1
  H+  H232  1  0.40866538  0.82185255  0.93069410  1
  H+  H233  1  0.36432342  0.13042565  0.17074655  1
  H+  H234  1  0.03243552  0.63617705  0.31918554  1
  H+  H235  1  0.11189612  0.13611755  0.16687476  1
  H+  H236  1  0.39599314  0.12494505  0.65920980  1
  H+  H237  1  0.35566080  0.09916359  0.50850498  1
  H+  H238  1  0.13472060  0.26828979  0.32738694  1
  H+  H239  1  0.63609484  0.53401416  0.17394751  1
  H+  H240  1  0.64086165  0.86453573  0.65907761  1
  H+  H241  1  0.01852978  0.89592470  0.18746827  1
  H+  H242  1  0.77943368  0.13072834  1.00165918  1
  H+  H243  1  0.02328966  0.13524772  0.00538320  1
  H+  H244  1  0.38607477  0.13526444  1.01163542  1
  H+  H245  1  0.61469487  0.22274057  0.35436797  1
  H+  H246  1  0.91148960  0.58326177  0.27372281  1
  H+  H247  1  0.65286678  0.31459892  0.73528939  1
  H+  H248  1  0.48659850  0.06585308  0.01265646  1
  H+  H249  1  0.88980996  0.86634209  0.65503091  1
  H+  H250  1  0.86192622  0.63663122  0.66560791  1
  H+  H251  1  1.10059967  0.20863449  0.65970839  1
  H+  H252  1  0.59974874  0.22066969  0.82253509  1
  H+  H253  1  0.71504141  0.62275050  -0.01512973  1
  H+  H254  1  0.72430886  0.12048324  0.34161506  1
  H+  H255  1  0.80368253  0.21855990  0.15822341  1
  H+  H256  1  0.85068483  0.64634618  0.01747160  1
  H+  H257  1  0.50709987  0.13356553  0.50574674  1
  H+  H258  1  0.15135153  0.53556038  0.66612132  1
  H+  H259  1  0.40151038  0.78908357  0.66232384  1
  H+  H260  1  0.19018094  0.10340583  0.95539861  1
  H+  H261  1  0.30153962  0.15986889  0.81369088  1
  H+  H262  1  0.82485832  0.68681413  0.81591972  1
  H+  H263  1  0.86247443  0.39297507  0.81617210  1
  H+  H264  1  0.01317487  0.11971147  0.49279746  1
  H+  H265  1  0.22343273  0.61848057  0.51951611  1
  H+  H266  1  0.38038250  0.90605201  0.66855094  1
  H+  H267  1  0.10498556  0.12201681  0.65411644  1
  H+  H268  1  0.19176263  0.03939589  0.48261418  1
  H+  H269  1  0.14506105  0.55752280  0.92491725  1
  H+  H270  1  0.14815399  0.86185946  0.65840647  1
  H+  H271  1  0.11144604  0.19940580  0.49460873  1
  H+  H272  1  0.11782234  0.38168224  0.34135498  1
  H+  H273  1  0.61296201  0.96951820  -0.00182843  1
  H+  H274  1  0.74043134  0.88117840  0.32555150  1
  H+  H275  1  0.18166454  0.33711136  0.87580549  1
  H+  H276  1  0.38247724  0.10809942  0.34246973  1
  H+  H277  1  0.46870850  0.59155239  0.98595755  1
  H+  H278  1  0.88147335  0.26539502  -0.01524616  1
  H+  H279  1  0.75554566  0.87561448  0.16332831  1
  H+  H280  1  0.24454959  0.34880207  0.50712970  1
  H+  H281  1  0.05862561  0.94141128  0.33327755  1
  H+  H282  1  0.64303114  0.71648046  0.83381090  1
  H+  H283  1  0.17700654  0.05633485  0.79392848  1
  H+  H284  1  0.86111611  0.55050652  0.95810262  1
  H+  H285  1  0.88980904  0.13366048  0.14937354  1
  H+  H286  1  0.35772503  -0.02691595  0.99360538  1
  H+  H287  1  0.74657237  0.12565605  0.69354924  1
  H+  H288  1  0.09975688  0.42416081  0.72939246  1
  H+  H289  1  0.09331589  0.56055872  0.83146200  1
  H+  H290  1  0.73387975  0.36815740  0.81174349  1
  H+  H291  1  0.41942483  0.57721120  0.57060622  1
  H+  H292  1  0.38273089  0.52834463  0.67374435  1
  H+  H293  1  0.32288263  0.90514139  0.45037445  1
  H+  H294  1  0.27695367  0.62794670  0.82017067  1
  H+  H295  1  0.59251612  0.19557885  0.12965260  1
  H+  H296  1  0.37949088  0.32312870  0.61265775  1
  H+  H297  1  0.31333296  0.38079893  0.05851425  1
  H+  H298  1  0.83904556  0.41553318  0.74937516  1
  H+  H299  1  0.58587037  0.67212344  0.05850127  1
  H+  H300  1  0.41538536  0.07379520  0.90569502  1
  H+  H301  1  0.67169525  0.58488560  0.56215679  1
  H+  H302  1  0.35521171  0.88384975  -0.00245580  1
  H+  H303  1  0.58483395  0.43810710  0.06326628  1
  H+  H304  1  0.32208828  0.92058267  0.09596756  1
  H+  H305  1  0.06115340  0.89189849  0.38974385  1
  H+  H306  1  0.54025324  0.96691834  0.03358283  1
  H+  H307  1  0.08969914  0.93317129  0.13470788  1
  H+  H308  1  0.91032503  0.07609911  0.58467116  1
  H+  H309  1  0.33067841  0.65873556  0.44501458  1
  H+  H310  1  0.85895652  0.19278276  0.76298277  1
  H+  H311  1  0.88541064  0.23711502  0.66567341  1
  H+  H312  1  0.17069693  0.70939082  0.18431978  1
  H+  H313  1  0.83744076  0.93181235  0.71912456  1
  H+  H314  1  0.34830862  0.16295037  0.10663047  1
  H+  H315  1  0.56778633  0.41993859  0.41824858  1
  H+  H316  1  0.07308491  0.66345584  0.04656684  1
  H+  H317  1  0.09176583  0.92228304  0.71531547  1
  H+  H318  1  0.61102262  0.40461708  0.15386516  1
  H+  H319  1  0.69632886  0.31468347  0.29287818  1
  H+  H320  1  0.17470194  0.81746692  0.60757347  1
  H+  H321  1  0.65863704  0.85777824  0.94021147  1
  H+  H322  1  0.97621848  0.61920559  0.67182285  1
  H+  H323  1  0.93182802  0.83595558  0.56152434  1
  H+  H324  1  0.41478461  0.32755170  0.22767939  1
  H+  H325  1  0.36313792  0.72084148  0.34926666  1
  H+  H326  1  0.14273616  0.50842476  0.32350393  1
  H+  H327  1  0.15922541  0.08345536  0.27572425  1
  H+  H328  1  0.58656547  0.91745971  0.40929697  1
  H+  H329  1  0.66409264  0.13555918  0.69161133  1
  H+  H330  1  0.61320652  -0.02049754  0.35188022  1
  H+  H331  1  0.89442192  0.47080904  0.50979720  1
  H+  H332  1  0.08481122  0.42099716  0.39604725  1
  H+  H333  1  0.09496346  0.80903564  0.54679117  1
  H+  H334  1  0.60960501  0.42154588  0.42462498  1
  H+  H335  1  0.81618180  0.91130128  0.10562421  1
  H+  H336  1  0.53900325  0.07109542  0.07688011  1
  H+  H337  1  0.59789555  0.13853718  0.51105996  1
  H+  H338  1  0.41194875  0.07611068  0.28320059  1
  H+  H339  1  0.88521428  0.77456823  0.65746729  1
  H+  H340  1  0.18243937  0.84538103  0.28582858  1
  H+  H341  1  0.58542149  0.65855808  0.40808953  1
  H+  H342  1  0.91972980  0.32387853  0.27182526  1
  H+  H343  1  0.41352794  0.55462370  0.92548278  1
  H+  H344  1  0.83874511  0.88083596  0.00054526  1
  H+  H345  1  0.40729229  0.08336792  0.59126278  1
  H+  H346  1  0.45634109  0.63765029  0.26864811  1
  H+  H347  1  0.24818996  0.27858783  0.54414923  1
  H+  H348  1  0.18352456  0.56067496  0.23167410  1
  H+  H349  1  0.34336202  0.67683610  0.72932923  1
  H+  H350  1  0.83212559  0.67964769  0.11104269  1
  H+  H351  1  0.85823079  0.16634211  0.05335903  1
  H+  H352  1  0.07344750  0.16379167  0.40054597  1
  H+  H353  1  0.84548850  0.42146318  0.41764347  1
  H+  H354  1  0.67260453  0.07860297  0.92042484  1
  H+  H355  1  0.16917062  0.60082601  0.61135062  1
  H+  H356  1  0.66991774  0.40038239  0.88615091  1
  H+  H357  1  0.67096912  0.59188879  0.26948401  1
  H+  H358  1  0.93079579  0.80086382  0.34257430  1
  H+  H359  1  0.67406985  0.81702530  0.85535911  1
  H+  H360  1  0.07405401  0.40515900  0.09378541  1
  H+  H361  1  0.32129028  0.66279548  0.06208632  1
  H+  H362  1  0.52122934  0.63521279  0.66634121  1
  H+  H363  1  0.45564823  0.32047481  0.91169413  1
  H+  H364  1  0.07438539  0.16010055  0.10895229  1
  H+  H365  1  0.66152608  0.08483244  0.28185051  1
  H+  H366  1  0.38564776  0.34732358  0.32095159  1
  H+  H367  1  0.15507730  0.79874563  0.86268734  1
  H+  H368  1  0.88651342  0.87132092  0.18024835  1
  H+  H369  1  0.93113745  0.59097130  0.56212036  1
  H+  H370  1  0.81813342  0.65189265  0.72351382  1
  H+  H371  1  0.89151179  0.80747254  0.91306401  1
  H+  H372  1  0.91669888  0.57567584  0.87204787  1
  H+  H373  1  0.82276698  0.17883823  0.40922348  1
  H+  H374  1  0.19898064  0.01945079  0.90168659  1
  H+  H375  1  0.15300806  0.00974256  0.90388378  1
  H+  H376  1  0.64436279  0.57322326  0.89191727  1
  H+  H377  1  0.58229777  0.92581146  0.10933132  1
  H+  H378  1  0.63317751  0.30855474  0.59009456  1
  H+  H379  1  0.42999907  0.84375226  0.60149460  1
  H+  H380  1  0.56394681  0.61058567  0.74654530  1
  H+  H381  1  0.36825919  0.17449548  0.73486531  1
  H+  H382  1  0.10633271  0.49252944  0.49007958  1
  H+  H383  1  0.31773051  0.15042816  0.40684257  1
  O2-  O384  1  0.07621277  0.16132914  0.15372390  1
  O2-  O385  1  0.07079737  0.14916175  0.47110158  1
  O2-  O386  1  0.08990376  0.16155966  0.79663844  1
  O2-  O387  1  0.07569729  0.40267863  0.13930316  1
  O2-  O388  1  0.07191661  0.43847738  0.46734460  1
  O2-  O389  1  0.09482942  0.40433862  0.79619989  1
  O2-  O390  1  0.10969811  0.67208016  0.19295474  1
  O2-  O391  1  0.08877780  0.67118071  0.48287644  1
  O2-  O392  1  0.08076126  0.70066863  0.72794823  1
  O2-  O393  1  0.08425415  0.92773090  0.17902484  1
  O2-  O394  1  0.10794245  0.92344845  0.46628390  1
  O2-  O395  1  0.09866732  0.92526667  0.79486028  1
  O2-  O396  1  0.33866214  0.16246029  0.15143884  1
  O2-  O397  1  0.30936422  0.14338780  0.48270497  1
  O2-  O398  1  0.36596924  0.18097199  0.81146796  1
  O2-  O399  1  0.29879794  0.34346114  0.11581794  1
  O2-  O400  1  0.34004934  0.42099051  0.46855197  1
  O2-  O401  1  0.33235127  0.41684713  0.77924778  1
  O2-  O402  1  0.33361061  0.66836792  0.12932741  1
  O2-  O403  1  0.33192116  0.66242290  0.49024583  1
  O2-  O404  1  0.33776588  0.66201149  0.81001086  1
  O2-  O405  1  0.32719844  0.92082296  0.14075737  1
  O2-  O406  1  0.32148999  0.90431897  0.49578892  1
  O2-  O407  1  0.33851250  0.90346599  0.82973352  1
  O2-  O408  1  0.58370941  0.18219047  0.17294174  1
  O2-  O409  1  0.56872862  0.16996320  0.49640938  1
  O2-  O410  1  0.56894721  0.15956305  0.80968077  1
  O2-  O411  1  0.57974258  0.43392174  0.14022354  1
  O2-  O412  1  0.54703045  0.40148905  0.53703083  1
  O2-  O413  1  0.63981869  0.38602458  0.84502993  1
  O2-  O414  1  0.60716836  0.68050097  0.13376385  1
  O2-  O415  1  0.58783680  0.66666193  0.47961593  1
  O2-  O416  1  0.54045635  0.56872136  0.78155254  1
  O2-  O417  1  0.57629628  0.92512891  0.15398110  1
  O2-  O418  1  0.58962694  0.92055734  0.48463401  1
  O2-  O419  1  0.55728994  0.85717572  0.79599815  1
  O2-  O420  1  0.90932476  0.17335232  0.11250992  1
  O2-  O421  1  0.82927719  0.20727138  0.48621218  1
  O2-  O422  1  0.85142052  0.19410539  0.80859975  1
  O2-  O423  1  0.82694149  0.42816450  0.14609440  1
  O2-  O424  1  0.86003377  0.40933793  0.49735339  1
  O2-  O425  1  0.83089197  0.41798164  0.79473294  1
  O2-  O426  1  0.83297559  0.67620725  0.15575588  1
  O2-  O427  1  0.84105369  0.66294591  0.47648980  1
  O2-  O428  1  0.79436607  0.62787497  0.80010969  1
  O2-  O429  1  0.81588530  0.90731480  0.15038920  1
  O2-  O430  1  0.83477209  0.91312553  0.48236016  1
  O2-  O431  1  0.84044606  0.95491789  0.80477482  1
  O2-  O432  1  0.17424256  0.09787677  0.19754602  1
  O2-  O433  1  0.21824531  0.09667457  0.50237488  1
  O2-  O434  1  0.20207801  0.11284375  0.81293479  1
  O2-  O435  1  0.16534432  0.32114514  0.18525626  1
  O2-  O436  1  0.20835142  0.29893795  0.53416654  1
  O2-  O437  1  0.18028279  0.33515513  0.83127446  1
  O2-  O438  1  0.18090889  0.56228044  0.18530098  1
  O2-  O439  1  0.16391837  0.59307861  0.53528078  1
  O2-  O440  1  0.09239790  0.51838202  0.85998454  1
  O2-  O441  1  0.17519914  0.85510080  0.20121803  1
  O2-  O442  1  0.14722236  0.81113615  0.53223528  1
  O2-  O443  1  0.15770695  0.81956487  0.82102068  1
  O2-  O444  1  0.41138151  0.07489262  0.20327066  1
  O2-  O445  1  0.39256495  0.07393196  0.52491546  1
  O2-  O446  1  0.40854727  0.06995178  0.86003256  1
  O2-  O447  1  0.42009319  0.33059521  0.18204329  1
  O2-  O448  1  0.37541260  0.30364385  0.53066643  1
  O2-  O449  1  0.46908338  0.32398881  0.85996097  1
  O2-  O450  1  0.47620888  0.67723604  0.19578701  1
  O2-  O451  1  0.42004948  0.57961014  0.52536739  1
  O2-  O452  1  0.41221335  0.56437929  0.84148819  1
  O2-  O453  1  0.40132090  0.82519563  0.17895562  1
  O2-  O454  1  0.41988948  0.83160596  0.52591801  1
  O2-  O455  1  0.40881105  0.81756870  0.85868295  1
  O2-  O456  1  0.65315158  0.08325185  0.20123821  1
  O2-  O457  1  0.65942984  0.09249631  0.53212276  1
  O2-  O458  1  0.67855852  0.09879011  0.83832221  1
  O2-  O459  1  0.66429431  0.36003378  0.19990469  1
  O2-  O460  1  0.63067014  0.31983113  0.54718859  1
  O2-  O461  1  0.66773446  0.33114911  0.81571528  1
  O2-  O462  1  0.66817119  0.59316091  0.19166481  1
  O2-  O463  1  0.66821948  0.57975900  0.51661013  1
  O2-  O464  1  0.63924798  0.55466336  0.84849217  1
  O2-  O465  1  0.63642950  0.82931462  0.19884448  1
  O2-  O466  1  0.67214940  0.83134875  0.51813553  1
  O2-  O467  1  0.68754417  0.87653920  0.86267256  1
  O2-  O468  1  0.84788346  0.06535155  0.20178924  1
  O2-  O469  1  0.91743477  0.06780720  0.52127115  1
  O2-  O470  1  0.91221923  0.10653894  0.85677750  1
  O2-  O471  1  0.94097933  0.39249330  0.19822242  1
  O2-  O472  1  0.91278155  0.37040301  0.51464317  1
  O2-  O473  1  0.91989317  0.35735552  0.85451879  1
  O2-  O474  1  0.91527627  0.59015063  0.19040710  1
  O2-  O475  1  0.92728466  0.58249420  0.51760747  1
  O2-  O476  1  0.90621100  0.58315797  0.82916667  1
  O2-  O477  1  0.92254996  0.84773558  0.19478176  1
  O2-  O478  1  0.93772534  0.83765099  0.51655250  1
  O2-  O479  1  0.93015849  0.78395438  0.84061978  1
  O2-  O480  1  0.14609808  0.06916306  0.31954156  1
  O2-  O481  1  0.15708298  0.07815844  0.62410254  1
  O2-  O482  1  0.19367752  0.11333997  0.99927961  1
  O2-  O483  1  0.16742530  0.32912590  0.31182945  1
  O2-  O484  1  0.12730929  0.31216649  0.62913204  1
  O2-  O485  1  0.15986207  0.33272976  0.97344691  1
  O2-  O486  1  0.17816636  0.56844777  0.30506310  1
  O2-  O487  1  0.17856586  0.59904414  0.65638705  1
  O2-  O488  1  0.16258436  0.57515372  0.96887569  1
  O2-  O489  1  0.17819701  0.82259630  0.32721981  1
  O2-  O490  1  0.17844113  0.82824721  0.65286633  1
  O2-  O491  1  0.16987626  0.81539877  0.95133273  1
  O2-  O492  1  0.41843438  0.08159394  0.32828557  1
  O2-  O493  1  0.41911278  0.08739500  0.63793029  1
  O2-  O494  1  0.43741738  0.09204776  0.98053324  1
  O2-  O495  1  0.41184653  0.31203781  0.30451789  1
  O2-  O496  1  0.38933421  0.33212474  0.65725965  1
  O2-  O497  1  0.44063067  0.32198923  0.96765168  1
  O2-  O498  1  0.44836192  0.61709793  0.31155032  1
  O2-  O499  1  0.41451015  0.58323811  0.65115950  1
  O2-  O500  1  0.41031553  0.55211784  0.97044200  1
  O2-  O501  1  0.42056585  0.82961171  0.32349913  1
  O2-  O502  1  0.43368781  0.84940289  0.64708255  1
  O2-  O503  1  0.40367828  0.82135548  0.97704961  1
  O2-  O504  1  0.66125008  0.08767795  0.32693668  1
  O2-  O505  1  0.68462701  0.09646456  0.70477638  1
  O2-  O506  1  0.67500381  0.07209431  0.96508307  1
  O2-  O507  1  0.68061564  0.31827072  0.33482442  1
  O2-  O508  1  0.65421900  0.30170843  0.69117523  1
  O2-  O509  1  0.71523499  0.43737648  0.95364005  1
  O2-  O510  1  0.66878319  0.58197576  0.31449789  1
  O2-  O511  1  0.66575888  0.57961477  0.63865349  1
  O2-  O512  1  0.65663206  0.59461982  0.96746802  1
  O2-  O513  1  0.67948238  0.85330659  0.30802745  1
  O2-  O514  1  0.66620001  0.82918684  0.64578515  1
  O2-  O515  1  0.65266186  0.84208890  0.98415948  1
  O2-  O516  1  0.91094638  0.09185758  0.31700473  1
  O2-  O517  1  0.90806336  0.07889350  0.63400176  1
  O2-  O518  1  0.91452703  0.07996919  0.96852998  1
  O2-  O519  1  0.92080392  0.31327245  0.31537742  1
  O2-  O520  1  0.93569501  0.35039114  0.63550043  1
  O2-  O521  1  0.90673037  0.32748091  0.97325730  1
  O2-  O522  1  0.92179703  0.58933586  0.31813762  1
  O2-  O523  1  0.92348550  0.59077606  0.64718715  1
  O2-  O524  1  0.91299455  0.54631918  0.95382158  1
  O2-  O525  1  0.86727961  0.76240008  0.33357560  1
  O2-  O526  1  0.91999963  0.83480242  0.64275230  1
  O2-  O527  1  0.88935126  0.82302783  0.95597396  1
  O2-  O528  1  0.08003297  0.17218710  0.02437598  1
  O2-  O529  1  0.07557592  0.16792909  0.35415281  1
  O2-  O530  1  0.07261980  0.14822002  0.67373407  1
  O2-  O531  1  0.07047796  0.40979687  0.01649260  1
  O2-  O532  1  0.08719547  0.41412638  0.35057153  1
  O2-  O533  1  0.09998423  0.43439322  0.68257210  1
  O2-  O534  1  0.07186386  0.65841773  0.00240964  1
  O2-  O535  1  0.09474379  0.65996664  0.30973080  1
  O2-  O536  1  0.11765053  0.64781135  0.74730676  1
  O2-  O537  1  0.12294648  0.95293312  0.05342029  1
  O2-  O538  1  0.03314282  0.88279574  0.34961059  1
  O2-  O539  1  0.08969154  0.91212988  0.67109023  1
  O2-  O540  1  0.36343177  0.17261338  0.02936188  1
  O2-  O541  1  0.32368311  0.14836350  0.36105485  1
  O2-  O542  1  0.36184079  0.17075445  0.68976784  1
  O2-  O543  1  0.31565529  0.39891170  0.01141027  1
  O2-  O544  1  0.33978068  0.39781263  0.34180217  1
  O2-  O545  1  0.32369741  0.42329008  0.71314420  1
  O2-  O546  1  0.31921479  0.66395114  0.01426438  1
  O2-  O547  1  0.33673584  0.66064992  0.36423983  1
  O2-  O548  1  0.34527407  0.68044650  0.68428757  1
  O2-  O549  1  0.32224959  0.91328761  0.00793306  1
  O2-  O550  1  0.34031213  0.91472357  0.37252487  1
  O2-  O551  1  0.35020616  0.93738422  0.68058471  1
  O2-  O552  1  0.53156691  0.05044244  0.03528766  1
  O2-  O553  1  0.57682418  0.15801456  0.36069037  1
  O2-  O554  1  0.61396462  0.20704252  0.68950743  1
  O2-  O555  1  0.58638390  0.43723693  0.01771236  1
  O2-  O556  1  0.60102610  0.40489330  0.29604148  1
  O2-  O557  1  0.56429122  0.41256577  0.66713816  1
  O2-  O558  1  0.57618525  0.66979455  0.01351952  1
  O2-  O559  1  0.58417915  0.65468200  0.36158610  1
  O2-  O560  1  0.58210167  0.66059152  0.68080280  1
  O2-  O561  1  0.56468794  0.92743837  0.02442682  1
  O2-  O562  1  0.58345378  0.91790531  0.36347914  1
  O2-  O563  1  0.59266961  0.92376822  0.68988581  1
  O2-  O564  1  0.84222348  0.16453181  0.00860323  1
  O2-  O565  1  0.81851677  0.16619374  0.36483708  1
  O2-  O566  1  0.86012838  0.18163976  0.68769381  1
  O2-  O567  1  0.82190483  0.39961424  0.02243320  1
  O2-  O568  1  0.82818784  0.42330383  0.37509156  1
  O2-  O569  1  0.84365812  0.41697290  0.67547556  1
  O2-  O570  1  0.81993396  0.67673045  0.02662318  1
  O2-  O571  1  0.84294796  0.67632882  0.35613882  1
  O2-  O572  1  0.82896615  0.66494397  0.67923751  1
  O2-  O573  1  0.82026382  0.91884875  0.01861486  1
  O2-  O574  1  0.83162999  0.92360653  0.35491262  1
  O2-  O575  1  0.83512559  0.92170034  0.67512919  1
