# generated using pymatgen
data_H2O
_symmetry_space_group_name_H-M   'P 1'
_cell_length_a   17.98489262
_cell_length_b   17.98491412
_cell_length_c   22.00155486
_cell_angle_alpha   89.98890147
_cell_angle_beta   90.00774203
_cell_angle_gamma   119.97957370
_symmetry_Int_Tables_number   1
_chemical_formula_structural   H2O
_chemical_formula_sum   'H384 O192'
_cell_volume   6164.38234537
_cell_formula_units_Z   192
loop_
 _symmetry_equiv_pos_site_id
 _symmetry_equiv_pos_as_xyz
  1  'x, y, z'
loop_
 _atom_type_symbol
 _atom_type_oxidation_number
  H+  1.0
  O2-  -2.0
loop_
 _atom_site_type_symbol
 _atom_site_label
 _atom_site_symmetry_multiplicity
 _atom_site_fract_x
 _atom_site_fract_y
 _atom_site_fract_z
 _atom_site_occupancy
  H+  H0  1  0.70167237  0.69191148  0.93683961  1
  H+  H1  1  0.12317436  0.02286239  0.98870683  1
  H+  H2  1  0.36631226  0.62364446  0.16924375  1
  H+  H3  1  0.87430395  0.99715209  0.81719147  1
  H+  H4  1  0.72293588  0.47436238  0.21626725  1
  H+  H5  1  0.05458646  0.93737342  0.47207240  1
  H+  H6  1  0.27617184  0.38978952  0.34049447  1
  H+  H7  1  0.87165171  0.64071730  0.82815045  1
  H+  H8  1  0.07673701  0.91791453  0.76376038  1
  H+  H9  1  0.86958042  0.14723612  0.77647176  1
  H+  H10  1  0.39121545  0.25150288  0.82771882  1
  H+  H11  1  0.41237838  0.06961947  0.92062750  1
  H+  H12  1  0.34426337  -0.02389081  0.32950093  1
  H+  H13  1  0.52732207  0.64220859  0.67498121  1
  H+  H14  1  0.10525328  -0.03108677  0.66772154  1
  H+  H15  1  0.51674216  0.87085544  0.49433664  1
  H+  H16  1  0.25748620  0.88306445  0.48588120  1
  H+  H17  1  0.63989928  0.27752791  0.88358448  1
  H+  H18  1  0.88152969  0.27624342  1.00636603  1
  H+  H19  1  0.38942140  0.36951022  0.33201099  1
  H+  H20  1  0.59140644  0.04526402  0.86793547  1
  H+  H21  1  0.85607724  0.74893093  0.51471601  1
  H+  H22  1  0.63578995  0.25087253  0.66874094  1
  H+  H23  1  0.33896579  0.12527669  0.00743450  1
  H+  H24  1  0.90360473  0.27693536  0.33720321  1
  H+  H25  1  0.22801945  0.61574383  0.17253027  1
  H+  H26  1  0.14990257  0.27112500  0.33343442  1
  H+  H27  1  0.22825815  0.62002827  0.33129750  1
  H+  H28  1  0.59299270  -0.03146751  0.95603786  1
  H+  H29  1  0.17266753  0.59034334  0.56276339  1
  H+  H30  1  0.89678586  0.53600538  0.17810628  1
  H+  H31  1  0.11355214  0.63950169  0.16047531  1
  H+  H32  1  0.98667347  0.11232944  0.66153775  1
  H+  H33  1  0.11207192  0.88596405  0.14278568  1
  H+  H34  1  0.18529362  0.32672584  0.58463385  1
  H+  H35  1  0.60909178  0.42198247  0.57217750  1
  H+  H36  1  0.13241742  0.77403914  0.35416704  1
  H+  H37  1  0.35878153  0.34736990  0.80471332  1
  H+  H38  1  0.39255462  0.80625508  0.02561602  1
  H+  H39  1  0.87668701  0.13367039  0.67770629  1
  H+  H40  1  0.58954277  0.41918642  0.74245453  1
  H+  H41  1  0.32361226  0.15770875  0.72001136  1
  H+  H42  1  0.49906831  0.05002591  0.06352410  1
  H+  H43  1  0.13317549  0.53737186  0.66884473  1
  H+  H44  1  0.10343735  0.87965830  0.66838476  1
  H+  H45  1  0.53733353  0.38775571  0.52249439  1
  H+  H46  1  0.72696643  0.38102093  0.33887150  1
  H+  H47  1  0.37880960  0.51153418  0.19387705  1
  H+  H48  1  0.36808623  0.64806516  0.82365030  1
  H+  H49  1  0.12390807  0.02260299  0.83746268  1
  H+  H50  1  0.40613832  0.28659491  0.33593006  1
  H+  H51  1  -0.03229283  0.85679703  0.66021502  1
  H+  H52  1  0.09846313  0.73882194  1.00836069  1
  H+  H53  1  0.12362364  0.76535407  0.49916284  1
  H+  H54  1  0.38613569  1.01005183  0.65935956  1
  H+  H55  1  0.79859358  0.14460837  0.35008294  1
  H+  H56  1  0.35273544  0.00947841  0.50453161  1
  H+  H57  1  0.61846945  0.86079776  0.34111813  1
  H+  H58  1  0.62743156  0.89375051  0.15819187  1
  H+  H59  1  0.81951879  0.65621586  0.43630626  1
  H+  H60  1  0.75770825  0.87027156  0.33597741  1
  H+  H61  1  0.10125519  0.72629768  0.66574630  1
  H+  H62  1  0.97195561  0.62270312  0.99310701  1
  H+  H63  1  0.11075272  0.08801999  0.50201490  1
  H+  H64  1  0.64563482  0.10407365  0.67978980  1
  H+  H65  1  -0.02935803  0.85195534  0.16260760  1
  H+  H66  1  0.90766802  0.36794776  0.33868115  1
  H+  H67  1  0.08898374  0.12684987  0.00977295  1
  H+  H68  1  0.12174640  0.48289167  0.49641917  1
  H+  H69  1  0.85036714  0.62395084  0.49805558  1
  H+  H70  1  0.37464122  0.40742520  0.49549956  1
  H+  H71  1  0.40104646  0.36671902  0.65517228  1
  H+  H72  1  0.21853160  0.88083546  0.98280864  1
  H+  H73  1  0.85891504  0.97159809  0.19496154  1
  H+  H74  1  0.65621849  0.77428867  0.84968651  1
  H+  H75  1  0.22453920  0.35748566  0.88391639  1
  H+  H76  1  0.50903260  0.38139685  0.00922915  1
  H+  H77  1  0.64323859  0.85382385  0.84854019  1
  H+  H78  1  -0.05949878  0.83800193  0.50856209  1
  H+  H79  1  0.61556297  0.37309294  0.82139307  1
  H+  H80  1  0.33294170  0.36843566  -0.04616234  1
  H+  H81  1  0.37088516  0.49490712  0.49423596  1
  H+  H82  1  0.60412774  0.39600281  0.01457479  1
  H+  H83  1  0.52119136  0.88002948  0.67197728  1
  H+  H84  1  0.11055071  0.63297121  0.34010235  1
  H+  H85  1  0.60655151  0.40120930  0.16333396  1
  H+  H86  1  0.09082481  0.40349512  0.69090746  1
  H+  H87  1  0.89602299  0.02466923  0.65914418  1
  H+  H88  1  0.52482709  0.38914706  0.67730344  1
  H+  H89  1  0.30444037  0.50744854  0.76772100  1
  H+  H90  1  0.62768634  0.52556728  0.17621552  1
  H+  H91  1  0.11051658  0.84537376  0.49162180  1
  H+  H92  1  0.28691891  0.06480957  0.28555705  1
  H+  H93  1  0.12756424  0.38887828  0.34580854  1
  H+  H94  1  0.46345765  0.60815298  0.98687692  1
  H+  H95  1  0.40595507  0.29600967  0.50272217  1
  H+  H96  1  0.13752315  0.62560869  0.65963250  1
  H+  H97  1  0.61464762  0.64208578  0.49089557  1
  H+  H98  1  0.85135217  0.37349140  0.68000921  1
  H+  H99  1  0.46961104  0.35788411  0.17907992  1
  H+  H100  1  0.88329377  0.51368195  0.50669026  1
  H+  H101  1  0.20961334  0.11363187  0.99097678  1
  H+  H102  1  0.10623438  0.97236370  0.14656342  1
  H+  H103  1  0.86932365  0.21824641  0.68708071  1
  H+  H104  1  0.38973551  0.61670502  0.66028070  1
  H+  H105  1  0.64998791  0.82742640  0.27772390  1
  H+  H106  1  0.87734366  0.10276719  0.16537028  1
  H+  H107  1  0.64551941  0.09879665  0.50205340  1
  H+  H108  1  0.62675527  0.76234107  0.50079347  1
  H+  H109  1  0.88574387  0.85049229  0.18593340  1
  H+  H110  1  0.39713071  0.53057800  0.65643185  1
  H+  H111  1  0.88607490  0.34301193  0.84429504  1
  H+  H112  1  0.86587768  0.39842972  0.01449653  1
  H+  H113  1  0.61072056  0.95718304  0.34972788  1
  H+  H114  1  0.35559453  0.13276735  0.14811437  1
  H+  H115  1  0.93844034  0.82369065  0.31785644  1
  H+  H116  1  0.88808563  0.62045595  0.17324084  1
  H+  H117  1  0.47891983  0.62338578  0.50316653  1
  H+  H118  1  0.17445726  0.11664638  0.31646738  1
  H+  H119  1  0.64489437  0.02801481  0.13988262  1
  H+  H120  1  0.62567745  0.46561992  0.82905681  1
  H+  H121  1  0.14247095  0.53149217  0.83585864  1
  H+  H122  1  0.23771701  0.37542254  0.49971566  1
  H+  H123  1  0.96291108  0.36731817  0.67523453  1
  H+  H124  1  0.87109102  0.22670280  0.15253791  1
  H+  H125  1  0.36522879  0.13199279  0.66629705  1
  H+  H126  1  0.95958664  0.13486517  0.99151899  1
  H+  H127  1  0.22184615  0.86250761  0.35551562  1
  H+  H128  1  0.77504491  0.37708494  0.83623332  1
  H+  H129  1  0.12891256  0.22861897  0.49215038  1
  H+  H130  1  0.54468083  0.65199735  0.83325888  1
  H+  H131  1  0.63585181  0.86234142  0.66310192  1
  H+  H132  1  0.22620363  0.86816091  0.14923836  1
  H+  H133  1  0.50872314  0.10118730  0.31071296  1
  H+  H134  1  0.12457550  0.77020468  0.83856764  1
  H+  H135  1  0.11238078  0.63770910  0.82175413  1
  H+  H136  1  0.61629896  0.64629347  0.33968955  1
  H+  H137  1  0.62850845  0.17030273  0.83749095  1
  H+  H138  1  0.77461897  0.37106466  0.49185058  1
  H+  H139  1  0.61041509  0.64217484  0.17530290  1
  H+  H140  1  0.10757539  0.13871236  0.82751497  1
  H+  H141  1  0.73191242  0.62360364  0.33535749  1
  H+  H142  1  0.86333916  0.46498816  0.82967196  1
  H+  H143  1  0.39662626  0.86478312  0.84187588  1
  H+  H144  1  0.89977948  0.82193368  0.60412290  1
  H+  H145  1  0.51365939  0.86184351  0.82990854  1
  H+  H146  1  0.11907646  0.47108203  0.16769427  1
  H+  H147  1  0.37201239  0.26680589  0.98455468  1
  H+  H148  1  0.14489396  0.52704562  0.32824666  1
  H+  H149  1  0.63211775  0.36750743  0.33954159  1
  H+  H150  1  0.64673888  0.23341065  0.16136607  1
  H+  H151  1  0.05620269  0.34300803  0.60573511  1
  H+  H152  1  0.52318408  0.12606885  0.68014500  1
  H+  H153  1  0.70964018  0.09956468  0.92157955  1
  H+  H154  1  0.96244775  0.09971024  0.17545179  1
  H+  H155  1  0.58031754  0.71742439  0.00519180  1
  H+  H156  1  0.81863731  0.11484840  -0.00877217  1
  H+  H157  1  0.65907009  0.30582630  0.99075123  1
  H+  H158  1  0.23027267  0.62653019  0.97927502  1
  H+  H159  1  0.02279975  0.40296224  0.00439117  1
  H+  H160  1  0.35928672  0.22322004  0.16021227  1
  H+  H161  1  0.38591843  0.86174368  0.50468136  1
  H+  H162  1  0.11679640  0.12822284  0.67026759  1
  H+  H163  1  0.10761720  0.39927392  1.01134812  1
  H+  H164  1  0.37001293  0.52149059  -0.03139834  1
  H+  H165  1  0.87540681  0.51445760  0.66519255  1
  H+  H166  1  0.11849173  0.88704052  0.33106307  1
  H+  H167  1  0.77354126  0.88808289  0.67484295  1
  H+  H168  1  0.10482088  0.12853870  0.15921126  1
  H+  H169  1  0.08755988  0.38996678  0.60132199  1
  H+  H170  1  0.03578963  0.14326369  0.49215220  1
  H+  H171  1  0.17495806  0.59712089  0.89168482  1
  H+  H172  1  0.13189003  0.35468007  0.18358427  1
  H+  H173  1  0.91773538  0.59582576  0.27176413  1
  H+  H174  1  0.45692244  0.09886059  0.14712700  1
  H+  H175  1  1.02681752  0.64400673  0.16532361  1
  H+  H176  1  0.90698781  0.32429565  0.94345776  1
  H+  H177  1  0.90144996  0.01788514  0.33883052  1
  H+  H178  1  0.27533016  0.64052536  0.67146361  1
  H+  H179  1  0.51912328  0.63589487  0.18063440  1
  H+  H180  1  0.22223149  0.10224544  0.64391814  1
  H+  H181  1  0.25168987  0.12379860  0.82012839  1
  H+  H182  1  0.47820452  0.62158933  0.33530366  1
  H+  H183  1  0.32229915  0.11174613  0.48209518  1
  H+  H184  1  0.38519870  0.77281830  0.65661869  1
  H+  H185  1  0.21582815  0.85752759  0.64929163  1
  H+  H186  1  0.38305850  0.77087699  0.83882833  1
  H+  H187  1  0.38907269  0.53188938  0.33674981  1
  H+  H188  1  0.73463980  0.34877806  0.67015795  1
  H+  H189  1  0.40736108  0.55175532  0.83704695  1
  H+  H190  1  0.53125948  0.12759702  0.47467572  1
  H+  H191  1  0.22029360  0.11055293  0.15828143  1
  H+  H192  1  0.66476454  0.24953016  0.19251016  1
  H+  H193  1  0.35123161  0.17325733  0.39272337  1
  H+  H194  1  0.76868253  0.63289679  0.67674004  1
  H+  H195  1  0.47568395  0.86022512  0.33775240  1
  H+  H196  1  0.35751191  0.87901047  0.16252489  1
  H+  H197  1  0.10826862  0.25378605  0.00783491  1
  H+  H198  1  0.61267519  -0.03320896  0.68241592  1
  H+  H199  1  0.36417773  0.76350236  0.19283031  1
  H+  H200  1  0.50727643  0.13780843  0.32595413  1
  H+  H201  1  0.27413950  0.48823138  0.79407560  1
  H+  H202  1  0.86396603  0.72724219  0.00620303  1
  H+  H203  1  0.69155915  0.03330134  0.26174589  1
  H+  H204  1  0.29903614  0.38668392  0.65169215  1
  H+  H205  1  0.35900742  0.37150482  0.18191993  1
  H+  H206  1  0.87848261  0.77866561  0.83403328  1
  H+  H207  1  0.79094078  0.41213793  0.16905873  1
  H+  H208  1  0.10187443  0.21593664  0.16574287  1
  H+  H209  1  0.73236344  0.64591278  0.98263987  1
  H+  H210  1  0.21757506  0.34733797  0.18678019  1
  H+  H211  1  0.24586936  0.36744713  -0.02861416  1
  H+  H212  1  0.89390403  0.36221273  0.51131758  1
  H+  H213  1  0.23577562  0.62674543  0.50238806  1
  H+  H214  1  0.64620016  0.01154199  0.50139428  1
  H+  H215  1  0.33140948  0.40867991  0.12662161  1
  H+  H216  1  1.03019239  0.38350064  0.16808531  1
  H+  H217  1  0.38635855  0.15683902  0.33206963  1
  H+  H218  1  0.89938848  0.26092884  0.85048998  1
  H+  H219  1  0.35384125  0.64881330  0.49272021  1
  H+  H220  1  0.63152322  0.61432482  0.66618309  1
  H+  H221  1  0.64904996  0.00264603  1.01293158  1
  H+  H222  1  0.01519452  0.63385870  0.66919220  1
  H+  H223  1  0.72374072  0.85503221  0.49484613  1
  H+  H224  1  0.83145548  0.90679867  0.25002983  1
  H+  H225  1  0.62170553  0.85550901  0.50040256  1
  H+  H226  1  0.36744194  0.89947871  0.34010308  1
  H+  H227  1  0.91336052  0.11090223  0.34469950  1
  H+  H228  1  0.31771437  0.09293618  0.80693322  1
  H+  H229  1  0.61366089  0.48961975  0.67811722  1
  H+  H230  1  0.61285916  0.73616357  0.34191916  1
  H+  H231  1  0.10820428  0.89127617  -0.00381175  1
  H+  H232  1  0.64990119  0.15026029  0.33596730  1
  H+  H233  1  0.83302214  0.85663492  0.49038652  1
  H+  H234  1  0.89332592  0.36660861  0.17890687  1
  H+  H235  1  0.16912357  0.07922224  0.21988788  1
  H+  H236  1  0.85354348  0.63968530  0.35543203  1
  H+  H237  1  0.07677383  0.66537387  0.76450553  1
  H+  H238  1  0.47696551  0.89641306  1.02436206  1
  H+  H239  1  0.15160309  1.01959524  0.30376801  1
  H+  H240  1  0.05358631  0.13182115  0.34353369  1
  H+  H241  1  0.52610936  0.12323829  0.84593714  1
  H+  H242  1  0.65989835  0.24228090  0.34550567  1
  H+  H243  1  0.28449387  0.17555037  0.47698310  1
  H+  H244  1  0.61812766  0.72937107  0.67484695  1
  H+  H245  1  0.81856842  0.40064259  0.74066081  1
  H+  H246  1  0.77135369  0.63332231  0.15700523  1
  H+  H247  1  0.13842545  0.78152437  0.15909201  1
  H+  H248  1  0.12159152  0.39043669  0.83470943  1
  H+  H249  1  0.17646359  0.05647075  0.49210209  1
  H+  H250  1  0.10966130  0.30627678  0.95040229  1
  H+  H251  1  0.97333806  0.60342821  0.83705764  1
  H+  H252  1  0.37319533  0.00955375  0.15286343  1
  H+  H253  1  0.90669096  0.12229244  0.50548661  1
  H+  H254  1  0.64273068  0.53469001  0.33039251  1
  H+  H255  1  -0.02241918  0.61829670  0.33125306  1
  H+  H256  1  0.59473648  0.00145485  0.25670017  1
  H+  H257  1  0.61339177  0.97201474  0.85502408  1
  H+  H258  1  0.67454181  0.56848387  0.89703101  1
  H+  H259  1  0.38766001  0.99417915  0.82609377  1
  H+  H260  1  0.78542074  0.14731321  0.12872764  1
  H+  H261  1  0.67087979  0.18581676  -0.02841624  1
  H+  H262  1  -0.01585564  0.36615600  0.51493174  1
  H+  H263  1  0.38054129  0.77848972  0.34085630  1
  H+  H264  1  0.83458826  0.40492984  0.29967183  1
  H+  H265  1  0.17046851  0.35546086  0.64888708  1
  H+  H266  1  0.35655789  0.87795773  0.66498535  1
  H+  H267  1  0.11302265  0.63280522  0.49565622  1
  H+  H268  1  0.12751180  0.22071874  0.66603568  1
  H+  H269  1  0.63813769  0.53110185  0.51686565  1
  H+  H270  1  0.59072466  0.63617511  -0.00274602  1
  H+  H271  1  0.86059610  0.88149486  0.67411854  1
  H+  H272  1  0.86149474  0.72244839  0.15529055  1
  H+  H273  1  0.07616106  0.91714179  0.05884553  1
  H+  H274  1  0.84360757  0.92865292  0.75430382  1
  H+  H275  1  0.02001017  0.62711549  0.49621659  1
  H+  H276  1  0.41603991  0.13705838  0.87380220  1
  H+  H277  1  0.87639707  0.60373930  0.66220125  1
  H+  H278  1  0.73844902  0.58838875  0.84200329  1
  H+  H279  1  0.48108751  0.34223913  0.82910726  1
  H+  H280  1  0.51983535  0.39530011  0.34188808  1
  H+  H281  1  0.62905113  0.77531672  0.18141543  1
  H+  H282  1  1.01546986  0.89031217  0.82179826  1
  H+  H283  1  0.74053903  0.39631123  0.00628949  1
  H+  H284  1  0.12525966  0.85909361  0.83686341  1
  H+  H285  1  0.15174163  0.28037294  0.84072546  1
  H+  H286  1  0.90868259  0.57061706  0.56709040  1
  H+  H287  1  0.35883224  0.64723722  0.35165829  1
  H+  H288  1  0.32102457  0.16962615  0.06281252  1
  H+  H289  1  0.87041733  0.22681181  0.50271371  1
  H+  H290  1  0.36379242  0.06956401  0.24613913  1
  H+  H291  1  0.72217172  0.86113169  0.19132067  1
  H+  H292  1  0.42259455  0.60327834  0.89858162  1
  H+  H293  1  0.57859518  0.15415866  0.74194460  1
  H+  H294  1  0.98910118  0.87386467  0.98955608  1
  H+  H295  1  0.58478455  0.09906186  0.10178862  1
  H+  H296  1  0.08970203  0.17382294  0.76599084  1
  H+  H297  1  0.87363452  0.49195990  0.01166345  1
  H+  H298  1  0.39542146  0.70394082  0.12656336  1
  H+  H299  1  0.91035740  0.84167029  0.89093364  1
  H+  H300  1  0.66137328  0.58457542  0.60582158  1
  H+  H301  1  0.91550761  0.11775117  0.92668136  1
  H+  H302  1  0.27366577  0.35616025  0.80201802  1
  H+  H303  1  0.31534296  0.65016287  0.05893135  1
  H+  H304  1  0.09155519  0.42099456  0.43826461  1
  H+  H305  1  0.16573971  0.32728793  0.27352836  1
  H+  H306  1  0.93718809  0.09249952  0.56323271  1
  H+  H307  1  0.07045707  0.42736330  0.75458581  1
  H+  H308  1  0.34490576  0.40226918  0.71563163  1
  H+  H309  1  0.67439308  0.30726010  0.60276975  1
  H+  H310  1  0.66826635  0.83527116  0.60359152  1
  H+  H311  1  0.42295170  0.59532560  0.56420991  1
  H+  H312  1  0.56432991  0.41566131  0.10241504  1
  H+  H313  1  0.33614783  0.42396450  0.40000377  1
  H+  H314  1  0.58826976  0.90810469  0.09700089  1
  H+  H315  1  0.07192086  0.67805389  0.06712368  1
  H+  H316  1  0.11426295  0.16754757  0.39929987  1
  H+  H317  1  0.87177058  0.89955625  0.82294120  1
  H+  H318  1  0.67042287  0.58572450  0.23586612  1
  H+  H319  1  0.84642663  0.86159342  0.34441232  1
  H+  H320  1  0.41327763  0.83087499  0.59614380  1
  H+  H321  1  0.15544061  0.08349761  0.89729734  1
  H+  H322  1  0.43115947  0.07550032  0.60446543  1
  H+  H323  1  0.78361167  0.13336711  0.49584793  1
  H+  H324  1  0.91366753  0.33259325  0.61152122  1
  H+  H325  1  0.58693560  0.67200673  0.42809241  1
  H+  H326  1  0.82583758  0.66375856  0.06272349  1
  H+  H327  1  0.32610497  0.92320070  0.43171750  1
  H+  H328  1  0.85829834  0.72085067  0.67470479  1
  H+  H329  1  0.83377541  0.40619338  0.43256260  1
  H+  H330  1  0.64437508  0.34569939  0.52125364  1
  H+  H331  1  0.61414330  0.16929159  0.43070327  1
  H+  H332  1  0.27379502  0.64048105  0.82132002  1
  H+  H333  1  -0.00606888  0.86171900  0.42449265  1
  H+  H334  1  0.02813485  0.38205224  0.84382905  1
  H+  H335  1  0.68246504  0.36528222  0.91290799  1
  H+  H336  1  0.39802362  0.82839388  0.24875691  1
  H+  H337  1  -0.02004394  0.13629023  0.82779892  1
  H+  H338  1  0.66343447  0.10583084  0.18322474  1
  H+  H339  1  0.33200364  0.91401693  0.72338104  1
  H+  H340  1  0.32968546  0.05344643  0.55770368  1
  H+  H341  1  0.42459653  0.33853518  0.56904571  1
  H+  H342  1  0.68573751  0.38458040  0.24876940  1
  H+  H343  1  0.06226110  0.15343015  0.07309886  1
  H+  H344  1  0.57728109  0.42797813  0.40198293  1
  H+  H345  1  0.87804705  0.61083254  0.98802922  1
  H+  H346  1  0.41564106  0.32662842  0.24163255  1
  H+  H347  1  0.85324181  0.17511879  0.41083747  1
  H+  H348  1  0.41393310  0.31848059  0.92356018  1
  H+  H349  1  0.17222769  0.58844799  0.23307572  1
  H+  H350  1  0.35916468  0.64117908  0.99960295  1
  H+  H351  1  0.14486564  0.36911941  0.50396604  1
  H+  H352  1  0.15354971  0.83072297  0.59066442  1
  H+  H353  1  0.39780327  0.27376642  0.65737171  1
  H+  H354  1  0.15597499  0.83745351  0.92583307  1
  H+  H355  1  0.34636771  0.45494596  0.05465911  1
  H+  H356  1  0.60012316  0.67307562  0.77434260  1
  H+  H357  1  0.38755014  0.45306378  0.05389729  1
  H+  H358  1  1.03948429  0.38967094  0.34373662  1
  H+  H359  1  0.72749661  0.61709042  0.51159811  1
  H+  H360  1  0.92155254  0.33173061  0.23628014  1
  H+  H361  1  0.57721888  0.89662743  0.43247853  1
  H+  H362  1  0.44867315  0.98007883  0.78442601  1
  H+  H363  1  0.64119133  0.25519298  0.50961154  1
  H+  H364  1  0.33636308  0.67079458  0.73008874  1
  H+  H365  1  0.40875350  0.58100704  0.24858411  1
  H+  H366  1  0.04391205  0.90924018  0.33938929  1
  H+  H367  1  0.65636908  0.82512236  0.94259023  1
  H+  H368  1  0.61781844  0.85949096  -0.00781310  1
  H+  H369  1  0.83707435  0.66607122  0.76950317  1
  H+  H370  1  0.07806176  0.65568098  0.40186105  1
  H+  H371  1  0.80951742  0.89019783  0.42790174  1
  H+  H372  1  0.87367735  0.49463910  0.33333483  1
  H+  H373  1  0.91439977  0.57664346  0.89699186  1
  H+  H374  1  0.84679052  0.43079151  0.10816351  1
  H+  H375  1  0.57596276  0.89483474  0.77038895  1
  H+  H376  1  0.37348447  0.76463408  0.50237019  1
  H+  H377  1  0.14096317  0.53862506  0.97769084  1
  H+  H378  1  0.35917645  0.90024892  0.09348339  1
  H+  H379  1  0.59090186  0.16736567  0.01208504  1
  H+  H380  1  0.32404610  0.67526217  0.41202726  1
  H+  H381  1  0.14942911  0.06217290  0.59092827  1
  H+  H382  1  0.73233506  0.10071962  0.68401783  1
  H+  H383  1  0.87034091  0.74743960  0.36569377  1
  O2-  O384  1  0.07144916  0.15730539  0.14731261  1
  O2-  O385  1  0.09822191  0.16801653  0.47828541  1
  O2-  O386  1  0.08388620  0.17496965  0.81109478  1
  O2-  O387  1  0.09206439  0.40913923  0.15843043  1
  O2-  O388  1  0.09031480  0.42053049  0.48387387  1
  O2-  O389  1  0.08572412  0.41678900  0.82450630  1
  O2-  O390  1  0.08454968  0.67108891  0.14601751  1
  O2-  O391  1  0.07950882  0.66025146  0.47991942  1
  O2-  O392  1  0.07552519  0.66274400  0.80967769  1
  O2-  O393  1  0.07652098  0.91313430  0.12932734  1
  O2-  O394  1  0.02642468  0.87508098  0.46343995  1
  O2-  O395  1  0.07682802  0.92175033  0.80907200  1
  O2-  O396  1  0.32770934  0.16755286  0.13789648  1
  O2-  O397  1  0.28335900  0.12599557  0.45825121  1
  O2-  O398  1  0.30988171  0.14227466  0.80062419  1
  O2-  O399  1  0.32776197  0.40395923  0.17094192  1
  O2-  O400  1  0.34147521  0.43303913  0.47914999  1
  O2-  O401  1  0.32029212  0.35684882  0.77751521  1
  O2-  O402  1  0.34483370  0.65961696  0.14755601  1
  O2-  O403  1  0.32309905  0.67836270  0.47951495  1
  O2-  O404  1  0.33472091  0.67338551  0.80553056  1
  O2-  O405  1  0.33904647  0.90978584  0.13304456  1
  O2-  O406  1  0.32024542  0.91885780  0.47721020  1
  O2-  O407  1  0.38856926  0.95318004  0.79661330  1
  O2-  O408  1  0.53914393  0.10614888  0.08068546  1
  O2-  O409  1  0.59375490  0.16086013  0.47447115  1
  O2-  O410  1  0.57387151  0.12831150  0.81949495  1
  O2-  O411  1  0.56587571  0.41919244  0.14912292  1
  O2-  O412  1  0.60091213  0.41295251  0.52837769  1
  O2-  O413  1  0.58866853  0.40624154  0.80570343  1
  O2-  O414  1  0.57899560  0.67310775  0.16706980  1
  O2-  O415  1  0.58497088  0.67233280  0.47490817  1
  O2-  O416  1  0.60403258  0.67240892  0.81904151  1
  O2-  O417  1  0.60371118  0.92867154  0.13855597  1
  O2-  O418  1  0.57813821  0.89657170  0.48017564  1
  O2-  O419  1  0.57580182  0.89002061  0.81546217  1
  O2-  O420  1  0.84819101  0.17197769  0.13005085  1
  O2-  O421  1  0.84565888  0.16953168  0.48295008  1
  O2-  O422  1  0.87618086  0.15149389  0.82217180  1
  O2-  O423  1  0.84933240  0.42979231  0.15394446  1
  O2-  O424  1  0.83494105  0.40595998  0.47716896  1
  O2-  O425  1  0.83194723  0.40321069  0.81570546  1
  O2-  O426  1  0.83045129  0.66055733  0.13963122  1
  O2-  O427  1  0.81791751  0.65270874  0.48533337  1
  O2-  O428  1  0.84040758  0.67091701  0.81467098  1
  O2-  O429  1  0.83057798  0.90753852  0.20537014  1
  O2-  O430  1  0.80203422  0.88522083  0.47280445  1
  O2-  O431  1  0.84930577  0.93626097  0.80224729  1
  O2-  O432  1  0.16053603  0.07813270  0.17449942  1
  O2-  O433  1  0.12267418  0.04064809  0.51413407  1
  O2-  O434  1  0.15644486  0.08422298  0.85135109  1
  O2-  O435  1  0.15628396  0.31767654  0.19929390  1
  O2-  O436  1  0.17754745  0.33897742  0.51524144  1
  O2-  O437  1  0.18633457  0.34351839  0.84745892  1
  O2-  O438  1  0.16865135  0.58631819  0.18758791  1
  O2-  O439  1  0.17089716  0.58830846  0.51788232  1
  O2-  O440  1  0.17315716  0.59390774  0.84419235  1
  O2-  O441  1  0.16722344  0.84469768  0.16519976  1
  O2-  O442  1  0.14809113  0.82712943  0.51162965  1
  O2-  O443  1  0.15510239  0.83022520  0.85395333  1
  O2-  O444  1  0.40006197  0.07153026  0.16677723  1
  O2-  O445  1  0.37099284  0.06828365  0.52469094  1
  O2-  O446  1  0.42734185  0.08953424  0.87679616  1
  O2-  O447  1  0.40983659  0.32222122  0.19615797  1
  O2-  O448  1  0.43140186  0.35095846  0.52375791  1
  O2-  O449  1  0.42047625  0.31081834  0.84371590  1
  O2-  O450  1  0.40702961  0.57407772  0.20290764  1
  O2-  O451  1  0.41903810  0.59231542  0.51896473  1
  O2-  O452  1  0.43220594  0.61019599  0.85228667  1
  O2-  O453  1  0.38940139  0.82414599  0.20370885  1
  O2-  O454  1  0.41290442  0.82906820  0.51948488  1
  O2-  O455  1  0.41986747  0.82910066  0.85688510  1
  O2-  O456  1  0.66480086  0.09222967  0.14040702  1
  O2-  O457  1  0.68077565  0.07290186  0.51251889  1
  O2-  O458  1  0.62417740  0.02010003  0.88493251  1
  O2-  O459  1  0.70171208  0.41367888  0.20805561  1
  O2-  O460  1  0.67483630  0.31321355  0.52978584  1
  O2-  O461  1  0.67159972  0.33768882  0.87098006  1
  O2-  O462  1  0.66964365  0.58466126  0.19036065  1
  O2-  O463  1  0.66573182  0.59220018  0.52811430  1
  O2-  O464  1  0.68681323  0.54115127  0.86197681  1
  O2-  O465  1  0.65876019  0.83763092  0.19448121  1
  O2-  O466  1  0.65817113  0.82544683  0.51609753  1
  O2-  O467  1  0.67887856  0.83261463  0.86774208  1
  O2-  O468  1  0.90132437  0.07121347  0.18767283  1
  O2-  O469  1  0.94221993  0.09704660  0.51847316  1
  O2-  O470  1  0.91699670  0.10094423  0.84022960  1
  O2-  O471  1  0.91981961  0.33178306  0.19131709  1
  O2-  O472  1  0.92408914  0.33507639  0.53126747  1
  O2-  O473  1  0.92041564  0.32053815  0.86432522  1
  O2-  O474  1  0.92077263  0.59565231  0.19408362  1
  O2-  O475  1  0.91112896  0.57368020  0.52180960  1
  O2-  O476  1  0.91210312  0.57175521  0.85141278  1
  O2-  O477  1  0.91471476  0.81588761  0.18326202  1
  O2-  O478  1  0.88254869  0.81067306  0.52874884  1
  O2-  O479  1  0.90704195  0.84093188  0.84573970  1
  O2-  O480  1  0.19328029  0.08192793  0.29288234  1
  O2-  O481  1  0.15957304  0.07099943  0.63594389  1
  O2-  O482  1  0.15024071  0.08391359  0.97390998  1
  O2-  O483  1  0.17353873  0.33205847  0.31923804  1
  O2-  O484  1  0.19314570  0.32167902  0.63051597  1
  O2-  O485  1  0.13673785  0.31447003  0.99011991  1
  O2-  O486  1  0.16932121  0.58667777  0.31233596  1
  O2-  O487  1  0.16792173  0.59344370  0.64866370  1
  O2-  O488  1  0.17338021  0.59707081  0.95923688  1
  O2-  O489  1  0.15930980  0.83634899  0.36264181  1
  O2-  O490  1  0.15483280  0.82998629  0.63628220  1
  O2-  O491  1  0.15764558  0.84487500  0.97196323  1
  O2-  O492  1  0.34203826  0.06494755  0.28818025  1
  O2-  O493  1  0.42280605  0.07359937  0.64875354  1
  O2-  O494  1  0.37735452  0.04683312  0.99028253  1
  O2-  O495  1  0.42564838  0.34530930  0.31679215  1
  O2-  O496  1  0.43335724  0.33482496  0.64352160  1
  O2-  O497  1  0.40303384  0.32577244  0.96682496  1
  O2-  O498  1  0.41635467  0.59266555  0.32264219  1
  O2-  O499  1  0.42533218  0.59213878  0.64437052  1
  O2-  O500  1  0.40279961  0.58469789  0.96672487  1
  O2-  O501  1  0.41446440  0.83879545  0.32458611  1
  O2-  O502  1  0.41375097  0.83382187  0.64211209  1
  O2-  O503  1  0.41699875  0.86632566  1.03834380  1
  O2-  O504  1  0.64810647  0.04790194  0.27357039  1
  O2-  O505  1  0.67190534  0.06892926  0.67028777  1
  O2-  O506  1  0.74678077  0.15018194  0.94826475  1
  O2-  O507  1  0.66816546  0.34427898  0.32256647  1
  O2-  O508  1  0.67147184  0.31084350  0.64911475  1
  O2-  O509  1  0.68149567  0.36916680  0.98796846  1
  O2-  O510  1  0.67334551  0.59399766  0.31425237  1
  O2-  O511  1  0.65818456  0.57890063  0.65149138  1
  O2-  O512  1  0.68222698  0.63687911  0.95700505  1
  O2-  O513  1  0.65463701  0.82781126  0.32271500  1
  O2-  O514  1  0.67133903  0.83615781  0.64839374  1
  O2-  O515  1  0.63926897  0.81931434  0.98662728  1
  O2-  O516  1  0.94471056  0.07933712  0.34177070  1
  O2-  O517  1  0.92660381  0.08550836  0.64576405  1
  O2-  O518  1  0.91423606  0.13792429  0.96792426  1
  O2-  O519  1  0.93342999  0.33671397  0.31962305  1
  O2-  O520  1  0.90530696  0.32945575  0.65671663  1
  O2-  O521  1  0.90679915  0.33326012  0.98813994  1
  O2-  O522  1  0.91584613  0.58934265  0.31717829  1
  O2-  O523  1  0.90585885  0.57242009  0.64697840  1
  O2-  O524  1  0.91204023  0.58363316  0.97517286  1
  O2-  O525  1  0.91500721  0.82177407  0.35831482  1
  O2-  O526  1  0.90501032  0.82585887  0.64983552  1
  O2-  O527  1  0.92635305  0.83508479  0.97016797  1
  O2-  O528  1  0.05886337  0.15564691  0.02725685  1
  O2-  O529  1  0.11620942  0.16715924  0.35397044  1
  O2-  O530  1  0.09300595  0.16410171  0.68635740  1
  O2-  O531  1  0.08539159  0.43926452  0.00936943  1
  O2-  O532  1  0.09915099  0.42174630  0.36002142  1
  O2-  O533  1  0.06282306  0.43239954  0.70907358  1
  O2-  O534  1  0.06095744  0.67970440  0.02308346  1
  O2-  O535  1  0.07724700  0.65953828  0.35647099  1
  O2-  O536  1  0.07587424  0.66735342  0.68333661  1
  O2-  O537  1  0.07567130  0.92028514  0.01207505  1
  O2-  O538  1  0.09147245  0.91995181  0.31269366  1
  O2-  O539  1  0.07320018  0.90951600  0.68465749  1
  O2-  O540  1  0.31675291  0.16424262  0.01713663  1
  O2-  O541  1  0.39821070  0.20214683  0.36297639  1
  O2-  O542  1  0.33421198  0.16360741  0.67530100  1
  O2-  O543  1  0.29743818  0.39559159  -0.05545443  1
  O2-  O544  1  0.33785957  0.42217818  0.35474893  1
  O2-  O545  1  0.35699626  0.41985507  0.67070873  1
  O2-  O546  1  0.33199963  0.67306105  0.01760976  1
  O2-  O547  1  0.32540236  0.67490072  0.36393852  1
  O2-  O548  1  0.33683894  0.66885810  0.68422979  1
  O2-  O549  1  0.33231967  0.96635496  0.00437473  1
  O2-  O550  1  0.33399540  0.92665158  0.35527699  1
  O2-  O551  1  0.32576396  0.90955994  0.67858847  1
  O2-  O552  1  0.62412134  0.19959342  -0.02441003  1
  O2-  O553  1  0.66591961  0.19620537  0.36572167  1
  O2-  O554  1  0.58281857  0.16065668  0.69689279  1
  O2-  O555  1  0.56400482  0.41358245  0.03133846  1
  O2-  O556  1  0.58171031  0.42401833  0.35814946  1
  O2-  O557  1  0.58581620  0.42618899  0.69371184  1
  O2-  O558  1  0.55024386  0.65344723  0.01319657  1
  O2-  O559  1  0.58383684  0.67271953  0.35733575  1
  O2-  O560  1  0.58823339  0.66865469  0.68938392  1
  O2-  O561  1  0.59456319  0.95291695  -0.00069784  1
  O2-  O562  1  0.57803256  0.89768033  0.36326023  1
  O2-  O563  1  0.57905592  0.90278963  0.69072239  1
  O2-  O564  1  0.76053498  0.10871889  0.00135100  1
  O2-  O565  1  0.85753165  0.17720322  0.36449979  1
  O2-  O566  1  0.84777456  0.15914451  0.70239893  1
  O2-  O567  1  0.84224638  0.43348762  0.03189445  1
  O2-  O568  1  0.84211084  0.42839410  0.34073320  1
  O2-  O569  1  0.81540161  0.39947036  0.69448814  1
  O2-  O570  1  0.82580500  0.66628273  0.01698338  1
  O2-  O571  1  0.82189541  0.66645276  0.37250354  1
  O2-  O572  1  0.82970091  0.66003996  0.68969034  1
  O2-  O573  1  0.87768434  0.87239034  -0.01801119  1
  O2-  O574  1  0.82190382  0.90098597  0.34369206  1
  O2-  O575  1  0.83488161  0.91695495  0.68947684  1
