# generated using pymatgen
data_H2O
_symmetry_space_group_name_H-M   'P 1'
_cell_length_a   17.98434367
_cell_length_b   17.98357465
_cell_length_c   21.99772235
_cell_angle_alpha   89.99657112
_cell_angle_beta   90.01131150
_cell_angle_gamma   119.98812725
_symmetry_Int_Tables_number   1
_chemical_formula_structural   H2O
_chemical_formula_sum   'H384 O192'
_cell_volume   6162.13061547
_cell_formula_units_Z   192
loop_
 _symmetry_equiv_pos_site_id
 _symmetry_equiv_pos_as_xyz
  1  'x, y, z'
loop_
 _atom_type_symbol
 _atom_type_oxidation_number
  H+  1.0
  O2-  -2.0
loop_
 _atom_site_type_symbol
 _atom_site_label
 _atom_site_symmetry_multiplicity
 _atom_site_fract_x
 _atom_site_fract_y
 _atom_site_fract_z
 _atom_site_occupancy
  H+  H0  1  0.47925028  0.09877043  0.50328201  1
  H+  H1  1  0.48827122  0.36884755  0.84791788  1
  H+  H2  1  0.61960640  0.72602460  0.49169987  1
  H+  H3  1  0.61053413  0.74020020  0.33829554  1
  H+  H4  1  0.68876487  0.53566011  0.96104862  1
  H+  H5  1  0.72836641  0.86972718  0.32630566  1
  H+  H6  1  0.72861595  0.62633063  0.83675134  1
  H+  H7  1  0.39459296  1.00405736  0.50290491  1
  H+  H8  1  0.63866499  0.12840347  0.33439232  1
  H+  H9  1  0.12827605  0.10003271  0.17349555  1
  H+  H10  1  0.12727067  0.52502578  0.84167242  1
  H+  H11  1  0.41047479  0.82511582  0.89565010  1
  H+  H12  1  0.69684046  0.37847469  0.97403974  1
  H+  H13  1  0.38274090  0.37160736  0.65950181  1
  H+  H14  1  -0.02684374  0.61968878  0.17180892  1
  H+  H15  1  0.27572500  0.38513974  0.48112908  1
  H+  H16  1  0.90541783  0.35516083  1.01209888  1
  H+  H17  1  0.76872840  0.38368935  0.49803498  1
  H+  H18  1  0.53538290  0.14314080  0.00538244  1
  H+  H19  1  0.16764665  0.83974830  0.60732935  1
  H+  H20  1  0.07323035  0.64904984  0.38893582  1
  H+  H21  1  0.89296393  0.28924427  0.17484780  1
  H+  H22  1  0.72539242  0.36080909  0.18989670  1
  H+  H23  1  0.74637215  0.36484071  0.35305401  1
  H+  H24  1  0.72223416  0.85488270  0.99310982  1
  H+  H25  1  0.73201258  0.62581848  0.17416450  1
  H+  H26  1  0.35027783  0.22029172  0.32505634  1
  H+  H27  1  0.59504757  0.38765109  1.01529211  1
  H+  H28  1  0.49024951  0.09671506  0.65956887  1
  H+  H29  1  0.63565228  0.35783029  0.18978452  1
  H+  H30  1  0.85220721  -0.02437618  0.16012691  1
  H+  H31  1  0.35927960  0.22000368  0.00375379  1
  H+  H32  1  0.02254673  0.88617673  0.34045662  1
  H+  H33  1  0.88653295  0.78220268  0.50647909  1
  H+  H34  1  0.66165064  0.14312618  -0.00745289  1
  H+  H35  1  0.87948887  0.78292188  0.99714160  1
  H+  H36  1  0.11262179  0.12333489  0.83890074  1
  H+  H37  1  0.12077360  0.37040480  0.66771964  1
  H+  H38  1  0.63943792  0.86833769  0.65592446  1
  H+  H39  1  0.91202444  0.58896052  0.23069586  1
  H+  H40  1  0.37093139  0.22188619  0.83569445  1
  H+  H41  1  0.78977284  0.16415725  0.16163122  1
  H+  H42  1  0.77478140  0.89007868  0.83980213  1
  H+  H43  1  0.35243985  0.20162890  0.50809256  1
  H+  H44  1  0.61988178  0.14176987  0.82403115  1
  H+  H45  1  0.26590040  0.36367512  0.83844403  1
  H+  H46  1  0.51741449  0.87397716  0.00422613  1
  H+  H47  1  0.36641193  0.47892896  0.05958433  1
  H+  H48  1  0.38107254  0.35137596  0.50113525  1
  H+  H49  1  0.72520799  0.85855472  0.16897387  1
  H+  H50  1  0.88310512  0.11257426  0.50539319  1
  H+  H51  1  0.88287649  0.36613336  0.86054504  1
  H+  H52  1  0.64609794  0.87498509  0.50553317  1
  H+  H53  1  0.22591088  0.34867716  0.31206147  1
  H+  H54  1  0.16251638  0.55217921  0.25938425  1
  H+  H55  1  0.21452210  0.10188811  0.51554585  1
  H+  H56  1  0.37015055  0.73123199  0.67305393  1
  H+  H57  1  0.60633288  0.48063266  1.02421238  1
  H+  H58  1  0.10959161  0.88197798  0.34294524  1
  H+  H59  1  0.36930634  0.98994717  0.00818437  1
  H+  H60  1  0.37460013  0.72558640  0.49816385  1
  H+  H61  1  0.37959079  0.22411630  0.14840627  1
  H+  H62  1  0.74751489  0.62714536  0.49653929  1
  H+  H63  1  0.88985975  0.78559996  0.17157898  1
  H+  H64  1  0.35264768  0.11347585  0.50973967  1
  H+  H65  1  0.87055798  0.23616906  0.82870561  1
  H+  H66  1  1.01341390  0.11996568  0.15583941  1
  H+  H67  1  0.27150977  0.88169115  0.67363863  1
  H+  H68  1  0.23072793  0.61177858  0.50818868  1
  H+  H69  1  0.39561708  0.85699558  0.50370845  1
  H+  H70  1  0.13028835  0.11501090  0.66654412  1
  H+  H71  1  0.14650684  0.25884996  0.85967070  1
  H+  H72  1  0.34813391  0.70857319  0.15747182  1
  H+  H73  1  0.39204736  1.02276397  0.83864235  1
  H+  H74  1  0.58096970  0.67634194  0.39678675  1
  H+  H75  1  0.58527737  0.41553864  0.11501008  1
  H+  H76  1  0.13113595  1.02620035  0.66674019  1
  H+  H77  1  0.46554740  0.36661661  0.16591647  1
  H+  H78  1  0.35963397  0.87879303  0.15885808  1
  H+  H79  1  0.86295615  0.64047150  0.33628610  1
  H+  H80  1  0.35852899  0.70640069  0.82387829  1
  H+  H81  1  0.83617178  0.33946843  0.32322317  1
  H+  H82  1  -0.06457363  0.59629722  0.02369491  1
  H+  H83  1  0.36107621  0.47519678  0.32805265  1
  H+  H84  1  0.13366971  1.02093440  0.33213195  1
  H+  H85  1  0.91661476  0.09296536  0.89887777  1
  H+  H86  1  0.15893976  0.61969596  0.99606617  1
  H+  H87  1  0.86114977  0.89145438  0.15878007  1
  H+  H88  1  0.10597769  0.62308626  0.48259488  1
  H+  H89  1  0.55885498  0.87435067  0.09431483  1
  H+  H90  1  0.45421168  0.82979165  0.16878560  1
  H+  H91  1  0.14135974  0.35123100  0.31728587  1
  H+  H92  1  0.85905750  0.88706820  0.50051042  1
  H+  H93  1  -0.02017274  0.86905796  0.84379363  1
  H+  H94  1  0.61382472  0.98648553  0.34215184  1
  H+  H95  1  0.22730177  0.93403121  0.53844270  1
  H+  H96  1  0.59860835  0.85732727  1.00768440  1
  H+  H97  1  0.91764572  0.83889038  0.93603062  1
  H+  H98  1  0.86067184  0.66029042  0.01667184  1
  H+  H99  1  0.88246948  0.27755145  0.65855578  1
  H+  H100  1  0.54259827  0.45786122  0.45648507  1
  H+  H101  1  0.58392057  0.32406817  0.34212165  1
  H+  H102  1  0.98115111  0.11802328  0.84282139  1
  H+  H103  1  0.98125821  0.87244258  0.17069532  1
  H+  H104  1  0.86524797  0.14097784  0.67163959  1
  H+  H105  1  0.66231714  0.53518160  0.48962596  1
  H+  H106  1  0.13729160  0.26555844  0.01304081  1
  H+  H107  1  0.66811559  0.06008694  0.18189148  1
  H+  H108  1  0.10948859  0.21692741  0.33584656  1
  H+  H109  1  0.46653885  0.83676219  0.83756037  1
  H+  H110  1  0.87700578  0.64769389  0.49304490  1
  H+  H111  1  0.12992577  0.39073021  0.03023615  1
  H+  H112  1  0.65179694  0.13913005  0.17495925  1
  H+  H113  1  0.11481642  0.89840210  0.83021865  1
  H+  H114  1  0.87109357  0.89834452  0.66902780  1
  H+  H115  1  0.60283037  0.72503781  0.82880117  1
  H+  H116  1  0.63906396  0.75938382  -0.00914641  1
  H+  H117  1  0.58240530  0.59089382  0.63266657  1
  H+  H118  1  0.86314190  0.88902550  0.33933594  1
  H+  H119  1  0.11540710  0.89390441  0.68271387  1
  H+  H120  1  0.86090483  0.64709943  0.82164911  1
  H+  H121  1  0.14044623  0.86984762  -0.00459646  1
  H+  H122  1  0.88589613  0.11781550  0.17401963  1
  H+  H123  1  0.88631958  0.53137669  0.84672784  1
  H+  H124  1  0.41011517  0.11810353  0.16630212  1
  H+  H125  1  0.15080945  0.07894822  0.57163697  1
  H+  H126  1  0.61777706  0.62031072  0.00004558  1
  H+  H127  1  0.27113922  0.12935997  -0.00114844  1
  H+  H128  1  0.21947133  0.60771287  0.31570827  1
  H+  H129  1  0.72743525  0.11761858  0.50442725  1
  H+  H130  1  0.48091965  0.60720437  0.50985953  1
  H+  H131  1  1.01783860  0.62389107  0.48313084  1
  H+  H132  1  0.11484360  0.38103448  0.50805759  1
  H+  H133  1  0.27299519  0.71252778  0.37551362  1
  H+  H134  1  0.22380989  0.34048440  1.03960910  1
  H+  H135  1  0.22033781  0.61558570  0.65982342  1
  H+  H136  1  0.10101673  0.48102279  0.67182218  1
  H+  H137  1  0.97312810  0.11141736  0.99399150  1
  H+  H138  1  0.38661052  0.51000275  0.83823273  1
  H+  H139  1  0.47195797  0.60265859  0.83769360  1
  H+  H140  1  0.20944759  0.30287535  0.55086024  1
  H+  H141  1  0.61849534  -0.01954414  0.66942249  1
  H+  H142  1  0.88966709  0.78120995  0.32312896  1
  H+  H143  1  0.97481207  0.11329261  0.32745243  1
  H+  H144  1  0.88853358  0.02852102  0.66023433  1
  H+  H145  1  0.85737513  0.47485302  0.66573856  1
  H+  H146  1  0.88043864  0.61678324  0.65649057  1
  H+  H147  1  0.35678644  0.13581079  0.33044503  1
  H+  H148  1  0.22968540  0.85992050  0.17373085  1
  H+  H149  1  0.39106074  0.52063001  0.50497170  1
  H+  H150  1  0.02284287  0.34610179  0.29253631  1
  H+  H151  1  0.13937453  0.87689429  0.50870746  1
  H+  H152  1  0.37084650  0.63066695  0.66425893  1
  H+  H153  1  0.61799539  0.89920881  0.33836861  1
  H+  H154  1  0.22264800  0.11113645  0.32751295  1
  H+  H155  1  0.82292999  0.43455820  0.90509846  1
  H+  H156  1  0.87967169  1.02509398  -0.00682914  1
  H+  H157  1  0.61907240  0.23142231  0.16333478  1
  H+  H158  1  0.78163962  0.89604211  0.66525711  1
  H+  H159  1  0.62206836  0.28123582  -0.00991410  1
  H+  H160  1  1.01107777  0.39144875  0.67169250  1
  H+  H161  1  0.46533685  0.34546598  0.50518495  1
  H+  H162  1  0.51923456  0.37579798  0.67439758  1
  H+  H163  1  0.61681100  0.48448433  0.82673272  1
  H+  H164  1  0.13258342  0.25609791  0.50507586  1
  H+  H165  1  0.73180569  0.11438713  0.65803690  1
  H+  H166  1  0.26704177  0.13981056  0.68237124  1
  H+  H167  1  0.22954220  0.57160780  0.16710461  1
  H+  H168  1  0.36145483  0.38628596  0.32751872  1
  H+  H169  1  0.62205738  -0.01791734  0.49421405  1
  H+  H170  1  0.74723230  0.13103557  0.83791303  1
  H+  H171  1  0.42785475  0.08864364  0.93370290  1
  H+  H172  1  1.02058704  0.13987200  0.67985179  1
  H+  H173  1  0.74892590  0.87961956  0.50655326  1
  H+  H174  1  0.96890261  0.61573739  0.65839539  1
  H+  H175  1  0.77927304  0.65012230  0.34060325  1
  H+  H176  1  -0.02605192  0.36299485  0.50884555  1
  H+  H177  1  0.85842840  0.64493073  0.15992083  1
  H+  H178  1  0.87898204  0.36647352  0.65705593  1
  H+  H179  1  0.39576160  0.89455928  0.98545532  1
  H+  H180  1  0.14301078  0.52139503  0.51197386  1
  H+  H181  1  0.20935382  0.46227137  0.38190339  1
  H+  H182  1  0.37017034  0.63283842  0.15454025  1
  H+  H183  1  0.61536629  0.39382979  0.82535381  1
  H+  H184  1  0.84473791  0.25210141  0.32288066  1
  H+  H185  1  0.46204357  0.34750221  0.30991633  1
  H+  H186  1  0.61443454  0.47517107  0.17300043  1
  H+  H187  1  0.86105794  0.89255647  0.00324727  1
  H+  H188  1  0.93778277  0.61744500  0.99309635  1
  H+  H189  1  0.86421916  0.73698496  0.82645193  1
  H+  H190  1  0.86871882  0.13715406  0.00401836  1
  H+  H191  1  0.40274927  1.02536288  0.17225052  1
  H+  H192  1  0.32479264  0.67594303  0.40784212  1
  H+  H193  1  0.13638037  0.76900227  0.32644187  1
  H+  H194  1  0.92384976  0.84400618  0.60280647  1
  H+  H195  1  0.60699524  0.22252058  0.49225499  1
  H+  H196  1  0.61421670  0.12506145  0.66983203  1
  H+  H197  1  0.86546935  0.73055798  0.66825812  1
  H+  H198  1  0.52834123  0.89071235  0.67179277  1
  H+  H199  1  0.09933291  0.62286203  0.32591645  1
  H+  H200  1  0.88302946  0.37629201  0.18231839  1
  H+  H201  1  0.38991239  1.00219135  0.65967822  1
  H+  H202  1  0.10184340  0.62306400  0.15417423  1
  H+  H203  1  1.02776623  0.64440806  0.82599316  1
  H+  H204  1  0.63474714  0.54877796  0.33087475  1
  H+  H205  1  0.63618214  0.77749980  0.65681689  1
  H+  H206  1  0.63325830  0.35986289  0.51090756  1
  H+  H207  1  0.92581727  0.33370273  0.90913150  1
  H+  H208  1  0.05430736  0.64902960  0.00965553  1
  H+  H209  1  0.10537377  0.12942239  0.49339863  1
  H+  H210  1  0.75689423  0.63381448  0.00522505  1
  H+  H211  1  1.02301709  0.88695521  1.00847139  1
  H+  H212  1  0.33679798  0.41701664  0.42322099  1
  H+  H213  1  0.14208621  0.78038046  0.84113346  1
  H+  H214  1  0.52862934  0.63532640  0.16206409  1
  H+  H215  1  0.86317405  0.22867462  0.49719503  1
  H+  H216  1  0.47865434  0.60439846  -0.00795883  1
  H+  H217  1  0.38627445  0.61623491  0.31456028  1
  H+  H218  1  0.13072423  0.47672038  0.01163714  1
  H+  H219  1  0.63622431  0.11440116  0.50184512  1
  H+  H220  1  0.86046537  0.13584505  0.34215935  1
  H+  H221  1  0.98174490  0.87096976  0.66364267  1
  H+  H222  1  0.16436422  0.58912405  0.59928477  1
  H+  H223  1  0.87171828  0.51841047  0.32507524  1
  H+  H224  1  0.81028134  0.50169828  0.98552400  1
  H+  H225  1  0.27924156  0.87540947  0.48425638  1
  H+  H226  1  0.27492994  0.62365121  0.00204009  1
  H+  H227  1  0.62831282  0.84592332  0.16890074  1
  H+  H228  1  1.01944626  0.38568543  0.29613084  1
  H+  H229  1  0.15287681  0.78713905  0.99700257  1
  H+  H230  1  0.62998295  0.86427941  0.84516173  1
  H+  H231  1  0.35829077  0.61704325  0.82017494  1
  H+  H232  1  0.78374161  0.31526250  0.04879707  1
  H+  H233  1  0.53458476  0.13749168  0.15960523  1
  H+  H234  1  0.26024384  0.39854308  0.67373055  1
  H+  H235  1  0.48274216  0.12263099  0.32524027  1
  H+  H236  1  0.37077750  0.62050998  0.00484288  1
  H+  H237  1  0.39877763  0.36476061  0.85707471  1
  H+  H238  1  0.61043860  0.64014702  0.82661518  1
  H+  H239  1  0.66015020  0.04035306  0.84420097  1
  H+  H240  1  0.11401401  0.88629630  0.16033691  1
  H+  H241  1  0.48349957  0.87011981  0.32389528  1
  H+  H242  1  0.13472168  0.77556088  0.66497452  1
  H+  H243  1  0.63592288  0.63670946  0.32742058  1
  H+  H244  1  0.52023072  0.65156246  0.67643305  1
  H+  H245  1  0.15973784  0.07942480  0.92618773  1
  H+  H246  1  0.81844876  0.41068129  0.01149117  1
  H+  H247  1  0.88153072  0.52481441  0.50618818  1
  H+  H248  1  0.21182110  0.33740497  0.15013448  1
  H+  H249  1  0.22553911  0.85977197  0.32799582  1
  H+  H250  1  0.36824241  0.98243710  0.33611366  1
  H+  H251  1  0.37127392  0.63478673  0.49345677  1
  H+  H252  1  0.63005750  0.27300805  0.83078276  1
  H+  H253  1  0.57459573  0.93139416  0.15390698  1
  H+  H254  1  0.10579197  0.12721329  -0.00029880  1
  H+  H255  1  0.76854565  0.13184780  0.34762473  1
  H+  H256  1  0.61149038  0.41388319  0.31571711  1
  H+  H257  1  0.63181465  0.26311202  0.65736126  1
  H+  H258  1  0.37385331  0.52747403  0.66133666  1
  H+  H259  1  0.35884797  0.87529230  0.82411277  1
  H+  H260  1  0.21307521  0.10507545  0.84445372  1
  H+  H261  1  0.62384095  0.64030898  0.48441194  1
  H+  H262  1  0.47720346  0.62302716  0.32224129  1
  H+  H263  1  0.46210616  0.35839705  1.01135148  1
  H+  H264  1  0.10332351  0.97651718  0.49668573  1
  H+  H265  1  1.01659878  0.39879415  0.83104042  1
  H+  H266  1  0.27909403  0.90040734  0.00622205  1
  H+  H267  1  0.85891336  -0.02038974  0.49892139  1
  H+  H268  1  -0.02739567  0.87271631  0.50539252  1
  H+  H269  1  0.48764314  0.86379465  0.50896405  1
  H+  H270  1  0.42680229  0.08655103  0.26465868  1
  H+  H271  1  0.53967324  0.95635938  0.81070115  1
  H+  H272  1  0.97090310  0.10909826  0.50276412  1
  H+  H273  1  0.22095379  0.60810385  0.83835331  1
  H+  H274  1  0.88477164  0.23714680  1.00528163  1
  H+  H275  1  0.63904625  0.26947033  0.28632951  1
  H+  H276  1  0.10713133  0.22932564  0.68386657  1
  H+  H277  1  0.08584240  0.16467006  0.78157218  1
  H+  H278  1  0.11375845  0.98997711  0.83424595  1
  H+  H279  1  0.38516912  0.85701335  0.66129892  1
  H+  H280  1  0.62659238  0.63540148  0.16752822  1
  H+  H281  1  0.35379884  0.22835810  0.68181225  1
  H+  H282  1  0.13582182  1.02453310  -0.01027848  1
  H+  H283  1  0.99947326  0.36416258  1.00607838  1
  H+  H284  1  0.39399320  0.11854934  0.99096894  1
  H+  H285  1  0.86265276  0.48292921  0.16637255  1
  H+  H286  1  0.11554117  0.64178349  0.82933191  1
  H+  H287  1  0.76907368  0.14816474  -0.00429432  1
  H+  H288  1  0.91237484  0.33505058  0.56686922  1
  H+  H289  1  0.69409616  0.11380240  0.93044179  1
  H+  H290  1  0.07105936  0.42990159  0.76955007  1
  H+  H291  1  0.40156426  0.33113003  0.25163599  1
  H+  H292  1  0.92375341  0.60826453  0.89278755  1
  H+  H293  1  0.59534641  0.17590866  0.06478779  1
  H+  H294  1  0.16020423  0.31388105  0.21337986  1
  H+  H295  1  0.83412580  0.16899360  0.43746040  1
  H+  H296  1  0.83562993  0.17210570  0.73047179  1
  H+  H297  1  0.86306717  0.97949879  0.83842477  1
  H+  H298  1  0.64140965  0.32551459  0.89230984  1
  H+  H299  1  0.67374649  0.10233963  0.27629888  1
  H+  H300  1  0.87278984  0.14738725  0.82619142  1
  H+  H301  1  0.85927625  0.38663371  0.49524675  1
  H+  H302  1  0.33311634  0.91077900  0.73301239  1
  H+  H303  1  0.10776649  0.64186118  0.67229813  1
  H+  H304  1  0.83438700  0.40831924  0.11421195  1
  H+  H305  1  0.92048984  0.09096899  0.60262580  1
  H+  H306  1  0.17473710  0.84149040  0.89994801  1
  H+  H307  1  0.85084276  0.68087096  0.43277710  1
  H+  H308  1  0.57239744  0.40436439  0.41792245  1
  H+  H309  1  0.32141373  0.42807414  0.73172952  1
  H+  H310  1  0.66845287  0.83804746  0.26677230  1
  H+  H311  1  0.32320274  0.34673944  0.78999227  1
  H+  H312  1  0.33941453  0.90729051  0.42490727  1
  H+  H313  1  0.82743637  0.91838756  0.06264685  1
  H+  H314  1  0.84649827  0.18465898  0.10103469  1
  H+  H315  1  0.41298111  0.57163863  0.93599290  1
  H+  H316  1  0.52552667  0.13235034  0.82350864  1
  H+  H317  1  0.42698265  0.05982836  0.59337982  1
  H+  H318  1  0.35379992  0.16223879  0.09057496  1
  H+  H319  1  0.58025819  0.40705190  0.73193221  1
  H+  H320  1  0.10223254  0.41735233  0.44621877  1
  H+  H321  1  0.14464391  0.48205848  0.34808662  1
  H+  H322  1  0.33710020  0.91897087  0.10152250  1
  H+  H323  1  0.40315232  0.81593644  0.23042425  1
  H+  H324  1  0.59234252  0.92160663  0.43494787  1
  H+  H325  1  0.37073101  0.35324303  0.15018458  1
  H+  H326  1  0.10325152  0.20820129  0.15093275  1
  H+  H327  1  0.07101492  0.14604936  0.06230715  1
  H+  H328  1  0.11362853  0.97635645  0.16406365  1
  H+  H329  1  0.65622771  0.82779191  0.90231460  1
  H+  H330  1  0.14545121  0.33331731  0.60990523  1
  H+  H331  1  0.33572544  0.16667406  0.77451240  1
  H+  H332  1  0.33858390  0.66286570  0.73340832  1
  H+  H333  1  0.88486994  0.02581721  0.32799934  1
  H+  H334  1  0.37049770  0.89479753  0.33145496  1
  H+  H335  1  0.67128107  0.08497059  0.59772806  1
  H+  H336  1  0.58359456  0.17231843  0.42836349  1
  H+  H337  1  0.77056731  0.38469559  0.66685766  1
  H+  H338  1  0.47872642  0.94423262  0.94623560  1
  H+  H339  1  0.15755059  0.07414829  0.23475618  1
  H+  H340  1  0.41085979  0.58563786  0.59891185  1
  H+  H341  1  0.65886485  0.32572099  0.56985702  1
  H+  H342  1  0.42093289  0.32991174  0.94599455  1
  H+  H343  1  0.87894391  0.31961391  0.24687169  1
  H+  H344  1  0.39251832  0.11277416  0.83886679  1
  H+  H345  1  0.83061232  0.67086238  0.72546641  1
  H+  H346  1  0.58345368  0.92611966  0.76240084  1
  H+  H347  1  0.91587634  0.58673305  0.56430214  1
  H+  H348  1  0.42485868  0.58180194  0.22384627  1
  H+  H349  1  0.59015844  0.65140932  0.05904712  1
  H+  H350  1  0.82343565  0.67552748  0.10234521  1
  H+  H351  1  0.67238760  0.59839793  0.89765306  1
  H+  H352  1  0.40833356  0.33340855  0.60338381  1
  H+  H353  1  0.90951502  0.08199446  0.23318243  1
  H+  H354  1  0.27483946  0.88452062  0.82721473  1
  H+  H355  1  0.58189284  0.67540947  0.73348024  1
  H+  H356  1  0.11997349  0.72161054  0.16392597  1
  H+  H357  1  0.77206795  0.39230634  0.84583399  1
  H+  H358  1  0.91975927  0.84410510  0.26492974  1
  H+  H359  1  0.33377548  0.65058699  0.06752386  1
  H+  H360  1  0.62336813  0.73155577  0.16271672  1
  H+  H361  1  0.16920695  0.82939457  0.23279804  1
  H+  H362  1  0.10669367  0.48301512  0.11172282  1
  H+  H363  1  0.40018477  0.53559816  0.15591441  1
  H+  H364  1  0.81774171  0.40975476  0.40415105  1
  H+  H365  1  0.83051229  0.91572284  0.39912447  1
  H+  H366  1  0.57891707  0.15232465  0.72940541  1
  H+  H367  1  0.08452790  0.91702789  0.06697409  1
  H+  H368  1  0.07940539  0.16175868  0.43188763  1
  H+  H369  1  0.61351459  0.57031722  0.57292160  1
  H+  H370  1  0.88921768  0.86734931  0.84816218  1
  H+  H371  1  0.07699401  0.91617679  0.43655208  1
  H+  H372  1  0.08357693  0.92432086  0.74141016  1
  H+  H373  1  0.17820371  0.58583050  0.93315046  1
  H+  H374  1  0.67096188  0.84022821  0.56968900  1
  H+  H375  1  0.62661631  0.34988812  0.66123818  1
  H+  H376  1  0.39175237  0.78377471  0.32967656  1
  H+  H377  1  0.96540245  0.60318060  0.32407080  1
  H+  H378  1  0.41930973  0.82955062  0.60202114  1
  H+  H379  1  0.18804417  0.32011616  0.91834779  1
  H+  H380  1  0.10598757  0.67705994  0.07049117  1
  H+  H381  1  0.10783582  0.12746255  0.34086248  1
  H+  H382  1  0.08125599  0.67125402  0.73315624  1
  H+  H383  1  0.67177584  0.60003154  0.23549069  1
  O2-  O384  1  0.07177636  0.14506553  0.13832054  1
  O2-  O385  1  0.07724567  0.16219799  0.47778630  1
  O2-  O386  1  0.08375754  0.16060274  0.82645941  1
  O2-  O387  1  0.10817210  0.52113911  0.14537751  1
  O2-  O388  1  0.08887422  0.41307812  0.49067140  1
  O2-  O389  1  0.07537251  0.43500079  0.81443946  1
  O2-  O390  1  0.08278534  0.66426950  0.14363670  1
  O2-  O391  1  0.07357493  0.64636588  0.46146368  1
  O2-  O392  1  0.08876449  0.67464220  0.81233627  1
  O2-  O393  1  0.08260813  0.91512987  0.14589396  1
  O2-  O394  1  0.07429402  0.91515532  0.48219335  1
  O2-  O395  1  0.08213996  0.92564925  0.81579645  1
  O2-  O396  1  0.37441358  0.17005072  0.13336269  1
  O2-  O397  1  0.31670020  0.13924601  0.50130569  1
  O2-  O398  1  0.34118650  0.16239516  0.81990003  1
  O2-  O399  1  0.34362907  0.47000564  0.10114436  1
  O2-  O400  1  0.33679287  0.41641867  0.46889786  1
  O2-  O401  1  0.32276257  0.39398148  0.81155995  1
  O2-  O402  1  0.32876011  0.65009573  0.13908910  1
  O2-  O403  1  0.34091299  0.66622087  0.48091610  1
  O2-  O404  1  0.33077994  0.64942997  0.80287148  1
  O2-  O405  1  0.33574899  0.91604189  0.14687452  1
  O2-  O406  1  0.33951708  0.90043913  0.47055323  1
  O2-  O407  1  0.33517937  0.91146388  0.80987855  1
  O2-  O408  1  0.59614162  0.17319020  0.14420551  1
  O2-  O409  1  0.57990253  0.16375153  0.47426426  1
  O2-  O410  1  0.58485683  0.16417341  0.80506159  1
  O2-  O411  1  0.58507639  0.41427792  0.16084550  1
  O2-  O412  1  0.57027872  0.42322935  0.46038648  1
  O2-  O413  1  0.58311606  0.42357667  0.81327030  1
  O2-  O414  1  0.59292167  0.66691931  0.14870184  1
  O2-  O415  1  0.58900747  0.66823477  0.47344250  1
  O2-  O416  1  0.57452268  0.66521190  0.81217813  1
  O2-  O417  1  0.55650299  0.87248354  0.14243423  1
  O2-  O418  1  0.59523365  0.92025143  0.48053776  1
  O2-  O419  1  0.57499532  0.92924793  0.80784982  1
  O2-  O420  1  0.84998481  0.19003991  0.14597725  1
  O2-  O421  1  0.83269177  0.16726450  0.48308574  1
  O2-  O422  1  0.84060338  0.17674897  0.81108583  1
  O2-  O423  1  0.83277602  0.41938753  0.15949465  1
  O2-  O424  1  0.82777047  0.41593427  0.48047935  1
  O2-  O425  1  0.83247643  0.42649669  0.86050495  1
  O2-  O426  1  0.82610759  0.67482227  0.14861484  1
  O2-  O427  1  0.84950612  0.68149881  0.47807329  1
  O2-  O428  1  0.82950158  0.67692992  0.80963003  1
  O2-  O429  1  0.82407704  0.91509719  0.14433131  1
  O2-  O430  1  0.82490859  0.91621181  0.48635561  1
  O2-  O431  1  0.83687220  0.91666814  0.83281112  1
  O2-  O432  1  0.15654009  0.06875956  0.18980359  1
  O2-  O433  1  0.15177054  0.07738449  0.52582877  1
  O2-  O434  1  0.15338404  0.07493078  0.85885445  1
  O2-  O435  1  0.15292810  0.30705762  0.16901826  1
  O2-  O436  1  0.17182601  0.31447940  0.52547034  1
  O2-  O437  1  0.18656483  0.31931100  0.87362707  1
  O2-  O438  1  0.17519267  0.52548655  0.18617117  1
  O2-  O439  1  0.17050509  0.58346823  0.52300343  1
  O2-  O440  1  0.16487797  0.58668797  0.85863623  1
  O2-  O441  1  0.16864333  0.82525492  0.18750793  1
  O2-  O442  1  0.18860417  0.87392476  0.52821114  1
  O2-  O443  1  0.17603759  0.84148050  0.85456491  1
  O2-  O444  1  0.43747519  0.08591937  0.18611171  1
  O2-  O445  1  0.42230153  0.06118518  0.52368508  1
  O2-  O446  1  0.42541608  0.08312109  0.85286693  1
  O2-  O447  1  0.40372816  0.33245669  0.17582562  1
  O2-  O448  1  0.40675846  0.32030141  0.52164256  1
  O2-  O449  1  0.42949800  0.33379210  0.86665260  1
  O2-  O450  1  0.43492515  0.59142245  0.17912780  1
  O2-  O451  1  0.41961237  0.57967634  0.52260475  1
  O2-  O452  1  0.41072716  0.56965587  0.85262707  1
  O2-  O453  1  0.39501545  0.80746944  0.18543018  1
  O2-  O454  1  0.42718841  0.83098458  0.52402983  1
  O2-  O455  1  0.40646212  0.80849733  0.85176398  1
  O2-  O456  1  0.69095729  0.11926968  0.19478859  1
  O2-  O457  1  0.66615013  0.08449087  0.51873044  1
  O2-  O458  1  0.68649946  0.10101804  0.85651483  1
  O2-  O459  1  0.66450330  0.32543934  0.20322585  1
  O2-  O460  1  0.66090012  0.32736707  0.52334405  1
  O2-  O461  1  0.65690855  0.33191944  0.84816595  1
  O2-  O462  1  0.66972352  0.59611085  0.19005027  1
  O2-  O463  1  0.68337829  0.59433394  0.50333832  1
  O2-  O464  1  0.66773075  0.59453947  0.85250861  1
  O2-  O465  1  0.66420298  0.82174452  0.18506939  1
  O2-  O466  1  0.67695226  0.84409119  0.52210409  1
  O2-  O467  1  0.65503443  0.82894322  0.85663288  1
  O2-  O468  1  0.90557972  0.07792954  0.18780516  1
  O2-  O469  1  0.91080618  0.07867430  0.51894958  1
  O2-  O470  1  0.91827138  0.09389592  0.85371571  1
  O2-  O471  1  0.90994691  0.34209461  0.20024728  1
  O2-  O472  1  0.91258602  0.33348921  0.52084819  1
  O2-  O473  1  0.91486742  0.33406781  0.86481274  1
  O2-  O474  1  0.91208903  0.59091464  0.18518900  1
  O2-  O475  1  0.91601750  0.58625803  0.51837008  1
  O2-  O476  1  0.92032112  0.59634069  0.84932753  1
  O2-  O477  1  0.92012860  0.84610921  0.18607896  1
  O2-  O478  1  0.91149051  0.84315097  0.52067798  1
  O2-  O479  1  0.91948354  0.83463145  0.85986002  1
  O2-  O480  1  0.15912406  0.08041687  0.31615310  1
  O2-  O481  1  0.15946093  0.08519988  0.64852792  1
  O2-  O482  1  0.16435961  0.08415901  0.97414176  1
  O2-  O483  1  0.16461063  0.31672644  0.29947156  1
  O2-  O484  1  0.15387769  0.34104368  0.65408748  1
  O2-  O485  1  0.17773381  0.32889323  1.00983924  1
  O2-  O486  1  0.16031588  0.56573670  0.30344793  1
  O2-  O487  1  0.16090957  0.58853088  0.64500768  1
  O2-  O488  1  0.18540137  0.58677427  0.97900803  1
  O2-  O489  1  0.16508480  0.83023600  0.31320592  1
  O2-  O490  1  0.17015642  0.83770032  0.65234833  1
  O2-  O491  1  0.17715284  0.84582173  0.97989540  1
  O2-  O492  1  0.42226726  0.08592188  0.31007112  1
  O2-  O493  1  0.42773645  0.06167556  0.64047749  1
  O2-  O494  1  0.42937623  0.09085454  0.97908553  1
  O2-  O495  1  0.40309676  0.33111817  0.29758434  1
  O2-  O496  1  0.40832320  0.33617589  0.64846678  1
  O2-  O497  1  0.40713779  0.32334134  0.99002725  1
  O2-  O498  1  0.41898589  0.58857658  0.30276326  1
  O2-  O499  1  0.40445076  0.58887291  0.64449500  1
  O2-  O500  1  0.41658173  0.57776632  0.98109942  1
  O2-  O501  1  0.42341701  0.83890778  0.30735793  1
  O2-  O502  1  0.41747441  0.82763300  0.64775258  1
  O2-  O503  1  0.43923134  0.88622893  0.96073965  1
  O2-  O504  1  0.66617100  0.09314469  0.32083774  1
  O2-  O505  1  0.67026507  0.08171798  0.64324400  1
  O2-  O506  1  0.69887443  0.11978300  0.97639841  1
  O2-  O507  1  0.63654099  0.27209627  0.33130062  1
  O2-  O508  1  0.65948501  0.32269771  0.64221662  1
  O2-  O509  1  0.63251909  0.33546823  0.97063753  1
  O2-  O510  1  0.66745236  0.60597642  0.31322805  1
  O2-  O511  1  0.56120681  0.55512670  0.59612908  1
  O2-  O512  1  0.68253588  0.58132072  0.97986254  1
  O2-  O513  1  0.66712771  0.84151452  0.31184290  1
  O2-  O514  1  0.66613633  0.83652285  0.63748131  1
  O2-  O515  1  0.66128590  0.82017326  0.97844329  1
  O2-  O516  1  0.91371662  0.08592732  0.31264790  1
  O2-  O517  1  0.91933788  0.09198965  0.64762258  1
  O2-  O518  1  0.91098328  0.08688817  0.98037903  1
  O2-  O519  1  0.83764283  0.29442682  0.29732337  1
  O2-  O520  1  0.91243943  0.33727378  0.64223434  1
  O2-  O521  1  0.93904910  0.33211718  0.98976008  1
  O2-  O522  1  0.90437726  0.57813429  0.30962466  1
  O2-  O523  1  0.91037555  0.58513206  0.64066800  1
  O2-  O524  1  0.79553949  0.44436965  0.97248836  1
  O2-  O525  1  0.91794495  0.84277632  0.31057791  1
  O2-  O526  1  0.92148182  0.84151339  0.64781728  1
  O2-  O527  1  0.91549900  0.84294239  0.98180299  1
  O2-  O528  1  0.07209584  0.15375322  0.01686418  1
  O2-  O529  1  0.07735689  0.15908464  0.35535023  1
  O2-  O530  1  0.08049318  0.16855537  0.69647149  1
  O2-  O531  1  0.09996796  0.42458184  0.03711792  1
  O2-  O532  1  0.14807707  0.43815240  0.37457820  1
  O2-  O533  1  0.07160315  0.42147638  0.68821905  1
  O2-  O534  1  0.11341479  0.67903357  0.02466790  1
  O2-  O535  1  0.07285718  0.65514323  0.34277826  1
  O2-  O536  1  0.07890440  0.67305762  0.68779005  1
  O2-  O537  1  0.08431795  0.91443955  0.02145492  1
  O2-  O538  1  0.08079869  0.91293129  0.35926001  1
  O2-  O539  1  0.08376920  0.92338163  0.69512502  1
  O2-  O540  1  0.33233677  0.15652045  0.01290945  1
  O2-  O541  1  0.32267429  0.16240996  0.34337206  1
  O2-  O542  1  0.32601053  0.16994308  0.69939900  1
  O2-  O543  1  0.30402972  0.37588291  0.10937750  1
  O2-  O544  1  0.33122777  0.41623579  0.34491050  1
  O2-  O545  1  0.32218862  0.43154742  0.68670537  1
  O2-  O546  1  0.33667479  0.65039827  0.02082438  1
  O2-  O547  1  0.30994470  0.68859641  0.36602369  1
  O2-  O548  1  0.33969253  0.66805162  0.68631096  1
  O2-  O549  1  0.33985194  0.92815257  0.02169617  1
  O2-  O550  1  0.33795196  0.92059372  0.34986495  1
  O2-  O551  1  0.33389390  0.90987046  0.68711299  1
  O2-  O552  1  0.59687527  0.17649397  0.01920823  1
  O2-  O553  1  0.58791293  0.17996904  0.35169829  1
  O2-  O554  1  0.57595085  0.14806333  0.68361022  1
  O2-  O555  1  0.57484341  0.42100948  0.04017048  1
  O2-  O556  1  0.56892262  0.37147345  0.34326136  1
  O2-  O557  1  0.57860550  0.39528911  0.68786193  1
  O2-  O558  1  0.58639102  0.65023512  0.01447425  1
  O2-  O559  1  0.57883378  0.67799074  0.35105960  1
  O2-  O560  1  0.58111594  0.68118743  0.68822768  1
  O2-  O561  1  0.56763735  0.88340338  0.02857347  1
  O2-  O562  1  0.58499083  0.92505924  0.35608417  1
  O2-  O563  1  0.58832272  0.92080228  0.68745990  1
  O2-  O564  1  0.84212647  0.17412322  0.01790577  1
  O2-  O565  1  0.83043256  0.16494855  0.36024486  1
  O2-  O566  1  0.83199236  0.16955071  0.68517218  1
  O2-  O567  1  0.83499760  0.37198502  0.04763617  1
  O2-  O568  1  0.80840155  0.40547621  0.35877573  1
  O2-  O569  1  0.83149647  0.41438015  0.67985497  1
  O2-  O570  1  0.82112797  0.68006870  0.02839505  1
  O2-  O571  1  0.84027463  0.67732177  0.35281545  1
  O2-  O572  1  0.83479646  0.66925055  0.68072074  1
  O2-  O573  1  0.82598863  0.91901399  0.01737064  1
  O2-  O574  1  0.83033015  0.91743005  0.35426768  1
  O2-  O575  1  0.84162489  0.93149867  0.67839732  1
