# generated using pymatgen
data_H2O
_symmetry_space_group_name_H-M   'P 1'
_cell_length_a   17.96445914
_cell_length_b   17.96091999
_cell_length_c   21.99515898
_cell_angle_alpha   89.93185409
_cell_angle_beta   89.99685347
_cell_angle_gamma   120.00153041
_symmetry_Int_Tables_number   1
_chemical_formula_structural   H2O
_chemical_formula_sum   'H384 O192'
_cell_volume   6146.01102045
_cell_formula_units_Z   192
loop_
 _symmetry_equiv_pos_site_id
 _symmetry_equiv_pos_as_xyz
  1  'x, y, z'
loop_
 _atom_type_symbol
 _atom_type_oxidation_number
  H+  1.0
  O2-  -2.0
loop_
 _atom_site_type_symbol
 _atom_site_label
 _atom_site_symmetry_multiplicity
 _atom_site_fract_x
 _atom_site_fract_y
 _atom_site_fract_z
 _atom_site_occupancy
  H+  H0  1  0.89363148  0.38722042  0.39851532  1
  H+  H1  1  0.60732584  0.26370077  0.65779203  1
  H+  H2  1  0.53489412  0.89570266  0.66934589  1
  H+  H3  1  0.73578130  0.35627190  0.97611870  1
  H+  H4  1  0.58500179  0.67941576  0.74033152  1
  H+  H5  1  0.87651743  0.59532748  0.50733414  1
  H+  H6  1  0.84399723  0.93016666  0.45227682  1
  H+  H7  1  0.29960913  0.31970378  0.95382401  1
  H+  H8  1  0.75582494  0.39522070  0.35742015  1
  H+  H9  1  0.40411837  0.08390608  0.59931719  1
  H+  H10  1  0.14639146  0.80076715  0.93873593  1
  H+  H11  1  0.35185686  0.72197840  0.99182442  1
  H+  H12  1  0.62972827  0.61444417  0.50991052  1
  H+  H13  1  0.89095368  1.01800924  -0.00260991  1
  H+  H14  1  0.86082171  0.87250464  0.15663711  1
  H+  H15  1  0.53544504  0.63780380  0.35107635  1
  H+  H16  1  0.27852218  0.89181121  0.19375686  1
  H+  H17  1  0.62868534  0.35151590  0.32748463  1
  H+  H18  1  0.85733586  0.19296261  -0.00781929  1
  H+  H19  1  0.14245751  0.25999749  0.64493943  1
  H+  H20  1  0.38551105  0.03300723  0.50501609  1
  H+  H21  1  0.54828068  0.39148739  0.01067991  1
  H+  H22  1  0.46884338  0.35064629  0.82438003  1
  H+  H23  1  0.62304400  0.74403294  0.68324989  1
  H+  H24  1  0.40300966  0.32935356  0.60013422  1
  H+  H25  1  0.28284825  0.63628314  0.34767261  1
  H+  H26  1  0.61241188  0.22412357  -0.00067422  1
  H+  H27  1  0.39234173  0.02451994  0.18426040  1
  H+  H28  1  0.26269519  0.12424136  0.33796261  1
  H+  H29  1  0.60308711  0.13223951  -0.00590869  1
  H+  H30  1  0.37016294  0.90229337  0.49696102  1
  H+  H31  1  0.04626575  0.15904351  0.19443153  1
  H+  H32  1  0.82755724  0.69791664  0.32626387  1
  H+  H33  1  0.47341322  0.87021862  0.51004015  1
  H+  H34  1  0.13042090  0.10270897  0.32985336  1
  H+  H35  1  0.75667438  0.85759833  0.34785755  1
  H+  H36  1  0.96730834  0.59298131  0.82983981  1
  H+  H37  1  0.62340746  0.11190547  0.65326471  1
  H+  H38  1  1.03852809  0.64624496  0.17903235  1
  H+  H39  1  0.14723613  0.12693203  0.17629428  1
  H+  H40  1  0.90193481  0.02849216  0.28945935  1
  H+  H41  1  0.59291328  0.47621032  0.67241595  1
  H+  H42  1  0.63035603  0.64791749  0.34704110  1
  H+  H43  1  0.87901872  0.52279886  0.34458942  1
  H+  H44  1  0.70339687  0.09579979  0.97040960  1
  H+  H45  1  0.68706167  0.11370400  0.79801111  1
  H+  H46  1  0.77109034  0.90982772  0.83669375  1
  H+  H47  1  0.63257576  0.62449389  0.66811185  1
  H+  H48  1  0.86798701  0.75364793  0.83823322  1
  H+  H49  1  0.60883961  0.97686090  0.49286995  1
  H+  H50  1  0.85677022  0.77099911  0.81069529  1
  H+  H51  1  0.38886859  0.52626904  -0.00235315  1
  H+  H52  1  0.02487462  0.14337776  0.49771483  1
  H+  H53  1  0.39729319  0.52706546  0.34370584  1
  H+  H54  1  0.63611505  0.77016799  0.32701621  1
  H+  H55  1  0.26153077  0.13782845  0.49688151  1
  H+  H56  1  0.64644299  0.49561363  0.34682975  1
  H+  H57  1  0.15201523  0.50603989  0.98798137  1
  H+  H58  1  0.22678240  0.85909996  0.34395522  1
  H+  H59  1  0.86715364  0.20701311  0.33083194  1
  H+  H60  1  0.52405875  0.13295541  0.15984960  1
  H+  H61  1  0.36333380  0.39341360  0.80212724  1
  H+  H62  1  0.92347976  0.12982044  0.66869629  1
  H+  H63  1  0.36792587  0.40326636  0.65898226  1
  H+  H64  1  0.02551023  0.64720206  0.50395825  1
  H+  H65  1  0.27221638  0.87873489  1.00052683  1
  H+  H66  1  0.39353477  0.11530604  0.17387711  1
  H+  H67  1  0.64248145  0.77080559  0.19311425  1
  H+  H68  1  0.60185370  0.12151921  0.82879088  1
  H+  H69  1  0.12930360  0.65026250  0.17652056  1
  H+  H70  1  0.08319202  0.16180953  0.40598049  1
  H+  H71  1  0.87159182  0.63834686  0.15976836  1
  H+  H72  1  0.87464904  0.99294466  0.50997913  1
  H+  H73  1  0.14190106  0.52085229  0.33079018  1
  H+  H74  1  0.02099398  0.12234128  0.34933714  1
  H+  H75  1  1.00372570  0.10046972  0.97798125  1
  H+  H76  1  0.01419606  0.37368918  0.50389984  1
  H+  H77  1  0.86939464  0.57415901  0.82746655  1
  H+  H78  1  0.08825262  0.66314907  0.41382411  1
  H+  H79  1  0.39151826  0.76968973  0.33728576  1
  H+  H80  1  0.88334744  0.39442846  -0.03093095  1
  H+  H81  1  0.92068158  0.12272360  -0.02083564  1
  H+  H82  1  0.27070509  0.38982215  0.34352222  1
  H+  H83  1  0.62400831  0.73979197  0.50168145  1
  H+  H84  1  0.27312180  0.13210463  0.00095288  1
  H+  H85  1  0.24111059  0.86820740  0.65842570  1
  H+  H86  1  0.62604308  0.36055907  0.50766605  1
  H+  H87  1  0.39797173  0.78547483  0.66147378  1
  H+  H88  1  0.35563861  0.97223190  -0.00333350  1
  H+  H89  1  0.13097082  0.52351277  0.50954540  1
  H+  H90  1  0.89539291  0.52920927  0.19459568  1
  H+  H91  1  0.72419375  0.33657669  0.81956641  1
  H+  H92  1  0.86034806  0.05177058  0.20046031  1
  H+  H93  1  0.37729869  0.78663951  0.51240191  1
  H+  H94  1  0.90156029  0.18934580  0.12337716  1
  H+  H95  1  0.15159203  0.28568951  0.83796605  1
  H+  H96  1  0.38438339  0.52864230  0.82975812  1
  H+  H97  1  0.37872241  0.40103007  0.18611150  1
  H+  H98  1  0.94924083  0.31210288  0.95364839  1
  H+  H99  1  0.16048003  0.77517116  0.65394898  1
  H+  H100  1  0.17577195  0.06053359  -0.07670233  1
  H+  H101  1  0.51385308  0.14249614  0.49487572  1
  H+  H102  1  0.36619066  0.88548220  0.34349229  1
  H+  H103  1  0.75942252  0.60485776  0.81586881  1
  H+  H104  1  0.36703814  0.97756197  0.82260535  1
  H+  H105  1  0.41012046  0.63738193  0.19948102  1
  H+  H106  1  0.60066350  0.47515782  0.50090952  1
  H+  H107  1  0.12719197  0.01153025  0.32606335  1
  H+  H108  1  0.38532063  1.01630553  0.32738812  1
  H+  H109  1  0.73456391  0.87790394  0.51770644  1
  H+  H110  1  0.50461679  0.87993764  0.00304898  1
  H+  H111  1  0.46571557  0.34854893  0.33759940  1
  H+  H112  1  0.60556529  0.23113950  0.49263607  1
  H+  H113  1  0.54291051  0.64043187  0.20836801  1
  H+  H114  1  1.06752694  0.41879650  0.16668327  1
  H+  H115  1  0.71423105  0.87263603  0.99259151  1
  H+  H116  1  0.28288303  0.39999873  0.50108318  1
  H+  H117  1  0.50245074  0.12517920  0.34308852  1
  H+  H118  1  0.47518946  0.61205574  0.97955707  1
  H+  H119  1  0.01811310  0.87100152  0.34046653  1
  H+  H120  1  0.14561685  0.61081542  0.33901501  1
  H+  H121  1  0.48808178  0.62147499  0.51627589  1
  H+  H122  1  0.60613641  0.21236297  0.82544410  1
  H+  H123  1  -0.01467207  0.87017008  0.51291436  1
  H+  H124  1  0.47056710  0.35756373  0.50901195  1
  H+  H125  1  0.38570177  0.11935525  0.98601417  1
  H+  H126  1  0.14278699  0.87437629  0.50740950  1
  H+  H127  1  0.63574481  -0.00206171  0.32452713  1
  H+  H128  1  0.77782437  0.58297581  0.58663298  1
  H+  H129  1  0.37926985  0.89590625  0.67181068  1
  H+  H130  1  0.37860128  0.26970794  0.50761411  1
  H+  H131  1  0.37982805  0.86522399  -0.01214876  1
  H+  H132  1  0.72521209  0.85968305  0.17328190  1
  H+  H133  1  0.08345781  0.73155529  0.84490124  1
  H+  H134  1  0.02978044  0.87751072  0.67702400  1
  H+  H135  1  0.87889047  0.83831785  0.32462289  1
  H+  H136  1  0.13923331  0.76713635  0.34687390  1
  H+  H137  1  0.89879373  0.87373174  0.51950301  1
  H+  H138  1  0.12132540  0.47035114  0.64739544  1
  H+  H139  1  0.14761001  0.37025691  0.82228742  1
  H+  H140  1  0.10861236  0.62077233  0.82494697  1
  H+  H141  1  0.12749455  0.86350472  0.00639924  1
  H+  H142  1  0.80801681  0.61505424  0.75214902  1
  H+  H143  1  0.87110459  0.64664269  -0.00189204  1
  H+  H144  1  0.39794607  0.38127855  0.95884801  1
  H+  H145  1  -0.02917241  0.86703068  0.16589337  1
  H+  H146  1  0.71633578  0.61458824  0.66466096  1
  H+  H147  1  0.36804237  0.39548450  0.50840998  1
  H+  H148  1  0.88863957  0.77007619  0.16800372  1
  H+  H149  1  0.63208842  0.52894655  0.84256262  1
  H+  H150  1  0.60660685  0.87403274  0.15699607  1
  H+  H151  1  0.37339410  0.63983706  0.35676817  1
  H+  H152  1  0.36869981  -0.01786498  0.67159778  1
  H+  H153  1  0.43112234  0.59810898  0.59699990  1
  H+  H154  1  0.48156470  0.87369341  0.83037090  1
  H+  H155  1  1.01129624  0.40935994  0.93225498  1
  H+  H156  1  0.19514155  0.11791680  0.66045933  1
  H+  H157  1  0.07442266  0.90263227  0.76785144  1
  H+  H158  1  0.76112116  0.38161643  0.50736625  1
  H+  H159  1  1.02854112  0.45091857  0.37266498  1
  H+  H160  1  0.10903511  0.12488591  0.84044486  1
  H+  H161  1  0.13912671  0.34821835  0.64488156  1
  H+  H162  1  0.34925569  0.22781426  0.99524075  1
  H+  H163  1  0.75604748  0.60800745  0.48750614  1
  H+  H164  1  0.85705393  0.11247816  0.34228130  1
  H+  H165  1  0.18451921  0.34898260  1.00699197  1
  H+  H166  1  0.97089018  0.57140976  0.66563705  1
  H+  H167  1  0.90868847  0.93249941  0.86110787  1
  H+  H168  1  0.88015249  0.84123477  0.65920938  1
  H+  H169  1  0.37858747  0.11914844  0.50658421  1
  H+  H170  1  0.36422245  0.10694726  0.65606635  1
  H+  H171  1  0.03233252  0.62429736  0.35283760  1
  H+  H172  1  0.89019494  1.02595596  0.67604572  1
  H+  H173  1  0.64350303  0.26287400  0.17693251  1
  H+  H174  1  0.28505972  0.65582018  0.67688975  1
  H+  H175  1  0.46859284  0.10270349  0.83492844  1
  H+  H176  1  0.68654243  0.84969205  0.61448719  1
  H+  H177  1  0.92770219  0.50488631  0.29382123  1
  H+  H178  1  0.63040837  0.86868464  0.83637898  1
  H+  H179  1  0.17576501  0.84422251  0.56573096  1
  H+  H180  1  0.41448899  0.81902581  0.27429975  1
  H+  H181  1  0.73220047  0.61627930  -0.00652654  1
  H+  H182  1  0.02438729  0.62315567  -0.00434046  1
  H+  H183  1  1.00104880  0.20990948  0.12218528  1
  H+  H184  1  0.13569579  0.35645520  0.50171523  1
  H+  H185  1  0.85733825  0.35095577  0.78132858  1
  H+  H186  1  0.35527469  0.12302052  0.81213651  1
  H+  H187  1  0.87644730  0.71956503  0.67297547  1
  H+  H188  1  0.70457290  0.59829155  0.27337328  1
  H+  H189  1  0.85778589  0.41402861  0.03344563  1
  H+  H190  1  0.10982635  0.87780550  0.34731856  1
  H+  H191  1  0.64895146  0.35454580  0.18002030  1
  H+  H192  1  0.63261694  0.48333177  0.00741813  1
  H+  H193  1  0.81828341  1.02563750  0.21721780  1
  H+  H194  1  0.61842313  0.09117658  0.17415193  1
  H+  H195  1  0.87357368  0.26204232  0.50362539  1
  H+  H196  1  0.39747558  0.54090774  0.19978373  1
  H+  H197  1  0.61413485  0.88003564  0.33918205  1
  H+  H198  1  0.37886816  0.25903971  0.33025093  1
  H+  H199  1  0.10158429  0.98740553  0.14893978  1
  H+  H200  1  0.98945728  0.91673181  0.85504017  1
  H+  H201  1  0.56561460  0.16388661  0.40946861  1
  H+  H202  1  0.12171277  0.27096093  0.34110430  1
  H+  H203  1  0.62104089  0.86425435  0.99284296  1
  H+  H204  1  0.46575711  0.82445165  0.17318548  1
  H+  H205  1  0.65241429  0.36488251  0.98328548  1
  H+  H206  1  0.11882211  0.35877384  0.34414293  1
  H+  H207  1  0.11438206  0.47265685  0.81010314  1
  H+  H208  1  0.62975809  0.11365345  0.50028590  1
  H+  H209  1  0.63623093  0.02936414  0.65493683  1
  H+  H210  1  0.73501048  0.09514929  0.31950504  1
  H+  H211  1  0.74256898  0.61126393  0.17627447  1
  H+  H212  1  0.74573657  0.12042228  0.15642003  1
  H+  H213  1  0.59731637  0.22116090  0.34270795  1
  H+  H214  1  0.12938311  0.61110342  0.51334595  1
  H+  H215  1  0.06387545  0.40117765  0.44100857  1
  H+  H216  1  0.36474666  0.64519456  0.82879582  1
  H+  H217  1  0.04272251  0.86570421  -0.00615566  1
  H+  H218  1  0.76374718  0.15622470  0.64975772  1
  H+  H219  1  0.35921659  0.88947618  0.16418447  1
  H+  H220  1  0.09098083  0.65658776  0.76399386  1
  H+  H221  1  0.59183157  -0.03082698  1.00009348  1
  H+  H222  1  0.30738104  0.67756049  0.18382975  1
  H+  H223  1  0.87836201  -0.01254089  0.35360169  1
  H+  H224  1  0.24340185  0.37519005  0.20025085  1
  H+  H225  1  0.62064226  0.98574366  0.82072269  1
  H+  H226  1  0.63100383  0.61807878  0.84438538  1
  H+  H227  1  0.35379482  0.38077646  0.33585470  1
  H+  H228  1  0.74500593  0.88525404  0.67600369  1
  H+  H229  1  0.45542973  0.35769044  0.66273193  1
  H+  H230  1  0.79552006  0.82346845  0.39831257  1
  H+  H231  1  0.66954394  0.58169317  0.93521037  1
  H+  H232  1  0.75753821  0.53713784  0.59659703  1
  H+  H233  1  0.61309219  0.63926885  -0.01102540  1
  H+  H234  1  0.28059092  0.14539825  0.15985476  1
  H+  H235  1  0.99208287  0.35957437  0.33456831  1
  H+  H236  1  0.18999622  0.59873195  0.24167991  1
  H+  H237  1  0.33607786  0.22016371  0.66383247  1
  H+  H238  1  0.95302028  0.30656174  0.16367203  1
  H+  H239  1  0.16861491  0.25413082  0.99683764  1
  H+  H240  1  0.63150560  0.63824536  0.20066944  1
  H+  H241  1  0.07083352  0.36521455  0.02732232  1
  H+  H242  1  0.34016486  0.43692502  0.72059340  1
  H+  H243  1  0.22435580  0.61024391  0.83419466  1
  H+  H244  1  0.12980937  0.11705303  0.50509267  1
  H+  H245  1  0.88696480  0.53125651  -0.01954049  1
  H+  H246  1  0.38737598  0.51396564  0.66183361  1
  H+  H247  1  0.07854595  0.86227778  0.83293321  1
  H+  H248  1  0.84732559  0.89085583  0.00436093  1
  H+  H249  1  0.13655693  0.74534235  -0.00259507  1
  H+  H250  1  0.85921588  0.34116484  0.40269379  1
  H+  H251  1  0.89126673  0.39373555  0.20025636  1
  H+  H252  1  0.37592549  0.88573201  0.82046942  1
  H+  H253  1  0.27435675  0.39434422  0.80879984  1
  H+  H254  1  0.39618073  0.28103790  0.17341973  1
  H+  H255  1  0.88780781  0.11830514  0.51561755  1
  H+  H256  1  0.17752431  0.55184295  0.17809491  1
  H+  H257  1  0.37044931  0.64758914  0.67237238  1
  H+  H258  1  0.60316390  0.35106393  0.65410418  1
  H+  H259  1  0.76537364  0.12942436  0.48951971  1
  H+  H260  1  0.30539743  0.38061419  1.03952507  1
  H+  H261  1  0.87579267  0.49621290  0.67569707  1
  H+  H262  1  0.65547856  0.52031709  0.18524198  1
  H+  H263  1  0.60873624  0.72710722  -0.01540389  1
  H+  H264  1  0.09231608  0.15676528  -0.07625241  1
  H+  H265  1  0.61104766  0.73362534  0.83278613  1
  H+  H266  1  0.39762370  0.53057810  0.52094863  1
  H+  H267  1  0.95753184  0.89166704  1.01666454  1
  H+  H268  1  1.03005386  0.38011346  0.79771611  1
  H+  H269  1  0.48506628  0.62944431  0.66438877  1
  H+  H270  1  0.13121770  1.00764636  0.83301655  1
  H+  H271  1  0.26421406  0.65271251  0.50433421  1
  H+  H272  1  0.79676029  0.38182335  0.20704236  1
  H+  H273  1  0.11735126  0.23188376  0.49113578  1
  H+  H274  1  0.14905142  1.00226083  -0.01522477  1
  H+  H275  1  0.63841030  0.38970122  0.81569586  1
  H+  H276  1  0.53801385  0.38683232  0.16701334  1
  H+  H277  1  0.40387838  0.41734672  0.05752822  1
  H+  H278  1  0.87257816  0.35099741  0.50913458  1
  H+  H279  1  0.86753886  0.73430329  0.00497360  1
  H+  H280  1  0.35778708  0.63626604  -0.00741186  1
  H+  H281  1  0.50447401  0.12816054  0.67351197  1
  H+  H282  1  0.47230428  0.11548631  0.98545638  1
  H+  H283  1  0.16779611  0.08413765  0.23227945  1
  H+  H284  1  0.89311062  0.25009458  0.81163523  1
  H+  H285  1  0.81977704  0.34054522  0.68818632  1
  H+  H286  1  0.64217229  0.87174308  0.51495724  1
  H+  H287  1  0.35519030  0.21210860  0.80858611  1
  H+  H288  1  0.59608252  0.68196139  0.44071015  1
  H+  H289  1  0.34602404  0.43710315  0.13353219  1
  H+  H290  1  0.42284917  0.84509249  0.60114253  1
  H+  H291  1  0.86140546  0.29247950  0.59514318  1
  H+  H292  1  0.64497964  0.32295066  0.56820110  1
  H+  H293  1  0.15033060  0.78318213  0.19037934  1
  H+  H294  1  0.82693704  0.15428368  0.43140254  1
  H+  H295  1  0.52404979  0.88174980  0.33729861  1
  H+  H296  1  0.16990993  0.34305847  0.25265833  1
  H+  H297  1  0.97264556  0.20436189  0.24338084  1
  H+  H298  1  0.58600186  0.42269719  0.43964749  1
  H+  H299  1  0.15105467  0.41215080  0.17414664  1
  H+  H300  1  0.40563922  0.07633074  0.89245938  1
  H+  H301  1  0.40728073  0.57628479  0.89483344  1
  H+  H302  1  0.30928917  0.15508166  0.71966704  1
  H+  H303  1  0.83280875  0.95249257  0.77820600  1
  H+  H304  1  0.86387746  0.47734723  0.10217413  1
  H+  H305  1  0.11815372  0.87775958  0.67869347  1
  H+  H306  1  0.92329927  0.09248031  0.57610297  1
  H+  H307  1  0.51418041  0.69685417  0.10290535  1
  H+  H308  1  0.11366871  0.98320904  0.49419462  1
  H+  H309  1  0.95100576  0.32954413  0.23464371  1
  H+  H310  1  0.88339757  0.32267361  0.30941065  1
  H+  H311  1  0.91082653  0.48995381  0.10052790  1
  H+  H312  1  0.65359319  0.58094474  0.56976678  1
  H+  H313  1  0.15146837  0.08779579  0.56748976  1
  H+  H314  1  0.91665678  0.58819865  0.92190149  1
  H+  H315  1  0.16937782  0.32359785  0.55761107  1
  H+  H316  1  0.60197759  0.41799871  0.10980888  1
  H+  H317  1  0.98308764  0.17786233  0.26435719  1
  H+  H318  1  0.34453389  0.92085829  0.75642500  1
  H+  H319  1  0.09873192  0.42101998  0.70990609  1
  H+  H320  1  0.65917255  0.08469450  0.55985909  1
  H+  H321  1  0.92146470  0.32874608  0.85638332  1
  H+  H322  1  0.11618381  0.73748114  0.50128277  1
  H+  H323  1  0.65656791  0.31362983  0.27035983  1
  H+  H324  1  0.88037981  0.92726501  0.71098904  1
  H+  H325  1  0.67688085  0.32447034  0.88530929  1
  H+  H326  1  0.16372632  0.56650158  0.89200516  1
  H+  H327  1  0.41837516  0.08169703  0.26904835  1
  H+  H328  1  0.86024022  0.04923225  0.84465908  1
  H+  H329  1  0.32697626  0.68471601  0.44653134  1
  H+  H330  1  0.31859043  0.16258072  0.43571250  1
  H+  H331  1  0.17157704  0.83676046  0.25094386  1
  H+  H332  1  0.27993361  0.90055436  0.49439541  1
  H+  H333  1  0.90775803  0.57205297  0.57020227  1
  H+  H334  1  0.80497521  0.62458851  0.42462220  1
  H+  H335  1  0.52137006  0.64321314  0.83140738  1
  H+  H336  1  0.79906245  0.43251264  0.42223729  1
  H+  H337  1  0.61516266  -0.00155395  0.17170222  1
  H+  H338  1  0.58541503  0.92347147  0.76281652  1
  H+  H339  1  0.35262875  0.12534682  0.34090873  1
  H+  H340  1  0.39247456  0.32219558  0.87193412  1
  H+  H341  1  0.33936620  0.67658595  0.76840673  1
  H+  H342  1  0.11923094  0.10942797  -0.02545849  1
  H+  H343  1  0.57990532  0.91183191  0.43723041  1
  H+  H344  1  0.69159386  0.45234611  0.37941169  1
  H+  H345  1  0.87433246  0.62875438  0.67385235  1
  H+  H346  1  0.67152704  0.83669728  0.26948039  1
  H+  H347  1  0.91140971  0.81709446  0.26317659  1
  H+  H348  1  0.08293509  0.91983197  0.43585442  1
  H+  H349  1  0.22688180  0.60282567  0.98091401  1
  H+  H350  1  0.65626472  0.08013535  0.90834338  1
  H+  H351  1  0.77707768  0.11340042  0.83166989  1
  H+  H352  1  0.84060083  0.66510669  0.09787201  1
  H+  H353  1  0.10753438  0.61175866  -0.00380355  1
  H+  H354  1  0.66335598  0.06109439  0.25893752  1
  H+  H355  1  0.13413112  0.42360205  0.07768918  1
  H+  H356  1  0.02630266  0.13840571  0.83880722  1
  H+  H357  1  0.41430742  0.83952589  0.92806696  1
  H+  H358  1  0.43215811  0.59536542  0.29052702  1
  H+  H359  1  0.56912735  0.90162062  0.09903243  1
  H+  H360  1  0.85560756  0.46934811  0.50681052  1
  H+  H361  1  0.82412465  0.92019997  0.06559284  1
  H+  H362  1  0.58083428  0.41807559  0.72962687  1
  H+  H363  1  0.56739557  0.15343811  0.73101331  1
  H+  H364  1  0.48133459  0.70593105  0.08912013  1
  H+  H365  1  0.92504764  0.83023817  0.60023239  1
  H+  H366  1  0.93253126  0.88220855  0.94416378  1
  H+  H367  1  0.39025226  0.78152665  0.83239879  1
  H+  H368  1  0.86299927  0.96187376  0.15841552  1
  H+  H369  1  0.78750429  0.21055643  0.12463176  1
  H+  H370  1  0.62732364  0.90008123  0.67444213  1
  H+  H371  1  0.12287990  0.24931669  0.17688466  1
  H+  H372  1  0.42698054  0.33101696  0.23654720  1
  H+  H373  1  0.58333672  0.15960952  0.09982467  1
  H+  H374  1  0.22122714  0.09774298  0.82786203  1
  H+  H375  1  0.07935626  0.92241304  0.09328524  1
  H+  H376  1  0.34134177  0.92281540  0.40203885  1
  H+  H377  1  0.69057226  0.48341183  0.78901355  1
  H+  H378  1  0.33798518  0.17583731  0.09976498  1
  H+  H379  1  0.65712177  0.84073920  0.89837637  1
  H+  H380  1  0.04044373  0.11435132  0.66095947  1
  H+  H381  1  0.01929129  0.74115511  0.88715946  1
  H+  H382  1  0.93694596  0.22228051  0.03629912  1
  H+  H383  1  0.92357935  0.59936687  0.24303438  1
  O2-  O384  1  0.08240631  0.19013628  0.15972274  1
  O2-  O385  1  0.08286801  0.16813802  0.47852263  1
  O2-  O386  1  0.08645300  0.16416354  0.85161741  1
  O2-  O387  1  0.12813507  0.44504595  0.15142267  1
  O2-  O388  1  0.07274827  0.40380397  0.48571574  1
  O2-  O389  1  0.09308166  0.41539569  0.79055566  1
  O2-  O390  1  0.09886172  0.68166875  0.16631232  1
  O2-  O391  1  0.08513207  0.67588081  0.48792338  1
  O2-  O392  1  0.07636971  0.64854472  0.80769664  1
  O2-  O393  1  0.05419689  0.93854500  0.12710596  1
  O2-  O394  1  0.08677039  0.92175678  0.48114434  1
  O2-  O395  1  0.06906405  0.90689767  0.81389076  1
  O2-  O396  1  0.34128164  0.17663217  0.14484770  1
  O2-  O397  1  0.32216302  0.16626103  0.48085431  1
  O2-  O398  1  0.32270925  0.15063246  0.79642309  1
  O2-  O399  1  0.34681242  0.43269790  0.17853070  1
  O2-  O400  1  0.34625711  0.43471916  0.49784943  1
  O2-  O401  1  0.33606550  0.42781754  0.79173879  1
  O2-  O402  1  0.37106108  0.70490019  0.17450774  1
  O2-  O403  1  0.32361940  0.69520649  0.49018144  1
  O2-  O404  1  0.33602032  0.67735443  0.81385021  1
  O2-  O405  1  0.34416185  0.92540310  0.18826470  1
  O2-  O406  1  0.34052433  0.93233559  0.47867016  1
  O2-  O407  1  0.34271945  0.91728441  0.80392404  1
  O2-  O408  1  0.58536025  0.15836434  0.14503071  1
  O2-  O409  1  0.57320374  0.16981937  0.47622481  1
  O2-  O410  1  0.57038984  0.14999382  0.81335283  1
  O2-  O411  1  0.59998332  0.41454286  0.15484224  1
  O2-  O412  1  0.57404026  0.41493123  0.48401198  1
  O2-  O413  1  0.63026882  0.43694297  0.79889015  1
  O2-  O414  1  0.60648667  0.67459089  0.21142156  1
  O2-  O415  1  0.59350213  0.67951919  0.48594695  1
  O2-  O416  1  0.58279139  0.67246099  0.81793561  1
  O2-  O417  1  0.56922221  0.89822691  0.14445381  1
  O2-  O418  1  0.58036014  0.91426107  0.48213650  1
  O2-  O419  1  0.58140869  0.92257964  0.80837400  1
  O2-  O420  1  0.79842543  0.16401922  0.13453950  1
  O2-  O421  1  0.82703779  0.15807909  0.47644634  1
  O2-  O422  1  0.84235079  0.14208703  0.81728981  1
  O2-  O423  1  0.85818214  0.42032319  0.21629386  1
  O2-  O424  1  0.82075248  0.40952547  0.48992233  1
  O2-  O425  1  0.81694582  0.37403767  0.77450146  1
  O2-  O426  1  0.83986169  0.66684315  0.14321791  1
  O2-  O427  1  0.81155792  0.62168588  0.46877454  1
  O2-  O428  1  0.78635617  0.57950197  0.79047170  1
  O2-  O429  1  0.83082396  0.90451244  0.14069307  1
  O2-  O430  1  0.84266489  0.93027329  0.49676467  1
  O2-  O431  1  0.83171797  0.95210611  0.82546220  1
  O2-  O432  1  0.17389329  0.09228497  0.18709526  1
  O2-  O433  1  0.15943242  0.08661548  0.52260363  1
  O2-  O434  1  0.16406665  0.06882667  0.84864059  1
  O2-  O435  1  0.17971827  0.34564657  0.20744729  1
  O2-  O436  1  0.16908941  0.32722327  0.51115988  1
  O2-  O437  1  0.18467695  0.34884619  0.84028176  1
  O2-  O438  1  0.20111188  0.60966384  0.19721170  1
  O2-  O439  1  0.16178606  0.58240000  0.52598805  1
  O2-  O440  1  0.16313871  0.57315181  0.84656164  1
  O2-  O441  1  0.18028297  0.84364762  0.20646541  1
  O2-  O442  1  0.17531861  0.84505103  0.52019643  1
  O2-  O443  1  0.07784091  0.77437193  0.87148774  1
  O2-  O444  1  0.42654444  0.08981993  0.19159322  1
  O2-  O445  1  0.41357498  0.09335320  0.52164401  1
  O2-  O446  1  0.40593827  0.07152591  0.84675368  1
  O2-  O447  1  0.43009188  0.34003757  0.19153429  1
  O2-  O448  1  0.41106686  0.32816887  0.52621995  1
  O2-  O449  1  0.40628932  0.32236248  0.82804469  1
  O2-  O450  1  0.43307407  0.60075197  0.21504592  1
  O2-  O451  1  0.43071471  0.59246524  0.53595097  1
  O2-  O452  1  0.41256697  0.58614021  0.84970844  1
  O2-  O453  1  0.40845258  0.79484108  0.19429543  1
  O2-  O454  1  0.41505524  0.84936970  0.52729183  1
  O2-  O455  1  0.41918065  0.84422674  0.84444140  1
  O2-  O456  1  0.64672999  0.05847669  0.18951253  1
  O2-  O457  1  0.65973939  0.08277035  0.51404599  1
  O2-  O458  1  0.68339489  0.08409612  0.83613079  1
  O2-  O459  1  0.67387432  0.32031657  0.19724506  1
  O2-  O460  1  0.65354557  0.32703007  0.52187086  1
  O2-  O461  1  0.66789670  0.31662386  0.84042586  1
  O2-  O462  1  0.68792273  0.58053805  0.20048353  1
  O2-  O463  1  0.65195349  0.57631275  0.52467835  1
  O2-  O464  1  0.66135779  0.58752154  0.85988095  1
  O2-  O465  1  0.66765650  0.83604959  0.19219520  1
  O2-  O466  1  0.67372330  0.84370489  0.53174284  1
  O2-  O467  1  0.66105686  0.83918673  0.85305972  1
  O2-  O468  1  0.96043778  0.22807581  0.10675329  1
  O2-  O469  1  0.92240840  0.09246784  0.53012172  1
  O2-  O470  1  0.88590904  0.11163468  0.85828059  1
  O2-  O471  1  0.96301844  0.35379502  0.19122225  1
  O2-  O472  1  0.90024505  0.31857219  0.52527207  1
  O2-  O473  1  0.91818038  0.31447496  0.81271840  1
  O2-  O474  1  0.91985103  0.59253403  0.19840051  1
  O2-  O475  1  0.91403605  0.57416017  0.52552519  1
  O2-  O476  1  0.91264037  0.56921340  0.85270029  1
  O2-  O477  1  0.91240802  0.82957330  0.18502317  1
  O2-  O478  1  0.92664422  0.84034519  0.53125565  1
  O2-  O479  1  0.95461666  0.92886875  0.88434845  1
  O2-  O480  1  0.15906792  0.07266550  0.31133029  1
  O2-  O481  1  0.13441788  0.08997424  0.64459410  1
  O2-  O482  1  0.17584688  0.06270461  0.96925757  1
  O2-  O483  1  0.15100988  0.33231812  0.32781627  1
  O2-  O484  1  0.16917323  0.31858048  0.62835972  1
  O2-  O485  1  0.21416271  0.31537097  1.00017816  1
  O2-  O486  1  0.17619726  0.58255475  0.32004297  1
  O2-  O487  1  0.16802349  0.62507031  0.66689104  1
  O2-  O488  1  0.16468430  0.56022339  0.96781129  1
  O2-  O489  1  0.16446324  0.82826402  0.33350684  1
  O2-  O490  1  0.18104543  0.83575132  0.64277611  1
  O2-  O491  1  0.16503302  0.80764675  0.98177684  1
  O2-  O492  1  0.41535749  0.07909581  0.31490763  1
  O2-  O493  1  0.39995357  0.08058063  0.64485617  1
  O2-  O494  1  0.41269785  0.08735047  0.96867590  1
  O2-  O495  1  0.41214122  0.32001259  0.31467660  1
  O2-  O496  1  0.39593895  0.33150340  0.64570249  1
  O2-  O497  1  0.35591621  0.32350697  0.94530055  1
  O2-  O498  1  0.43271030  0.59087187  0.33600564  1
  O2-  O499  1  0.42544541  0.59702721  0.64731044  1
  O2-  O500  1  0.41065950  0.57733029  0.97150769  1
  O2-  O501  1  0.42155562  0.82957774  0.31879246  1
  O2-  O502  1  0.42830088  0.84653386  0.64711634  1
  O2-  O503  1  0.41073747  0.83375544  0.97285799  1
  O2-  O504  1  0.67162294  0.06115073  0.30533698  1
  O2-  O505  1  0.65835439  0.08768865  0.63598321  1
  O2-  O506  1  0.64612669  0.07561399  0.95398162  1
  O2-  O507  1  0.64880850  0.31082029  0.31608831  1
  O2-  O508  1  0.63256079  0.32094524  0.63815852  1
  O2-  O509  1  0.67370635  0.32831170  0.96513426  1
  O2-  O510  1  0.70377928  0.60724606  0.31926846  1
  O2-  O511  1  0.65576318  0.58784713  0.65174298  1
  O2-  O512  1  0.67087887  0.57952081  0.98095048  1
  O2-  O513  1  0.66882622  0.83314361  0.31528172  1
  O2-  O514  1  0.68393470  0.84979718  0.65959831  1
  O2-  O515  1  0.65553663  0.83927058  0.97560048  1
  O2-  O516  1  0.90533671  0.04339679  0.33240777  1
  O2-  O517  1  0.93344734  0.08556415  0.65130203  1
  O2-  O518  1  0.93425665  0.07486669  0.97651456  1
  O2-  O519  1  0.92364659  0.30158836  0.30468453  1
  O2-  O520  1  0.82765197  0.27750432  0.63455920  1
  O2-  O521  1  0.95132426  0.36333330  0.93419528  1
  O2-  O522  1  0.93181315  0.55206912  0.31868697  1
  O2-  O523  1  0.91097571  0.55369860  0.65657636  1
  O2-  O524  1  0.91724953  0.59239499  0.96839258  1
  O2-  O525  1  0.90670861  0.80709666  0.30826538  1
  O2-  O526  1  0.92075799  0.82294799  0.64712948  1
  O2-  O527  1  0.91549366  0.85265034  0.98712185  1
  O2-  O528  1  0.09068487  0.14583852  -0.03039941  1
  O2-  O529  1  0.08213802  0.15995583  0.35968639  1
  O2-  O530  1  0.10448308  0.14638623  0.66903383  1
  O2-  O531  1  0.13144524  0.40663016  0.03337948  1
  O2-  O532  1  0.05048679  0.41332730  0.36013381  1
  O2-  O533  1  0.09701338  0.41314611  0.66511079  1
  O2-  O534  1  0.08314705  0.64662174  0.01219515  1
  O2-  O535  1  0.09210606  0.65955370  0.36815237  1
  O2-  O536  1  0.12969047  0.66608716  0.68454271  1
  O2-  O537  1  0.09789847  0.89896237  0.01446875  1
  O2-  O538  1  0.07709408  0.90881540  0.35614650  1
  O2-  O539  1  0.08677592  0.90451256  0.69681158  1
  O2-  O540  1  0.33251613  0.17318503  0.01618047  1
  O2-  O541  1  0.32281715  0.15657425  0.35455881  1
  O2-  O542  1  0.30372014  0.15764711  0.67458202  1
  O2-  O543  1  0.35897106  0.43251893  0.05426688  1
  O2-  O544  1  0.33389169  0.42133225  0.34555722  1
  O2-  O545  1  0.34902807  0.44476563  0.67464205  1
  O2-  O546  1  0.32083407  0.66049705  0.00401844  1
  O2-  O547  1  0.34179471  0.67160267  0.36471388  1
  O2-  O548  1  0.34546913  0.68168704  0.69028822  1
  O2-  O549  1  0.33343999  0.91365068  0.01292685  1
  O2-  O550  1  0.33795576  0.91855672  0.35644329  1
  O2-  O551  1  0.34508141  0.92244971  0.68877508  1
  O2-  O552  1  0.57882786  0.16425837  0.01539400  1
  O2-  O553  1  0.56447370  0.16005646  0.36153939  1
  O2-  O554  1  0.56610554  0.15613350  0.68594994  1
  O2-  O555  1  0.60799266  0.42211091  0.02388941  1
  O2-  O556  1  0.63283469  0.44044974  0.36661290  1
  O2-  O557  1  0.56128097  0.41537406  0.68666037  1
  O2-  O558  1  0.57463697  0.66370494  -0.01119545  1
  O2-  O559  1  0.59858523  0.67607332  0.36158607  1
  O2-  O560  1  0.58701575  0.68180385  0.69471844  1
  O2-  O561  1  0.56588611  0.91208469  0.01961271  1
  O2-  O562  1  0.58635043  0.91465581  0.35128925  1
  O2-  O563  1  0.59464655  0.93015947  0.68561643  1
  O2-  O564  1  0.91904879  0.21415093  -0.00842456  1
  O2-  O565  1  0.82727211  0.14576652  0.34807569  1
  O2-  O566  1  0.82647622  0.19956162  0.65578962  1
  O2-  O567  1  0.84539278  0.41208893  -0.00995854  1
  O2-  O568  1  0.78463777  0.44860660  0.38140966  1
  O2-  O569  1  0.81537836  0.38799751  0.70910862  1
  O2-  O570  1  0.83952827  0.67348295  0.01785876  1
  O2-  O571  1  0.79238276  0.63628368  0.33954416  1
  O2-  O572  1  0.84214711  0.65799852  0.68595219  1
  O2-  O573  1  0.82400253  0.92744875  0.02026168  1
  O2-  O574  1  0.81235156  0.87153151  0.37022866  1
  O2-  O575  1  0.84017635  0.94849634  0.70754271  1
