# generated using pymatgen
data_H2O
_symmetry_space_group_name_H-M   'P 1'
_cell_length_a   17.97352490
_cell_length_b   17.97570573
_cell_length_c   21.99789152
_cell_angle_alpha   90.01979919
_cell_angle_beta   89.98819766
_cell_angle_gamma   119.96070244
_symmetry_Int_Tables_number   1
_chemical_formula_structural   H2O
_chemical_formula_sum   'H384 O192'
_cell_volume   6157.47572427
_cell_formula_units_Z   192
loop_
 _symmetry_equiv_pos_site_id
 _symmetry_equiv_pos_as_xyz
  1  'x, y, z'
loop_
 _atom_type_symbol
 _atom_type_oxidation_number
  H+  1.0
  O2-  -2.0
loop_
 _atom_site_type_symbol
 _atom_site_label
 _atom_site_symmetry_multiplicity
 _atom_site_fract_x
 _atom_site_fract_y
 _atom_site_fract_z
 _atom_site_occupancy
  H+  H0  1  0.14607681  0.28374623  0.83596345  1
  H+  H1  1  1.08833386  0.17974879  0.38967320  1
  H+  H2  1  0.02443738  0.63651874  0.86967133  1
  H+  H3  1  0.78827277  0.64131409  0.47997117  1
  H+  H4  1  0.47871611  0.36842734  0.50304210  1
  H+  H5  1  0.91241602  0.77117753  0.15096029  1
  H+  H6  1  0.36872445  0.15084593  0.34824549  1
  H+  H7  1  0.38892169  1.02658148  0.49790738  1
  H+  H8  1  0.39041761  0.28585420  0.17772150  1
  H+  H9  1  0.62041436  0.01256040  0.83632541  1
  H+  H10  1  0.03478956  0.39615289  0.16414639  1
  H+  H11  1  -0.01546694  0.12227994  0.66028133  1
  H+  H12  1  0.88078338  0.97205070  0.17597716  1
  H+  H13  1  0.23105411  0.11930562  0.32736400  1
  H+  H14  1  0.35202571  0.08945992  0.66488048  1
  H+  H15  1  0.57862074  0.41462482  0.10816396  1
  H+  H16  1  0.87997991  0.40162280  0.66895507  1
  H+  H17  1  0.65528919  0.52361997  0.32966040  1
  H+  H18  1  0.25548679  0.63367637  0.67207442  1
  H+  H19  1  0.11711906  -0.01771929  0.82679540  1
  H+  H20  1  0.90207290  0.76111234  0.32861733  1
  H+  H21  1  0.60593489  0.73459531  0.14721282  1
  H+  H22  1  0.84283218  0.47752293  -0.01187018  1
  H+  H23  1  0.03375348  0.39400113  0.81939611  1
  H+  H24  1  0.84286070  0.38921182  -0.00239835  1
  H+  H25  1  0.46308752  0.86807806  0.16397581  1
  H+  H26  1  0.37178855  0.63478648  0.34386496  1
  H+  H27  1  0.26110454  0.86131087  0.67573536  1
  H+  H28  1  0.60373779  0.38331140  1.01282117  1
  H+  H29  1  0.85673632  0.13591952  0.34214635  1
  H+  H30  1  0.36068847  0.14471974  0.48343633  1
  H+  H31  1  0.11698304  0.72692593  0.00465814  1
  H+  H32  1  0.76551059  0.11935502  0.98004311  1
  H+  H33  1  0.88612014  0.97469830  0.67212400  1
  H+  H34  1  0.23525656  0.38075353  0.17524188  1
  H+  H35  1  0.75188448  0.60343796  0.32376802  1
  H+  H36  1  0.86574231  -0.02751715  0.99082293  1
  H+  H37  1  0.92217581  0.86304780  0.16604237  1
  H+  H38  1  0.21910019  0.36619554  0.65768287  1
  H+  H39  1  0.31748892  0.72562504  0.42043000  1
  H+  H40  1  0.10646163  0.73268518  0.16123394  1
  H+  H41  1  0.60655881  0.88531940  0.82131400  1
  H+  H42  1  0.16800590  0.09308754  0.56425242  1
  H+  H43  1  0.61501186  0.37940320  0.49096514  1
  H+  H44  1  0.38236920  0.05901739  0.60684708  1
  H+  H45  1  0.50196406  0.65166358  0.67787481  1
  H+  H46  1  0.01660407  0.37947792  0.34270696  1
  H+  H47  1  0.82226027  0.17126392  0.14191014  1
  H+  H48  1  0.28250027  0.13936509  0.16724827  1
  H+  H49  1  0.39084865  0.28519589  0.32807208  1
  H+  H50  1  0.23347686  0.61552482  0.49689375  1
  H+  H51  1  0.27011575  0.87910731  0.52145248  1
  H+  H52  1  0.61976219  0.47533403  0.16661202  1
  H+  H53  1  0.11454686  0.63870316  0.49134570  1
  H+  H54  1  0.15534852  0.86206865  0.25406931  1
  H+  H55  1  0.89185493  0.11197284  0.98482275  1
  H+  H56  1  0.53043248  0.39623583  0.34433754  1
  H+  H57  1  0.14222801  0.52679283  0.49756397  1
  H+  H58  1  0.40535941  0.51617141  0.30980248  1
  H+  H59  1  0.10885994  0.63763416  0.66453159  1
  H+  H60  1  0.37412985  0.84115354  0.66456477  1
  H+  H61  1  0.98064512  0.85631990  0.33253177  1
  H+  H62  1  0.11309876  0.64669740  0.16955161  1
  H+  H63  1  0.23893884  0.38657317  0.50386878  1
  H+  H64  1  0.75418598  0.87196236  0.66409068  1
  H+  H65  1  0.20806706  0.87857395  0.16384670  1
  H+  H66  1  0.72435752  0.37019991  0.32847953  1
  H+  H67  1  0.63870784  0.35988341  0.17486601  1
  H+  H68  1  0.02184334  0.64079404  0.66327658  1
  H+  H69  1  0.98021696  0.62006036  0.18133091  1
  H+  H70  1  0.21985231  0.11973543  0.83990513  1
  H+  H71  1  0.65304743  0.08042694  0.55275690  1
  H+  H72  1  0.77786725  0.14644920  0.35872833  1
  H+  H73  1  0.64063158  0.87103383  0.17283484  1
  H+  H74  1  0.72840659  0.61286110  0.99898629  1
  H+  H75  1  0.86965456  0.48573815  0.16217258  1
  H+  H76  1  0.26650249  0.62568788  0.83475772  1
  H+  H77  1  0.65118262  0.53386694  0.50111328  1
  H+  H78  1  0.38333633  0.27923326  0.84145139  1
  H+  H79  1  -0.01758869  0.11457900  -0.00645225  1
  H+  H80  1  0.36167720  0.38941681  0.34326580  1
  H+  H81  1  0.12186072  0.15444764  0.33110657  1
  H+  H82  1  0.87606248  0.25554831  0.82540764  1
  H+  H83  1  0.89262960  0.86283301  0.83516071  1
  H+  H84  1  0.89452970  0.36523425  0.50276893  1
  H+  H85  1  0.79941485  0.65451488  0.66867700  1
  H+  H86  1  0.33465173  0.42059068  0.06686568  1
  H+  H87  1  0.63849534  0.02645360  0.35055281  1
  H+  H88  1  0.86090098  0.72358129  -0.00372166  1
  H+  H89  1  0.63344854  0.77668158  0.83087065  1
  H+  H90  1  0.51375674  0.87716584  0.83144722  1
  H+  H91  1  0.51591226  0.08912314  0.15430644  1
  H+  H92  1  0.11110579  0.13732845  0.48313465  1
  H+  H93  1  0.38591330  0.60716710  0.84266373  1
  H+  H94  1  0.62897001  0.85746824  0.98856809  1
  H+  H95  1  0.11973025  0.48614092  0.82778500  1
  H+  H96  1  0.46042522  0.64541513  0.69077586  1
  H+  H97  1  0.61846902  0.64599333  0.50148518  1
  H+  H98  1  0.86192322  0.86593759  0.34874097  1
  H+  H99  1  0.35402208  0.71426626  0.67560384  1
  H+  H100  1  0.11278134  0.39213395  0.66860902  1
  H+  H101  1  0.88850510  0.27488980  0.65596352  1
  H+  H102  1  0.04589349  0.86835204  0.15771903  1
  H+  H103  1  0.47857323  0.11506681  0.47574949  1
  H+  H104  1  0.48187397  0.11852121  0.36469400  1
  H+  H105  1  0.03900759  0.16851084  0.82309654  1
  H+  H106  1  0.14046505  0.28268281  0.32247565  1
  H+  H107  1  0.36097779  0.39375617  0.16237352  1
  H+  H108  1  0.42716990  0.57529023  0.92904898  1
  H+  H109  1  0.34725824  0.64545230  0.43947660  1
  H+  H110  1  0.77972990  0.88129768  0.81900686  1
  H+  H111  1  0.87808370  0.24395018  0.19143219  1
  H+  H112  1  0.13020861  0.76143152  0.66209271  1
  H+  H113  1  0.37337629  1.00239723  0.31830553  1
  H+  H114  1  0.56322749  0.94564314  0.73956636  1
  H+  H115  1  0.38344264  0.86297372  -0.00261919  1
  H+  H116  1  0.13428416  0.53402816  0.18085457  1
  H+  H117  1  0.97833366  0.36396224  0.65869855  1
  H+  H118  1  0.88233086  0.85701858  0.98768956  1
  H+  H119  1  0.87072439  0.63478230  0.15147956  1
  H+  H120  1  0.10303514  0.04098328  0.64025682  1
  H+  H121  1  0.41174943  0.07449665  0.22547105  1
  H+  H122  1  0.39992317  0.07510811  0.40295724  1
  H+  H123  1  0.82101529  0.39935598  0.80525147  1
  H+  H124  1  0.79369976  0.88387870  0.17191811  1
  H+  H125  1  0.61558122  0.47925479  0.84929855  1
  H+  H126  1  0.36045709  0.48337887  0.15499146  1
  H+  H127  1  0.74618268  0.16549039  0.21676329  1
  H+  H128  1  0.90228351  0.77933062  0.50738708  1
  H+  H129  1  0.14119146  0.38637441  0.17493382  1
  H+  H130  1  0.33394516  0.49610289  0.65604314  1
  H+  H131  1  0.66891665  0.63104781  0.65326811  1
  H+  H132  1  0.61357823  0.63273187  1.00617002  1
  H+  H133  1  0.47233328  0.36871101  0.85739434  1
  H+  H134  1  0.73084553  0.36814193  0.17394216  1
  H+  H135  1  0.35758208  0.22919961  0.00842216  1
  H+  H136  1  0.09777958  0.92083397  0.73982957  1
  H+  H137  1  0.75392107  0.12589455  0.81641006  1
  H+  H138  1  0.09827997  0.92450848  0.40235588  1
  H+  H139  1  0.14781802  0.08059707  0.89605251  1
  H+  H140  1  0.60680584  0.38984822  0.86662611  1
  H+  H141  1  0.62286076  0.23332658  0.64389091  1
  H+  H142  1  0.86231005  0.47144820  0.49276449  1
  H+  H143  1  0.02971579  0.88995389  0.49382370  1
  H+  H144  1  0.38025930  0.62279300  0.51295606  1
  H+  H145  1  0.64631223  0.33030226  0.63857256  1
  H+  H146  1  0.58365239  0.97908538  0.14644303  1
  H+  H147  1  0.59312559  0.21206403  0.82768875  1
  H+  H148  1  0.45101119  0.77509434  0.29236221  1
  H+  H149  1  0.12127009  0.38967379  0.01538845  1
  H+  H150  1  0.39097839  0.79408638  0.33444194  1
  H+  H151  1  0.89673999  0.62792763  0.65362751  1
  H+  H152  1  0.62182368  0.64837883  0.82778233  1
  H+  H153  1  0.13671334  0.60977979  0.99391250  1
  H+  H154  1  0.88588281  0.10723530  0.51811785  1
  H+  H155  1  0.85490231  0.48511991  0.34420878  1
  H+  H156  1  0.95375282  0.27867672  0.86507269  1
  H+  H157  1  0.88787413  0.74819092  0.66697566  1
  H+  H158  1  0.27367981  0.39021068  0.82599269  1
  H+  H159  1  0.36502490  0.39893655  0.49057444  1
  H+  H160  1  0.14279052  0.98105966  0.68255275  1
  H+  H161  1  0.72030290  0.36951726  0.99969682  1
  H+  H162  1  0.15885243  0.01589266  0.17813246  1
  H+  H163  1  0.39281809  0.12100395  0.17062840  1
  H+  H164  1  0.23912204  0.90500527  0.29838089  1
  H+  H165  1  0.13345017  0.60966878  0.85271205  1
  H+  H166  1  0.61983001  0.71632180  0.32489463  1
  H+  H167  1  0.38861160  0.76159962  0.50886421  1
  H+  H168  1  0.53803728  0.88895619  0.34454895  1
  H+  H169  1  0.13217179  0.52477691  0.65148499  1
  H+  H170  1  0.51381533  0.87755082  0.00618328  1
  H+  H171  1  0.11779162  0.88839790  0.49575726  1
  H+  H172  1  0.07476827  0.61308062  0.33813769  1
  H+  H173  1  0.66633616  0.53988120  0.64229235  1
  H+  H174  1  1.04135380  0.12494493  0.16652487  1
  H+  H175  1  0.32828153  0.59198083  0.65824518  1
  H+  H176  1  0.36182977  0.38728562  0.82723037  1
  H+  H177  1  0.89081812  0.60957426  0.49786690  1
  H+  H178  1  0.75479174  0.64530079  0.83819282  1
  H+  H179  1  0.39648242  0.51603561  0.99312340  1
  H+  H180  1  0.36426376  0.91492567  0.29371379  1
  H+  H181  1  0.26943453  0.13939230  0.00999790  1
  H+  H182  1  0.50206921  0.59684231  0.30195775  1
  H+  H183  1  0.65506682  0.74503157  0.67174333  1
  H+  H184  1  0.47098669  0.11970486  0.99618848  1
  H+  H185  1  0.27399179  0.39370489  0.33993167  1
  H+  H186  1  0.35652892  0.14651181  0.82903430  1
  H+  H187  1  0.22946772  0.36241304  0.99446460  1
  H+  H188  1  0.64120985  0.27537530  1.01122861  1
  H+  H189  1  0.85337098  0.98751800  0.33129123  1
  H+  H190  1  0.14035421  0.89844744  0.32711485  1
  H+  H191  1  0.13465944  0.77147902  0.51134488  1
  H+  H192  1  0.91257772  0.59530171  0.23692582  1
  H+  H193  1  0.66725644  0.34188840  0.26870819  1
  H+  H194  1  0.33144945  0.89922769  0.46670692  1
  H+  H195  1  0.46924300  0.32400064  0.71733168  1
  H+  H196  1  0.70250466  0.21369707  0.05503620  1
  H+  H197  1  0.32844168  0.41302008  0.73375183  1
  H+  H198  1  0.10381898  0.12380078  0.00002147  1
  H+  H199  1  0.13164417  0.27648527  0.65220995  1
  H+  H200  1  0.38614657  0.84834889  0.52388851  1
  H+  H201  1  0.61096106  0.11530831  0.17473481  1
  H+  H202  1  0.55807286  0.07771473  0.68810001  1
  H+  H203  1  0.10618112  -0.02568273  0.99304018  1
  H+  H204  1  0.13621245  0.37158777  0.32511176  1
  H+  H205  1  0.73654762  0.60459059  0.16866687  1
  H+  H206  1  0.11591890  0.14577536  0.82171627  1
  H+  H207  1  0.98542742  0.86232347  0.65324832  1
  H+  H208  1  0.89251109  0.52494654  0.86360018  1
  H+  H209  1  0.87028407  0.13898599  0.66878831  1
  H+  H210  1  0.34823850  0.95005453  0.67959303  1
  H+  H211  1  0.70351251  0.01183787  0.61027656  1
  H+  H212  1  0.51396608  0.64631895  0.14415528  1
  H+  H213  1  0.78008294  0.88481953  0.50165441  1
  H+  H214  1  0.77389238  0.37967433  0.48833053  1
  H+  H215  1  0.85078410  0.26140355  0.97672085  1
  H+  H216  1  0.88996908  0.01969662  0.51020260  1
  H+  H217  1  0.45760667  0.11164212  0.83867934  1
  H+  H218  1  0.86967503  0.63775390  0.82442730  1
  H+  H219  1  0.89935749  0.37823234  0.17502704  1
  H+  H220  1  0.89963667  0.39580734  0.83139144  1
  H+  H221  1  0.02742120  0.38555395  0.49028999  1
  H+  H222  1  0.77981880  0.13204419  0.65981455  1
  H+  H223  1  0.90551454  0.12273686  0.18945848  1
  H+  H224  1  0.49245832  0.10896673  0.67552247  1
  H+  H225  1  0.61160066  0.13285326  0.38401410  1
  H+  H226  1  0.47229309  0.36081755  0.99775552  1
  H+  H227  1  0.02167774  0.13362132  0.48547647  1
  H+  H228  1  0.33320007  0.19912013  0.66843197  1
  H+  H229  1  0.27063433  0.86684967  0.83357978  1
  H+  H230  1  0.34063081  0.37602511  0.66785777  1
  H+  H231  1  0.88976294  0.45396752  0.72838623  1
  H+  H232  1  0.60437479  0.96509443  0.00195967  1
  H+  H233  1  0.12465346  0.99144986  0.34293336  1
  H+  H234  1  0.55143042  0.39055285  0.64953207  1
  H+  H235  1  0.25865580  0.71816824  0.36398864  1
  H+  H236  1  0.32624405  0.88594044  0.77343878  1
  H+  H237  1  0.22269681  0.86568791  -0.00733158  1
  H+  H238  1  0.37812067  0.61266648  0.16974985  1
  H+  H239  1  0.57664254  0.66975431  0.06245449  1
  H+  H240  1  0.60699777  0.47370358  0.01104841  1
  H+  H241  1  0.09672340  0.47543109  0.33769237  1
  H+  H242  1  0.03033276  0.89077439  0.82681508  1
  H+  H243  1  0.38539126  0.75971962  0.84886133  1
  H+  H244  1  0.70286373  0.34471800  0.85860084  1
  H+  H245  1  0.50566598  0.91026484  0.68062392  1
  H+  H246  1  0.53081883  0.64576450  0.51409934  1
  H+  H247  1  0.77269713  0.13735491  0.50610338  1
  H+  H248  1  0.18059655  0.59275932  0.33215247  1
  H+  H249  1  0.88329779  0.27718116  0.32880237  1
  H+  H250  1  0.60493463  0.97487601  0.49291031  1
  H+  H251  1  0.34208072  0.88776954  0.15939681  1
  H+  H252  1  0.89501804  0.53621944  0.65409980  1
  H+  H253  1  0.24081487  0.11711544  0.66932366  1
  H+  H254  1  0.63319740  0.63516452  0.32633856  1
  H+  H255  1  0.52217552  0.87994788  0.50043187  1
  H+  H256  1  0.57225501  -0.08735840  0.09575831  1
  H+  H257  1  0.38838761  0.51971074  0.83774602  1
  H+  H258  1  0.11454477  0.21883360  0.01063899  1
  H+  H259  1  0.40697597  0.63840109  0.36458131  1
  H+  H260  1  0.64639072  0.86271366  0.33137356  1
  H+  H261  1  0.35287258  0.72367797  0.01658879  1
  H+  H262  1  -0.04000814  0.62636913  0.33848418  1
  H+  H263  1  0.36090466  -0.02142376  1.00623508  1
  H+  H264  1  0.59361762  0.41281854  0.58522027  1
  H+  H265  1  0.14099911  0.86314411  0.84114424  1
  H+  H266  1  0.50198066  0.61441246  0.99331161  1
  H+  H267  1  0.41476233  0.81461403  0.60849483  1
  H+  H268  1  0.90078436  0.77757987  0.83404571  1
  H+  H269  1  0.46140589  0.36062965  0.72403226  1
  H+  H270  1  0.63488807  1.01372449  0.65430035  1
  H+  H271  1  0.13813380  0.38269648  0.49910438  1
  H+  H272  1  0.63197464  0.26345501  0.48285783  1
  H+  H273  1  0.13338323  0.86750402  0.99155890  1
  H+  H274  1  0.34767173  0.97867387  0.15725278  1
  H+  H275  1  0.28454501  0.26009783  0.60887483  1
  H+  H276  1  0.10915254  0.72053952  0.84871401  1
  H+  H277  1  0.63207331  0.77072009  0.98468090  1
  H+  H278  1  0.77498208  0.88656296  -0.00821062  1
  H+  H279  1  0.37797385  0.31756027  0.58383935  1
  H+  H280  1  0.05530920  0.03078002  0.94783543  1
  H+  H281  1  0.90057537  0.14570482  0.84007379  1
  H+  H282  1  0.62172858  0.11172929  0.49259164  1
  H+  H283  1  0.36505850  0.38630168  1.00954749  1
  H+  H284  1  0.64317525  0.10682965  -0.00943040  1
  H+  H285  1  0.92751265  0.35390833  0.23851105  1
  H+  H286  1  0.64377973  0.78023726  0.51734333  1
  H+  H287  1  0.47920621  0.37432659  0.17726140  1
  H+  H288  1  0.14458848  0.03021386  0.50547245  1
  H+  H289  1  0.91973290  0.07355673  0.24158325  1
  H+  H290  1  0.81886942  0.16200649  0.04138797  1
  H+  H291  1  0.22614134  0.61115707  0.99827838  1
  H+  H292  1  0.65137491  0.07024444  0.92452564  1
  H+  H293  1  0.28253933  0.87221985  0.39352498  1
  H+  H294  1  0.91781883  0.82895193  0.93029770  1
  H+  H295  1  0.88698250  0.88287311  0.66601091  1
  H+  H296  1  0.40902642  0.33092837  0.93900907  1
  H+  H297  1  0.58759416  0.91184176  0.40865136  1
  H+  H298  1  0.28863299  0.91632658  0.39880139  1
  H+  H299  1  0.64550871  0.86983748  0.51313000  1
  H+  H300  1  0.33038248  0.18259527  0.39942290  1
  H+  H301  1  0.83261828  0.89891000  0.40802623  1
  H+  H302  1  0.86369232  0.22310073  0.51254208  1
  H+  H303  1  0.73011698  0.85306285  0.32979998  1
  H+  H304  1  0.17276390  0.08034908  0.26790209  1
  H+  H305  1  0.40324650  0.09110980  0.89919145  1
  H+  H306  1  0.42104040  0.34794712  0.27045788  1
  H+  H307  1  0.12134823  0.47871407  0.01418283  1
  H+  H308  1  0.66191504  0.30514546  0.54827823  1
  H+  H309  1  0.88443133  0.36828978  0.33001257  1
  H+  H310  1  0.64453355  0.42078613  0.75180089  1
  H+  H311  1  0.14397814  0.57953538  0.24665036  1
  H+  H312  1  0.16613743  0.83474154  0.90349326  1
  H+  H313  1  0.61816129  0.67717924  0.72654216  1
  H+  H314  1  0.66553225  0.10459058  0.30276529  1
  H+  H315  1  0.12151538  0.15147208  0.66342028  1
  H+  H316  1  0.85348786  0.66057859  0.42388290  1
  H+  H317  1  0.09492471  0.18366193  0.72564011  1
  H+  H318  1  0.83992504  0.65861093  0.08908037  1
  H+  H319  1  0.92840485  0.83429719  0.57215494  1
  H+  H320  1  0.14510679  0.37261805  0.83785225  1
  H+  H321  1  0.16773827  0.57536264  0.90642011  1
  H+  H322  1  0.66732420  0.83460053  0.22937722  1
  H+  H323  1  0.84090435  0.43179055  0.10026660  1
  H+  H324  1  0.81583789  0.15554902  0.75607046  1
  H+  H325  1  0.17175921  0.35159591  0.56593133  1
  H+  H326  1  0.32016527  0.16846592  0.76905576  1
  H+  H327  1  0.15960250  0.82636995  0.57410427  1
  H+  H328  1  0.32555536  0.91890935  0.06494729  1
  H+  H329  1  0.52609379  0.63444859  0.82371611  1
  H+  H330  1  0.16883664  0.33380493  0.93652715  1
  H+  H331  1  0.73193632  0.69578952  0.88462858  1
  H+  H332  1  0.80539927  0.16739545  0.09143731  1
  H+  H333  1  0.41056238  0.82535526  0.94028156  1
  H+  H334  1  0.87023050  0.88432193  0.50135132  1
  H+  H335  1  0.63938656  0.45957407  0.74780582  1
  H+  H336  1  0.37993159  0.84592190  0.84597807  1
  H+  H337  1  0.16686638  0.58504459  0.59148335  1
  H+  H338  1  0.69175587  0.59990742  0.55635247  1
  H+  H339  1  0.02305616  0.63424829  0.49470426  1
  H+  H340  1  0.42410545  0.57778377  0.21750563  1
  H+  H341  1  0.41382094  0.84100108  0.22661095  1
  H+  H342  1  0.88579497  0.32569592  0.92213123  1
  H+  H343  1  0.09590264  0.42438877  0.10293695  1
  H+  H344  1  0.34976007  0.72775661  0.16683238  1
  H+  H345  1  0.14116160  0.85773548  0.66631079  1
  H+  H346  1  0.27119120  0.14463168  0.49296659  1
  H+  H347  1  0.38707796  0.28176965  0.49643202  1
  H+  H348  1  0.56282859  0.15283743  0.76676741  1
  H+  H349  1  0.85219993  0.67336088  0.75961865  1
  H+  H350  1  0.58659949  0.41853049  0.43740583  1
  H+  H351  1  0.09176238  0.14710577  0.10370999  1
  H+  H352  1  0.38208019  0.11877303  -0.00039796  1
  H+  H353  1  0.08407853  0.41341938  0.42710008  1
  H+  H354  1  0.84893434  0.62900460  -0.01836036  1
  H+  H355  1  0.61631713  0.38876822  0.34301762  1
  H+  H356  1  0.38302084  0.53426430  0.50825280  1
  H+  H357  1  0.66325624  0.83572511  0.89007919  1
  H+  H358  1  0.26140582  0.63912035  0.17574731  1
  H+  H359  1  0.94387912  0.13381145  0.90051774  1
  H+  H360  1  0.83438568  0.42155913  0.40048112  1
  H+  H361  1  0.36537247  0.56248229  0.59167433  1
  H+  H362  1  0.68805559  0.84567265  0.60899807  1
  H+  H363  1  0.32250481  0.65346479  0.77394278  1
  H+  H364  1  0.06376965  0.65773980  0.39850281  1
  H+  H365  1  0.14631686  0.09964367  0.17293102  1
  H+  H366  1  0.91707252  0.58279868  0.56043394  1
  H+  H367  1  0.61079495  0.15017570  0.08103623  1
  H+  H368  1  0.68610556  0.57644363  0.23182036  1
  H+  H369  1  0.02498972  0.88214445  0.00290040  1
  H+  H370  1  0.31808334  0.66397280  0.07507011  1
  H+  H371  1  0.33269762  0.42770661  0.43176383  1
  H+  H372  1  0.64578071  0.31384319  0.91713832  1
  H+  H373  1  0.92705650  0.34104049  0.56344529  1
  H+  H374  1  0.69646023  0.21448954  0.23620172  1
  H+  H375  1  0.79768090  0.00898780  0.28891398  1
  H+  H376  1  0.08997584  0.42767710  0.72889374  1
  H+  H377  1  0.84456452  0.90781755  0.76280974  1
  H+  H378  1  0.66804702  0.58318867  0.94177438  1
  H+  H379  1  0.08797882  0.66845656  0.06355800  1
  H+  H380  1  0.61807722  0.10135581  0.83578333  1
  H+  H381  1  0.92393157  0.08352444  0.60217610  1
  H+  H382  1  0.33772128  0.17429741  0.10669738  1
  H+  H383  1  0.17354262  0.35261232  0.24071329  1
  O2-  O384  1  0.09867917  0.14476543  0.14852842  1
  O2-  O385  1  0.07912576  0.16382271  0.46574722  1
  O2-  O386  1  0.09593593  0.18493165  0.80429548  1
  O2-  O387  1  0.09601450  0.42583570  0.15036870  1
  O2-  O388  1  0.08838758  0.41499220  0.47386552  1
  O2-  O389  1  0.09428610  0.42773048  0.80664203  1
  O2-  O390  1  0.07959093  0.67160202  0.15023797  1
  O2-  O391  1  0.08390007  0.67001035  0.47980528  1
  O2-  O392  1  0.07698268  0.65650194  0.84555837  1
  O2-  O393  1  0.11506424  0.90421776  0.15446534  1
  O2-  O394  1  0.09051974  0.91969868  0.47723687  1
  O2-  O395  1  0.09156355  0.92114773  0.81242725  1
  O2-  O396  1  0.34334581  0.17493824  0.15164526  1
  O2-  O397  1  0.33168312  0.17884255  0.47566374  1
  O2-  O398  1  0.32770649  0.17941706  0.81340680  1
  O2-  O399  1  0.32705778  0.41930739  0.14489010  1
  O2-  O400  1  0.33354069  0.42932122  0.47818982  1
  O2-  O401  1  0.33378603  0.41826872  0.80842425  1
  O2-  O402  1  0.32061927  0.66546269  0.15759109  1
  O2-  O403  1  0.33208135  0.66743232  0.47502762  1
  O2-  O404  1  0.32735551  0.65283885  0.81874214  1
  O2-  O405  1  0.31195286  0.91775630  0.14344727  1
  O2-  O406  1  0.33380820  0.90796226  0.51074938  1
  O2-  O407  1  0.33017376  0.88750414  0.81830592  1
  O2-  O408  1  0.56876395  0.08940491  0.14067058  1
  O2-  O409  1  0.57228979  0.16003321  0.46150628  1
  O2-  O410  1  0.56447908  0.15237990  0.81225076  1
  O2-  O411  1  0.58028007  0.41274396  0.15321272  1
  O2-  O412  1  0.58628841  0.41451032  0.48350283  1
  O2-  O413  1  0.57993658  0.42622057  0.87148790  1
  O2-  O414  1  0.57259152  0.67867181  0.12583603  1
  O2-  O415  1  0.58872365  0.67960271  0.49702460  1
  O2-  O416  1  0.58598598  0.66949747  0.80838641  1
  O2-  O417  1  0.56859728  0.91886966  0.14117575  1
  O2-  O418  1  0.58141632  0.91240627  0.48300953  1
  O2-  O419  1  0.57167920  0.91353533  0.81198891  1
  O2-  O420  1  0.83863807  0.17981128  0.18806503  1
  O2-  O421  1  0.83235671  0.16042144  0.51985666  1
  O2-  O422  1  0.81446201  0.15744179  0.80165223  1
  O2-  O423  1  0.84263840  0.42622604  0.14501921  1
  O2-  O424  1  0.83588973  0.41137573  0.47640216  1
  O2-  O425  1  0.88015128  0.43577655  0.81843761  1
  O2-  O426  1  0.84174904  0.66497599  0.13409294  1
  O2-  O427  1  0.85025282  0.66798739  0.46891021  1
  O2-  O428  1  0.84547030  0.67100639  0.80570262  1
  O2-  O429  1  0.85624544  0.90927676  0.17564981  1
  O2-  O430  1  0.83968519  0.91360136  0.48430142  1
  O2-  O431  1  0.84083253  0.90552422  0.80827413  1
  O2-  O432  1  0.18271298  0.07596593  0.19220103  1
  O2-  O433  1  0.17397336  0.09162517  0.51781253  1
  O2-  O434  1  0.15718815  0.08646069  0.84844931  1
  O2-  O435  1  0.17456525  0.35583278  0.19294904  1
  O2-  O436  1  0.17696050  0.35882398  0.51956226  1
  O2-  O437  1  0.17551961  0.34323530  0.85416820  1
  O2-  O438  1  0.15826212  0.59146218  0.19999609  1
  O2-  O439  1  0.17218266  0.58641296  0.51356743  1
  O2-  O440  1  0.16618224  0.57787759  0.86029845  1
  O2-  O441  1  0.14751469  0.85059678  0.18097389  1
  O2-  O442  1  0.16521639  0.83150029  0.52814058  1
  O2-  O443  1  0.16731074  0.83005356  0.85765942  1
  O2-  O444  1  0.41687458  0.08222937  0.18140689  1
  O2-  O445  1  0.41150481  0.08517469  0.48158415  1
  O2-  O446  1  0.39994875  0.09538275  0.85476926  1
  O2-  O447  1  0.41735317  0.34664725  0.19129202  1
  O2-  O448  1  0.41613708  0.34194013  0.51338417  1
  O2-  O449  1  0.40831892  0.33741699  0.86130299  1
  O2-  O450  1  0.41240833  0.58302374  0.17239776  1
  O2-  O451  1  0.40581682  0.58869848  0.53212619  1
  O2-  O452  1  0.41995166  0.57920518  0.85539648  1
  O2-  O453  1  0.40403290  0.84179982  0.18241086  1
  O2-  O454  1  0.41977455  0.81878342  0.53076889  1
  O2-  O455  1  0.41518179  0.82012785  0.86355113  1
  O2-  O456  1  0.68852225  0.15697244  0.23056232  1
  O2-  O457  1  0.65145793  0.08015008  0.50783235  1
  O2-  O458  1  0.65217870  0.07455653  0.85022530  1
  O2-  O459  1  0.67167477  0.33230675  0.18973914  1
  O2-  O460  1  0.66380069  0.32086139  0.50424648  1
  O2-  O461  1  0.64284745  0.31381764  0.87085460  1
  O2-  O462  1  0.67863942  0.57048068  0.18690132  1
  O2-  O463  1  0.68401357  0.59583574  0.51090003  1
  O2-  O464  1  0.70542696  0.64035714  0.86392031  1
  O2-  O465  1  0.66738056  0.83661715  0.18401161  1
  O2-  O466  1  0.67844443  0.84305437  0.52886849  1
  O2-  O467  1  0.66419635  0.83779088  0.84466161  1
  O2-  O468  1  0.93500633  0.09003436  0.19830417  1
  O2-  O469  1  0.92205029  0.07991476  0.52578150  1
  O2-  O470  1  0.95568152  0.16820059  0.86199137  1
  O2-  O471  1  0.93161821  0.35142088  0.19292313  1
  O2-  O472  1  0.92917902  0.33942563  0.51794694  1
  O2-  O473  1  0.92403816  0.30750395  0.84719353  1
  O2-  O474  1  0.91783475  0.58744190  0.19285667  1
  O2-  O475  1  0.91781958  0.57658242  0.51485676  1
  O2-  O476  1  0.90255370  0.58044802  0.88077128  1
  O2-  O477  1  0.95479555  0.83208193  0.16126539  1
  O2-  O478  1  0.93040910  0.83844939  0.52373524  1
  O2-  O479  1  0.92714356  0.83615845  0.85181530  1
  O2-  O480  1  0.17010687  0.08404559  0.31348781  1
  O2-  O481  1  0.15705519  0.09489022  0.63608020  1
  O2-  O482  1  0.11594434  0.06122578  0.95971281  1
  O2-  O483  1  0.17055682  0.34599651  0.30799625  1
  O2-  O484  1  0.16218284  0.33901125  0.63692764  1
  O2-  O485  1  0.16826505  0.33036408  0.98165979  1
  O2-  O486  1  0.12392581  0.56304671  0.31367945  1
  O2-  O487  1  0.16383748  0.58568614  0.63704555  1
  O2-  O488  1  0.16631005  0.57744565  0.98029954  1
  O2-  O489  1  0.17376418  0.87050102  0.29836149  1
  O2-  O490  1  0.16659078  0.82473061  0.64759268  1
  O2-  O491  1  0.16289411  0.83410626  0.97731736  1
  O2-  O492  1  0.41718668  0.08759236  0.35914052  1
  O2-  O493  1  0.38564640  0.06093642  0.65107559  1
  O2-  O494  1  0.41132196  0.08769661  0.98314790  1
  O2-  O495  1  0.42107591  0.34701520  0.31600460  1
  O2-  O496  1  0.34354620  0.29711579  0.62273374  1
  O2-  O497  1  0.41020265  0.32920241  0.98461353  1
  O2-  O498  1  0.44434160  0.56077076  0.28123671  1
  O2-  O499  1  0.32838668  0.54162291  0.63181555  1
  O2-  O500  1  0.43309494  0.57582954  0.97500958  1
  O2-  O501  1  0.43919563  0.82080803  0.30331138  1
  O2-  O502  1  0.41079523  0.81494553  0.65395953  1
  O2-  O503  1  0.41279687  0.83021332  0.98586884  1
  O2-  O504  1  0.66326661  0.09007607  0.34653365  1
  O2-  O505  1  0.68337840  0.04984386  0.62515240  1
  O2-  O506  1  0.65781718  0.06675609  0.96997554  1
  O2-  O507  1  0.66411181  0.34238695  0.31395183  1
  O2-  O508  1  0.66124163  0.28811092  0.62330086  1
  O2-  O509  1  0.65684394  0.32965235  0.98956841  1
  O2-  O510  1  0.69071428  0.58134000  0.31079240  1
  O2-  O511  1  0.69886564  0.60155048  0.63281153  1
  O2-  O512  1  0.66490951  0.58110544  0.98654885  1
  O2-  O513  1  0.67316174  0.83348572  0.30964824  1
  O2-  O514  1  0.69147636  0.84436928  0.65400710  1
  O2-  O515  1  0.66026951  0.83050718  0.96931699  1
  O2-  O516  1  0.85403457  0.03653158  0.30821052  1
  O2-  O517  1  0.92306738  0.08697196  0.64793257  1
  O2-  O518  1  0.92679297  0.08671501  0.97005067  1
  O2-  O519  1  0.91428310  0.33827058  0.31365660  1
  O2-  O520  1  0.91905809  0.33577230  0.64144576  1
  O2-  O521  1  0.86073640  0.31834881  0.96290085  1
  O2-  O522  1  0.89723785  0.59890925  0.32110379  1
  O2-  O523  1  0.92215354  0.59435863  0.63449459  1
  O2-  O524  1  0.85665779  0.55564295  0.93869548  1
  O2-  O525  1  0.91929519  0.82246258  0.32288161  1
  O2-  O526  1  0.92571387  0.83249458  0.63908855  1
  O2-  O527  1  0.91192957  0.82382831  0.97551423  1
  O2-  O528  1  0.08214608  0.15862660  0.02500940  1
  O2-  O529  1  0.09594089  0.18883171  0.34450210  1
  O2-  O530  1  0.09249300  0.18462625  0.68015507  1
  O2-  O531  1  0.09488162  0.42106576  0.03435300  1
  O2-  O532  1  0.07826332  0.41365131  0.35540754  1
  O2-  O533  1  0.08415840  0.42409444  0.68344634  1
  O2-  O534  1  0.09242218  0.66661917  0.01901624  1
  O2-  O535  1  0.05076603  0.65002737  0.35437065  1
  O2-  O536  1  0.08105016  0.66896872  0.68106168  1
  O2-  O537  1  0.08701505  0.91640378  0.01240711  1
  O2-  O538  1  0.09942255  0.92852232  0.35618428  1
  O2-  O539  1  0.10391656  0.92123895  0.69376802  1
  O2-  O540  1  0.32873004  0.16831557  0.02470208  1
  O2-  O541  1  0.33494264  0.18057793  0.35386559  1
  O2-  O542  1  0.30252177  0.14154282  0.68699055  1
  O2-  O543  1  0.33820561  0.42169214  0.02127970  1
  O2-  O544  1  0.33264073  0.42140197  0.35837433  1
  O2-  O545  1  0.32215607  0.41387897  0.68799149  1
  O2-  O546  1  0.31978004  0.66302303  0.03009039  1
  O2-  O547  1  0.31344216  0.75682638  0.38326771  1
  O2-  O548  1  0.31488251  0.65264825  0.68934268  1
  O2-  O549  1  0.33180649  0.91788906  0.01994013  1
  O2-  O550  1  0.34215162  0.95407886  0.28790388  1
  O2-  O551  1  0.32264917  0.88903028  0.69112930  1
  O2-  O552  1  0.64195440  0.18457133  0.04333997  1
  O2-  O553  1  0.57861123  0.16274203  0.39457563  1
  O2-  O554  1  0.55247893  0.12963687  0.68937215  1
  O2-  O555  1  0.57250433  0.41339885  0.02606867  1
  O2-  O556  1  0.58912564  0.42163148  0.36181068  1
  O2-  O557  1  0.60681689  0.41734323  0.62869002  1
  O2-  O558  1  0.57810518  0.66108598  0.01411776  1
  O2-  O559  1  0.59140958  0.65468078  0.33507369  1
  O2-  O560  1  0.62937907  0.68176804  0.68251929  1
  O2-  O561  1  0.57579134  0.90640675  0.02017147  1
  O2-  O562  1  0.59595660  0.91891859  0.36303872  1
  O2-  O563  1  0.55284122  0.96386087  0.69891750  1
  O2-  O564  1  0.82608118  0.15726457  -0.00534477  1
  O2-  O565  1  0.84147554  0.17806882  0.35753637  1
  O2-  O566  1  0.83589254  0.16723375  0.68071303  1
  O2-  O567  1  0.82147134  0.42632123  0.01578578  1
  O2-  O568  1  0.83336151  0.42413855  0.35486093  1
  O2-  O569  1  0.86301723  0.44124890  0.68809675  1
  O2-  O570  1  0.82964629  0.66102520  0.00924823  1
  O2-  O571  1  0.85764326  0.64784522  0.34582290  1
  O2-  O572  1  0.85853695  0.68454308  0.68597378  1
  O2-  O573  1  0.83532842  0.91211404  0.00509734  1
  O2-  O574  1  0.82878779  0.89439537  0.36249486  1
  O2-  O575  1  0.85718797  0.91426572  0.68594870  1
