# generated using pymatgen
data_H2O
_symmetry_space_group_name_H-M   'P 1'
_cell_length_a   17.99233089
_cell_length_b   17.99057033
_cell_length_c   22.01013887
_cell_angle_alpha   89.99837105
_cell_angle_beta   90.01828418
_cell_angle_gamma   119.99289492
_symmetry_Int_Tables_number   1
_chemical_formula_structural   H2O
_chemical_formula_sum   'H384 O192'
_cell_volume   6170.44999597
_cell_formula_units_Z   192
loop_
 _symmetry_equiv_pos_site_id
 _symmetry_equiv_pos_as_xyz
  1  'x, y, z'
loop_
 _atom_type_symbol
 _atom_type_oxidation_number
  H+  1.0
  O2-  -2.0
loop_
 _atom_site_type_symbol
 _atom_site_label
 _atom_site_symmetry_multiplicity
 _atom_site_fract_x
 _atom_site_fract_y
 _atom_site_fract_z
 _atom_site_occupancy
  H+  H0  1  0.76627230  0.37089412  1.00966646  1
  H+  H1  1  0.38587404  0.27141797  0.92444202  1
  H+  H2  1  0.36269209  0.88872122  0.65896915  1
  H+  H3  1  0.11142355  -0.00846001  0.51551021  1
  H+  H4  1  0.85531880  0.73043495  0.34925783  1
  H+  H5  1  0.12350519  0.35213322  0.14113140  1
  H+  H6  1  0.62894647  0.35439590  0.17053041  1
  H+  H7  1  0.86024376  0.47761530  0.33684720  1
  H+  H8  1  0.96751755  0.10202129  0.32739742  1
  H+  H9  1  0.99019365  0.38439154  0.47738380  1
  H+  H10  1  0.47298317  0.85488510  -0.00501583  1
  H+  H11  1  0.14578693  0.02766607  0.66780192  1
  H+  H12  1  0.27080400  0.63702581  0.82849544  1
  H+  H13  1  0.32097641  0.15616074  0.10304058  1
  H+  H14  1  0.60809869  0.22464543  0.82715889  1
  H+  H15  1  0.64737453  0.36755400  0.83665930  1
  H+  H16  1  0.02598099  0.89291197  0.16617917  1
  H+  H17  1  0.72382329  0.85729215  0.15973232  1
  H+  H18  1  0.03082714  0.13766543  0.83309090  1
  H+  H19  1  0.35024222  0.22170747  0.01317654  1
  H+  H20  1  0.41762901  0.60330732  0.56304709  1
  H+  H21  1  0.13913409  0.24483979  0.55837335  1
  H+  H22  1  0.71961426  0.86220910  0.66301199  1
  H+  H23  1  0.60973558  0.72663473  0.82192020  1
  H+  H24  1  0.57533132  0.66145724  0.72748749  1
  H+  H25  1  0.10522341  0.11835681  0.34304425  1
  H+  H26  1  0.86188380  0.63482449  0.67614725  1
  H+  H27  1  0.64738578  0.57021257  0.05194944  1
  H+  H28  1  0.02512410  0.88479460  0.83200794  1
  H+  H29  1  1.02629565  0.88926704  0.68015561  1
  H+  H30  1  0.61711723  0.91728467  0.39829086  1
  H+  H31  1  0.46966374  0.85634393  0.83833196  1
  H+  H32  1  0.14112235  0.10996648  0.83813590  1
  H+  H33  1  0.60544388  0.87918961  0.67361104  1
  H+  H34  1  0.10611760  0.12305727  0.00951509  1
  H+  H35  1  0.63125805  0.52004636  0.66110861  1
  H+  H36  1  0.63869402  0.26883270  0.50746083  1
  H+  H37  1  0.91989985  0.58236307  0.60717150  1
  H+  H38  1  0.77589500  0.38610453  0.33713222  1
  H+  H39  1  1.03884158  0.64719962  0.67388746  1
  H+  H40  1  0.22183845  0.86353297  0.52337396  1
  H+  H41  1  1.03317676  0.40607889  1.00128541  1
  H+  H42  1  0.62984620  0.60841722  0.66070563  1
  H+  H43  1  0.61353015  0.88856156  1.00637244  1
  H+  H44  1  0.63157191  0.10410018  0.51505177  1
  H+  H45  1  0.38624746  0.11620570  0.85315749  1
  H+  H46  1  0.18294753  0.60751640  0.56491312  1
  H+  H47  1  0.89605038  0.52625907  0.66761985  1
  H+  H48  1  0.87638634  0.23592181  0.34045900  1
  H+  H49  1  0.64810508  0.99693482  0.35051138  1
  H+  H50  1  0.65809498  0.53774977  0.31506976  1
  H+  H51  1  0.22038247  0.37195470  0.82863178  1
  H+  H52  1  0.31918002  0.89096249  0.36285955  1
  H+  H53  1  0.85623490  0.61797722  0.00384200  1
  H+  H54  1  0.12546254  0.62298671  0.31463160  1
  H+  H55  1  0.72920140  0.63016766  0.29295445  1
  H+  H56  1  0.26860011  0.64172209  1.00425655  1
  H+  H57  1  0.51896444  0.40278103  0.81659411  1
  H+  H58  1  0.88263732  0.52250480  0.17401860  1
  H+  H59  1  0.36877996  0.14326577  0.67831194  1
  H+  H60  1  0.61195129  0.63500429  0.48925360  1
  H+  H61  1  0.76854750  0.88227127  0.34014494  1
  H+  H62  1  0.83468435  0.40738723  0.77286329  1
  H+  H63  1  0.16417753  0.14327647  0.52555285  1
  H+  H64  1  0.22490728  0.35235208  0.14097715  1
  H+  H65  1  0.85183018  0.97412842  0.15508568  1
  H+  H66  1  0.86245690  0.88534284  0.67250648  1
  H+  H67  1  0.59961572  -0.03396740  0.67416518  1
  H+  H68  1  0.77744636  0.38686742  0.49177423  1
  H+  H69  1  0.46951792  0.84787357  0.65865134  1
  H+  H70  1  0.51621815  0.63244446  0.66765162  1
  H+  H71  1  0.89053718  0.36847804  0.32935175  1
  H+  H72  1  0.13928860  0.77725841  0.66854624  1
  H+  H73  1  0.24582209  0.59829132  0.33806465  1
  H+  H74  1  0.28104646  0.14647475  0.50310213  1
  H+  H75  1  0.35901080  0.72508808  0.82476162  1
  H+  H76  1  0.89056193  0.61517960  0.51657770  1
  H+  H77  1  0.09661023  -0.04207156  0.33916790  1
  H+  H78  1  0.58615556  0.16870965  0.43952145  1
  H+  H79  1  0.87559500  0.01603684  0.32999823  1
  H+  H80  1  0.44061043  0.41708282  0.80599723  1
  H+  H81  1  0.60511035  0.12917603  0.16566623  1
  H+  H82  1  0.12316899  0.40812501  1.00186924  1
  H+  H83  1  0.13639742  0.52645899  0.85534216  1
  H+  H84  1  0.45994030  0.37429365  0.33930044  1
  H+  H85  1  0.60035619  0.97094409  0.00676503  1
  H+  H86  1  0.32305437  0.33071763  0.31741007  1
  H+  H87  1  0.72442462  0.86027812  0.99033297  1
  H+  H88  1  0.88014677  0.50703761  0.00391459  1
  H+  H89  1  0.74091108  0.13117855  0.33388941  1
  H+  H90  1  0.85929117  0.88702924  0.34777227  1
  H+  H91  1  0.38641035  0.11623088  -0.00535449  1
  H+  H92  1  0.39002371  0.12887274  0.33280814  1
  H+  H93  1  0.01426969  0.64387962  0.14775942  1
  H+  H94  1  0.35543615  0.38371892  0.65591568  1
  H+  H95  1  0.68805159  0.47526156  0.78801419  1
  H+  H96  1  0.88973486  0.36812034  0.17526111  1
  H+  H97  1  0.25186943  0.37725626  0.34136366  1
  H+  H98  1  0.10436134  0.90034794  0.51408558  1
  H+  H99  1  0.62224853  0.14798151  0.34522133  1
  H+  H100  1  0.47010263  0.60823548  0.82307954  1
  H+  H101  1  0.09041799  0.86657937  0.33258316  1
  H+  H102  1  0.69589013  0.10254436  0.98587325  1
  H+  H103  1  1.01589672  0.62135247  0.84731664  1
  H+  H104  1  0.60414899  0.13361237  0.82329070  1
  H+  H105  1  0.38613220  0.61316089  0.99657769  1
  H+  H106  1  0.75664314  0.12280391  0.67781867  1
  H+  H107  1  0.37342659  0.35197688  0.16637374  1
  H+  H108  1  0.13153745  0.65530886  0.66643915  1
  H+  H109  1  -0.00859463  0.13754438  0.68073776  1
  H+  H110  1  0.21623680  0.09416201  0.33511791  1
  H+  H111  1  0.13962402  0.54359105  0.99794248  1
  H+  H112  1  0.63658465  0.77111435  0.32797498  1
  H+  H113  1  0.71815912  0.10728834  0.18580441  1
  H+  H114  1  0.27739185  0.89383239  0.66614208  1
  H+  H115  1  0.11072320  0.38073039  0.83739369  1
  H+  H116  1  0.17291926  0.56540376  0.22580559  1
  H+  H117  1  0.13381506  0.77542269  0.00210207  1
  H+  H118  1  0.66908609  0.58664978  0.56827555  1
  H+  H119  1  0.42034596  0.08996108  0.56796151  1
  H+  H120  1  0.39318325  0.28096531  0.50276047  1
  H+  H121  1  0.88100502  0.07256901  0.98292274  1
  H+  H122  1  0.37742508  0.76065748  0.36538278  1
  H+  H123  1  0.41857887  0.81434067  0.57665192  1
  H+  H124  1  0.36610851  0.22938395  0.67625507  1
  H+  H125  1  0.61436957  0.50864489  0.15824104  1
  H+  H126  1  0.34560000  0.45846039  0.16052024  1
  H+  H127  1  0.97102813  0.59907492  1.00009288  1
  H+  H128  1  0.90107490  0.58169948  0.26365694  1
  H+  H129  1  0.90243247  0.82900338  0.27939222  1
  H+  H130  1  0.38377769  0.55772083  0.49985237  1
  H+  H131  1  0.12558756  0.25477135  0.14909200  1
  H+  H132  1  0.85063084  0.20877859  0.68277858  1
  H+  H133  1  0.38038131  0.71019845  0.14636524  1
  H+  H134  1  0.63318746  0.86184346  0.83336257  1
  H+  H135  1  0.34651143  0.49704384  0.80216371  1
  H+  H136  1  0.10732983  0.88372663  0.00903453  1
  H+  H137  1  0.02339371  0.64167202  0.49663630  1
  H+  H138  1  0.08371287  0.70713074  0.33447757  1
  H+  H139  1  0.60149143  0.96783086  0.82228990  1
  H+  H140  1  0.78651205  0.07423136  1.01371695  1
  H+  H141  1  0.63279244  0.26212060  0.99381551  1
  H+  H142  1  0.36077705  0.88741647  0.17168575  1
  H+  H143  1  0.53242634  0.39236517  0.49111847  1
  H+  H144  1  0.76800132  0.65203365  0.37723119  1
  H+  H145  1  0.63177248  0.34984195  -0.00764904  1
  H+  H146  1  0.41636579  0.78494647  0.38541537  1
  H+  H147  1  -0.03374777  0.85289923  0.33571745  1
  H+  H148  1  0.64687598  0.40546947  0.33927785  1
  H+  H149  1  0.60619057  0.63584004  0.82426199  1
  H+  H150  1  0.20827635  0.45495646  0.47089588  1
  H+  H151  1  0.44238155  0.91313734  0.33422634  1
  H+  H152  1  0.06570901  0.67890649  -0.04021311  1
  H+  H153  1  0.60912838  0.10459148  -0.00694244  1
  H+  H154  1  0.90239604  0.38179623  0.49305156  1
  H+  H155  1  0.64626865  0.52768387  0.50952197  1
  H+  H156  1  0.51677204  0.64033020  0.00036566  1
  H+  H157  1  0.85239565  0.20954596  0.83122007  1
  H+  H158  1  0.45696762  0.59720144  0.32788604  1
  H+  H159  1  0.86997729  0.60778228  0.32575989  1
  H+  H160  1  0.26350769  0.47214144  0.76312727  1
  H+  H161  1  0.93635629  0.11240529  0.56353067  1
  H+  H162  1  0.53406453  0.15140627  0.34254042  1
  H+  H163  1  0.52367057  0.88108818  0.16256656  1
  H+  H164  1  0.57785516  0.35904355  0.67984033  1
  H+  H165  1  0.77238243  0.63447029  0.67315460  1
  H+  H166  1  0.37617604  0.52336287  0.64531837  1
  H+  H167  1  0.64869119  0.86454584  0.32323203  1
  H+  H168  1  0.32719501  0.41480738  0.42733732  1
  H+  H169  1  0.86186455  0.23882813  0.17305657  1
  H+  H170  1  0.33006324  0.20856142  0.34162160  1
  H+  H171  1  0.39172251  0.36926090  0.50170132  1
  H+  H172  1  0.51378115  0.36815534  0.99061983  1
  H+  H173  1  0.36714291  0.38396227  -0.00744402  1
  H+  H174  1  0.17986601  0.52909648  0.48054691  1
  H+  H175  1  0.57561376  0.15993120  0.06748125  1
  H+  H176  1  0.13123215  0.26315389  0.32725176  1
  H+  H177  1  0.22171092  0.10793429  0.17747862  1
  H+  H178  1  0.28257570  0.39019393  -0.00069225  1
  H+  H179  1  0.82688879  0.65340424  0.09701273  1
  H+  H180  1  0.12523132  0.25158892  0.65692914  1
  H+  H181  1  0.87013180  0.14214638  0.34105512  1
  H+  H182  1  0.90490741  0.16828622  0.04965726  1
  H+  H183  1  0.10017524  0.41482985  0.40976925  1
  H+  H184  1  0.12712212  0.76979192  0.16320951  1
  H+  H185  1  0.85823210  0.37518406  1.01065708  1
  H+  H186  1  0.10486419  0.12486732  0.17033579  1
  H+  H187  1  0.46849365  0.41431989  0.32216764  1
  H+  H188  1  0.60050470  0.45559561  0.00534338  1
  H+  H189  1  0.93958826  0.32676100  0.73331139  1
  H+  H190  1  0.63085686  0.11038468  0.66662683  1
  H+  H191  1  0.11424251  0.35578686  0.63424889  1
  H+  H192  1  0.37221671  0.88196339  0.51509047  1
  H+  H193  1  0.23778759  0.58467881  0.17025845  1
  H+  H194  1  0.21822211  0.85131972  0.85088821  1
  H+  H195  1  0.38131323  0.11152470  0.17304558  1
  H+  H196  1  -0.02198890  0.09078317  -0.00635892  1
  H+  H197  1  0.81449256  0.87430638  0.50079700  1
  H+  H198  1  0.27274533  0.87519421  0.01282790  1
  H+  H199  1  0.82591536  0.67057680  0.76973791  1
  H+  H200  1  0.64117718  0.36026519  0.50678687  1
  H+  H201  1  0.77197615  0.88540430  0.82437377  1
  H+  H202  1  0.38448603  0.61434069  0.82851342  1
  H+  H203  1  0.79034764  0.38419674  0.67291724  1
  H+  H204  1  0.18485816  0.09867241  0.58118390  1
  H+  H205  1  0.42004066  0.08741263  0.93654470  1
  H+  H206  1  0.14058717  0.28889605  0.99085463  1
  H+  H207  1  0.72415321  0.59897440  1.00711069  1
  H+  H208  1  0.77045064  0.38069572  0.16452628  1
  H+  H209  1  0.11916035  0.34064452  0.34344908  1
  H+  H210  1  0.64237808  0.27928079  0.32808880  1
  H+  H211  1  0.88705112  0.86218226  0.84187809  1
  H+  H212  1  0.26002114  0.63591197  0.66231222  1
  H+  H213  1  0.51766522  0.13206744  0.16305244  1
  H+  H214  1  0.53313084  0.92592096  0.32216225  1
  H+  H215  1  0.39451648  0.52837267  -0.00255478  1
  H+  H216  1  0.88885196  0.52534999  0.50970950  1
  H+  H217  1  0.90647385  0.17140426  0.49567456  1
  H+  H218  1  0.85245138  0.85845643  0.00707645  1
  H+  H219  1  0.14156711  0.27433304  0.83984434  1
  H+  H220  1  0.52360158  0.13718512  0.49767287  1
  H+  H221  1  0.88744179  0.77501865  0.66532690  1
  H+  H222  1  0.87545240  0.60777748  0.17055436  1
  H+  H223  1  0.60835316  0.64189989  -0.00156915  1
  H+  H224  1  0.76139210  0.62208431  0.15152008  1
  H+  H225  1  0.88086273  1.01603992  0.65537561  1
  H+  H226  1  0.13092578  0.01686968  -0.00710125  1
  H+  H227  1  0.28104362  0.14976865  0.85358668  1
  H+  H228  1  0.96882645  0.34980537  0.84617877  1
  H+  H229  1  0.34664036  0.96424529  0.84096679  1
  H+  H230  1  -0.03308529  0.87971194  0.52058870  1
  H+  H231  1  0.84763505  0.67624809  0.45030060  1
  H+  H232  1  0.39084924  1.02531479  0.51218831  1
  H+  H233  1  0.47730414  0.11714531  0.65849227  1
  H+  H234  1  0.47157699  0.37052914  0.65973531  1
  H+  H235  1  0.37654081  0.61254075  0.65556596  1
  H+  H236  1  0.50874759  0.37134768  0.15809055  1
  H+  H237  1  0.34955074  0.87710596  0.83920320  1
  H+  H238  1  0.63116496  0.26666539  0.17322429  1
  H+  H239  1  0.08194551  0.17022853  0.77306635  1
  H+  H240  1  0.80193683  0.11017645  -0.00978696  1
  H+  H241  1  0.87879747  0.38558288  0.68530546  1
  H+  H242  1  -0.02159620  0.36438588  0.17178093  1
  H+  H243  1  0.13910005  0.55216808  0.64558225  1
  H+  H244  1  1.01571635  0.16836800  0.51844146  1
  H+  H245  1  0.63890719  0.01934105  0.52125904  1
  H+  H246  1  0.37756578  0.75639046  0.65728200  1
  H+  H247  1  0.76621783  0.64558860  0.82832867  1
  H+  H248  1  0.35813511  0.57804992  0.33253110  1
  H+  H249  1  0.62662677  0.75073637  0.15000120  1
  H+  H250  1  0.60807960  0.63719706  0.14579893  1
  H+  H251  1  0.85625862  0.70824960  0.00032593  1
  H+  H252  1  0.68846511  0.40087792  0.64595779  1
  H+  H253  1  0.35400104  0.21951462  0.16018408  1
  H+  H254  1  0.19042367  0.82672481  0.32740284  1
  H+  H255  1  0.29450841  0.79808470  0.38204298  1
  H+  H256  1  0.56624175  0.41753961  0.34497857  1
  H+  H257  1  0.17375196  0.34502766  0.93080743  1
  H+  H258  1  0.36324418  0.72486316  0.00361744  1
  H+  H259  1  0.96711381  0.84753745  0.99394909  1
  H+  H260  1  0.89177353  0.88662683  0.18104190  1
  H+  H261  1  0.51334541  0.13597461  0.00743875  1
  H+  H262  1  0.63060941  0.85491799  0.16103590  1
  H+  H263  1  0.99944612  0.61699952  0.33862553  1
  H+  H264  1  1.01748758  0.36891851  0.36364308  1
  H+  H265  1  0.38892574  0.02613996  0.65419095  1
  H+  H266  1  0.77228564  0.37557551  0.83152563  1
  H+  H267  1  0.26321346  0.13191631  0.00673331  1
  H+  H268  1  0.34888906  0.46097551  0.33545424  1
  H+  H269  1  0.14571210  0.62723222  0.50425997  1
  H+  H270  1  0.78111653  0.64258964  0.50529821  1
  H+  H271  1  0.59981333  0.63269682  0.33188358  1
  H+  H272  1  0.37368893  0.58359488  0.17139130  1
  H+  H273  1  0.14250325  0.02101570  0.83995903  1
  H+  H274  1  0.61904761  0.23431777  0.67426360  1
  H+  H275  1  0.40059124  0.04750899  0.33041671  1
  H+  H276  1  0.10973055  0.88225184  0.16161271  1
  H+  H277  1  0.86378005  0.95128423  0.00196807  1
  H+  H278  1  0.11046892  0.72657434  0.84507892  1
  H+  H279  1  0.88741375  0.10657304  0.83996772  1
  H+  H280  1  0.64778025  0.57448034  0.21370463  1
  H+  H281  1  0.89720028  0.50811147  0.84790883  1
  H+  H282  1  0.87936319  0.11067653  0.17885681  1
  H+  H283  1  0.92310570  0.29240483  0.00313133  1
  H+  H284  1  0.21843701  0.33380966  0.63858106  1
  H+  H285  1  0.80778903  0.17879924  0.11789651  1
  H+  H286  1  0.43766221  0.36388336  0.90549642  1
  H+  H287  1  0.11752523  0.63446837  0.84408448  1
  H+  H288  1  0.16302287  0.07799137  0.93361200  1
  H+  H289  1  0.16224978  0.07120246  0.27257571  1
  H+  H290  1  0.08640075  0.42437565  0.78405796  1
  H+  H291  1  0.66498595  0.32802721  0.89847711  1
  H+  H292  1  0.42106366  0.34017061  0.59615083  1
  H+  H293  1  0.63155575  0.77333443  0.66116006  1
  H+  H294  1  0.39973408  0.70442375  0.50834410  1
  H+  H295  1  0.64373568  0.07234384  0.89458943  1
  H+  H296  1  0.87852254  0.34803520  0.84330697  1
  H+  H297  1  0.08484784  0.91281793  0.77271746  1
  H+  H298  1  0.35874264  -0.02518186  0.16725055  1
  H+  H299  1  0.33458017  0.65473915  0.08796141  1
  H+  H300  1  0.56218895  0.39258147  0.09595608  1
  H+  H301  1  0.39029274  0.54999871  0.23478026  1
  H+  H302  1  0.64871297  0.57272547  0.89961194  1
  H+  H303  1  0.33279484  0.40809633  0.09466191  1
  H+  H304  1  0.91625847  0.32756587  0.93682982  1
  H+  H305  1  0.63224315  0.77725401  0.98659832  1
  H+  H306  1  0.32326510  0.66178850  0.72506035  1
  H+  H307  1  0.91903494  0.56298923  0.91027190  1
  H+  H308  1  0.31313375  0.41445632  0.70795925  1
  H+  H309  1  0.52881131  0.64556181  0.48908347  1
  H+  H310  1  0.13482979  0.01716156  0.17653616  1
  H+  H311  1  0.86336811  0.97303168  0.82388035  1
  H+  H312  1  0.99046238  0.35168231  0.67124385  1
  H+  H313  1  0.88338702  0.77180764  0.84018357  1
  H+  H314  1  0.88555756  0.78598024  0.51821257  1
  H+  H315  1  0.12921190  0.63063181  0.99232616  1
  H+  H316  1  0.90986203  0.82001607  0.93322935  1
  H+  H317  1  0.15934194  0.83648326  0.60947896  1
  H+  H318  1  0.83447512  0.42238138  0.43124290  1
  H+  H319  1  0.58448205  0.67426976  0.08452685  1
  H+  H320  1  0.65947574  0.07874236  0.60731422  1
  H+  H321  1  0.06834287  0.14292582  0.06929658  1
  H+  H322  1  0.67232502  0.09011864  0.27877294  1
  H+  H323  1  0.41653774  0.09179341  0.23387398  1
  H+  H324  1  0.07334775  0.66708614  0.43362448  1
  H+  H325  1  0.96583173  0.94238973  0.22594263  1
  H+  H326  1  0.02033180  0.22239831  0.71774492  1
  H+  H327  1  0.01468617  0.12614920  0.17041410  1
  H+  H328  1  0.23464713  0.11593262  0.67220977  1
  H+  H329  1  0.60435773  0.42779115  0.43807900  1
  H+  H330  1  0.53720020  0.86750753  0.51602115  1
  H+  H331  1  0.38182948  0.85177213  0.99674140  1
  H+  H332  1  0.41376634  0.82539796  0.89964977  1
  H+  H333  1  0.06751690  0.67653914  0.08616300  1
  H+  H334  1  0.66755264  0.33337976  0.26505477  1
  H+  H335  1  0.21032349  0.68190410  0.27850642  1
  H+  H336  1  0.92514470  0.34164353  0.27123211  1
  H+  H337  1  0.59288679  0.41844106  0.73887728  1
  H+  H338  1  0.83247686  0.91681250  0.73009333  1
  H+  H339  1  0.31990392  0.88972606  0.46124463  1
  H+  H340  1  0.94933637  0.24216405  0.09577192  1
  H+  H341  1  0.32790332  0.16376336  0.40672848  1
  H+  H342  1  0.13725842  0.44564570  0.66130711  1
  H+  H343  1  0.81952831  0.14766053  0.77233887  1
  H+  H344  1  0.25109287  0.55280244  0.39791129  1
  H+  H345  1  0.86162068  0.18796273  0.43042952  1
  H+  H346  1  0.68286137  0.33893363  0.59299105  1
  H+  H347  1  0.11455870  0.88715507  0.68072909  1
  H+  H348  1  0.07667667  0.15363589  0.39936662  1
  H+  H349  1  0.90386716  0.07404012  0.23692494  1
  H+  H350  1  0.89703801  0.26307912  0.48649681  1
  H+  H351  1  0.14813083  0.81471775  0.26017406  1
  H+  H352  1  0.21960892  0.85690501  0.17344961  1
  H+  H353  1  0.71270511  0.10189445  0.84047593  1
  H+  H354  1  0.11989795  0.45852135  0.16015860  1
  H+  H355  1  0.58043623  0.91437958  0.10138416  1
  H+  H356  1  0.13205364  0.77953522  0.51019773  1
  H+  H357  1  0.63233855  0.01640441  0.18148002  1
  H+  H358  1  0.17206959  0.27844368  0.49480666  1
  H+  H359  1  0.33143121  0.90066457  0.07148104  1
  H+  H360  1  0.57445103  0.65852224  0.39518934  1
  H+  H361  1  0.17064367  0.59356124  0.91179063  1
  H+  H362  1  0.80645012  0.90638789  0.43570623  1
  H+  H363  1  0.44768720  0.87497995  0.24286610  1
  H+  H364  1  0.38516032  0.31388419  0.22783643  1
  H+  H365  1  0.86817364  0.09774203  0.65789976  1
  H+  H366  1  0.92243257  0.07168086  0.89426709  1
  H+  H367  1  0.46943023  0.10897369  0.83984033  1
  H+  H368  1  0.38397639  0.78280574  0.21745947  1
  H+  H369  1  0.58229302  0.17450135  0.73347329  1
  H+  H370  1  0.26183379  0.24954917  0.27772560  1
  H+  H371  1  0.82824764  0.40723909  0.10483455  1
  H+  H372  1  0.16372543  0.83483709  0.94393834  1
  H+  H373  1  0.91431964  0.83782933  0.60729712  1
  H+  H374  1  0.57191962  0.90641386  0.76361875  1
  H+  H375  1  0.08037164  0.41549120  0.09447470  1
  H+  H376  1  0.07518065  0.91474871  0.06579766  1
  H+  H377  1  0.12786681  0.85080420  0.84611720  1
  H+  H378  1  0.36794295  0.14217355  0.49669793  1
  H+  H379  1  0.83059802  0.90982746  0.09688090  1
  H+  H380  1  0.66490665  0.83591589  0.89345995  1
  H+  H381  1  0.63597945  0.52047844  0.83765001  1
  H+  H382  1  0.36484908  0.22582689  0.82357663  1
  H+  H383  1  0.68446456  0.87966085  0.47605218  1
  O2-  O384  1  0.07391369  0.15364553  0.15299941  1
  O2-  O385  1  0.13075418  0.22328463  0.51541615  1
  O2-  O386  1  0.09140496  0.16956685  0.81767142  1
  O2-  O387  1  0.07866914  0.40061747  0.13888151  1
  O2-  O388  1  0.18283691  0.48742681  0.45043722  1
  O2-  O389  1  0.07846449  0.41235187  0.82747703  1
  O2-  O390  1  0.07277438  0.67881099  0.13069954  1
  O2-  O391  1  0.08143568  0.67672867  0.47811171  1
  O2-  O392  1  0.08113409  0.66160072  0.83276180  1
  O2-  O393  1  0.08343664  0.91708004  0.14696274  1
  O2-  O394  1  0.07265634  0.93063680  0.50470197  1
  O2-  O395  1  0.08641071  0.91329272  0.81874729  1
  O2-  O396  1  0.32311295  0.15719319  0.14853426  1
  O2-  O397  1  0.33911741  0.17407790  0.48188035  1
  O2-  O398  1  0.34448116  0.18799686  0.85903910  1
  O2-  O399  1  0.31768902  0.39815458  0.13878650  1
  O2-  O400  1  0.33524332  0.42451668  0.47274794  1
  O2-  O401  1  0.29419027  0.44489325  0.77995369  1
  O2-  O402  1  0.34006370  0.65157242  0.13431163  1
  O2-  O403  1  0.37733913  0.74327234  0.49638456  1
  O2-  O404  1  0.32815997  0.66454133  0.80888897  1
  O2-  O405  1  0.32807664  0.91328050  0.15458079  1
  O2-  O406  1  0.33965245  0.91083813  0.50257463  1
  O2-  O407  1  0.31221383  0.90224657  0.83180253  1
  O2-  O408  1  0.57853922  0.16149734  0.14822962  1
  O2-  O409  1  0.58556315  0.16733474  0.48475823  1
  O2-  O410  1  0.57480192  0.16543275  0.80962343  1
  O2-  O411  1  0.56816707  0.40081406  0.14087208  1
  O2-  O412  1  0.59554486  0.42038708  0.48264071  1
  O2-  O413  1  0.62884521  0.43848961  0.80146893  1
  O2-  O414  1  0.58721846  0.67627020  0.13081598  1
  O2-  O415  1  0.58373297  0.66265166  0.46808674  1
  O2-  O416  1  0.57852104  0.66659237  0.80589416  1
  O2-  O417  1  0.58344762  0.91214280  0.14717025  1
  O2-  O418  1  0.60176589  0.90454372  0.51647811  1
  O2-  O419  1  0.57403907  0.90659370  0.80957646  1
  O2-  O420  1  0.82889524  0.17627573  0.15822733  1
  O2-  O421  1  0.86970099  0.19767193  0.47627197  1
  O2-  O422  1  0.82191172  0.14823906  0.81800646  1
  O2-  O423  1  0.83132292  0.41083035  0.15039348  1
  O2-  O424  1  0.83755523  0.42236580  0.47675992  1
  O2-  O425  1  0.83406437  0.40286435  0.81821693  1
  O2-  O426  1  0.82331626  0.65206859  0.14211770  1
  O2-  O427  1  0.84409529  0.67406886  0.49508457  1
  O2-  O428  1  0.82645939  0.67521343  0.81479852  1
  O2-  O429  1  0.82607417  0.91285389  0.14240039  1
  O2-  O430  1  0.78380322  0.89767984  0.47787955  1
  O2-  O431  1  0.83278195  0.91224610  0.80994778  1
  O2-  O432  1  0.16160737  0.07688676  0.19408267  1
  O2-  O433  1  0.18686059  0.10435744  0.53479400  1
  O2-  O434  1  0.17115394  0.08133517  0.85621467  1
  O2-  O435  1  0.15712105  0.31806647  0.13713041  1
  O2-  O436  1  0.24687315  0.39180970  0.49353846  1
  O2-  O437  1  0.16735415  0.33586144  0.85349360  1
  O2-  O438  1  0.18468698  0.53998488  0.18983702  1
  O2-  O439  1  0.18118083  0.60312501  0.51851191  1
  O2-  O440  1  0.16818664  0.58832552  0.86490233  1
  O2-  O441  1  0.15795653  0.82707439  0.18592276  1
  O2-  O442  1  0.15951785  0.83725784  0.52996934  1
  O2-  O443  1  0.15441812  0.81832558  0.86430613  1
  O2-  O444  1  0.41368398  0.08359368  0.18912931  1
  O2-  O445  1  0.42010505  0.08768675  0.52175415  1
  O2-  O446  1  0.41180067  0.07895001  0.85946433  1
  O2-  O447  1  0.40372408  0.32303629  0.18441376  1
  O2-  O448  1  0.42564352  0.34270307  0.51593473  1
  O2-  O449  1  0.45848054  0.38171999  0.82811860  1
  O2-  O450  1  0.38995865  0.54349577  0.18959291  1
  O2-  O451  1  0.42085529  0.61440297  0.51805111  1
  O2-  O452  1  0.40828003  0.57513077  0.83459822  1
  O2-  O453  1  0.42318107  0.84101195  0.20346188  1
  O2-  O454  1  0.43169998  0.82496396  0.52794801  1
  O2-  O455  1  0.40965295  0.82516339  0.85431404  1
  O2-  O456  1  0.65742082  0.07545106  0.19883518  1
  O2-  O457  1  0.66339397  0.07924109  0.53512128  1
  O2-  O458  1  0.65011418  0.07455948  0.84953409  1
  O2-  O459  1  0.66156616  0.32779887  0.18758884  1
  O2-  O460  1  0.67274719  0.33084842  0.52099008  1
  O2-  O461  1  0.66815198  0.32826977  0.85317506  1
  O2-  O462  1  0.64502645  0.57139241  0.16842995  1
  O2-  O463  1  0.67477304  0.58865052  0.52295194  1
  O2-  O464  1  0.65139004  0.57889783  0.85560369  1
  O2-  O465  1  0.66074171  0.82138973  0.16974856  1
  O2-  O466  1  0.62660387  0.87296426  0.46381679  1
  O2-  O467  1  0.66559413  0.83323165  0.84822909  1
  O2-  O468  1  0.90627320  0.07657510  0.19084214  1
  O2-  O469  1  0.95205026  0.13413932  0.52124176  1
  O2-  O470  1  0.92350347  0.08001994  0.84946481  1
  O2-  O471  1  0.91965244  0.33662423  0.19015026  1
  O2-  O472  1  0.93891691  0.35552574  0.50281738  1
  O2-  O473  1  0.90743795  0.31541870  0.85826216  1
  O2-  O474  1  0.91034750  0.58287391  0.18843994  1
  O2-  O475  1  0.92073351  0.58339376  0.52866355  1
  O2-  O476  1  0.93072662  0.56668950  0.86551991  1
  O2-  O477  1  0.93680830  0.88549084  0.20740031  1
  O2-  O478  1  0.90471756  0.84484466  0.53298472  1
  O2-  O479  1  0.91683359  0.83207730  0.85796883  1
  O2-  O480  1  0.15710082  0.06857620  0.31792250  1
  O2-  O481  1  0.17665891  0.08786133  0.65294432  1
  O2-  O482  1  0.16246570  0.07846432  0.97933985  1
  O2-  O483  1  0.15570495  0.32471461  0.31824479  1
  O2-  O484  1  0.15717199  0.29584783  0.62539024  1
  O2-  O485  1  0.17417485  0.34842212  0.97636372  1
  O2-  O486  1  0.17365572  0.62262663  0.29117845  1
  O2-  O487  1  0.18158092  0.61104193  0.63629658  1
  O2-  O488  1  0.16887061  0.60278007  0.98122129  1
  O2-  O489  1  0.13624132  0.80718857  0.30541489  1
  O2-  O490  1  0.16612099  0.83994964  0.65445633  1
  O2-  O491  1  0.16463660  0.83782818  0.98931904  1
  O2-  O492  1  0.42676570  0.10584550  0.31481266  1
  O2-  O493  1  0.41815090  0.08928444  0.64186632  1
  O2-  O494  1  0.42459497  0.09470032  0.98170158  1
  O2-  O495  1  0.32030374  0.28001003  0.29345568  1
  O2-  O496  1  0.41352733  0.33878613  0.64115028  1
  O2-  O497  1  0.41605012  0.32913191  0.94368933  1
  O2-  O498  1  0.39749782  0.55986828  0.31229705  1
  O2-  O499  1  0.41078997  0.58629099  0.63861979  1
  O2-  O500  1  0.42370941  0.58932312  0.98529021  1
  O2-  O501  1  0.48443729  0.93008850  0.30191955  1
  O2-  O502  1  0.41082424  0.81739575  0.63962868  1
  O2-  O503  1  0.41384177  0.82363399  0.97820748  1
  O2-  O504  1  0.67827561  0.09866137  0.32360616  1
  O2-  O505  1  0.65910032  0.07744577  0.65372101  1
  O2-  O506  1  0.63556983  0.07078640  0.97400317  1
  O2-  O507  1  0.67329066  0.33883050  0.31045432  1
  O2-  O508  1  0.68856606  0.34728883  0.63910799  1
  O2-  O509  1  0.66535215  0.32277085  0.97815354  1
  O2-  O510  1  0.66743412  0.58963897  0.29169143  1
  O2-  O511  1  0.66287674  0.57997024  0.64638518  1
  O2-  O512  1  0.65831935  0.56873557  1.00860202  1
  O2-  O513  1  0.67566279  0.82997267  0.31255513  1
  O2-  O514  1  0.65835738  0.83507630  0.65115396  1
  O2-  O515  1  0.66533787  0.83911434  0.97410763  1
  O2-  O516  1  0.90736515  0.07664272  0.31247706  1
  O2-  O517  1  0.90775942  0.07823155  0.64232818  1
  O2-  O518  1  0.92107132  0.05318612  0.97145452  1
  O2-  O519  1  0.92163221  0.33801912  0.31623410  1
  O2-  O520  1  0.93093681  0.32520174  0.68950417  1
  O2-  O521  1  0.92650290  0.34211764  0.98108955  1
  O2-  O522  1  0.89835104  0.57702043  0.30956513  1
  O2-  O523  1  0.91916292  0.58563628  0.65252018  1
  O2-  O524  1  0.90824167  0.56624913  0.98662605  1
  O2-  O525  1  0.90177310  0.82255866  0.32410510  1
  O2-  O526  1  0.91806243  0.83660781  0.65314465  1
  O2-  O527  1  0.90664020  0.81374233  0.97903081  1
  O2-  O528  1  0.07062582  0.14827896  0.02437636  1
  O2-  O529  1  0.07384944  0.14935798  0.35515511  1
  O2-  O530  1  0.04167281  0.18453063  0.70510525  1
  O2-  O531  1  0.09189577  0.43549939  0.01965813  1
  O2-  O532  1  0.05529870  0.35950988  0.39107949  1
  O2-  O533  1  0.08870511  0.39257634  0.64649734  1
  O2-  O534  1  0.07468311  0.66593351  0.00123117  1
  O2-  O535  1  0.06081371  0.64833310  0.35207686  1
  O2-  O536  1  0.09896330  0.68100973  0.68722555  1
  O2-  O537  1  0.07408256  0.91327302  0.02053522  1
  O2-  O538  1  0.06147901  0.89640954  0.34979201  1
  O2-  O539  1  0.08545365  0.91860477  0.69742122  1
  O2-  O540  1  0.32226638  0.16174880  0.02577732  1
  O2-  O541  1  0.32285001  0.15515969  0.36106334  1
  O2-  O542  1  0.34183442  0.17394020  0.69780516  1
  O2-  O543  1  0.34178433  0.41295786  0.01563282  1
  O2-  O544  1  0.31494218  0.40069354  0.35264013  1
  O2-  O545  1  0.31676898  0.40847603  0.66331972  1
  O2-  O546  1  0.32952141  0.66333439  0.01816151  1
  O2-  O547  1  0.28706125  0.59377001  0.36488115  1
  O2-  O548  1  0.32561669  0.66090237  0.68013371  1
  O2-  O549  1  0.33161411  0.89306944  0.02712432  1
  O2-  O550  1  0.27559124  0.84054087  0.38422426  1
  O2-  O551  1  0.34092524  0.92676451  0.67168438  1
  O2-  O552  1  0.57641052  0.16175652  0.02223175  1
  O2-  O553  1  0.59323827  0.18027188  0.35939246  1
  O2-  O554  1  0.58534031  0.17431029  0.68781489  1
  O2-  O555  1  0.56754398  0.39302541  0.01489594  1
  O2-  O556  1  0.62708611  0.44527867  0.35635413  1
  O2-  O557  1  0.57419141  0.40906325  0.69242754  1
  O2-  O558  1  0.58166109  0.67523358  0.01227799  1
  O2-  O559  1  0.56827183  0.65922398  0.34921804  1
  O2-  O560  1  0.57685680  0.65922820  0.68214780  1
  O2-  O561  1  0.57962684  0.91309919  0.02517704  1
  O2-  O562  1  0.61462512  0.93323398  0.35493936  1
  O2-  O563  1  0.56957685  0.90531098  0.68841195  1
  O2-  O564  1  0.94702311  0.22916181  0.05253155  1
  O2-  O565  1  0.84526018  0.17646757  0.35856049  1
  O2-  O566  1  0.81764341  0.14755425  0.69421599  1
  O2-  O567  1  0.82526482  0.40124677  0.02799729  1
  O2-  O568  1  0.83556362  0.41805758  0.35376890  1
  O2-  O569  1  0.84623207  0.41548691  0.69462836  1
  O2-  O570  1  0.82432773  0.64824059  0.01653921  1
  O2-  O571  1  0.82646041  0.66835686  0.36561334  1
  O2-  O572  1  0.83167227  0.66596180  0.68973384  1
  O2-  O573  1  0.82664755  0.89423383  0.02124203  1
  O2-  O574  1  0.82920828  0.91938192  0.35728926  1
  O2-  O575  1  0.83232925  0.91752104  0.68476798  1
