# generated using pymatgen
data_H2O
_symmetry_space_group_name_H-M   'P 1'
_cell_length_a   17.97928468
_cell_length_b   17.98563140
_cell_length_c   21.99562378
_cell_angle_alpha   89.97257096
_cell_angle_beta   90.02982904
_cell_angle_gamma   119.99391563
_symmetry_Int_Tables_number   1
_chemical_formula_structural   H2O
_chemical_formula_sum   'H384 O192'
_cell_volume   6160.15390753
_cell_formula_units_Z   192
loop_
 _symmetry_equiv_pos_site_id
 _symmetry_equiv_pos_as_xyz
  1  'x, y, z'
loop_
 _atom_type_symbol
 _atom_type_oxidation_number
  H+  1.0
  O2-  -2.0
loop_
 _atom_site_type_symbol
 _atom_site_label
 _atom_site_symmetry_multiplicity
 _atom_site_fract_x
 _atom_site_fract_y
 _atom_site_fract_z
 _atom_site_occupancy
  H+  H0  1  0.38945179  0.27048763  0.17495378  1
  H+  H1  1  0.98564260  0.37638828  1.00538575  1
  H+  H2  1  0.85748645  0.23876919  0.34262477  1
  H+  H3  1  0.22443077  0.37946679  0.32010717  1
  H+  H4  1  0.92202862  0.62902074  0.83617882  1
  H+  H5  1  0.84557619  0.97344053  0.34843594  1
  H+  H6  1  0.76430173  0.13181307  0.49340104  1
  H+  H7  1  0.51618486  0.89209829  0.16631189  1
  H+  H8  1  0.77158565  0.15378352  1.03414827  1
  H+  H9  1  0.87866260  0.11398770  0.33703976  1
  H+  H10  1  0.13716742  0.85627805  0.50263427  1
  H+  H11  1  0.88006305  0.35457876  0.66400344  1
  H+  H12  1  1.02361947  0.38885893  0.67410349  1
  H+  H13  1  0.39168619  0.03487587  0.17845162  1
  H+  H14  1  0.12693815  -0.02343226  0.49335442  1
  H+  H15  1  0.14447971  0.35695109  0.50285012  1
  H+  H16  1  0.59632026  0.63931682  0.82680007  1
  H+  H17  1  0.61888059  0.26869734  0.65406312  1
  H+  H18  1  0.60677319  0.61727045  0.17234536  1
  H+  H19  1  0.48803108  0.36550291  0.17583035  1
  H+  H20  1  0.67080058  0.09814984  0.96596047  1
  H+  H21  1  0.25262282  0.39325791  0.66104906  1
  H+  H22  1  0.41541574  0.81325097  0.59409384  1
  H+  H23  1  0.87283014  0.85844584  0.17984880  1
  H+  H24  1  0.39603465  0.27911621  0.32555791  1
  H+  H25  1  0.14318349  0.37926089  0.65500933  1
  H+  H26  1  0.51831094  0.14016289  0.33061815  1
  H+  H27  1  0.63336728  0.61163655  0.66574173  1
  H+  H28  1  0.98971742  0.86127094  0.99982692  1
  H+  H29  1  0.11690983  0.88800100  0.81890255  1
  H+  H30  1  0.07490514  0.81052490  0.96339821  1
  H+  H31  1  1.01717921  0.12332985  0.67288715  1
  H+  H32  1  1.01406922  0.62609888  0.82994810  1
  H+  H33  1  0.89557799  0.94308676  0.02927388  1
  H+  H34  1  0.28637507  0.14573815  0.34564414  1
  H+  H35  1  0.88029402  0.70516045  0.99102639  1
  H+  H36  1  0.87935377  0.12341636  0.83614600  1
  H+  H37  1  0.89048565  0.11858118  0.18437899  1
  H+  H38  1  0.36605371  1.03295861  0.01878684  1
  H+  H39  1  0.24815389  0.39139888  0.16165332  1
  H+  H40  1  0.13450337  0.02166397  0.65800483  1
  H+  H41  1  0.86127369  0.22248210  0.66039485  1
  H+  H42  1  0.66061852  0.08415366  0.26316449  1
  H+  H43  1  0.09743260  0.44925077  0.07342838  1
  H+  H44  1  0.30701712  0.65842875  0.76164496  1
  H+  H45  1  0.61474530  -0.03212795  0.66477855  1
  H+  H46  1  0.72069402  0.84745203  0.18131260  1
  H+  H47  1  0.75894705  0.38760432  0.49771502  1
  H+  H48  1  0.21624648  0.11280612  0.83880494  1
  H+  H49  1  0.90953955  0.77487191  0.33069722  1
  H+  H50  1  0.35432722  0.37429427  0.01055152  1
  H+  H51  1  0.74560133  0.15581910  0.47734252  1
  H+  H52  1  0.13745378  0.43573501  0.01370424  1
  H+  H53  1  0.35191798  0.85043092  0.48010220  1
  H+  H54  1  0.78701213  0.62220873  -0.01248338  1
  H+  H55  1  0.17363265  0.36104024  0.25811688  1
  H+  H56  1  0.87025784  0.51393967  0.17596836  1
  H+  H57  1  0.13770805  0.86709037  0.65292027  1
  H+  H58  1  0.35949453  0.06979009  0.52354205  1
  H+  H59  1  0.09998731  0.71666251  0.99855769  1
  H+  H60  1  0.61983962  0.42041100  0.33137361  1
  H+  H61  1  0.51212460  0.38263112  0.81940851  1
  H+  H62  1  0.09067045  0.16170711  0.44354190  1
  H+  H63  1  0.77136907  0.13183005  0.65583954  1
  H+  H64  1  0.39299371  0.25634407  0.48956946  1
  H+  H65  1  0.02208775  0.88766689  0.66570835  1
  H+  H66  1  0.82553086  0.44404994  0.69860651  1
  H+  H67  1  0.35837550  0.49070376  0.66521007  1
  H+  H68  1  0.38282694  0.85236172  0.33062822  1
  H+  H69  1  0.72084136  0.35647524  0.99910158  1
  H+  H70  1  0.33343525  0.90482564  0.39308031  1
  H+  H71  1  0.42568704  0.35308306  0.65204799  1
  H+  H72  1  0.63638526  0.10679663  0.66305845  1
  H+  H73  1  0.69370719  0.60437876  0.80970792  1
  H+  H74  1  0.03598342  0.88854861  0.34097655  1
  H+  H75  1  0.88573203  0.62027958  0.49606472  1
  H+  H76  1  0.71200442  0.35373148  0.84840178  1
  H+  H77  1  0.60278463  0.10833598  0.80887487  1
  H+  H78  1  0.53740949  0.15222844  0.16922399  1
  H+  H79  1  0.52415770  0.62370649  0.15506294  1
  H+  H80  1  0.25209233  0.88938041  1.02614216  1
  H+  H81  1  1.05814010  0.42068106  0.83328590  1
  H+  H82  1  0.60336925  0.38720100  0.83153766  1
  H+  H83  1  0.12824767  0.31980985  0.99542319  1
  H+  H84  1  0.10799615  0.47745720  0.34661483  1
  H+  H85  1  0.89505277  0.59656956  0.97291217  1
  H+  H86  1  0.97186796  0.12595427  1.00018303  1
  H+  H87  1  0.02740044  0.32095714  0.46942614  1
  H+  H88  1  0.81156935  0.64079856  0.84696351  1
  H+  H89  1  0.11019148  0.12806508  0.35378691  1
  H+  H90  1  0.19682362  0.60944738  0.92680627  1
  H+  H91  1  0.63577113  0.01577770  0.17371455  1
  H+  H92  1  0.72581617  0.84822577  0.50433171  1
  H+  H93  1  0.22110856  0.61859019  0.65751668  1
  H+  H94  1  0.83019434  0.18950994  0.09126203  1
  H+  H95  1  0.99285734  0.63787676  0.65173061  1
  H+  H96  1  0.82865642  0.62012346  0.18029886  1
  H+  H97  1  1.02218485  0.62799991  0.49044353  1
  H+  H98  1  0.38235633  0.74090979  0.50930405  1
  H+  H99  1  0.65831638  0.62592424  0.98768180  1
  H+  H100  1  0.37016235  0.15326705  1.01731159  1
  H+  H101  1  0.51373957  0.13430518  0.67285998  1
  H+  H102  1  0.73945360  0.87359810  -0.00702705  1
  H+  H103  1  0.14223669  0.65308432  0.80605387  1
  H+  H104  1  0.68619088  0.10652320  0.78821905  1
  H+  H105  1  0.11559461  0.64709401  0.66240680  1
  H+  H106  1  -0.00257973  0.10821649  0.51553154  1
  H+  H107  1  0.63362322  0.54779322  0.25452524  1
  H+  H108  1  0.03227393  0.39549424  0.16167722  1
  H+  H109  1  0.11498172  0.77654568  0.16906473  1
  H+  H110  1  0.58488372  0.24232889  0.83071022  1
  H+  H111  1  0.65848730  0.97539166  0.54131049  1
  H+  H112  1  0.47855344  0.37656072  0.32135580  1
  H+  H113  1  0.50016376  0.63294229  0.49275645  1
  H+  H114  1  0.36270149  0.88998508  0.83717614  1
  H+  H115  1  0.85364530  0.37288371  0.83913541  1
  H+  H116  1  0.85680714  0.46904104  0.34259421  1
  H+  H117  1  0.63355662  0.75805834  0.50368100  1
  H+  H118  1  0.94272016  0.61217400  0.17186765  1
  H+  H119  1  0.22643163  0.33993877  1.00077369  1
  H+  H120  1  0.34833840  0.63510499  0.67288564  1
  H+  H121  1  0.38491171  0.77106579  0.17551730  1
  H+  H122  1  0.27994869  0.39391011  0.48873720  1
  H+  H123  1  0.48611992  0.38625481  0.50277215  1
  H+  H124  1  0.36447913  0.14422364  0.16470619  1
  H+  H125  1  0.46646916  0.11064813  0.01523941  1
  H+  H126  1  0.46633357  0.61671553  0.65050177  1
  H+  H127  1  0.35874055  0.49049864  0.48633641  1
  H+  H128  1  1.01923040  0.12414990  0.35627619  1
  H+  H129  1  0.46049685  0.11773225  0.52304254  1
  H+  H130  1  0.16644974  0.61453686  0.19152613  1
  H+  H131  1  0.13572525  0.27099790  0.83481110  1
  H+  H132  1  0.88907793  0.13750293  0.01020537  1
  H+  H133  1  0.45580045  0.11777438  0.85652689  1
  H+  H134  1  0.34734014  0.64672183  0.40864245  1
  H+  H135  1  0.37615816  0.64345098  0.15101145  1
  H+  H136  1  0.17135946  0.32481595  0.89582544  1
  H+  H137  1  0.13468103  0.14019012  0.49954969  1
  H+  H138  1  0.15911025  0.55232141  0.98711946  1
  H+  H139  1  0.71083167  0.85766590  0.83669483  1
  H+  H140  1  0.23290503  0.60950430  0.34489169  1
  H+  H141  1  0.21030394  0.85685773  0.17969779  1
  H+  H142  1  0.60606752  0.49978385  1.01001047  1
  H+  H143  1  -0.01573589  0.59598540  -0.01773417  1
  H+  H144  1  0.35904722  0.97802028  0.84462865  1
  H+  H145  1  0.16428482  0.57106202  0.56500155  1
  H+  H146  1  0.86763798  0.88889829  0.66586000  1
  H+  H147  1  0.61624302  0.24205855  0.32742847  1
  H+  H148  1  0.27037271  0.86339173  0.48260424  1
  H+  H149  1  0.81847588  0.21060342  0.80338943  1
  H+  H150  1  0.27126927  0.38436964  0.81912412  1
  H+  H151  1  0.15117151  0.27186431  0.51028270  1
  H+  H152  1  0.46470861  0.82845626  0.49421729  1
  H+  H153  1  0.47631212  0.84614955  0.65258613  1
  H+  H154  1  0.07739495  0.93189701  0.11290785  1
  H+  H155  1  0.83161336  0.70976729  0.17973742  1
  H+  H156  1  0.28807959  0.59505553  0.50662428  1
  H+  H157  1  0.87069648  0.63661058  0.34171044  1
  H+  H158  1  0.35874923  0.47402135  0.82114707  1
  H+  H159  1  0.59799402  0.21768313  0.01659169  1
  H+  H160  1  0.97797065  0.11758848  0.18102714  1
  H+  H161  1  0.38163317  0.36184877  0.82919605  1
  H+  H162  1  0.40426912  0.08351922  0.91981405  1
  H+  H163  1  0.39984275  0.26771349  0.68477623  1
  H+  H164  1  0.63138305  0.73249522  1.01010350  1
  H+  H165  1  0.91165987  0.54654574  0.64250063  1
  H+  H166  1  0.61859514  0.51564779  0.83191592  1
  H+  H167  1  0.63504979  0.35993823  0.00590263  1
  H+  H168  1  0.13228681  0.52920350  0.65967468  1
  H+  H169  1  0.88773750  0.73517730  0.83411739  1
  H+  H170  1  0.63679242  0.39181045  0.67380958  1
  H+  H171  1  0.39567237  0.38084691  0.49938136  1
  H+  H172  1  0.62282776  0.50051795  0.49111504  1
  H+  H173  1  0.12600383  0.89046658  0.34474936  1
  H+  H174  1  0.71343753  0.11516307  0.32479819  1
  H+  H175  1  0.38419794  0.76304987  0.33714985  1
  H+  H176  1  0.59082586  0.60056284  0.34666180  1
  H+  H177  1  0.14504571  0.77797982  0.82735792  1
  H+  H178  1  0.92185999  0.12638043  0.51053016  1
  H+  H179  1  0.11814269  0.20428733  0.00384946  1
  H+  H180  1  0.12142408  0.74145561  0.66343732  1
  H+  H181  1  0.51198304  0.61702524  0.33572817  1
  H+  H182  1  0.11420610  0.12120519  0.67341657  1
  H+  H183  1  0.10175046  0.13036046  0.82778096  1
  H+  H184  1  0.62735852  0.62050685  0.50904128  1
  H+  H185  1  0.23049377  0.86829337  0.84050359  1
  H+  H186  1  0.12295696  0.64319909  0.00777059  1
  H+  H187  1  0.09258227  0.10616241  1.00936653  1
  H+  H188  1  0.35311150  0.22428825  0.83080255  1
  H+  H189  1  0.85839852  0.37984673  0.00775307  1
  H+  H190  1  0.89346468  0.86892420  0.50460054  1
  H+  H191  1  0.13394948  0.40066894  0.82669168  1
  H+  H192  1  0.77529356  0.64941705  0.49286897  1
  H+  H193  1  0.13427620  0.03392479  0.18462891  1
  H+  H194  1  0.58858173  0.96944059  0.80335357  1
  H+  H195  1  0.90606521  0.25299890  0.49220080  1
  H+  H196  1  0.62848050  0.11545895  1.02309113  1
  H+  H197  1  0.85809474  0.46596233  -0.00111445  1
  H+  H198  1  0.54947450  0.18667268  0.44909220  1
  H+  H199  1  0.67287835  -0.00309047  0.51107647  1
  H+  H200  1  0.34639839  0.13232456  0.84250055  1
  H+  H201  1  0.35351829  0.12570269  0.68219060  1
  H+  H202  1  0.91335328  0.11083257  0.90017651  1
  H+  H203  1  -0.03804136  0.86098174  0.17623410  1
  H+  H204  1  0.61281073  0.14059755  0.32732511  1
  H+  H205  1  0.64117011  0.27893731  0.17673471  1
  H+  H206  1  0.15007292  1.02669244  0.33702014  1
  H+  H207  1  0.13730621  0.76810255  0.32927330  1
  H+  H208  1  0.60541920  0.47472709  0.17698270  1
  H+  H209  1  0.39080661  0.28245465  0.98941570  1
  H+  H210  1  0.13042798  0.02025289  0.83387215  1
  H+  H211  1  0.61174531  0.72248983  0.66763872  1
  H+  H212  1  0.31039905  0.81627748  0.99496482  1
  H+  H213  1  0.57226216  0.66650542  0.72776326  1
  H+  H214  1  0.88231872  0.36314812  0.32851911  1
  H+  H215  1  0.23383632  0.03622946  0.95436105  1
  H+  H216  1  0.30101061  0.63784959  0.99386794  1
  H+  H217  1  0.37866780  0.51447571  0.31810015  1
  H+  H218  1  0.76291291  0.87888758  0.34713689  1
  H+  H219  1  0.25601390  0.12416405  0.50937298  1
  H+  H220  1  0.74869885  0.35972763  0.67192725  1
  H+  H221  1  0.84812123  0.97506184  0.17448080  1
  H+  H222  1  0.32119223  0.92092325  0.22780942  1
  H+  H223  1  0.36584610  0.62771746  0.34123385  1
  H+  H224  1  0.59810648  0.72957008  0.82887979  1
  H+  H225  1  0.11454839  0.14493492  0.17036431  1
  H+  H226  1  0.76590277  0.79528988  0.78383487  1
  H+  H227  1  0.77609277  0.38239181  0.16325848  1
  H+  H228  1  0.97749138  0.60249277  0.32902241  1
  H+  H229  1  0.02784500  0.88799504  0.82093422  1
  H+  H230  1  0.16366850  0.29600632  0.16285029  1
  H+  H231  1  0.10267698  0.89625631  0.17043247  1
  H+  H232  1  0.06499526  0.63545791  0.15814542  1
  H+  H233  1  0.38263290  1.02552481  0.67615296  1
  H+  H234  1  0.58144147  0.13603666  0.52131489  1
  H+  H235  1  0.49529997  0.61002133  -0.00788401  1
  H+  H236  1  0.32362842  0.84881876  -0.03019733  1
  H+  H237  1  0.28891311  0.63495101  0.17025205  1
  H+  H238  1  0.11850655  0.63597871  0.34413178  1
  H+  H239  1  0.88924497  0.82718459  1.00049823  1
  H+  H240  1  0.47235792  0.37717988  0.98870425  1
  H+  H241  1  0.40542833  0.72553687  -0.01510995  1
  H+  H242  1  0.22440110  0.11090962  0.66715344  1
  H+  H243  1  0.38637770  0.62093115  0.99696892  1
  H+  H244  1  0.22530552  0.12123340  0.18213750  1
  H+  H245  1  0.81867042  0.88704931  0.75655986  1
  H+  H246  1  0.64323909  0.15908722  0.15730621  1
  H+  H247  1  0.38956556  1.02386885  0.33037369  1
  H+  H248  1  0.37501621  0.77029953  0.83430431  1
  H+  H249  1  0.13284961  0.50532096  0.50961656  1
  H+  H250  1  0.50328167  0.84718505  0.98450764  1
  H+  H251  1  0.86662033  0.97737388  0.67299892  1
  H+  H252  1  0.63633934  0.38126662  0.50886542  1
  H+  H253  1  0.35809152  0.72808557  0.67001277  1
  H+  H254  1  0.64375361  0.36954370  0.17792640  1
  H+  H255  1  0.72002888  0.35904713  0.33064966  1
  H+  H256  1  0.67222806  0.84010540  0.93727494  1
  H+  H257  1  0.62658687  0.86685414  0.83870435  1
  H+  H258  1  0.88785482  0.77774819  0.65575160  1
  H+  H259  1  0.35751899  0.38634341  0.33568324  1
  H+  H260  1  0.89926625  0.36584355  0.17046154  1
  H+  H261  1  0.86298220  1.00658044  0.01557270  1
  H+  H262  1  0.37042133  0.60223231  0.84184868  1
  H+  H263  1  0.86318462  0.97213023  0.49869630  1
  H+  H264  1  0.59904248  0.84916415  0.47982210  1
  H+  H265  1  0.60845496  0.96256617  0.32814229  1
  H+  H266  1  0.51901329  0.87392751  0.32846105  1
  H+  H267  1  0.63424913  0.74467717  0.17772596  1
  H+  H268  1  0.86849432  0.64444518  0.67182619  1
  H+  H269  1  0.33252200  0.42228067  0.39468653  1
  H+  H270  1  0.72991509  0.85752911  0.65413980  1
  H+  H271  1  0.87625826  0.37221301  0.50831271  1
  H+  H272  1  0.08107391  0.16279525  0.10819798  1
  H+  H273  1  0.46367323  0.61304815  0.83618563  1
  H+  H274  1  0.27329119  0.89598120  0.67975910  1
  H+  H275  1  0.93564313  0.30090548  0.85335342  1
  H+  H276  1  0.70405925  0.59570699  0.19784216  1
  H+  H277  1  1.01731858  0.14147162  0.82560694  1
  H+  H278  1  0.60390003  0.66748716  0.06693978  1
  H+  H279  1  0.61740361  0.97888587  0.01964227  1
  H+  H280  1  0.12215244  0.97726184  0.00849779  1
  H+  H281  1  0.52757786  0.48362346  0.04980144  1
  H+  H282  1  0.46816019  0.85503914  0.82811781  1
  H+  H283  1  0.27595825  0.88470630  0.33361594  1
  H+  H284  1  0.62800374  0.89531907  0.01478825  1
  H+  H285  1  0.08353028  0.66410320  0.40046748  1
  H+  H286  1  0.80699940  0.37278615  0.77788987  1
  H+  H287  1  0.13044834  0.90250996  0.03504285  1
  H+  H288  1  0.62327081  0.83589627  0.32150246  1
  H+  H289  1  0.57619420  0.17200058  0.08272980  1
  H+  H290  1  0.91206340  0.08516358  0.28014831  1
  H+  H291  1  0.59324212  0.44467921  0.43034884  1
  H+  H292  1  0.13426189  0.76520925  0.50555580  1
  H+  H293  1  0.71182912  0.10756743  0.89084505  1
  H+  H294  1  0.60846941  0.28011127  0.50887705  1
  H+  H295  1  0.15543030  0.82542533  0.26927014  1
  H+  H296  1  0.92718900  0.33511182  0.22866940  1
  H+  H297  1  0.35791530  0.18487198  0.39962581  1
  H+  H298  1  0.40115239  0.58986481  0.59254825  1
  H+  H299  1  0.09653542  0.67675943  0.75164794  1
  H+  H300  1  0.97015115  0.38171643  0.50811455  1
  H+  H301  1  0.58437891  0.16462732  0.72505785  1
  H+  H302  1  0.64624187  0.08422209  0.59742152  1
  H+  H303  1  0.79221018  0.17938837  0.39602691  1
  H+  H304  1  0.14823861  0.51898332  0.18370847  1
  H+  H305  1  0.19211307  0.09137970  0.56643733  1
  H+  H306  1  0.84946680  0.47744128  0.49369043  1
  H+  H307  1  0.18941710  0.55280526  0.82207293  1
  H+  H308  1  0.57373807  0.90045215  0.75562941  1
  H+  H309  1  0.60364985  0.42433479  0.73957085  1
  H+  H310  1  0.84045711  0.67188042  0.39653519  1
  H+  H311  1  0.41124294  0.82304062  0.23848810  1
  H+  H312  1  0.94607509  0.58386577  0.89646985  1
  H+  H313  1  0.92866173  0.08364432  0.60167177  1
  H+  H314  1  0.31743494  0.15102421  0.74126619  1
  H+  H315  1  0.90578803  0.20416150  0.43173331  1
  H+  H316  1  0.17531778  0.06648439  0.92255610  1
  H+  H317  1  0.07880219  0.40007451  0.42592386  1
  H+  H318  1  0.11065437  0.62466489  0.49256254  1
  H+  H319  1  0.83131179  0.41342630  0.10202792  1
  H+  H320  1  0.89317672  0.11411191  0.65805904  1
  H+  H321  1  0.62398651  0.74505852  0.32862526  1
  H+  H322  1  0.81976381  0.92593894  0.11167213  1
  H+  H323  1  0.84372734  0.67136444  0.73434240  1
  H+  H324  1  0.14721648  0.81701779  0.92054599  1
  H+  H325  1  0.82875880  0.91486023  0.43775051  1
  H+  H326  1  0.89755335  0.28457934  1.00987089  1
  H+  H327  1  0.32467466  0.92347048  0.74299720  1
  H+  H328  1  0.81835571  0.15652015  0.74682101  1
  H+  H329  1  0.06114490  0.66852221  0.09277043  1
  H+  H330  1  0.65883725  0.80266391  0.24673010  1
  H+  H331  1  0.92637562  0.83978890  0.89759009  1
  H+  H332  1  0.11043688  0.39123662  0.33299405  1
  H+  H333  1  0.32836637  0.42606497  0.72552339  1
  H+  H334  1  0.88309701  0.85155700  0.83563053  1
  H+  H335  1  0.08276592  0.91618235  0.72511621  1
  H+  H336  1  0.41850601  0.09303769  0.23679996  1
  H+  H337  1  0.33741328  0.43325222  0.05703498  1
  H+  H338  1  0.09171088  0.91876237  0.43346517  1
  H+  H339  1  0.43429668  0.19768370  0.47945269  1
  H+  H340  1  0.28062441  0.92762778  0.09119094  1
  H+  H341  1  0.40775893  0.57112971  0.25738290  1
  H+  H342  1  0.66686519  0.33580319  0.26708013  1
  H+  H343  1  0.44349756  0.81663182  0.92145037  1
  H+  H344  1  0.38990672  0.11542279  0.33207304  1
  H+  H345  1  0.57183039  0.87786901  0.41804045  1
  H+  H346  1  0.43091262  0.57263653  0.93501491  1
  H+  H347  1  0.17701765  0.34682809  0.59564779  1
  H+  H348  1  0.51139906  0.20242859  0.78113176  1
  H+  H349  1  0.67050133  0.58598897  0.92597782  1
  H+  H350  1  -0.01561927  0.86990338  0.50442216  1
  H+  H351  1  0.57909444  0.42580113  0.11164898  1
  H+  H352  1  0.66467370  0.59497193  0.56683569  1
  H+  H353  1  0.40954675  0.08143579  0.61434115  1
  H+  H354  1  0.93902965  0.35115053  0.91215986  1
  H+  H355  1  0.42070533  0.33372061  0.23868291  1
  H+  H356  1  0.65166757  0.33184578  0.90731872  1
  H+  H357  1  0.17427866  0.09062256  0.28050390  1
  H+  H358  1  0.09005335  0.42340696  0.73073984  1
  H+  H359  1  0.66872894  0.82186292  0.59479558  1
  H+  H360  1  0.33403858  0.17797435  0.10659144  1
  H+  H361  1  0.28239708  0.15112008  0.00934404  1
  H+  H362  1  0.56117028  0.64976923  0.43435490  1
  H+  H363  1  0.97245745  0.36353766  0.32954187  1
  H+  H364  1  0.65251179  0.33497793  0.59434975  1
  H+  H365  1  0.91625765  0.34044708  0.60171239  1
  H+  H366  1  0.93064913  0.83542080  0.27324657  1
  H+  H367  1  0.17215426  0.83690616  0.59549933  1
  H+  H368  1  0.17988914  0.58090583  0.28308030  1
  H+  H369  1  0.64202963  0.49388692  0.67868121  1
  H+  H370  1  0.12505468  0.39948020  0.15475314  1
  H+  H371  1  0.91133811  0.57217237  0.27238002  1
  H+  H372  1  0.82178797  0.41009733  0.40218551  1
  H+  H373  1  0.41314809  0.33748073  0.89089601  1
  H+  H374  1  0.92004579  0.59793241  0.55548144  1
  H+  H375  1  0.68891591  0.05899173  0.89099874  1
  H+  H376  1  0.61906000  0.88046547  0.66445458  1
  H+  H377  1  0.57617790  0.91560816  0.10753872  1
  H+  H378  1  0.86741894  0.73508653  0.49243890  1
  H+  H379  1  0.91949509  0.83601054  0.59453205  1
  H+  H380  1  0.54887679  0.03747793  0.52530394  1
  H+  H381  1  0.72785055  0.62054414  0.66424011  1
  H+  H382  1  0.35614959  0.87780872  0.18316502  1
  H+  H383  1  0.07784222  0.15233870  0.73752777  1
  O2-  O384  1  0.08361006  0.17346012  0.15243271  1
  O2-  O385  1  0.09898626  0.16672315  0.48989667  1
  O2-  O386  1  0.07690508  0.16357832  0.80835549  1
  O2-  O387  1  0.09382379  0.43148764  0.14544744  1
  O2-  O388  1  0.07144937  0.38325273  0.47084789  1
  O2-  O389  1  0.11377659  0.44057805  0.81253850  1
  O2-  O390  1  0.05179173  0.67508343  0.13710952  1
  O2-  O391  1  0.08408851  0.65851128  0.47836914  1
  O2-  O392  1  0.10154139  0.67410125  0.79782243  1
  O2-  O393  1  0.07418557  0.92943980  0.15788785  1
  O2-  O394  1  0.09014074  0.91655145  0.47961306  1
  O2-  O395  1  0.08722374  0.91941855  0.80434004  1
  O2-  O396  1  0.33444612  0.17633012  0.15214156  1
  O2-  O397  1  0.37899094  0.19726824  0.47382331  1
  O2-  O398  1  0.31862629  0.16131457  0.82130863  1
  O2-  O399  1  0.36316906  0.48386240  0.14160872  1
  O2-  O400  1  0.33767071  0.43021393  0.47023876  1
  O2-  O401  1  0.33062917  0.41580468  0.80182067  1
  O2-  O402  1  0.34329912  0.67379419  0.14915403  1
  O2-  O403  1  0.34793269  0.62895096  0.49141730  1
  O2-  O404  1  0.30691962  0.65417390  0.80884717  1
  O2-  O405  1  0.32401128  0.91208496  0.18414562  1
  O2-  O406  1  0.32502830  0.88143777  0.46101816  1
  O2-  O407  1  0.33013843  0.91965483  0.82604605  1
  O2-  O408  1  0.59367468  0.18700283  0.14963169  1
  O2-  O409  1  0.53954172  0.19634487  0.49106788  1
  O2-  O410  1  0.54188302  0.18655615  0.81042084  1
  O2-  O411  1  0.57821856  0.41465768  0.15572731  1
  O2-  O412  1  0.59422826  0.44035472  0.47513754  1
  O2-  O413  1  0.57562911  0.41597848  0.80945584  1
  O2-  O414  1  0.58767911  0.65380939  0.14915909  1
  O2-  O415  1  0.56157819  0.65552266  0.47952080  1
  O2-  O416  1  0.56794773  0.67044567  0.81087773  1
  O2-  O417  1  0.57673430  0.92389378  0.15213224  1
  O2-  O418  1  0.55449918  0.85797381  0.46017703  1
  O2-  O419  1  0.56961264  0.90698708  0.80096329  1
  O2-  O420  1  0.70267027  0.14444522  0.15692330  1
  O2-  O421  1  0.93168142  0.22102568  0.47249927  1
  O2-  O422  1  0.80565021  0.15305773  0.79201717  1
  O2-  O423  1  0.83628500  0.41435484  0.14699394  1
  O2-  O424  1  0.81983166  0.41545414  0.48196323  1
  O2-  O425  1  0.80937068  0.38391811  0.82195339  1
  O2-  O426  1  0.79502242  0.64830769  0.16939769  1
  O2-  O427  1  0.83542091  0.67398828  0.47840196  1
  O2-  O428  1  0.86202337  0.67257857  0.82109937  1
  O2-  O429  1  0.81620158  0.91653332  0.15632989  1
  O2-  O430  1  0.83315227  0.91202712  0.48398540  1
  O2-  O431  1  0.80111476  0.85493000  0.79676727  1
  O2-  O432  1  0.16633845  0.09481595  0.19909534  1
  O2-  O433  1  0.19507424  0.09044527  0.52133687  1
  O2-  O434  1  0.15482625  0.07826525  0.85361057  1
  O2-  O435  1  0.18703916  0.35715792  0.17356649  1
  O2-  O436  1  0.17878094  0.33405774  0.52286147  1
  O2-  O437  1  0.16894881  0.33081343  0.85105731  1
  O2-  O438  1  0.18605825  0.57584973  0.20524420  1
  O2-  O439  1  0.16815196  0.56636386  0.51977284  1
  O2-  O440  1  0.21635236  0.61633951  0.82964544  1
  O2-  O441  1  0.14836183  0.83411414  0.18845461  1
  O2-  O442  1  0.16648728  0.82600244  0.51967199  1
  O2-  O443  1  0.16582502  0.83415749  0.84816926  1
  O2-  O444  1  0.41833621  0.09544622  0.19130774  1
  O2-  O445  1  0.40742609  0.06898037  0.54334953  1
  O2-  O446  1  0.39774144  0.08083093  0.87458771  1
  O2-  O447  1  0.42393098  0.33239754  0.19122992  1
  O2-  O448  1  0.42534749  0.35121360  0.51596243  1
  O2-  O449  1  0.41192590  0.33203016  0.84557184  1
  O2-  O450  1  0.40850754  0.55969117  0.16805562  1
  O2-  O451  1  0.39448100  0.58636132  0.51773275  1
  O2-  O452  1  0.40503095  0.57584382  0.85384768  1
  O2-  O453  1  0.40907647  0.83068554  0.19356962  1
  O2-  O454  1  0.40697981  0.80335071  0.51512854  1
  O2-  O455  1  0.41186170  0.82887578  0.85073538  1
  O2-  O456  1  0.67926615  0.07112999  0.19665277  1
  O2-  O457  1  0.59940573  0.09313252  0.53318489  1
  O2-  O458  1  0.62300234  0.07747420  0.78348988  1
  O2-  O459  1  0.67459201  0.34060339  0.19372528  1
  O2-  O460  1  0.65677040  0.34248762  0.52465660  1
  O2-  O461  1  0.65148266  0.33475703  0.86199298  1
  O2-  O462  1  0.63990210  0.55924440  0.20818335  1
  O2-  O463  1  0.66731409  0.59970616  0.52202235  1
  O2-  O464  1  0.65218903  0.57918145  0.84267826  1
  O2-  O465  1  0.66162543  0.80472686  0.19761900  1
  O2-  O466  1  0.66569848  0.81771937  0.52032531  1
  O2-  O467  1  0.65456900  0.83566722  0.85706462  1
  O2-  O468  1  0.91728485  0.08530720  0.19676952  1
  O2-  O469  1  0.93546183  0.08378247  0.52819692  1
  O2-  O470  1  0.92181119  0.11170668  0.85582192  1
  O2-  O471  1  0.93479348  0.34081872  0.18401225  1
  O2-  O472  1  0.91157164  0.34686364  0.52455373  1
  O2-  O473  1  0.94558043  0.35694602  0.86668845  1
  O2-  O474  1  0.89111685  0.57198267  0.19483098  1
  O2-  O475  1  0.91441191  0.58751697  0.51106242  1
  O2-  O476  1  0.95261633  0.59679810  0.84806294  1
  O2-  O477  1  0.90196578  0.82619507  0.19102235  1
  O2-  O478  1  0.92413146  0.83882224  0.52039432  1
  O2-  O479  1  0.92437958  0.83460309  0.85254998  1
  O2-  O480  1  0.17963657  0.08926645  0.32541633  1
  O2-  O481  1  0.16490969  0.08467677  0.64749329  1
  O2-  O482  1  0.19504559  0.05783228  0.96437035  1
  O2-  O483  1  0.16628919  0.35807539  0.30255962  1
  O2-  O484  1  0.17900673  0.35364311  0.64168461  1
  O2-  O485  1  0.16899094  0.30583976  0.97693457  1
  O2-  O486  1  0.17335399  0.58376171  0.32785984  1
  O2-  O487  1  0.16027724  0.58781619  0.64146670  1
  O2-  O488  1  0.19782607  0.61158850  0.97168995  1
  O2-  O489  1  0.16875521  0.82855296  0.31329616  1
  O2-  O490  1  0.16964208  0.83709319  0.64131427  1
  O2-  O491  1  0.12813944  0.80868168  0.96479828  1
  O2-  O492  1  0.42026460  0.08517437  0.31541364  1
  O2-  O493  1  0.41380361  0.08747328  0.66054374  1
  O2-  O494  1  0.40606602  0.08802288  0.99871738  1
  O2-  O495  1  0.41861203  0.33739140  0.30626745  1
  O2-  O496  1  0.44591394  0.32849129  0.68301862  1
  O2-  O497  1  0.41545573  0.34004274  0.96954685  1
  O2-  O498  1  0.41031010  0.57550795  0.30217608  1
  O2-  O499  1  0.40470993  0.58740041  0.63892842  1
  O2-  O500  1  0.43410913  0.57413682  0.98005645  1
  O2-  O501  1  0.41196677  0.82024752  0.31673135  1
  O2-  O502  1  0.41559189  0.81338285  0.63944277  1
  O2-  O503  1  0.46068272  0.79798829  0.95916160  1
  O2-  O504  1  0.65380283  0.08670720  0.30947501  1
  O2-  O505  1  0.66460233  0.08030681  0.64009461  1
  O2-  O506  1  0.66721261  0.09218824  1.01025597  1
  O2-  O507  1  0.66005497  0.32940492  0.31314938  1
  O2-  O508  1  0.65336924  0.33105539  0.64157934  1
  O2-  O509  1  0.65860223  0.32758049  0.98627829  1
  O2-  O510  1  0.62634299  0.53291220  0.32554350  1
  O2-  O511  1  0.66683843  0.58355351  0.65142316  1
  O2-  O512  1  0.67964731  0.58812093  0.97042990  1
  O2-  O513  1  0.65416034  0.80435786  0.30994587  1
  O2-  O514  1  0.66890418  0.82379808  0.64087188  1
  O2-  O515  1  0.67792619  0.83877096  0.98241075  1
  O2-  O516  1  0.90773836  0.08219144  0.32507261  1
  O2-  O517  1  0.92591924  0.08399673  0.64795181  1
  O2-  O518  1  0.91109006  0.10421819  0.98789794  1
  O2-  O519  1  0.91147863  0.33121757  0.31424568  1
  O2-  O520  1  0.91713227  0.33322548  0.64693869  1
  O2-  O521  1  0.92682779  0.34136053  0.98857809  1
  O2-  O522  1  0.91551218  0.56977914  0.31749399  1
  O2-  O523  1  0.93054461  0.60707684  0.63672699  1
  O2-  O524  1  0.92867478  0.56688957  0.95897034  1
  O2-  O525  1  0.94518649  0.83616997  0.31647322  1
  O2-  O526  1  0.91858769  0.83777024  0.64073133  1
  O2-  O527  1  0.93440935  0.82517667  0.97723567  1
  O2-  O528  1  0.07618683  0.14763687  0.02287164  1
  O2-  O529  1  0.07802138  0.15343429  0.37296997  1
  O2-  O530  1  0.07867130  0.14901378  0.69078042  1
  O2-  O531  1  0.09783378  0.45460105  0.02694176  1
  O2-  O532  1  0.07533458  0.41426048  0.35458771  1
  O2-  O533  1  0.08578018  0.42162896  0.68561751  1
  O2-  O534  1  0.07895682  0.65890543  0.01841352  1
  O2-  O535  1  0.08458544  0.66447865  0.35492637  1
  O2-  O536  1  0.08737175  0.67921490  0.67897052  1
  O2-  O537  1  0.08891236  0.92299391  0.03271234  1
  O2-  O538  1  0.09740940  0.92242220  0.35897393  1
  O2-  O539  1  0.08345246  0.91826827  0.67975312  1
  O2-  O540  1  0.33951907  0.18568012  0.02827840  1
  O2-  O541  1  0.34997016  0.17775903  0.35397186  1
  O2-  O542  1  0.31805881  0.15241154  0.69608661  1
  O2-  O543  1  0.30998758  0.37837289  0.03510736  1
  O2-  O544  1  0.32938997  0.41893460  0.34888719  1
  O2-  O545  1  0.32498551  0.42862259  0.67984475  1
  O2-  O546  1  0.36225451  0.66157075  0.00644133  1
  O2-  O547  1  0.33955502  0.65609032  0.36516248  1
  O2-  O548  1  0.31980883  0.66673339  0.68834365  1
  O2-  O549  1  0.26543364  0.93973526  0.05101841  1
  O2-  O550  1  0.33748085  0.91580417  0.34675699  1
  O2-  O551  1  0.33062449  0.93049330  0.69849298  1
  O2-  O552  1  0.56790163  0.16018394  0.03582781  1
  O2-  O553  1  0.58280959  0.17454709  0.34089240  1
  O2-  O554  1  0.57856651  0.16862749  0.68113346  1
  O2-  O555  1  0.55762586  0.45449552  0.03498244  1
  O2-  O556  1  0.58145031  0.44149201  0.34546875  1
  O2-  O557  1  0.63970656  0.44214380  0.70074515  1
  O2-  O558  1  0.60547033  0.67070322  0.02171163  1
  O2-  O559  1  0.56987323  0.64253675  0.35512052  1
  O2-  O560  1  0.57713526  0.66173323  0.68314083  1
  O2-  O561  1  0.58847940  0.91600600  0.02778293  1
  O2-  O562  1  0.58203276  0.90087645  0.33760108  1
  O2-  O563  1  0.58644696  0.90784469  0.68035137  1
  O2-  O564  1  0.83364668  0.18637268  0.04697192  1
  O2-  O565  1  0.82557612  0.17810409  0.36132884  1
  O2-  O566  1  0.83163766  0.16073601  0.67294763  1
  O2-  O567  1  0.82531412  0.40899883  0.01869007  1
  O2-  O568  1  0.82260477  0.40746125  0.35677213  1
  O2-  O569  1  0.80589968  0.38317925  0.69357577  1
  O2-  O570  1  0.84862398  0.64256851  -0.00364341  1
  O2-  O571  1  0.84792851  0.67494122  0.35192446  1
  O2-  O572  1  0.83601813  0.67078318  0.68987110  1
  O2-  O573  1  0.84314079  0.94635208  0.03136173  1
  O2-  O574  1  0.81853547  0.91546085  0.36691001  1
  O2-  O575  1  0.83528087  0.91537908  0.68457225  1
