# generated using pymatgen
data_H2O
_symmetry_space_group_name_H-M   'P 1'
_cell_length_a   17.99131852
_cell_length_b   17.99307085
_cell_length_c   22.00320739
_cell_angle_alpha   90.01877259
_cell_angle_beta   89.96905852
_cell_angle_gamma   120.00411192
_symmetry_Int_Tables_number   1
_chemical_formula_structural   H2O
_chemical_formula_sum   'H384 O192'
_cell_volume   6168.31928610
_cell_formula_units_Z   192
loop_
 _symmetry_equiv_pos_site_id
 _symmetry_equiv_pos_as_xyz
  1  'x, y, z'
loop_
 _atom_type_symbol
 _atom_type_oxidation_number
  H+  1.0
  O2-  -2.0
loop_
 _atom_site_type_symbol
 _atom_site_label
 _atom_site_symmetry_multiplicity
 _atom_site_fract_x
 _atom_site_fract_y
 _atom_site_fract_z
 _atom_site_occupancy
  H+  H0  1  0.37415551  0.86519071  0.99242974  1
  H+  H1  1  0.46079856  0.36134932  0.17458594  1
  H+  H2  1  0.37257657  0.38020718  0.83549850  1
  H+  H3  1  0.27038955  0.64041188  0.80668934  1
  H+  H4  1  0.40307401  0.81270027  0.55881893  1
  H+  H5  1  0.84708420  0.17062426  0.74472399  1
  H+  H6  1  0.26747206  0.89703918  0.16490998  1
  H+  H7  1  0.18137688  0.61630446  0.97621291  1
  H+  H8  1  0.16123419  0.51427601  0.99769110  1
  H+  H9  1  0.87822529  0.38657479  0.48528914  1
  H+  H10  1  0.24618737  0.38655218  0.85213949  1
  H+  H11  1  0.52153620  0.38637805  0.00698319  1
  H+  H12  1  0.12689735  0.64066528  0.31819867  1
  H+  H13  1  0.61796073  0.13349812  0.49382677  1
  H+  H14  1  0.76652205  0.45629808  0.96441942  1
  H+  H15  1  0.48426088  0.60557137  0.32645929  1
  H+  H16  1  0.85157429  0.69892500  0.17345088  1
  H+  H17  1  0.84905736  0.97395065  0.65733223  1
  H+  H18  1  0.62097682  0.22492904  0.49623002  1
  H+  H19  1  0.60430000  0.63766566  0.82371646  1
  H+  H20  1  0.10575754  0.47832215  0.09770365  1
  H+  H21  1  0.11289961  0.38980617  0.82255929  1
  H+  H22  1  0.37289948  0.88670479  0.48045653  1
  H+  H23  1  0.62268888  -0.01185063  0.67925113  1
  H+  H24  1  0.53519688  0.84112841  1.03417137  1
  H+  H25  1  0.21875427  0.44325067  0.88844324  1
  H+  H26  1  0.38182139  0.52865807  0.83429060  1
  H+  H27  1  0.88974818  0.86443225  0.83849679  1
  H+  H28  1  0.58677972  0.18116139  0.40604702  1
  H+  H29  1  0.11316290  0.22315609  0.82086659  1
  H+  H30  1  0.85082761  0.59218918  -0.01533327  1
  H+  H31  1  0.39237859  0.02062368  0.50065423  1
  H+  H32  1  0.52651761  0.90329416  0.33158729  1
  H+  H33  1  0.92295417  0.80670775  0.98426054  1
  H+  H34  1  0.39988196  0.26875613  0.66068454  1
  H+  H35  1  0.75649408  0.52687764  0.19386955  1
  H+  H36  1  0.03589117  0.62717595  0.65469182  1
  H+  H37  1  0.64159064  0.35935536  0.84161895  1
  H+  H38  1  1.02091705  0.13939335  0.66463680  1
  H+  H39  1  0.58277786  0.35235526  0.32394274  1
  H+  H40  1  0.16470972  0.13200782  -0.01186505  1
  H+  H41  1  0.87114958  -0.00869275  0.32830088  1
  H+  H42  1  0.67639338  0.23448611  0.05602266  1
  H+  H43  1  0.29208604  0.63527440  0.00668957  1
  H+  H44  1  0.21650548  0.36446540  0.33258445  1
  H+  H45  1  0.60635429  0.13015980  0.83147951  1
  H+  H46  1  0.52510617  0.64173159  0.00290995  1
  H+  H47  1  0.14397924  0.86733824  0.49513780  1
  H+  H48  1  0.28344930  0.13515122  0.82838537  1
  H+  H49  1  0.88559428  0.78050136  0.65953600  1
  H+  H50  1  0.13599796  0.60939945  0.82720863  1
  H+  H51  1  0.15723124  1.00506591  0.16144447  1
  H+  H52  1  0.39907834  0.52006761  0.64397225  1
  H+  H53  1  0.39678299  0.11731738  1.01384434  1
  H+  H54  1  0.47208334  0.10358626  0.83112701  1
  H+  H55  1  0.06392363  0.41243937  0.01520524  1
  H+  H56  1  0.26749279  0.38122683  0.67126231  1
  H+  H57  1  0.19331860  0.57210094  0.49485677  1
  H+  H58  1  0.17005443  0.34458367  0.95455591  1
  H+  H59  1  0.62027641  0.40590324  0.00377896  1
  H+  H60  1  0.51760299  0.88375698  0.82772933  1
  H+  H61  1  0.21847450  0.10421699  0.31786283  1
  H+  H62  1  0.03796822  0.39410503  0.65919840  1
  H+  H63  1  0.72889563  0.35707330  0.83565551  1
  H+  H64  1  0.40164660  0.35906802  0.65951556  1
  H+  H65  1  0.77726431  0.14917853  0.34180333  1
  H+  H66  1  0.05567480  0.40185120  0.40278748  1
  H+  H67  1  0.60361357  0.12675015  0.18850833  1
  H+  H68  1  0.97745679  0.11327097  0.16707246  1
  H+  H69  1  0.21738355  0.38873266  0.17337030  1
  H+  H70  1  0.15568234  0.52664184  0.65225649  1
  H+  H71  1  0.86809902  0.39007807  0.82348955  1
  H+  H72  1  0.85361641  0.13482403  0.84366027  1
  H+  H73  1  0.85810198  0.73206342  0.49925642  1
  H+  H74  1  0.46146549  0.07355152  0.65513572  1
  H+  H75  1  0.28088290  0.66592515  0.65095032  1
  H+  H76  1  0.85571445  0.22794003  0.00729721  1
  H+  H77  1  0.94065090  0.35271903  0.58232662  1
  H+  H78  1  0.12952652  0.23700902  0.01285017  1
  H+  H79  1  0.78575847  0.38375789  0.48166515  1
  H+  H80  1  0.02975104  0.88912474  0.33551102  1
  H+  H81  1  0.22589338  0.59367253  0.30643801  1
  H+  H82  1  0.04794918  0.14637759  -0.00127401  1
  H+  H83  1  0.36680169  0.13218812  0.48832936  1
  H+  H84  1  0.61514285  0.90314456  0.33018170  1
  H+  H85  1  0.64081327  0.78521049  0.33102671  1
  H+  H86  1  0.39655137  0.71088715  0.34598667  1
  H+  H87  1  0.77433353  0.86627153  0.45069723  1
  H+  H88  1  0.35232963  0.83827184  0.17875256  1
  H+  H89  1  0.38732633  0.89121959  0.32051033  1
  H+  H90  1  0.13068887  0.76800868  0.17433062  1
  H+  H91  1  0.17314680  0.83930924  0.26964020  1
  H+  H92  1  -0.01959141  0.59345006  0.17848490  1
  H+  H93  1  0.39322381  0.27494615  0.00464177  1
  H+  H94  1  0.35908537  0.46639078  0.34787324  1
  H+  H95  1  0.37636521  1.01101888  0.82363404  1
  H+  H96  1  0.59549967  0.74187357  0.67095014  1
  H+  H97  1  0.63177386  0.01901905  0.99895478  1
  H+  H98  1  0.14676289  0.87073006  0.32949426  1
  H+  H99  1  0.34987276  0.36318280  0.50079325  1
  H+  H100  1  0.54251294  0.19154366  0.68419481  1
  H+  H101  1  0.14778031  0.86592540  0.17256575  1
  H+  H102  1  0.67680668  0.02498792  0.20846349  1
  H+  H103  1  0.37091610  0.13180891  0.67100157  1
  H+  H104  1  0.88989456  0.86332089  0.33035198  1
  H+  H105  1  0.75915829  0.64896787  0.66693837  1
  H+  H106  1  0.93123670  0.22567045  0.70918336  1
  H+  H107  1  0.58112112  1.00460058  0.14763477  1
  H+  H108  1  0.12513626  0.62891110  0.65783194  1
  H+  H109  1  0.62450101  0.26561338  0.18432931  1
  H+  H110  1  0.37934386  0.61682740  0.82600841  1
  H+  H111  1  0.09475841  0.62275451  0.50818664  1
  H+  H112  1  0.38928070  0.36278471  -0.00167501  1
  H+  H113  1  0.39959721  0.33489655  0.23451728  1
  H+  H114  1  0.51344233  0.12639797  0.18473934  1
  H+  H115  1  0.88413510  0.56955579  0.89389283  1
  H+  H116  1  0.14441588  0.36374717  0.64320142  1
  H+  H117  1  0.65609325  0.91258147  0.16366068  1
  H+  H118  1  0.13520117  0.02753392  0.50079891  1
  H+  H119  1  -0.01782889  0.36392575  0.32575074  1
  H+  H120  1  0.87221603  0.86392753  0.51364260  1
  H+  H121  1  0.10155994  0.37968501  0.34668068  1
  H+  H122  1  0.37936820  0.11305911  0.83002694  1
  H+  H123  1  0.65260710  0.75891570  0.18043274  1
  H+  H124  1  0.15736430  0.07341307  0.25586454  1
  H+  H125  1  0.61960795  0.87306005  0.66130609  1
  H+  H126  1  0.85874814  0.14098321  0.01754188  1
  H+  H127  1  0.73235506  0.89025034  0.50271155  1
  H+  H128  1  0.35583252  0.71647095  0.49019997  1
  H+  H129  1  0.36726275  0.47880494  1.00336637  1
  H+  H130  1  0.78335872  0.88962784  0.16097785  1
  H+  H131  1  0.86604279  0.13341420  0.48900841  1
  H+  H132  1  0.90355629  0.59730191  0.57863130  1
  H+  H133  1  0.73836357  0.11482918  0.17760864  1
  H+  H134  1  0.35742429  0.97561700  0.00918651  1
  H+  H135  1  0.47466230  0.61713394  0.65288113  1
  H+  H136  1  -0.03790009  0.61728519  0.52143661  1
  H+  H137  1  0.84339099  0.63850324  0.66920071  1
  H+  H138  1  0.74807744  0.63178925  0.34036782  1
  H+  H139  1  0.14194824  0.11944575  0.50154574  1
  H+  H140  1  0.93206537  0.57958889  0.98180493  1
  H+  H141  1  0.59286391  0.45897215  0.16433408  1
  H+  H142  1  0.12643771  0.11715717  0.65266628  1
  H+  H143  1  0.22279301  0.86346846  0.83026928  1
  H+  H144  1  0.39719931  0.62202555  0.99184308  1
  H+  H145  1  0.69095984  0.59325381  0.18779239  1
  H+  H146  1  0.35859995  0.23587990  0.16795999  1
  H+  H147  1  0.10731396  0.47325482  0.81424924  1
  H+  H148  1  0.62844503  0.61432196  0.99085080  1
  H+  H149  1  0.15194234  0.38044200  1.01617174  1
  H+  H150  1  0.36416521  0.79484130  0.32806689  1
  H+  H151  1  0.62027996  0.15972253  0.34447507  1
  H+  H152  1  0.86409153  0.60691625  0.82790192  1
  H+  H153  1  0.88094856  0.64317096  0.35277674  1
  H+  H154  1  0.83322480  0.92586928  0.09806797  1
  H+  H155  1  0.72059319  0.62861712  0.50040252  1
  H+  H156  1  0.52829329  0.39199682  0.48851427  1
  H+  H157  1  0.06203446  0.22225535  0.46665423  1
  H+  H158  1  0.47697783  0.62850232  0.50049881  1
  H+  H159  1  0.37473207  0.99959282  0.31350149  1
  H+  H160  1  0.89933151  0.29176448  0.63949299  1
  H+  H161  1  0.88724077  0.27670866  0.32737614  1
  H+  H162  1  0.37204273  0.26314347  0.31702617  1
  H+  H163  1  0.64256907  0.00763822  0.50808550  1
  H+  H164  1  0.66505204  0.27197209  0.64929108  1
  H+  H165  1  0.88488745  0.52736827  0.67553292  1
  H+  H166  1  0.71864754  0.61355137  0.83641933  1
  H+  H167  1  0.38039138  0.63193939  0.16582532  1
  H+  H168  1  0.52719845  0.36711881  0.67352640  1
  H+  H169  1  0.10889264  0.71815456  0.50631282  1
  H+  H170  1  0.29172475  0.14635593  0.01408172  1
  H+  H171  1  0.87954522  0.02996759  0.87657724  1
  H+  H172  1  0.21636511  0.11729122  0.18082245  1
  H+  H173  1  0.33933721  0.43135546  0.10046872  1
  H+  H174  1  0.13354118  0.73256173  0.32944033  1
  H+  H175  1  0.37399186  0.73116437  0.16455447  1
  H+  H176  1  0.27740163  0.39081546  1.01249769  1
  H+  H177  1  0.59441803  0.74260836  0.49013546  1
  H+  H178  1  0.61445629  0.47245062  0.82781877  1
  H+  H179  1  0.74292208  0.61168051  0.00874239  1
  H+  H180  1  0.89954904  0.40922914  0.34183253  1
  H+  H181  1  0.87233982  0.14573882  0.16241495  1
  H+  H182  1  0.60666841  0.97229701  0.83388527  1
  H+  H183  1  0.59188875  0.62342922  0.16041022  1
  H+  H184  1  0.85609502  0.46429086  0.16893437  1
  H+  H185  1  0.87059737  0.35743171  0.18345611  1
  H+  H186  1  1.02409118  0.89425895  0.48896674  1
  H+  H187  1  0.72545438  0.36204190  0.35255506  1
  H+  H188  1  0.76995177  0.76269105  0.21452951  1
  H+  H189  1  0.28124828  0.13753522  0.48611903  1
  H+  H190  1  0.16488240  0.04352055  0.98549643  1
  H+  H191  1  0.08437709  0.93922146  0.73209584  1
  H+  H192  1  0.73651966  0.13089688  0.65891688  1
  H+  H193  1  0.36879415  0.73303673  0.00773189  1
  H+  H194  1  0.63280502  0.77327968  0.84120155  1
  H+  H195  1  0.36337172  0.13175359  0.31571395  1
  H+  H196  1  0.88208307  0.40209724  0.66272307  1
  H+  H197  1  0.35227823  0.92923156  0.42308475  1
  H+  H198  1  0.19959320  0.28779857  0.48692135  1
  H+  H199  1  0.94651912  0.10421181  1.05526404  1
  H+  H200  1  0.89274171  0.77557663  0.34060934  1
  H+  H201  1  0.85457238  0.94759804  0.39203863  1
  H+  H202  1  0.37894280  0.77511382  0.82907442  1
  H+  H203  1  0.14091348  0.81035335  1.04842530  1
  H+  H204  1  0.11154640  0.71868328  0.81339128  1
  H+  H205  1  0.61285662  0.89173662  0.17910109  1
  H+  H206  1  0.58015062  0.25166197  0.32964206  1
  H+  H207  1  0.09882558  0.48693745  0.50359102  1
  H+  H208  1  0.22021998  0.84894834  0.00620979  1
  H+  H209  1  0.64755521  0.36890909  0.49632817  1
  H+  H210  1  0.47277393  0.61583469  0.17132641  1
  H+  H211  1  0.73935666  0.35542315  1.02170886  1
  H+  H212  1  0.48337707  0.35354675  0.84882947  1
  H+  H213  1  0.82944117  0.69431742  0.02672284  1
  H+  H214  1  0.72169318  0.10764032  1.00086086  1
  H+  H215  1  0.06048797  0.59521635  0.00881850  1
  H+  H216  1  0.61273114  0.55367225  0.64475698  1
  H+  H217  1  0.70173512  0.86266447  0.64320711  1
  H+  H218  1  0.88149610  0.86666192  0.65550561  1
  H+  H219  1  0.73634864  0.33984484  0.32837377  1
  H+  H220  1  0.85489846  0.22332335  0.83378573  1
  H+  H221  1  0.78847919  0.39120406  0.66549165  1
  H+  H222  1  0.89014308  0.12227396  0.32031705  1
  H+  H223  1  0.60896144  0.65926713  0.49119359  1
  H+  H224  1  1.00275085  0.62897587  0.32494008  1
  H+  H225  1  0.15824843  0.12352806  0.83284378  1
  H+  H226  1  0.91824934  0.28496219  0.49194307  1
  H+  H227  1  0.39293089  0.26769298  0.49992642  1
  H+  H228  1  0.62804957  0.65488370  0.34289783  1
  H+  H229  1  0.35516697  0.88518455  0.81801534  1
  H+  H230  1  0.47930612  0.11026498  0.50781480  1
  H+  H231  1  0.62793337  0.13112395  0.03272637  1
  H+  H232  1  0.04672273  0.91523752  -0.00561919  1
  H+  H233  1  0.88093292  0.03413180  0.16842692  1
  H+  H234  1  0.36957238  0.61540359  0.34069295  1
  H+  H235  1  0.13174089  0.27417073  0.32448014  1
  H+  H236  1  0.36636142  0.34837171  0.32547795  1
  H+  H237  1  0.47957324  0.84549614  0.50955405  1
  H+  H238  1  0.48869898  0.92119966  0.14903193  1
  H+  H239  1  0.45725088  0.10524250  -0.03255566  1
  H+  H240  1  0.64822615  0.87035258  -0.00369613  1
  H+  H241  1  0.64697631  0.34861797  0.65707205  1
  H+  H242  1  0.62114465  0.35300211  0.17499152  1
  H+  H243  1  -0.02538459  0.36179213  0.83670665  1
  H+  H244  1  0.87348594  0.89966090  -0.00291516  1
  H+  H245  1  0.64491054  0.12229501  0.65721080  1
  H+  H246  1  0.76814076  0.88639675  0.84341026  1
  H+  H247  1  0.98187663  0.86979939  0.83070955  1
  H+  H248  1  0.75008165  0.51894024  0.16030775  1
  H+  H249  1  0.94229648  0.61944871  0.70565748  1
  H+  H250  1  0.62248131  0.44640535  0.67840677  1
  H+  H251  1  0.37420842  0.03222824  0.19499913  1
  H+  H252  1  1.02639529  0.13581754  0.32742916  1
  H+  H253  1  0.37759190  0.22222562  0.83463931  1
  H+  H254  1  0.13389428  0.51324583  0.31380911  1
  H+  H255  1  0.63203256  0.86237847  0.84238378  1
  H+  H256  1  0.12127460  0.98707149  0.82589537  1
  H+  H257  1  0.34642237  0.94808925  0.66656030  1
  H+  H258  1  0.98588337  0.91287385  0.19415916  1
  H+  H259  1  0.86773301  0.51069508  0.82885096  1
  H+  H260  1  0.63880300  0.04111729  0.33138020  1
  H+  H261  1  0.61571401  0.72995733  0.00742204  1
  H+  H262  1  0.60777235  0.21991190  0.83174830  1
  H+  H263  1  0.11477285  0.89503974  0.81973342  1
  H+  H264  1  0.08274796  0.92261569  0.42885456  1
  H+  H265  1  0.12547078  0.89876285  -0.00256700  1
  H+  H266  1  0.36163594  0.39956411  0.16278659  1
  H+  H267  1  0.23231474  0.86629618  0.49222738  1
  H+  H268  1  0.86505264  0.72747298  0.82138151  1
  H+  H269  1  0.91110160  0.51251387  0.34520377  1
  H+  H270  1  0.63850900  0.49178430  0.33766700  1
  H+  H271  1  0.71911956  0.11065292  0.84526905  1
  H+  H272  1  0.96888905  0.09590318  0.49550489  1
  H+  H273  1  0.36547450  0.15119796  0.17757449  1
  H+  H274  1  0.87987368  0.26872534  0.17970417  1
  H+  H275  1  -0.01422947  0.89864427  0.16200545  1
  H+  H276  1  0.13672958  0.76246008  0.64480082  1
  H+  H277  1  0.84149722  0.33585204  1.00108301  1
  H+  H278  1  0.88647936  0.11131599  0.65597369  1
  H+  H279  1  0.62014830  0.52056890  0.99165048  1
  H+  H280  1  0.77922149  0.13569641  0.49002476  1
  H+  H281  1  0.11172089  0.22874579  0.65948828  1
  H+  H282  1  0.58219330  0.67708492  0.39744489  1
  H+  H283  1  0.51685347  0.64125249  0.82448814  1
  H+  H284  1  0.28593390  0.91064665  0.32983442  1
  H+  H285  1  0.09843387  0.10367747  0.16248293  1
  H+  H286  1  0.77882644  0.88998052  -0.00055679  1
  H+  H287  1  0.08151390  0.69158194  0.00028255  1
  H+  H288  1  0.86803491  0.43608224  0.41157336  1
  H+  H289  1  0.32240272  0.92163349  0.06843276  1
  H+  H290  1  0.58869959  0.92545284  0.73741899  1
  H+  H291  1  0.93482368  0.85199807  0.92084581  1
  H+  H292  1  0.18776363  0.09746892  0.89526487  1
  H+  H293  1  0.84907240  0.77254630  0.25500135  1
  H+  H294  1  0.09914203  0.17509707  0.75796939  1
  H+  H295  1  0.91618285  0.84174067  0.56730654  1
  H+  H296  1  0.31904120  0.90645833  0.75674832  1
  H+  H297  1  0.16920080  0.82850342  0.58937678  1
  H+  H298  1  0.09007996  0.41229309  0.72139375  1
  H+  H299  1  0.91569259  0.10255842  0.92619087  1
  H+  H300  1  0.83473163  0.17735615  0.10639987  1
  H+  H301  1  0.15953171  0.35898802  0.23051301  1
  H+  H302  1  0.69712708  0.37180849  0.92920669  1
  H+  H303  1  0.65866026  0.08235378  0.90424106  1
  H+  H304  1  0.57637117  0.66467570  0.09997843  1
  H+  H305  1  0.42130905  0.32386254  0.90751634  1
  H+  H306  1  0.57930913  0.16185376  0.73776294  1
  H+  H307  1  0.79994731  0.90363859  0.70866060  1
  H+  H308  1  0.08022467  0.17066698  0.41554014  1
  H+  H309  1  1.01946437  0.90180638  0.67351695  1
  H+  H310  1  0.78311495  0.35667212  0.08714898  1
  H+  H311  1  0.33969042  0.15399177  0.38225572  1
  H+  H312  1  0.06437837  0.65716423  0.10037775  1
  H+  H313  1  0.62967995  0.56330534  0.24195463  1
  H+  H314  1  0.08484860  0.14702294  0.10174836  1
  H+  H315  1  0.62320926  0.84556733  0.56496712  1
  H+  H316  1  0.17449378  0.57738210  0.88233696  1
  H+  H317  1  0.41903312  0.59198878  0.92924022  1
  H+  H318  1  0.76205757  0.37953881  0.17879739  1
  H+  H319  1  0.57352935  0.40860293  0.10140905  1
  H+  H320  1  0.83962254  0.41631001  0.76117458  1
  H+  H321  1  0.33490390  0.68602329  0.75046721  1
  H+  H322  1  0.94097527  0.38758187  0.99459618  1
  H+  H323  1  0.37722470  0.62037094  0.50208663  1
  H+  H324  1  0.32941456  0.65279429  0.43260886  1
  H+  H325  1  0.25266252  0.86420162  0.66579123  1
  H+  H326  1  0.32005094  0.40435944  0.40597818  1
  H+  H327  1  0.85542848  0.64096698  0.50657299  1
  H+  H328  1  0.42305662  0.32483414  0.56080559  1
  H+  H329  1  0.92889293  0.58531931  0.27293200  1
  H+  H330  1  0.26130577  0.96780862  0.13368786  1
  H+  H331  1  0.73030996  0.87486845  0.33000405  1
  H+  H332  1  0.11596800  0.01252887  0.66207046  1
  H+  H333  1  0.55856805  0.92696228  0.06880253  1
  H+  H334  1  0.91257730  0.33146655  0.24607440  1
  H+  H335  1  0.84321438  0.65169613  0.11061031  1
  H+  H336  1  0.87455070  0.01136339  0.50122263  1
  H+  H337  1  0.11382084  0.63494396  0.15014148  1
  H+  H338  1  0.73362381  0.66423614  0.28000329  1
  H+  H339  1  0.90029230  0.60454870  0.17781478  1
  H+  H340  1  0.35032588  0.67469815  0.10060267  1
  H+  H341  1  0.11554036  0.98142241  0.33315775  1
  H+  H342  1  0.91300770  0.33912847  0.89580245  1
  H+  H343  1  0.88534897  0.02547670  1.01409383  1
  H+  H344  1  0.31131602  0.46661844  0.70723379  1
  H+  H345  1  0.60568600  0.31005157  0.26364168  1
  H+  H346  1  0.13634203  0.95085523  0.09531540  1
  H+  H347  1  0.84535504  0.66898003  0.41318514  1
  H+  H348  1  0.57404068  0.68062453  0.73127246  1
  H+  H349  1  0.68128960  0.34215397  0.55459289  1
  H+  H350  1  0.40206663  0.83095344  0.89071365  1
  H+  H351  1  0.41939269  0.57164046  0.26962487  1
  H+  H352  1  0.09113880  0.66066233  0.75470776  1
  H+  H353  1  0.84412178  0.95214164  0.80054303  1
  H+  H354  1  0.11448882  0.13160476  0.32884339  1
  H+  H355  1  0.66627943  0.83539572  0.93420461  1
  H+  H356  1  0.15757163  0.08175214  0.59386682  1
  H+  H357  1  0.91122577  0.07960955  0.59373904  1
  H+  H358  1  0.33569892  0.40009816  0.77507341  1
  H+  H359  1  0.41754402  0.58991559  0.56493978  1
  H+  H360  1  0.15586289  0.55378106  0.20142794  1
  H+  H361  1  0.65770942  0.58170794  0.89505291  1
  H+  H362  1  0.59466920  0.43459200  0.39684565  1
  H+  H363  1  0.82469708  0.66981608  0.76127406  1
  H+  H364  1  0.58510055  0.40361776  0.77320653  1
  H+  H365  1  0.84195785  0.17505609  0.39773380  1
  H+  H366  1  0.35214413  0.16915161  0.73144038  1
  H+  H367  1  0.67468045  0.10676377  0.27696895  1
  H+  H368  1  0.67353603  0.07773603  0.56073842  1
  H+  H369  1  0.65832169  0.60641080  0.55674017  1
  H+  H370  1  0.62779589  0.64554971  0.65634822  1
  H+  H371  1  0.61181096  0.48523611  0.49047904  1
  H+  H372  1  0.16080741  0.82902619  0.88750548  1
  H+  H373  1  0.40575850  0.83739884  0.23510896  1
  H+  H374  1  0.59548662  0.15870898  0.10021862  1
  H+  H375  1  0.34613833  0.81976310  0.66230792  1
  H+  H376  1  0.68852955  0.81944435  0.24045025  1
  H+  H377  1  0.91695538  0.09374033  0.25801712  1
  H+  H378  1  0.37995555  0.52375738  0.16865715  1
  H+  H379  1  0.40763367  0.06298608  0.59540039  1
  H+  H380  1  0.34254967  0.17318616  0.07868325  1
  H+  H381  1  0.16512807  0.57059098  0.58789067  1
  H+  H382  1  0.18957864  0.33733753  0.58943311  1
  H+  H383  1  0.46603553  0.87524767  0.98439963  1
  O2-  O384  1  0.06092379  0.12510376  0.14220158  1
  O2-  O385  1  0.07620020  0.17675053  0.46189291  1
  O2-  O386  1  0.10790443  0.17171244  0.80220630  1
  O2-  O387  1  0.08042855  0.49438905  0.13345988  1
  O2-  O388  1  0.03506057  0.38718302  0.47994524  1
  O2-  O389  1  0.07693980  0.41044740  0.80296162  1
  O2-  O390  1  0.08003217  0.66508908  0.14366485  1
  O2-  O391  1  0.06552350  0.65666353  0.50948048  1
  O2-  O392  1  0.08648563  0.65862970  0.79980765  1
  O2-  O393  1  0.16248988  0.95548080  0.13529283  1
  O2-  O394  1  0.08430472  0.92513951  0.47465933  1
  O2-  O395  1  0.08584037  0.92806554  0.80808244  1
  O2-  O396  1  0.33608058  0.17529625  0.15360159  1
  O2-  O397  1  0.34105867  0.16554734  0.47098210  1
  O2-  O398  1  0.34670968  0.16276207  0.81585569  1
  O2-  O399  1  0.33907287  0.43669161  0.14573013  1
  O2-  O400  1  0.31449268  0.38994786  0.48789623  1
  O2-  O401  1  0.34141811  0.40921844  0.81959140  1
  O2-  O402  1  0.35158876  0.67220634  0.14673329  1
  O2-  O403  1  0.32569579  0.65387138  0.47778846  1
  O2-  O404  1  0.33241959  0.67466622  0.79507053  1
  O2-  O405  1  0.30646060  0.95076323  0.14216761  1
  O2-  O406  1  0.34633925  0.92124681  0.46781611  1
  O2-  O407  1  0.32492641  0.91597157  0.80295075  1
  O2-  O408  1  0.57480450  0.15414323  0.16815045  1
  O2-  O409  1  0.58587317  0.16365442  0.48368014  1
  O2-  O410  1  0.57609066  0.16027440  0.81482749  1
  O2-  O411  1  0.56896915  0.40076750  0.14652617  1
  O2-  O412  1  0.58944952  0.42585087  0.47523336  1
  O2-  O413  1  0.58801173  0.40977413  0.81811392  1
  O2-  O414  1  0.57154383  0.66244413  0.14548011  1
  O2-  O415  1  0.57217539  0.68265079  0.47530170  1
  O2-  O416  1  0.57797785  0.67223684  0.81030218  1
  O2-  O417  1  0.53178125  0.96644788  0.12200595  1
  O2-  O418  1  0.58592505  0.89734608  0.49955633  1
  O2-  O419  1  0.58020244  0.91285802  0.81749700  1
  O2-  O420  1  0.83700243  0.17550981  0.15165071  1
  O2-  O421  1  0.84020170  0.16821627  0.47556305  1
  O2-  O422  1  0.82465277  0.16194733  0.82073120  1
  O2-  O423  1  0.81919071  0.40089434  0.15879395  1
  O2-  O424  1  0.84738663  0.41581871  0.47002760  1
  O2-  O425  1  0.83607472  0.41840935  0.80669530  1
  O2-  O426  1  0.87981909  0.67604103  0.14650510  1
  O2-  O427  1  0.82603817  0.67093949  0.48605474  1
  O2-  O428  1  0.82974491  0.66679132  0.80667311  1
  O2-  O429  1  0.83451596  0.93799924  0.14179154  1
  O2-  O430  1  0.79028210  0.90140562  0.48738043  1
  O2-  O431  1  0.83284559  0.92010102  0.83835280  1
  O2-  O432  1  0.15779777  0.07248787  0.19187966  1
  O2-  O433  1  0.16770376  0.08719768  0.51880427  1
  O2-  O434  1  0.18610242  0.09135169  0.84957000  1
  O2-  O435  1  0.16057589  0.37570233  0.18784978  1
  O2-  O436  1  0.23037727  0.33494440  0.51614826  1
  O2-  O437  1  0.19512545  0.38538663  0.87192533  1
  O2-  O438  1  0.15546243  0.57026035  0.15832688  1
  O2-  O439  1  0.13865379  0.54914951  0.51677103  1
  O2-  O440  1  0.16706632  0.57681798  0.83759843  1
  O2-  O441  1  0.16447077  0.82618707  0.19271570  1
  O2-  O442  1  0.17338708  0.83642155  0.50922163  1
  O2-  O443  1  0.16079887  0.83376498  0.84334747  1
  O2-  O444  1  0.41674764  0.09142794  0.20962144  1
  O2-  O445  1  0.41759230  0.07862700  0.52031688  1
  O2-  O446  1  0.40860418  0.07279285  0.84130989  1
  O2-  O447  1  0.40062481  0.33904912  0.18765034  1
  O2-  O448  1  0.41992631  0.32814843  0.51598864  1
  O2-  O449  1  0.42196975  0.32167545  0.86172117  1
  O2-  O450  1  0.41150364  0.58735499  0.18663541  1
  O2-  O451  1  0.41608100  0.59483781  0.51755161  1
  O2-  O452  1  0.40938122  0.58958827  0.84677904  1
  O2-  O453  1  0.40081596  0.83059044  0.18911867  1
  O2-  O454  1  0.41445908  0.81827739  0.51458840  1
  O2-  O455  1  0.40780707  0.83509914  0.84568668  1
  O2-  O456  1  0.67860756  0.07784764  0.19535289  1
  O2-  O457  1  0.67181820  0.07182907  0.51599380  1
  O2-  O458  1  0.65765756  0.08076586  0.85919788  1
  O2-  O459  1  0.65162464  0.32673770  0.19709420  1
  O2-  O460  1  0.67752246  0.33779310  0.50971734  1
  O2-  O461  1  0.67224218  0.32914060  0.85674014  1
  O2-  O462  1  0.62952992  0.56204443  0.19711419  1
  O2-  O463  1  0.65796997  0.60210535  0.51179575  1
  O2-  O464  1  0.65777936  0.58029482  0.84952065  1
  O2-  O465  1  0.70528187  0.80259902  0.20152620  1
  O2-  O466  1  0.62816909  0.84834529  0.51908890  1
  O2-  O467  1  0.66359166  0.83317410  0.85812865  1
  O2-  O468  1  0.91619314  0.09612644  0.18218549  1
  O2-  O469  1  0.91182124  0.07118634  0.51543053  1
  O2-  O470  1  0.90321681  0.09199880  0.88276540  1
  O2-  O471  1  0.90537185  0.32943115  0.19722189  1
  O2-  O472  1  0.94555136  0.34636945  0.50486262  1
  O2-  O473  1  0.91345658  0.33497599  0.85094131  1
  O2-  O474  1  0.92031740  0.56497578  0.19423016  1
  O2-  O475  1  0.90078019  0.59455766  0.53440316  1
  O2-  O476  1  0.88917126  0.57150522  0.84687357  1
  O2-  O477  1  0.80124788  0.73193671  0.22747147  1
  O2-  O478  1  0.91101757  0.84142592  0.52199518  1
  O2-  O479  1  0.92206931  0.83401586  0.84772590  1
  O2-  O480  1  0.15720399  0.07582628  0.30541300  1
  O2-  O481  1  0.15293755  0.08143643  0.63977595  1
  O2-  O482  1  0.19710230  0.10455838  0.97143874  1
  O2-  O483  1  0.15605617  0.33682742  0.31780692  1
  O2-  O484  1  0.17465049  0.33107066  0.63332105  1
  O2-  O485  1  0.17316119  0.34065880  0.99908982  1
  O2-  O486  1  0.16728160  0.56705022  0.29027579  1
  O2-  O487  1  0.17894433  0.58377749  0.63264246  1
  O2-  O488  1  0.20228669  0.57689210  0.96782644  1
  O2-  O489  1  0.18120806  0.84451208  0.31474039  1
  O2-  O490  1  0.16574612  0.82430839  0.63450795  1
  O2-  O491  1  0.15528728  0.81264101  1.00530564  1
  O2-  O492  1  0.41405373  0.08748684  0.27709651  1
  O2-  O493  1  0.40343511  0.05682004  0.64123409  1
  O2-  O494  1  0.42301366  0.08080203  1.00380716  1
  O2-  O495  1  0.39748735  0.32399308  0.30383746  1
  O2-  O496  1  0.43222548  0.33061697  0.64434462  1
  O2-  O497  1  0.42068000  0.33299531  0.98422781  1
  O2-  O498  1  0.42238008  0.56957175  0.31452801  1
  O2-  O499  1  0.41910032  0.57950562  0.63145576  1
  O2-  O500  1  0.42409521  0.58983682  0.97415406  1
  O2-  O501  1  0.40789582  0.84782532  0.30911137  1
  O2-  O502  1  0.37147809  0.78779149  0.64106831  1
  O2-  O503  1  0.40535646  0.83779267  0.97310002  1
  O2-  O504  1  0.67252756  0.10505949  0.32168198  1
  O2-  O505  1  0.67810803  0.09536442  0.64364988  1
  O2-  O506  1  0.65929697  0.08053258  0.98911626  1
  O2-  O507  1  0.57071479  0.29578988  0.30241214  1
  O2-  O508  1  0.68664241  0.33204541  0.63728598  1
  O2-  O509  1  0.71232326  0.40151707  0.96983668  1
  O2-  O510  1  0.69881282  0.62330013  0.31369152  1
  O2-  O511  1  0.65629615  0.61336538  0.63801937  1
  O2-  O512  1  0.65466177  0.58040997  0.97439852  1
  O2-  O513  1  0.67149392  0.84376834  0.31256760  1
  O2-  O514  1  0.63880287  0.83497205  0.63840175  1
  O2-  O515  1  0.67290084  0.83644102  0.97981399  1
  O2-  O516  1  0.91780376  0.09031254  0.30383834  1
  O2-  O517  1  0.91122121  0.07704304  0.63927982  1
  O2-  O518  1  0.91838920  0.09095158  1.01540415  1
  O2-  O519  1  0.91974125  0.33658650  0.30922504  1
  O2-  O520  1  0.93371126  0.35228894  0.62790970  1
  O2-  O521  1  0.89047400  0.33732854  0.97817588  1
  O2-  O522  1  0.93720035  0.59490185  0.31786785  1
  O2-  O523  1  0.90915833  0.59096901  0.66928351  1
  O2-  O524  1  0.87487963  0.55970452  0.96265089  1
  O2-  O525  1  0.91468104  0.82859663  0.31505068  1
  O2-  O526  1  0.91835421  0.84143222  0.64565982  1
  O2-  O527  1  0.93999036  0.86250106  0.96648350  1
  O2-  O528  1  0.10518855  0.17317151  0.01704385  1
  O2-  O529  1  0.08545027  0.16424585  0.34467406  1
  O2-  O530  1  0.08180709  0.17014174  0.67836902  1
  O2-  O531  1  0.12225019  0.44716211  0.03024475  1
  O2-  O532  1  0.06812697  0.40931152  0.35766908  1
  O2-  O533  1  0.09655877  0.41608434  0.67631279  1
  O2-  O534  1  0.03737020  0.63368176  0.01447119  1
  O2-  O535  1  0.09916866  0.66995155  0.33784279  1
  O2-  O536  1  0.09228133  0.65667083  0.67426855  1
  O2-  O537  1  0.10682208  0.94002889  0.00876764  1
  O2-  O538  1  0.08904723  0.92121465  0.35178412  1
  O2-  O539  1  0.08030554  0.94066845  0.68656121  1
  O2-  O540  1  0.35001813  0.17530907  0.03297578  1
  O2-  O541  1  0.33104455  0.15590672  0.33812189  1
  O2-  O542  1  0.35864325  0.17606167  0.68695624  1
  O2-  O543  1  0.34077135  0.42102069  0.02225350  1
  O2-  O544  1  0.31994187  0.40636040  0.36093067  1
  O2-  O545  1  0.32168439  0.42047793  0.69453935  1
  O2-  O546  1  0.35017941  0.67563803  0.02598252  1
  O2-  O547  1  0.34667476  0.65436541  0.35337863  1
  O2-  O548  1  0.33673268  0.70489423  0.67184744  1
  O2-  O549  1  0.32404091  0.91395241  0.02342642  1
  O2-  O550  1  0.34909292  0.94468756  0.33939818  1
  O2-  O551  1  0.31322916  0.89026077  0.68533429  1
  O2-  O552  1  0.61995695  0.17581066  0.05642053  1
  O2-  O553  1  0.59145105  0.19017262  0.36128898  1
  O2-  O554  1  0.57760702  0.16509774  0.69199036  1
  O2-  O555  1  0.58194919  0.42397807  0.02285912  1
  O2-  O556  1  0.59662119  0.43415535  0.35148740  1
  O2-  O557  1  0.58648888  0.38727098  0.69191342  1
  O2-  O558  1  0.58400307  0.66919614  0.02170943  1
  O2-  O559  1  0.58712232  0.67573954  0.35224597  1
  O2-  O560  1  0.57223813  0.68080541  0.68584062  1
  O2-  O561  1  0.56986673  0.90334342  0.02933288  1
  O2-  O562  1  0.58853134  0.93856140  0.33907575  1
  O2-  O563  1  0.58918706  0.92774905  0.69232379  1
  O2-  O564  1  0.82445470  0.16994723  0.02582086  1
  O2-  O565  1  0.84002023  0.17742444  0.35221377  1
  O2-  O566  1  0.87031441  0.18593326  0.70189566  1
  O2-  O567  1  0.75941979  0.32304103  0.04855971  1
  O2-  O568  1  0.88775710  0.45094771  0.36391311  1
  O2-  O569  1  0.84711607  0.42329749  0.68400193  1
  O2-  O570  1  0.80240080  0.63206898  0.02710742  1
  O2-  O571  1  0.84936563  0.67203318  0.36739379  1
  O2-  O572  1  0.81844480  0.67375507  0.68378938  1
  O2-  O573  1  0.83913116  0.92366519  0.01476384  1
  O2-  O574  1  0.84317920  0.93291187  0.34909941  1
  O2-  O575  1  0.81428051  0.91010556  0.66556898  1
