# generated using pymatgen
data_H2O
_symmetry_space_group_name_H-M   'P 1'
_cell_length_a   17.99584960
_cell_length_b   18.00279837
_cell_length_c   22.00708810
_cell_angle_alpha   89.98898440
_cell_angle_beta   90.01133856
_cell_angle_gamma   120.00615414
_symmetry_Int_Tables_number   1
_chemical_formula_structural   H2O
_chemical_formula_sum   'H384 O192'
_cell_volume   6174.17080277
_cell_formula_units_Z   192
loop_
 _symmetry_equiv_pos_site_id
 _symmetry_equiv_pos_as_xyz
  1  'x, y, z'
loop_
 _atom_type_symbol
 _atom_type_oxidation_number
  H+  1.0
  O2-  -2.0
loop_
 _atom_site_type_symbol
 _atom_site_label
 _atom_site_symmetry_multiplicity
 _atom_site_fract_x
 _atom_site_fract_y
 _atom_site_fract_z
 _atom_site_occupancy
  H+  H0  1  0.52164412  0.88102322  0.33848242  1
  H+  H1  1  0.39893267  0.77659269  0.50903783  1
  H+  H2  1  0.85463642  0.09426807  0.84636213  1
  H+  H3  1  0.65620193  0.32978363  0.56053929  1
  H+  H4  1  0.51705927  0.38044527  0.48173965  1
  H+  H5  1  0.24404821  0.58290612  0.13298155  1
  H+  H6  1  0.13052028  1.02990723  0.17148714  1
  H+  H7  1  0.63443636  0.78931693  0.66470891  1
  H+  H8  1  0.35587862  0.37582131  0.33115090  1
  H+  H9  1  0.52644406  0.88563193  0.49499261  1
  H+  H10  1  0.46175136  0.61099193  0.16698807  1
  H+  H11  1  0.54322954  0.92953756  0.85008759  1
  H+  H12  1  1.03147386  0.63642607  0.82109685  1
  H+  H13  1  0.61462714  0.97559236  0.48932110  1
  H+  H14  1  0.72106142  0.11119920  0.49895402  1
  H+  H15  1  0.72623462  0.87586756  0.65750789  1
  H+  H16  1  1.01568748  0.12593907  1.00512095  1
  H+  H17  1  0.84799853  0.25536443  0.79719371  1
  H+  H18  1  0.85553141  0.63621995  0.49047469  1
  H+  H19  1  0.97011459  0.34172952  0.18419071  1
  H+  H20  1  0.34025248  0.71324498  -0.00743853  1
  H+  H21  1  0.86811908  0.88979521  0.81503100  1
  H+  H22  1  0.75394566  0.37278437  0.34850054  1
  H+  H23  1  0.87210581  0.51457978  0.50036130  1
  H+  H24  1  0.38237019  0.01868191  0.65112738  1
  H+  H25  1  0.85703484  -0.04557742  1.00135197  1
  H+  H26  1  0.85937641  0.46888437  0.66030871  1
  H+  H27  1  0.38518654  0.79131194  0.27397049  1
  H+  H28  1  0.86416694  0.69490560  0.66959390  1
  H+  H29  1  0.61725851  0.85769894  0.17880909  1
  H+  H30  1  0.84269428  0.96335307  0.82736869  1
  H+  H31  1  0.50787497  0.93196061  0.18263715  1
  H+  H32  1  0.72582723  0.36113278  -0.02300864  1
  H+  H33  1  0.63208429  0.36258345  0.82853194  1
  H+  H34  1  1.02172917  0.87900714  0.67182933  1
  H+  H35  1  0.12343789  0.60573394  -0.01019714  1
  H+  H36  1  0.13039325  0.20665097  0.10227758  1
  H+  H37  1  0.02631171  0.16134011  0.16835664  1
  H+  H38  1  0.62727888  0.85719968  0.33616999  1
  H+  H39  1  0.62920007  0.98515747  0.15879971  1
  H+  H40  1  0.23794598  0.37048662  0.32475081  1
  H+  H41  1  0.37611131  0.73330390  0.35209059  1
  H+  H42  1  0.51157351  0.64499261  0.67979327  1
  H+  H43  1  0.09995425  0.38676694  1.01800460  1
  H+  H44  1  0.62785054  0.30943741  0.36772691  1
  H+  H45  1  0.24697954  0.62687171  0.51350320  1
  H+  H46  1  0.12166819  0.14527317  0.33184503  1
  H+  H47  1  0.86515103  0.75720234  0.93611757  1
  H+  H48  1  0.37043423  0.89647627  0.32905890  1
  H+  H49  1  0.39483913  0.02556013  0.49652342  1
  H+  H50  1  0.57453540  0.72099154  0.16756905  1
  H+  H51  1  0.39036820  0.14383682  0.03165835  1
  H+  H52  1  0.93102355  0.61059345  0.93994617  1
  H+  H53  1  0.36613354  0.47165811  0.02858139  1
  H+  H54  1  0.77281538  0.16652375  0.82223323  1
  H+  H55  1  0.87937587  0.77450767  0.50047326  1
  H+  H56  1  0.96544901  0.36453615  0.65967543  1
  H+  H57  1  0.28485169  0.90120469  0.15670418  1
  H+  H58  1  0.25242250  0.62242518  -0.01121125  1
  H+  H59  1  0.51844257  0.63920336  0.34299001  1
  H+  H60  1  0.06553652  0.64484442  0.54779235  1
  H+  H61  1  -0.02988536  0.86745618  0.17217746  1
  H+  H62  1  0.87946346  0.25900719  0.18829402  1
  H+  H63  1  0.17572504  0.11789775  0.98777907  1
  H+  H64  1  0.60629999  0.66148197  0.69014450  1
  H+  H65  1  0.61717952  0.63727936  0.49094879  1
  H+  H66  1  0.09510644  0.18094677  -0.03500110  1
  H+  H67  1  0.88540649  0.14429910  0.15682069  1
  H+  H68  1  0.85495938  0.63248065  0.01788285  1
  H+  H69  1  0.61853401  0.38295366  0.17033424  1
  H+  H70  1  0.77489727  0.40661842  0.81417747  1
  H+  H71  1  0.36760950  0.97576377  0.00195935  1
  H+  H72  1  0.47041554  0.86416128  0.65891515  1
  H+  H73  1  0.12650898  0.39923587  0.33995770  1
  H+  H74  1  0.72474773  0.60974729  0.49319864  1
  H+  H75  1  0.10306821  0.64099335  0.36986111  1
  H+  H76  1  0.04564821  0.86284545  0.81482004  1
  H+  H77  1  0.09795195  0.35719855  0.49795804  1
  H+  H78  1  0.63696288  0.58529181  0.63910189  1
  H+  H79  1  0.60191210  0.89259772  0.66661815  1
  H+  H80  1  0.12639675  0.48591084  0.81766578  1
  H+  H81  1  0.23094365  0.85083609  -0.00395750  1
  H+  H82  1  0.62492808  0.51682149  0.83430950  1
  H+  H83  1  0.77258443  0.12762654  0.33313102  1
  H+  H84  1  0.15520800  0.12752563  0.17652145  1
  H+  H85  1  0.37075070  0.50567477  0.18214206  1
  H+  H86  1  0.52872545  0.90092927  0.00328595  1
  H+  H87  1  0.86297560  0.07875015  1.01139043  1
  H+  H88  1  0.51459175  0.38074120  0.82263115  1
  H+  H89  1  0.01367687  0.85803991  -0.00298652  1
  H+  H90  1  0.37903329  0.26418104  0.83519695  1
  H+  H91  1  0.62118319  0.59198061  0.99171181  1
  H+  H92  1  0.86441975  0.72297387  0.17227874  1
  H+  H93  1  0.36700829  0.13466661  0.66437000  1
  H+  H94  1  0.59333299  0.97545237  0.66522729  1
  H+  H95  1  0.52009073  0.37916742  0.66653105  1
  H+  H96  1  0.10999068  0.36582239  0.15129248  1
  H+  H97  1  0.12869373  0.64360126  0.81858649  1
  H+  H98  1  -0.03537088  0.34770531  0.50691788  1
  H+  H99  1  0.73755613  0.11079808  0.17513530  1
  H+  H100  1  0.38869718  0.75041812  0.18001310  1
  H+  H101  1  0.11881135  0.51514577  0.98660090  1
  H+  H102  1  0.71738358  0.86326328  0.98615914  1
  H+  H103  1  0.42128507  0.10842322  0.26157323  1
  H+  H104  1  0.51222385  0.13681465  0.66146934  1
  H+  H105  1  0.39180981  0.36117765  0.65331106  1
  H+  H106  1  0.69850502  0.84719428  0.19272399  1
  H+  H107  1  0.37180457  0.98624588  0.32899871  1
  H+  H108  1  0.66426884  0.83471777  0.56530879  1
  H+  H109  1  0.14407800  0.36025446  0.78876474  1
  H+  H110  1  0.72105618  0.36052253  0.65396487  1
  H+  H111  1  1.07025625  0.41742835  1.07135777  1
  H+  H112  1  0.39203072  0.27001108  0.00644939  1
  H+  H113  1  0.37508098  0.60179950  0.99504081  1
  H+  H114  1  0.14631097  0.22497167  0.76570396  1
  H+  H115  1  0.13779110  0.28184222  1.02600046  1
  H+  H116  1  1.01987288  0.88708841  0.48689169  1
  H+  H117  1  0.82997263  0.43558990  0.75264448  1
  H+  H118  1  0.64317689  0.69698251  0.04881701  1
  H+  H119  1  0.35975899  0.88465580  0.67193921  1
  H+  H120  1  0.62783333  0.74259160  0.83661848  1
  H+  H121  1  0.86422008  0.50445347  0.00023755  1
  H+  H122  1  0.57953519  0.39508507  0.06409910  1
  H+  H123  1  0.85601403  0.13564968  0.48929389  1
  H+  H124  1  0.04218945  0.40991130  0.34431825  1
  H+  H125  1  0.98179962  0.38048957  0.81361291  1
  H+  H126  1  0.86553063  0.72011730  0.33811125  1
  H+  H127  1  0.63425276  0.49757468  0.65167428  1
  H+  H128  1  0.38225018  0.77331909  0.65849869  1
  H+  H129  1  0.77071987  0.61170830  0.66623300  1
  H+  H130  1  0.36280843  0.13421077  0.82191588  1
  H+  H131  1  0.28635813  0.39337320  0.66814188  1
  H+  H132  1  0.84896705  0.24702152  0.03021168  1
  H+  H133  1  0.72592991  0.12147631  -0.01064784  1
  H+  H134  1  0.22179492  0.10235024  0.32806261  1
  H+  H135  1  0.48035028  0.11099209  0.99420247  1
  H+  H136  1  0.41776791  0.92948827  0.18299820  1
  H+  H137  1  0.60787352  0.45823647  0.00728444  1
  H+  H138  1  0.85446088  0.22350040  0.49096418  1
  H+  H139  1  0.36388453  0.38212453  0.02660100  1
  H+  H140  1  0.61535298  0.23103200  0.81494673  1
  H+  H141  1  0.84448282  0.78727687  0.64768535  1
  H+  H142  1  0.21442855  0.35976886  0.23338299  1
  H+  H143  1  0.71958857  0.35313969  0.19669813  1
  H+  H144  1  0.15021047  0.53002942  0.35641760  1
  H+  H145  1  0.88771530  0.77468268  0.82445507  1
  H+  H146  1  0.16767733  0.26651440  0.16054302  1
  H+  H147  1  0.41548856  0.08851653  0.93858902  1
  H+  H148  1  0.85420973  0.37842768  0.66824941  1
  H+  H149  1  0.46701358  0.60999227  0.99911488  1
  H+  H150  1  0.82355807  0.40958910  0.43582258  1
  H+  H151  1  0.08876071  0.43033854  0.75714038  1
  H+  H152  1  0.98739284  0.15889512  0.82047524  1
  H+  H153  1  0.76905075  0.89110109  0.50135886  1
  H+  H154  1  0.67071232  0.07956986  0.23109464  1
  H+  H155  1  0.01247450  0.61712276  0.17227192  1
  H+  H156  1  1.02893405  0.87990643  0.33899651  1
  H+  H157  1  0.74157316  0.09966030  0.66481030  1
  H+  H158  1  0.13377610  1.01898784  0.50145510  1
  H+  H159  1  0.09989089  0.94618351  -0.00516745  1
  H+  H160  1  0.00350754  0.14788644  0.84879983  1
  H+  H161  1  0.42477734  0.58374659  0.60294394  1
  H+  H162  1  -0.01492907  0.63099387  0.00241450  1
  H+  H163  1  0.86492023  -0.00515970  0.66244448  1
  H+  H164  1  0.73005056  0.85068209  0.83411580  1
  H+  H165  1  0.13847402  1.01470238  0.65909466  1
  H+  H166  1  0.76514017  0.63923497  0.82631786  1
  H+  H167  1  0.12766962  0.85940682  0.50566423  1
  H+  H168  1  0.47907960  0.11616255  0.31992746  1
  H+  H169  1  0.61606211  0.72718300  0.49567009  1
  H+  H170  1  0.45522572  0.79399472  0.95727676  1
  H+  H171  1  0.12919615  0.95373464  0.81609398  1
  H+  H172  1  0.48027924  0.60474303  0.50833656  1
  H+  H173  1  0.10731728  0.68957535  0.18869500  1
  H+  H174  1  0.37113459  0.88917737  -0.00006205  1
  H+  H175  1  0.63634372  0.86306384  0.50404852  1
  H+  H176  1  0.73396676  0.61164025  0.33271491  1
  H+  H177  1  0.62864331  0.35805550  0.49869410  1
  H+  H178  1  0.62351812  0.39494522  0.33072046  1
  H+  H179  1  0.96645735  0.13181326  0.63931571  1
  H+  H180  1  0.61763121  0.21822011  0.33132267  1
  H+  H181  1  0.15164781  0.81519522  0.16643682  1
  H+  H182  1  0.59422802  0.16861287  0.06105665  1
  H+  H183  1  0.34399656  0.73951863  0.18928143  1
  H+  H184  1  0.39585474  0.52375609  0.66186692  1
  H+  H185  1  0.14656356  0.10592816  0.66602641  1
  H+  H186  1  0.10852515  0.73537121  0.51123041  1
  H+  H187  1  0.88043570  0.86350808  0.18826674  1
  H+  H188  1  0.60915094  0.63259624  0.83067376  1
  H+  H189  1  0.72762833  0.61377615  0.18742150  1
  H+  H190  1  0.27858989  0.38641238  0.79841735  1
  H+  H191  1  0.13957084  0.84500752  -0.00293079  1
  H+  H192  1  0.38987439  0.51533458  0.50834249  1
  H+  H193  1  0.36092739  0.12984821  0.33821150  1
  H+  H194  1  0.60946023  0.37770218  0.66891027  1
  H+  H195  1  0.23741195  0.63607161  0.83383320  1
  H+  H196  1  0.41924758  0.84140800  0.91759473  1
  H+  H197  1  0.87077180  0.83526378  0.97509609  1
  H+  H198  1  0.16366433  0.07827840  0.56071256  1
  H+  H199  1  0.27118162  0.13416546  0.48872280  1
  H+  H200  1  0.33470716  0.41325608  0.43364924  1
  H+  H201  1  0.21477531  0.88609137  0.82113259  1
  H+  H202  1  0.87101439  0.37986742  1.02883997  1
  H+  H203  1  0.38293622  0.89860764  0.48601576  1
  H+  H204  1  0.95405829  0.37146733  1.03808527  1
  H+  H205  1  0.85595998  1.08170996  0.31288423  1
  H+  H206  1  0.63094260  0.10952027  0.49516056  1
  H+  H207  1  0.38867243  0.26979665  0.65385128  1
  H+  H208  1  0.39198918  0.61676124  0.33084343  1
  H+  H209  1  0.27564040  0.63435593  0.67413186  1
  H+  H210  1  0.84414162  0.46323932  0.34893045  1
  H+  H211  1  0.36275257  0.38511025  0.82239615  1
  H+  H212  1  0.37808603  0.22734342  0.20302095  1
  H+  H213  1  0.15900239  0.62855607  0.51152326  1
  H+  H214  1  0.89849629  0.53028642  0.83603038  1
  H+  H215  1  0.63329316  0.87410401  0.98680262  1
  H+  H216  1  0.37273219  0.52331946  0.83905950  1
  H+  H217  1  0.37641675  0.63504312  0.50300390  1
  H+  H218  1  0.71224630  0.59806058  -0.00019939  1
  H+  H219  1  0.89778771  0.39114821  0.81027451  1
  H+  H220  1  0.84373985  0.71214896  0.02329534  1
  H+  H221  1  0.24056001  0.87786942  0.31603726  1
  H+  H222  1  0.52084964  0.13561711  0.48514161  1
  H+  H223  1  0.11368296  0.97349942  0.33828936  1
  H+  H224  1  0.63507611  0.10548735  0.32200879  1
  H+  H225  1  0.36342090  0.38139687  0.49175628  1
  H+  H226  1  0.10208268  0.12470843  0.48809459  1
  H+  H227  1  0.13755848  0.85635912  0.65871518  1
  H+  H228  1  0.47329716  0.35646002  0.99230197  1
  H+  H229  1  0.61811043  0.22437110  0.15876541  1
  H+  H230  1  0.22547532  0.09206203  0.82570882  1
  H+  H231  1  0.76701009  0.38395365  0.49624335  1
  H+  H232  1  0.63576840  0.01686171  0.32408054  1
  H+  H233  1  0.16647294  0.59616600  0.88918248  1
  H+  H234  1  0.61537228  0.22035538  0.99744183  1
  H+  H235  1  0.62006371  0.11221720  0.64875442  1
  H+  H236  1  0.63371017  0.35010431  0.98333858  1
  H+  H237  1  0.14984930  0.28235013  0.31553847  1
  H+  H238  1  0.47230735  0.11350970  0.83925315  1
  H+  H239  1  0.87302273  0.19801082  -0.01613987  1
  H+  H240  1  0.25856799  0.15635693  0.94876027  1
  H+  H241  1  0.85909973  0.95427048  0.33055578  1
  H+  H242  1  0.35962172  0.64721017  0.83066917  1
  H+  H243  1  0.10070358  0.44729763  0.16171832  1
  H+  H244  1  0.88863931  0.59623013  0.65516182  1
  H+  H245  1  0.36564546  0.63666130  0.67453098  1
  H+  H246  1  0.14872208  0.87087215  0.32051682  1
  H+  H247  1  0.14316357  0.61406823  0.66008548  1
  H+  H248  1  0.12043993  0.72425686  0.01321597  1
  H+  H249  1  0.96452960  0.60069670  0.34415018  1
  H+  H250  1  0.22646211  0.36692057  0.03851221  1
  H+  H251  1  0.22646625  0.35031328  0.50543071  1
  H+  H252  1  0.88610558  0.60352752  0.18332548  1
  H+  H253  1  0.88937418  0.84894879  0.32754551  1
  H+  H254  1  0.82951930  0.96619747  0.23333577  1
  H+  H255  1  0.61865241  -0.01263402  1.00425097  1
  H+  H256  1  0.35674661  0.33278588  0.21380386  1
  H+  H257  1  0.38732575  0.88892261  0.83329231  1
  H+  H258  1  0.27780190  0.13277810  0.66675613  1
  H+  H259  1  0.86041280  0.88937926  0.49636167  1
  H+  H260  1  0.90254177  0.38874801  0.33637081  1
  H+  H261  1  0.57231748  0.16789292  0.72110660  1
  H+  H262  1  0.38390392  0.26767064  0.49890224  1
  H+  H263  1  0.97285859  0.10536551  0.50015848  1
  H+  H264  1  0.58845205  0.92256784  0.10088414  1
  H+  H265  1  0.85989294  0.62721780  0.34279142  1
  H+  H266  1  0.10640810  0.38943118  0.67087883  1
  H+  H267  1  0.86469991  0.37454369  0.18611200  1
  H+  H268  1  0.10956451  0.47963469  0.66712680  1
  H+  H269  1  0.18007911  0.34919470  0.72531086  1
  H+  H270  1  0.11945860  0.58548991  0.16619096  1
  H+  H271  1  0.30434723  0.14159814  0.04285981  1
  H+  H272  1  0.63505034  0.50562388  0.33158324  1
  H+  H273  1  0.95425050  0.06581538  0.16458425  1
  H+  H274  1  0.38760716  0.11230567  0.49865289  1
  H+  H275  1  0.62942579  0.27176502  0.65316636  1
  H+  H276  1  0.39752578  0.80333990  0.83129823  1
  H+  H277  1  0.22838513  0.85882975  0.66080470  1
  H+  H278  1  0.20458503  0.41835287  0.62937406  1
  H+  H279  1  0.10412360  0.21297778  0.49287298  1
  H+  H280  1  0.87969672  0.35721128  0.50616000  1
  H+  H281  1  0.96015804  0.60700321  0.50121253  1
  H+  H282  1  0.61025621  0.74154074  0.00398264  1
  H+  H283  1  0.33169810  0.91888184  0.73096960  1
  H+  H284  1  0.61027239  0.22374199  0.48585080  1
  H+  H285  1  0.28545231  0.64600189  0.35769268  1
  H+  H286  1  0.63208605  0.14374470  0.15334423  1
  H+  H287  1  0.37248350  0.47310251  0.33859186  1
  H+  H288  1  0.65557811  0.05131301  0.90227655  1
  H+  H289  1  0.39695839  0.57268641  0.90168707  1
  H+  H290  1  0.83502618  0.15513738  0.38926196  1
  H+  H291  1  0.35311222  0.58282648  0.15586714  1
  H+  H292  1  0.91425476  0.57264972  0.28000917  1
  H+  H293  1  0.17432832  0.05429391  0.88624264  1
  H+  H294  1  0.65600722  0.57140867  0.89577553  1
  H+  H295  1  0.82687608  0.88223836  0.05218984  1
  H+  H296  1  0.41787270  0.32756720  0.55837629  1
  H+  H297  1  0.37119373  0.17789284  0.13369066  1
  H+  H298  1  0.05756448  0.65613579  0.42380241  1
  H+  H299  1  0.10760306  0.12607903  0.78265061  1
  H+  H300  1  0.88419226  0.88428112  0.65398477  1
  H+  H301  1  0.38286420  0.02505456  0.84106529  1
  H+  H302  1  0.40729374  0.32058208  0.89632824  1
  H+  H303  1  0.16482538  0.07745791  0.26765161  1
  H+  H304  1  0.83104347  0.66785506  0.42961647  1
  H+  H305  1  0.33004000  0.16304833  0.42901928  1
  H+  H306  1  0.92231693  0.82128086  0.26941804  1
  H+  H307  1  0.66680556  0.83077727  0.89416457  1
  H+  H308  1  0.80384986  0.14536607  0.72052431  1
  H+  H309  1  0.61053729  0.74026946  0.34357563  1
  H+  H310  1  0.42120004  0.83824785  0.56630544  1
  H+  H311  1  0.79777827  0.45045511  0.05102207  1
  H+  H312  1  0.58465491  0.15994911  0.39085274  1
  H+  H313  1  0.64337354  0.81883860  0.27461245  1
  H+  H314  1  0.57783632  0.91045080  0.40109517  1
  H+  H315  1  0.11897950  0.29637181  0.90116787  1
  H+  H316  1  0.17382215  0.32346139  0.56715397  1
  H+  H317  1  0.93341997  0.35704500  0.27936129  1
  H+  H318  1  0.83668241  0.93479666  0.72341696  1
  H+  H319  1  0.67000198  0.58678799  0.27315815  1
  H+  H320  1  0.92087683  0.36321953  0.93246224  1
  H+  H321  1  0.15804406  0.32097865  0.92090871  1
  H+  H322  1  0.88214720  0.31926908  0.93082298  1
  H+  H323  1  0.33522169  0.16285622  0.76008198  1
  H+  H324  1  0.54499051  0.67176102  0.10287484  1
  H+  H325  1  0.07037754  0.91311769  0.09921431  1
  H+  H326  1  0.57953073  0.67082092  0.40737289  1
  H+  H327  1  0.66701108  0.56746333  0.55162720  1
  H+  H328  1  0.57401594  0.41227299  0.76250568  1
  H+  H329  1  0.82958684  0.65771690  0.11657581  1
  H+  H330  1  0.90531769  0.32914301  0.60152009  1
  H+  H331  1  0.08828119  0.90276436  0.72769048  1
  H+  H332  1  0.08774578  0.17618187  0.38652701  1
  H+  H333  1  0.60636382  0.46986038  0.48025305  1
  H+  H334  1  0.41257035  0.07791385  0.59001985  1
  H+  H335  1  0.41794806  0.58807493  0.26962800  1
  H+  H336  1  0.82590264  0.65653714  0.76996439  1
  H+  H337  1  0.31114917  0.62165218  0.07635900  1
  H+  H338  1  0.08617215  0.66705406  0.75367277  1
  H+  H339  1  0.35314039  0.92822670  0.42615746  1
  H+  H340  1  0.16971622  0.56201682  0.21518999  1
  H+  H341  1  0.88470582  0.51220747  0.18336366  1
  H+  H342  1  0.33780764  0.90845704  0.09690268  1
  H+  H343  1  0.16485395  0.83585323  0.56500158  1
  H+  H344  1  0.63319109  0.11408798  0.98932322  1
  H+  H345  1  0.76010859  0.03298194  0.86725902  1
  H+  H346  1  0.63697071  0.52913625  0.18723253  1
  H+  H347  1  0.57053277  0.66912616  0.77716789  1
  H+  H348  1  0.08400749  0.66057270  0.07210121  1
  H+  H349  1  0.34498418  0.21035365  0.33084163  1
  H+  H350  1  0.90882921  0.08223029  0.56150087  1
  H+  H351  1  0.93771744  0.84598101  0.87544057  1
  H+  H352  1  0.61473706  0.14257702  0.81001262  1
  H+  H353  1  0.96759585  0.53909871  0.88223714  1
  H+  H354  1  0.35154195  0.42110209  0.72546558  1
  H+  H355  1  0.08524315  0.17695657  0.68462683  1
  H+  H356  1  0.31871603  0.39721289  0.12916246  1
  H+  H357  1  0.81673553  0.95934765  0.16266822  1
  H+  H358  1  0.77449820  0.86661728  0.33846352  1
  H+  H359  1  0.33809806  0.67806136  0.76832999  1
  H+  H360  1  0.66634677  0.33160794  0.88446585  1
  H+  H361  1  0.11611686  0.72784519  0.66971694  1
  H+  H362  1  0.84165311  0.16768956  0.10263008  1
  H+  H363  1  0.84260561  0.39070656  0.12260038  1
  H+  H364  1  0.07745206  0.39734309  0.44093845  1
  H+  H365  1  0.86786778  0.05656301  0.94267208  1
  H+  H366  1  0.10260267  0.25207705  0.64115678  1
  H+  H367  1  0.91563913  0.57585777  0.59091874  1
  H+  H368  1  0.65265015  0.32256796  0.25101796  1
  H+  H369  1  0.67122720  0.46098539  0.12890187  1
  H+  H370  1  0.92868981  0.08471350  0.27045055  1
  H+  H371  1  0.02647764  0.63518389  0.66702090  1
  H+  H372  1  0.10964822  0.90280408  0.16142692  1
  H+  H373  1  0.86318610  0.10433149  0.64949645  1
  H+  H374  1  0.17949507  0.86339577  0.23205974  1
  H+  H375  1  0.17792438  0.58924943  0.60014123  1
  H+  H376  1  0.44653268  0.88987881  0.25844911  1
  H+  H377  1  0.58231860  0.42015870  0.38760082  1
  H+  H378  1  0.16834050  0.60500542  0.30989314  1
  H+  H379  1  0.91057091  0.83593436  0.55915379  1
  H+  H380  1  0.08396110  0.91466276  0.42977149  1
  H+  H381  1  0.64797558  0.07831831  0.58980178  1
  H+  H382  1  0.35227394  0.66898671  0.44328322  1
  H+  H383  1  0.87041758  0.99652501  0.50186119  1
  O2-  O384  1  0.12746772  0.20603732  0.14656058  1
  O2-  O385  1  0.07017520  0.15425340  0.47500184  1
  O2-  O386  1  0.13230283  0.16756225  0.74968269  1
  O2-  O387  1  0.06937106  0.38678839  0.14721743  1
  O2-  O388  1  0.06334525  0.38276330  0.48425371  1
  O2-  O389  1  0.09444438  0.42636103  0.80262941  1
  O2-  O390  1  0.07524253  0.64563097  0.15820159  1
  O2-  O391  1  0.07679891  0.66706045  0.50637611  1
  O2-  O392  1  0.09025400  0.66907108  0.80118353  1
  O2-  O393  1  0.06904349  0.92060346  0.14358827  1
  O2-  O394  1  0.08143759  0.91591866  0.47567483  1
  O2-  O395  1  0.10476573  0.89399985  0.79903150  1
  O2-  O396  1  0.36685053  0.17088087  0.17951161  1
  O2-  O397  1  0.33213081  0.16509870  0.47488124  1
  O2-  O398  1  0.33028502  0.16182170  0.80552629  1
  O2-  O399  1  0.31646994  0.40090908  0.17483900  1
  O2-  O400  1  0.33384532  0.41370600  0.47904335  1
  O2-  O401  1  0.34257493  0.42139825  0.80239801  1
  O2-  O402  1  0.29893310  0.59127261  0.11637980  1
  O2-  O403  1  0.35097225  0.67013970  0.48830894  1
  O2-  O404  1  0.33617035  0.68324633  0.81352052  1
  O2-  O405  1  0.33367957  0.89644808  0.14108132  1
  O2-  O406  1  0.35777887  0.93306835  0.47110243  1
  O2-  O407  1  0.33768202  0.92884306  0.80977455  1
  O2-  O408  1  0.61301456  0.17907856  0.13101592  1
  O2-  O409  1  0.58144620  0.16429914  0.46893534  1
  O2-  O410  1  0.58058878  0.16960964  0.80109415  1
  O2-  O411  1  0.61268279  0.42565608  0.14367056  1
  O2-  O412  1  0.57710438  0.40967356  0.46501564  1
  O2-  O413  1  0.57535629  0.41447624  0.80798497  1
  O2-  O414  1  0.53989676  0.66311250  0.14734101  1
  O2-  O415  1  0.58535247  0.66748300  0.47833712  1
  O2-  O416  1  0.58338181  0.67019747  0.82172450  1
  O2-  O417  1  0.59129245  0.92301715  0.14598502  1
  O2-  O418  1  0.58591486  0.91357399  0.47637087  1
  O2-  O419  1  0.59939216  0.93799825  0.86468482  1
  O2-  O420  1  0.84189762  0.16154262  0.14702200  1
  O2-  O421  1  0.82437375  0.16334858  0.47374948  1
  O2-  O422  1  0.79945292  0.19714510  0.78507325  1
  O2-  O423  1  0.83678861  0.40422318  0.16485840  1
  O2-  O424  1  0.82789765  0.41568666  0.48200273  1
  O2-  O425  1  0.83354663  0.44557604  0.79809031  1
  O2-  O426  1  0.83581018  0.66067677  0.16148385  1
  O2-  O427  1  0.82805466  0.66940902  0.47552722  1
  O2-  O428  1  0.82598112  0.67182194  0.81305466  1
  O2-  O429  1  0.81326110  0.92510971  0.19798920  1
  O2-  O430  1  0.83130878  0.92410362  0.48806121  1
  O2-  O431  1  0.82746509  0.91059647  0.80428703  1
  O2-  O432  1  0.16986712  0.08491492  0.19154266  1
  O2-  O433  1  0.16287327  0.08019819  0.51566343  1
  O2-  O434  1  0.16646916  0.05244485  0.84205647  1
  O2-  O435  1  0.22315046  0.36719339  0.18623988  1
  O2-  O436  1  0.16736192  0.31558387  0.52243189  1
  O2-  O437  1  0.17598296  0.33416246  0.77001671  1
  O2-  O438  1  0.15183336  0.55365672  0.17284688  1
  O2-  O439  1  0.18716764  0.59889492  0.52934093  1
  O2-  O440  1  0.17315186  0.60400390  0.84424689  1
  O2-  O441  1  0.17669404  0.87180769  0.18469403  1
  O2-  O442  1  0.15488651  0.82632603  0.52063028  1
  O2-  O443  1  0.25514176  0.87211974  0.84103654  1
  O2-  O444  1  0.43448013  0.15052986  0.19523648  1
  O2-  O445  1  0.42157143  0.08635479  0.51432931  1
  O2-  O446  1  0.41380386  0.08676220  0.85676273  1
  O2-  O447  1  0.38909657  0.30745181  0.23272098  1
  O2-  O448  1  0.41646228  0.32924237  0.51302098  1
  O2-  O449  1  0.40978381  0.32447983  0.85142768  1
  O2-  O450  1  0.39473110  0.57025656  0.18509100  1
  O2-  O451  1  0.42126581  0.57521537  0.52558703  1
  O2-  O452  1  0.39128665  0.57989471  0.85797759  1
  O2-  O453  1  0.46967301  0.94302685  0.20886844  1
  O2-  O454  1  0.42808735  0.83831099  0.52091594  1
  O2-  O455  1  0.42349328  0.86144521  0.84936063  1
  O2-  O456  1  0.67555186  0.08183267  0.18536882  1
  O2-  O457  1  0.65931472  0.07825840  0.51212865  1
  O2-  O458  1  0.66024091  0.03132629  0.86044613  1
  O2-  O459  1  0.65770561  0.32632652  0.20564087  1
  O2-  O460  1  0.65865662  0.32833913  0.51511248  1
  O2-  O461  1  0.66678110  0.33503823  0.83919733  1
  O2-  O462  1  0.66739654  0.58908176  0.20167025  1
  O2-  O463  1  0.66311109  0.57661248  0.50754367  1
  O2-  O464  1  0.65506337  0.57708529  0.85103474  1
  O2-  O465  1  0.63525119  0.81753049  0.19784413  1
  O2-  O466  1  0.66698361  0.83272520  0.51970199  1
  O2-  O467  1  0.66953439  0.81898624  0.85007235  1
  O2-  O468  1  0.96367930  0.12174166  0.17702254  1
  O2-  O469  1  0.91031902  0.07496171  0.51455970  1
  O2-  O470  1  0.82033919  0.04349045  0.87149858  1
  O2-  O471  1  0.91288281  0.31882256  0.20361761  1
  O2-  O472  1  0.90333811  0.32132302  0.52169218  1
  O2-  O473  1  0.91875286  0.35119522  0.81935554  1
  O2-  O474  1  0.91768202  0.57365156  0.19659829  1
  O2-  O475  1  0.89973921  0.57662656  0.51545153  1
  O2-  O476  1  0.94745363  0.57443009  0.86247162  1
  O2-  O477  1  0.91121170  0.83118371  0.19049214  1
  O2-  O478  1  0.90945344  0.83606918  0.51402677  1
  O2-  O479  1  0.92720296  0.83862571  0.83157184  1
  O2-  O480  1  0.16099833  0.07480099  0.31330576  1
  O2-  O481  1  0.17051033  0.07531216  0.64412699  1
  O2-  O482  1  0.21764371  0.10421231  0.97037032  1
  O2-  O483  1  0.18239808  0.34460590  0.30168184  1
  O2-  O484  1  0.18590129  0.36326489  0.64886864  1
  O2-  O485  1  0.16302995  0.34039786  1.04159681  1
  O2-  O486  1  0.17977927  0.59601900  0.35164729  1
  O2-  O487  1  0.17244884  0.58274850  0.64651378  1
  O2-  O488  1  0.14899543  0.57438128  0.96885402  1
  O2-  O489  1  0.18172396  0.84903663  0.29765738  1
  O2-  O490  1  0.16745861  0.82519512  0.64509465  1
  O2-  O491  1  0.16894712  0.81323596  0.98601453  1
  O2-  O492  1  0.41849442  0.08924644  0.30584017  1
  O2-  O493  1  0.41180420  0.07911807  0.63589165  1
  O2-  O494  1  0.41791509  0.08514787  0.98383814  1
  O2-  O495  1  0.36246908  0.29820560  0.29696583  1
  O2-  O496  1  0.42140272  0.33005742  0.63794619  1
  O2-  O497  1  0.41043622  0.32417282  0.98372514  1
  O2-  O498  1  0.42366112  0.58853865  0.31423029  1
  O2-  O499  1  0.42398577  0.58582434  0.64848442  1
  O2-  O500  1  0.40685520  0.57004347  0.98916734  1
  O2-  O501  1  0.42330933  0.84346938  0.29645236  1
  O2-  O502  1  0.40862133  0.83309545  0.64290208  1
  O2-  O503  1  0.42331337  0.82430773  0.96220237  1
  O2-  O504  1  0.66593547  0.07549677  0.30661738  1
  O2-  O505  1  0.64447090  0.07605067  0.63508987  1
  O2-  O506  1  0.66609262  0.08460299  0.97510995  1
  O2-  O507  1  0.65878839  0.33126938  0.32950464  1
  O2-  O508  1  0.66004078  0.33329115  0.63908842  1
  O2-  O509  1  0.66556262  0.32396742  0.96405529  1
  O2-  O510  1  0.67151022  0.58085139  0.31932394  1
  O2-  O511  1  0.67112710  0.55791927  0.63246232  1
  O2-  O512  1  0.65499096  0.56524681  0.97958672  1
  O2-  O513  1  0.65279685  0.82158959  0.31974938  1
  O2-  O514  1  0.66621286  0.84352394  0.64164816  1
  O2-  O515  1  0.65764179  0.83760231  0.97125192  1
  O2-  O516  1  0.87407218  0.04396712  0.28944731  1
  O2-  O517  1  0.90499510  0.08769159  0.62915323  1
  O2-  O518  1  0.89144161  0.05739597  0.98438840  1
  O2-  O519  1  0.95391643  0.39313504  0.31613044  1
  O2-  O520  1  0.90470583  0.33470371  0.64652340  1
  O2-  O521  1  0.89266263  0.34596216  1.05022809  1
  O2-  O522  1  0.90593725  0.57160774  0.32452888  1
  O2-  O523  1  0.92553615  0.57619306  0.63603510  1
  O2-  O524  1  0.92503875  0.60796730  0.98472831  1
  O2-  O525  1  0.92198641  0.81895844  0.31452604  1
  O2-  O526  1  0.89947735  0.83921556  0.64075820  1
  O2-  O527  1  0.90155936  0.80374919  0.96395964  1
  O2-  O528  1  0.07919924  0.15780828  0.00616652  1
  O2-  O529  1  0.09718499  0.18265858  0.34223117  1
  O2-  O530  1  0.06936796  0.18867776  0.64401682  1
  O2-  O531  1  0.06774995  0.41755726  0.02607482  1
  O2-  O532  1  0.10190854  0.43026214  0.36160846  1
  O2-  O533  1  0.07530888  0.41990242  0.68405626  1
  O2-  O534  1  0.08114810  0.66129978  0.02740416  1
  O2-  O535  1  0.05799734  0.65477405  0.37926935  1
  O2-  O536  1  0.08510705  0.66637624  0.68585892  1
  O2-  O537  1  0.07033669  0.89166957  0.01650603  1
  O2-  O538  1  0.08891792  0.91323431  0.35453021  1
  O2-  O539  1  0.08305241  0.90802909  0.68206501  1
  O2-  O540  1  0.36515962  0.17482499  0.05420619  1
  O2-  O541  1  0.32562444  0.15470866  0.35388747  1
  O2-  O542  1  0.33844164  0.16607502  0.68132461  1
  O2-  O543  1  0.33982582  0.41392493  0.04819103  1
  O2-  O544  1  0.33846102  0.41397433  0.35411134  1
  O2-  O545  1  0.34966766  0.42069787  0.67979991  1
  O2-  O546  1  0.31352871  0.65208505  0.00393909  1
  O2-  O547  1  0.34960712  0.67264766  0.36370674  1
  O2-  O548  1  0.33608181  0.66722321  0.68958972  1
  O2-  O549  1  0.33821461  0.91467909  0.01598101  1
  O2-  O550  1  0.34154588  0.92641520  0.34605586  1
  O2-  O551  1  0.32935240  0.91608679  0.68526508  1
  O2-  O552  1  0.58551424  0.16151665  0.01501267  1
  O2-  O553  1  0.58556603  0.15708503  0.34528885  1
  O2-  O554  1  0.57354369  0.17009523  0.67590833  1
  O2-  O555  1  0.57995494  0.39655259  0.01885320  1
  O2-  O556  1  0.59352097  0.42952344  0.34275533  1
  O2-  O557  1  0.58041850  0.41048955  0.68357339  1
  O2-  O558  1  0.59196886  0.68530384  0.02586862  1
  O2-  O559  1  0.57836966  0.67475041  0.36079254  1
  O2-  O560  1  0.56914097  0.68385030  0.70172689  1
  O2-  O561  1  0.58810404  0.92582861  0.01875282  1
  O2-  O562  1  0.58078392  0.90876218  0.35519343  1
  O2-  O563  1  0.56587091  0.91570368  0.68155135  1
  O2-  O564  1  0.83341302  0.18609493  0.01765295  1
  O2-  O565  1  0.83301605  0.14717675  0.34466788  1
  O2-  O566  1  0.79443162  0.10739506  0.68511656  1
  O2-  O567  1  0.82351337  0.44371689  0.01396115  1
  O2-  O568  1  0.81721626  0.40313765  0.36367803  1
  O2-  O569  1  0.82352205  0.41206212  0.67984159  1
  O2-  O570  1  0.81571149  0.65143466  0.03562633  1
  O2-  O571  1  0.83060150  0.66023038  0.35552372  1
  O2-  O572  1  0.82826395  0.63792636  0.68676479  1
  O2-  O573  1  0.82644782  0.89044763  0.00833026  1
  O2-  O574  1  0.83629129  0.89547309  0.34704052  1
  O2-  O575  1  0.83568502  0.93353399  0.67831910  1
