# generated using pymatgen
data_H2O
_symmetry_space_group_name_H-M   'P 1'
_cell_length_a   17.99242636
_cell_length_b   17.99549122
_cell_length_c   22.00593759
_cell_angle_alpha   89.99378182
_cell_angle_beta   89.99733213
_cell_angle_gamma   119.99197055
_symmetry_Int_Tables_number   1
_chemical_formula_structural   H2O
_chemical_formula_sum   'H384 O192'
_cell_volume   6171.05015340
_cell_formula_units_Z   192
loop_
 _symmetry_equiv_pos_site_id
 _symmetry_equiv_pos_as_xyz
  1  'x, y, z'
loop_
 _atom_type_symbol
 _atom_type_oxidation_number
  H+  1.0
  O2-  -2.0
loop_
 _atom_site_type_symbol
 _atom_site_label
 _atom_site_symmetry_multiplicity
 _atom_site_fract_x
 _atom_site_fract_y
 _atom_site_fract_z
 _atom_site_occupancy
  H+  H0  1  0.53285210  0.40247256  0.83086008  1
  H+  H1  1  0.63367391  0.41502411  0.50952936  1
  H+  H2  1  0.12850244  0.09898245  0.83958103  1
  H+  H3  1  0.13357583  0.62148130  0.82801536  1
  H+  H4  1  0.38848649  0.37695140  0.83911397  1
  H+  H5  1  0.63431314  0.11453200  0.31838949  1
  H+  H6  1  0.85735043  0.70311489  0.67376288  1
  H+  H7  1  0.61644961  0.39257659  0.83595368  1
  H+  H8  1  0.42615286  0.39483424  -0.00982336  1
  H+  H9  1  0.15432327  0.06952276  0.93518324  1
  H+  H10  1  0.02877753  0.13283423  0.49885481  1
  H+  H11  1  0.39303098  0.40756218  0.15763616  1
  H+  H12  1  0.27321715  0.69792590  0.69629106  1
  H+  H13  1  0.41288341  0.63586524  0.18229340  1
  H+  H14  1  0.88936915  0.55980044  0.17604656  1
  H+  H15  1  0.03415658  0.14180131  0.81153583  1
  H+  H16  1  0.11028430  0.62982789  0.33272444  1
  H+  H17  1  0.35846151  0.12913515  0.48769798  1
  H+  H18  1  0.35237263  0.21525211  0.48731247  1
  H+  H19  1  0.34905356  0.71568859  0.00328553  1
  H+  H20  1  0.13469070  0.10860557  0.99419868  1
  H+  H21  1  0.12783491  0.84002031  0.54918093  1
  H+  H22  1  0.86980987  0.23357882  1.01285031  1
  H+  H23  1  0.77077709  0.63356944  0.82705496  1
  H+  H24  1  0.15457981  0.03132520  0.18000103  1
  H+  H25  1  0.39214723  0.60434133  0.50190150  1
  H+  H26  1  0.41917460  0.07268125  0.93587473  1
  H+  H27  1  0.08474526  0.91622926  0.73986692  1
  H+  H28  1  0.87847791  0.23880750  0.67946334  1
  H+  H29  1  0.14888926  0.78070515  0.17066212  1
  H+  H30  1  0.13178195  0.52385620  0.83467076  1
  H+  H31  1  0.41150010  0.07239665  0.22754724  1
  H+  H32  1  0.76201066  0.65062852  0.51705369  1
  H+  H33  1  0.38309778  0.10319548  -0.00584038  1
  H+  H34  1  0.40467685  0.30174079  0.81882603  1
  H+  H35  1  0.14646030  0.77731513  0.32306106  1
  H+  H36  1  0.90283449  0.36753137  0.85600058  1
  H+  H37  1  0.22877018  0.61949308  0.83371073  1
  H+  H38  1  0.60664122  0.23149079  0.15421629  1
  H+  H39  1  0.98792508  0.62730844  0.50430340  1
  H+  H40  1  0.47808942  0.61845320  0.83816308  1
  H+  H41  1  0.25557596  0.42183646  0.14850914  1
  H+  H42  1  0.37958559  0.35319701  0.49815378  1
  H+  H43  1  0.52353469  0.88813513  0.15939262  1
  H+  H44  1  0.72832963  0.11516506  1.00073932  1
  H+  H45  1  0.61386583  0.72348695  0.83005831  1
  H+  H46  1  0.61656711  0.64223716  0.67717869  1
  H+  H47  1  0.38908225  0.76250504  0.17000181  1
  H+  H48  1  0.11233087  0.12352257  0.49351770  1
  H+  H49  1  0.31897491  0.41524465  -0.00899762  1
  H+  H50  1  0.27447300  0.38245455  0.48997220  1
  H+  H51  1  0.61758655  0.22678110  0.83126947  1
  H+  H52  1  0.77735970  0.65349520  0.14927966  1
  H+  H53  1  0.09689382  0.22104415  0.00445221  1
  H+  H54  1  0.15450648  0.11839402  0.17124631  1
  H+  H55  1  -0.01162331  0.11929063  0.66665604  1
  H+  H56  1  0.89202913  0.60615632  0.66366682  1
  H+  H57  1  0.27503572  0.12165591  1.00175996  1
  H+  H58  1  0.62438611  0.65135688  0.33790382  1
  H+  H59  1  0.67604451  0.06062322  0.34268645  1
  H+  H60  1  0.98078637  0.86729490  0.34068088  1
  H+  H61  1  0.27384553  0.39307165  0.83721346  1
  H+  H62  1  0.37002044  1.01867339  0.49869666  1
  H+  H63  1  0.37856435  1.01289678  0.32161559  1
  H+  H64  1  0.72821541  0.85450440  0.18826979  1
  H+  H65  1  0.65215968  0.23641187  0.48921184  1
  H+  H66  1  0.36286672  0.48426736  0.83679399  1
  H+  H67  1  0.99442477  0.36442052  0.50764181  1
  H+  H68  1  0.39439691  0.30664754  0.66570456  1
  H+  H69  1  0.91037677  0.82950345  0.70130771  1
  H+  H70  1  -0.01883878  0.11194564  0.16544912  1
  H+  H71  1  0.61950120  0.46994710  0.67863440  1
  H+  H72  1  0.81096214  0.58039144  0.37186093  1
  H+  H73  1  0.67722543  0.13110744  0.66356930  1
  H+  H74  1  0.27738118  0.88171448  0.33394862  1
  H+  H75  1  0.71083093  0.32973184  0.33958402  1
  H+  H76  1  0.63422666  0.40951515  0.15908466  1
  H+  H77  1  0.38315236  0.09599010  0.84548137  1
  H+  H78  1  0.12057737  0.77478079  0.83595032  1
  H+  H79  1  0.36362947  0.12277189  0.15020797  1
  H+  H80  1  0.21804839  0.09193446  0.49844220  1
  H+  H81  1  0.38740532  1.01045846  0.84391097  1
  H+  H82  1  0.15740932  0.10049084  0.65089706  1
  H+  H83  1  0.36457283  0.62871151  0.33536613  1
  H+  H84  1  0.25060728  0.10385400  0.84263067  1
  H+  H85  1  0.78305094  0.88024780  0.82891938  1
  H+  H86  1  0.61691475  0.62123980  0.49718694  1
  H+  H87  1  0.72121686  0.60504301  0.67368519  1
  H+  H88  1  0.22360124  0.60726477  0.32638771  1
  H+  H89  1  0.72408285  0.36377467  0.84296645  1
  H+  H90  1  0.60556496  0.87947161  1.01022844  1
  H+  H91  1  0.04187047  0.43309040  0.99999017  1
  H+  H92  1  0.13045250  0.51993506  0.65012264  1
  H+  H93  1  0.78107754  0.63460080  0.33350717  1
  H+  H94  1  0.62523483  -0.01993317  0.84050027  1
  H+  H95  1  0.85982580  0.49841067  0.34187847  1
  H+  H96  1  0.47234578  0.84922064  0.32190692  1
  H+  H97  1  0.84027552  0.17596910  0.43417684  1
  H+  H98  1  0.86700830  0.89197772  0.15382499  1
  H+  H99  1  0.47378539  0.85848613  0.99804265  1
  H+  H100  1  0.25698836  0.62491289  0.15994665  1
  H+  H101  1  0.14620084  0.32502643  0.65115320  1
  H+  H102  1  1.03166241  0.65649710  0.15308036  1
  H+  H103  1  0.39050875  0.85899941  0.84949110  1
  H+  H104  1  0.17395239  0.56895220  0.55958078  1
  H+  H105  1  0.87564527  0.43741411  0.16144907  1
  H+  H106  1  0.30330546  0.86945181  0.78925112  1
  H+  H107  1  0.13670897  0.36689869  0.83732667  1
  H+  H108  1  0.65047948  0.55446521  0.31273127  1
  H+  H109  1  0.36581651  0.87571875  0.15558616  1
  H+  H110  1  0.59146322  0.08686480  0.47708038  1
  H+  H111  1  0.36600485  0.38031128  0.34009971  1
  H+  H112  1  0.62795664  0.89587284  0.68033317  1
  H+  H113  1  0.86667586  0.12595775  0.15744125  1
  H+  H114  1  0.58076378  0.92120025  1.09762036  1
  H+  H115  1  0.79055255  0.17410760  0.33553158  1
  H+  H116  1  0.11014767  0.58406516  0.99547556  1
  H+  H117  1  0.50122583  0.08293261  0.47719696  1
  H+  H118  1  0.80515482  0.29033583  0.38300630  1
  H+  H119  1  0.92159597  0.08951885  0.56956493  1
  H+  H120  1  0.14051830  0.50325555  0.49584688  1
  H+  H121  1  0.14205694  0.27493483  0.33289746  1
  H+  H122  1  0.79599956  0.32167851  0.79816918  1
  H+  H123  1  0.89679024  0.79110446  0.12620204  1
  H+  H124  1  0.37232402  0.25362721  0.33856315  1
  H+  H125  1  0.64992622  0.36880531  0.67323554  1
  H+  H126  1  0.51657391  0.59467454  0.49220439  1
  H+  H127  1  0.61442467  0.97386208  0.00509728  1
  H+  H128  1  0.22960855  0.59083735  0.64625594  1
  H+  H129  1  0.21155312  0.85792201  0.64387040  1
  H+  H130  1  0.08609799  0.67199092  0.75849752  1
  H+  H131  1  0.24407612  0.36074537  0.66036731  1
  H+  H132  1  0.36252321  0.91001877  0.69046962  1
  H+  H133  1  0.35451788  0.48631812  0.67978606  1
  H+  H134  1  0.87941366  0.36319458  0.66074868  1
  H+  H135  1  0.67256652  0.24468219  0.67991689  1
  H+  H136  1  0.63227138  0.39065584  -0.00176834  1
  H+  H137  1  0.76515448  0.41961185  0.50403072  1
  H+  H138  1  0.38485826  0.85352526  0.32525616  1
  H+  H139  1  0.93400576  0.33762609  0.91845544  1
  H+  H140  1  0.12600815  0.84985121  -0.00355846  1
  H+  H141  1  0.60272088  0.95118958  0.30917756  1
  H+  H142  1  0.23438389  0.60267179  0.49433354  1
  H+  H143  1  0.18170286  0.32743096  0.56133052  1
  H+  H144  1  0.89340512  0.11324780  0.50725573  1
  H+  H145  1  0.68294446  0.55694203  0.51555686  1
  H+  H146  1  0.88001665  0.24016604  0.83944882  1
  H+  H147  1  0.89051687  1.02410058  0.17312949  1
  H+  H148  1  0.31577625  0.95329770  0.72536784  1
  H+  H149  1  0.60013469  0.41918053  0.74104510  1
  H+  H150  1  0.89426912  0.54449027  0.50693064  1
  H+  H151  1  0.52959598  0.14159050  1.00306558  1
  H+  H152  1  0.64508632  0.86100472  0.85160753  1
  H+  H153  1  0.73836800  0.09889287  0.17068772  1
  H+  H154  1  0.59984806  0.20753916  0.33587768  1
  H+  H155  1  0.48377842  0.61430636  0.33239853  1
  H+  H156  1  0.68065097  0.09099808  0.90528048  1
  H+  H157  1  0.07190518  0.33618557  0.98630862  1
  H+  H158  1  0.46813000  0.35638301  0.49419794  1
  H+  H159  1  0.62677708  0.73739439  0.16046243  1
  H+  H160  1  0.00522336  0.39379713  0.67613351  1
  H+  H161  1  0.78750705  0.15065312  0.83441302  1
  H+  H162  1  0.63186397  0.99709366  0.16667163  1
  H+  H163  1  0.35836912  0.16335300  0.68777024  1
  H+  H164  1  0.65070899  0.53315077  0.83895732  1
  H+  H165  1  0.39563521  0.54440119  0.17209182  1
  H+  H166  1  0.99699132  0.89418971  0.67243324  1
  H+  H167  1  0.64953381  0.62111868  0.83533031  1
  H+  H168  1  0.13495744  0.51819063  0.33005670  1
  H+  H169  1  0.12154884  0.41311418  0.15741728  1
  H+  H170  1  0.73161925  0.36072888  -0.00103083  1
  H+  H171  1  0.38475729  0.51285702  0.50757952  1
  H+  H172  1  0.13795975  0.99782541  0.50111924  1
  H+  H173  1  0.12264712  0.22808029  0.82162245  1
  H+  H174  1  0.72655272  0.35546372  0.17537742  1
  H+  H175  1  0.39868026  0.50667718  1.00293044  1
  H+  H176  1  0.10876417  -0.00044104  0.84281050  1
  H+  H177  1  0.65245112  1.02378735  0.66218830  1
  H+  H178  1  0.86785388  0.90426431  0.34418899  1
  H+  H179  1  0.21053234  0.09763116  0.33702561  1
  H+  H180  1  0.49505249  0.64726611  0.99065397  1
  H+  H181  1  1.02784621  0.39710733  0.84040472  1
  H+  H182  1  0.37264140  0.47377406  0.33843035  1
  H+  H183  1  0.52882463  0.64422486  0.67333131  1
  H+  H184  1  0.03177376  0.90004463  0.04209179  1
  H+  H185  1  0.89152072  0.13185407  0.34710149  1
  H+  H186  1  0.02660059  0.39324598  0.16170441  1
  H+  H187  1  0.40225770  0.23965833  0.18446511  1
  H+  H188  1  0.38130332  0.98981052  0.00564513  1
  H+  H189  1  0.64949917  0.63332555  0.16326931  1
  H+  H190  1  0.91517146  0.68371280  0.86961698  1
  H+  H191  1  0.16856638  0.36803066  0.99922948  1
  H+  H192  1  0.12829942  0.97566776  0.67771464  1
  H+  H193  1  0.65362623  0.01846812  0.50314100  1
  H+  H194  1  0.88836502  0.66745647  0.49811475  1
  H+  H195  1  0.50819723  0.12415921  0.66570335  1
  H+  H196  1  0.37627237  0.88936725  0.00540105  1
  H+  H197  1  0.39802772  0.79755996  0.69063488  1
  H+  H198  1  0.58458902  0.42517427  0.30770487  1
  H+  H199  1  0.87468735  0.48032446  0.67180475  1
  H+  H200  1  0.77442892  0.88147955  0.49509819  1
  H+  H201  1  0.12564392  0.85681639  0.65701677  1
  H+  H202  1  0.02511438  0.14859146  0.34869274  1
  H+  H203  1  0.72570121  0.87024308  0.66072641  1
  H+  H204  1  0.92867565  0.82138332  0.97416923  1
  H+  H205  1  0.12412445  0.89071249  0.17185273  1
  H+  H206  1  0.41674011  0.38391633  0.16420033  1
  H+  H207  1  0.91501595  0.66152647  0.31570578  1
  H+  H208  1  0.84589594  0.88389107  0.03012911  1
  H+  H209  1  0.11273670  0.86072948  0.83883133  1
  H+  H210  1  0.88919225  0.26321015  0.33742538  1
  H+  H211  1  0.18527056  0.56381038  0.99573308  1
  H+  H212  1  0.09302002  0.39685144  0.68557618  1
  H+  H213  1  0.84032590  -0.03128523  1.02358313  1
  H+  H214  1  0.89084062  0.33477031  0.17877941  1
  H+  H215  1  0.11608867  0.97876884  0.01292977  1
  H+  H216  1  0.89055409  0.03734528  0.66991992  1
  H+  H217  1  0.60750341  0.71491452  0.05786791  1
  H+  H218  1  0.08184009  0.30247391  0.19954573  1
  H+  H219  1  0.90718168  0.36128871  0.49622531  1
  H+  H220  1  0.65124479  0.11894892  0.84470010  1
  H+  H221  1  0.52184344  0.13921668  0.15298985  1
  H+  H222  1  0.11316735  0.72941116  0.67055835  1
  H+  H223  1  0.60678685  0.22836436  0.48639480  1
  H+  H224  1  0.11257655  0.96598339  0.35016173  1
  H+  H225  1  0.94430198  0.81770851  0.51288606  1
  H+  H226  1  0.25279757  0.87490239  0.84451665  1
  H+  H227  1  0.64454659  0.77579629  0.34343455  1
  H+  H228  1  0.40373128  0.85975459  0.48799607  1
  H+  H229  1  0.88650873  1.04053412  0.34425657  1
  H+  H230  1  0.35865743  0.71098089  0.47985290  1
  H+  H231  1  0.13469727  0.20982246  0.66389370  1
  H+  H232  1  0.87311224  0.22452802  0.49659421  1
  H+  H233  1  0.90931921  0.80570654  0.90562335  1
  H+  H234  1  0.84741992  0.60756538  0.00315614  1
  H+  H235  1  0.88740654  0.79557455  0.35456945  1
  H+  H236  1  0.73699614  0.11171165  0.50626422  1
  H+  H237  1  0.86722082  0.46222632  0.01570956  1
  H+  H238  1  0.12651620  0.53066496  0.17392272  1
  H+  H239  1  0.73452122  0.86867050  0.33818784  1
  H+  H240  1  0.02356086  0.63809198  0.81730715  1
  H+  H241  1  0.33422608  0.18388496  0.86702635  1
  H+  H242  1  0.91528229  0.56273506  0.94526187  1
  H+  H243  1  0.27988592  0.13331021  0.15390573  1
  H+  H244  1  0.39613797  0.62671433  0.65360487  1
  H+  H245  1  0.36349825  0.72483080  0.83301583  1
  H+  H246  1  0.12467184  0.38316335  0.49229230  1
  H+  H247  1  0.86866049  0.91264956  0.67267280  1
  H+  H248  1  0.36111774  0.63456137  0.82989721  1
  H+  H249  1  0.03069383  0.63729967  0.67429869  1
  H+  H250  1  0.32691954  0.64876043  0.42271077  1
  H+  H251  1  1.01310658  0.66431742  0.31290716  1
  H+  H252  1  0.30329369  0.57728974  0.13426534  1
  H+  H253  1  0.39160686  1.01439436  0.16790838  1
  H+  H254  1  0.29467269  0.87786526  0.49922496  1
  H+  H255  1  0.51075675  0.16661756  0.67100702  1
  H+  H256  1  0.54072965  0.64903722  0.14762883  1
  H+  H257  1  0.52979040  0.39426147  0.99184301  1
  H+  H258  1  0.32959237  0.02331320  0.64425359  1
  H+  H259  1  0.86462042  -0.02686472  0.82088947  1
  H+  H260  1  0.64481056  0.85927648  0.50022678  1
  H+  H261  1  0.62759497  0.34167428  0.33306476  1
  H+  H262  1  0.35135873  0.12360691  0.33731395  1
  H+  H263  1  0.50133029  0.35798285  0.34091434  1
  H+  H264  1  0.12311115  0.09884926  0.34080094  1
  H+  H265  1  0.86471461  0.21302658  0.16773660  1
  H+  H266  1  0.10477318  0.71853395  0.99869546  1
  H+  H267  1  0.63761246  0.77928000  0.66417842  1
  H+  H268  1  0.54279960  0.89133769  0.47109381  1
  H+  H269  1  0.82499587  0.67936224  0.98473801  1
  H+  H270  1  0.87420049  0.11494212  1.01531009  1
  H+  H271  1  0.01545830  0.12949911  0.01396209  1
  H+  H272  1  0.92009961  0.37492820  0.31695448  1
  H+  H273  1  0.86369717  0.96947396  0.49688355  1
  H+  H274  1  0.12130338  0.22364297  0.16130415  1
  H+  H275  1  0.70447454  0.83487978  0.00945234  1
  H+  H276  1  0.69904072  0.54352520  0.99463040  1
  H+  H277  1  0.12395452  0.65408091  0.48605299  1
  H+  H278  1  0.16055711  0.33192512  0.24263523  1
  H+  H279  1  1.03057338  0.38415344  0.34062649  1
  H+  H280  1  0.98521648  0.87523836  0.14286966  1
  H+  H281  1  0.46576813  0.10152508  0.31832639  1
  H+  H282  1  0.89562900  0.12317467  0.83106474  1
  H+  H283  1  -0.02036824  0.60561327  0.00099557  1
  H+  H284  1  0.27920058  0.88192365  0.15639413  1
  H+  H285  1  0.83799930  0.41037166  0.53390839  1
  H+  H286  1  0.14221384  0.26686582  0.50365036  1
  H+  H287  1  0.89788364  0.49733309  0.32857084  1
  H+  H288  1  0.32265276  0.15032484  0.39977833  1
  H+  H289  1  0.41725530  0.82969517  0.93775321  1
  H+  H290  1  0.14422507  0.82221797  0.93216672  1
  H+  H291  1  0.60233963  0.92461192  0.78080143  1
  H+  H292  1  0.33749015  0.15490052  0.05912762  1
  H+  H293  1  0.91413726  0.33162850  0.60237969  1
  H+  H294  1  0.39559941  0.08076011  0.55610980  1
  H+  H295  1  0.63191233  0.32754030  0.51026364  1
  H+  H296  1  0.42127665  0.58650159  0.59859128  1
  H+  H297  1  0.66479006  0.83240646  0.56383625  1
  H+  H298  1  0.32209855  0.43101251  0.74073905  1
  H+  H299  1  0.48301724  0.86379953  0.84537487  1
  H+  H300  1  0.94137581  0.09167200  0.87768274  1
  H+  H301  1  0.66569893  0.81624524  0.24492960  1
  H+  H302  1  0.14951062  0.32995328  0.89861537  1
  H+  H303  1  0.28016706  0.07096884  0.62422022  1
  H+  H304  1  0.92870744  0.59014895  0.60185789  1
  H+  H305  1  0.44189716  0.82528309  0.53682660  1
  H+  H306  1  0.81107156  0.91675369  0.11608687  1
  H+  H307  1  0.66601663  0.81865351  0.90735525  1
  H+  H308  1  0.66911929  0.33541250  0.90404758  1
  H+  H309  1  0.44526963  0.35593770  0.92918589  1
  H+  H310  1  0.65480235  0.54549230  0.16774277  1
  H+  H311  1  0.10140438  0.15890294  0.72600770  1
  H+  H312  1  0.95032489  0.65093706  0.24669891  1
  H+  H313  1  0.61762489  0.87459270  0.33101755  1
  H+  H314  1  0.16225337  0.05725814  0.58880456  1
  H+  H315  1  0.10841023  0.92972620  0.11296226  1
  H+  H316  1  0.67474777  0.06941034  0.23142264  1
  H+  H317  1  0.34614012  0.91972460  0.06934395  1
  H+  H318  1  0.83651942  0.41008932  0.76764399  1
  H+  H319  1  0.82214228  0.65874797  0.08438044  1
  H+  H320  1  0.88859785  0.64579319  0.15797914  1
  H+  H321  1  0.07306197  0.42762763  0.77436331  1
  H+  H322  1  0.94200589  0.88875526  0.81876041  1
  H+  H323  1  0.56492461  0.49951228  0.46568498  1
  H+  H324  1  0.83600951  0.65320332  0.73759936  1
  H+  H325  1  0.43052903  0.58617731  0.27048613  1
  H+  H326  1  0.12377158  0.38958204  0.34503946  1
  H+  H327  1  0.85729396  0.18510401  0.74693249  1
  H+  H328  1  0.53466394  0.13449489  0.82373520  1
  H+  H329  1  0.88196398  0.06526757  0.95960052  1
  H+  H330  1  0.18166500  0.83791923  0.23212350  1
  H+  H331  1  0.23380645  0.36335179  0.32914940  1
  H+  H332  1  0.63917260  0.11383395  0.99656574  1
  H+  H333  1  0.87075224  0.37451921  0.01006032  1
  H+  H334  1  0.39592034  0.62591863  0.99388151  1
  H+  H335  1  0.93642999  0.32420970  0.23942716  1
  H+  H336  1  0.41304669  0.81898458  0.23042958  1
  H+  H337  1  0.10993098  0.73623776  0.48073704  1
  H+  H338  1  0.85398776  0.69153650  0.43962515  1
  H+  H339  1  0.54623292  0.90773218  0.69408947  1
  H+  H340  1  0.58568014  0.17402546  0.06403138  1
  H+  H341  1  0.16014644  0.58747308  0.23492989  1
  H+  H342  1  0.08179421  0.66535830  0.39126624  1
  H+  H343  1  0.67575774  0.59334725  0.61112709  1
  H+  H344  1  0.80831450  0.36750298  0.42119484  1
  H+  H345  1  0.89211315  0.14841623  0.68342272  1
  H+  H346  1  0.56314158  0.12744256  0.38567867  1
  H+  H347  1  0.23746417  0.91857948  0.46893883  1
  H+  H348  1  0.61134301  0.44187890  0.09837251  1
  H+  H349  1  0.82857624  0.92566186  0.73213274  1
  H+  H350  1  0.67402007  0.34633075  0.60881593  1
  H+  H351  1  0.33719220  0.41649927  0.43181709  1
  H+  H352  1  0.31950436  0.45490133  0.09150908  1
  H+  H353  1  0.31828760  0.65320348  0.05981994  1
  H+  H354  1  0.83267642  0.38838393  0.10034060  1
  H+  H355  1  0.32654172  0.67525196  0.74162996  1
  H+  H356  1  0.08549392  0.66668413  0.06133324  1
  H+  H357  1  0.58306929  0.66832925  0.76870876  1
  H+  H358  1  0.42462295  0.59743549  0.90005747  1
  H+  H359  1  0.48281219  0.25801505  0.22291227  1
  H+  H360  1  0.66678968  0.33135103  0.23389317  1
  H+  H361  1  0.83312884  0.17286009  0.07412703  1
  H+  H362  1  0.83249952  0.92307218  0.40550778  1
  H+  H363  1  0.33032800  0.91254394  0.39521563  1
  H+  H364  1  0.09259683  0.41344744  0.43089017  1
  H+  H365  1  0.57889742  0.43680591  0.42150051  1
  H+  H366  1  0.33744129  0.17826069  0.75441395  1
  H+  H367  1  0.78124301  0.39345292  0.67317737  1
  H+  H368  1  0.58340859  0.64734291  0.40287696  1
  H+  H369  1  0.08994832  0.17397289  0.40423699  1
  H+  H370  1  0.43486664  0.86640866  0.63931863  1
  H+  H371  1  0.68619732  0.61315769  0.25381846  1
  H+  H372  1  0.60646548  0.92551993  0.41677884  1
  H+  H373  1  0.63784103  0.27488813  0.99727722  1
  H+  H374  1  0.14336397  0.86494298  0.32561814  1
  H+  H375  1  0.41005909  0.33356911  0.59776021  1
  H+  H376  1  0.41434990  0.30455679  0.27826885  1
  H+  H377  1  0.10498291  0.90070217  0.40285655  1
  H+  H378  1  0.36123583  0.71691439  0.33533677  1
  H+  H379  1  0.95534977  0.86211626  0.57447554  1
  H+  H380  1  0.67708022  0.07850793  0.59365061  1
  H+  H381  1  0.11464922  0.64499568  0.15991804  1
  H+  H382  1  0.09286778  0.16835984  0.10014571  1
  H+  H383  1  0.64218378  0.18159031  0.73739548  1
  O2-  O384  1  0.09235980  0.16444844  0.14531661  1
  O2-  O385  1  0.08938991  0.16235572  0.48378854  1
  O2-  O386  1  0.09689189  0.16915645  0.80433220  1
  O2-  O387  1  0.08480128  0.43684106  0.14639778  1
  O2-  O388  1  0.09560039  0.41610563  0.47821477  1
  O2-  O389  1  0.08579478  0.43119635  0.81861614  1
  O2-  O390  1  0.09199172  0.68029865  0.14019041  1
  O2-  O391  1  0.08763921  0.67440001  0.46788736  1
  O2-  O392  1  0.08435778  0.66759773  0.80621651  1
  O2-  O393  1  0.09502998  0.92219837  0.15716081  1
  O2-  O394  1  0.16271112  0.90851490  0.47366402  1
  O2-  O395  1  0.06092790  0.90865955  0.81545804  1
  O2-  O396  1  0.34061279  0.15994253  0.13601524  1
  O2-  O397  1  0.32184763  0.15367323  0.47412144  1
  O2-  O398  1  0.31528477  0.13858462  0.83660842  1
  O2-  O399  1  0.30206969  0.47300717  0.12887609  1
  O2-  O400  1  0.33619835  0.41568760  0.47747062  1
  O2-  O401  1  0.33432320  0.42327694  0.82242404  1
  O2-  O402  1  0.31261203  0.63597692  0.14030939  1
  O2-  O403  1  0.32578284  0.64921241  0.46918662  1
  O2-  O404  1  0.32937303  0.66517604  0.81599755  1
  O2-  O405  1  0.33942900  0.90885842  0.13905704  1
  O2-  O406  1  0.30604208  0.92240082  0.46943640  1
  O2-  O407  1  0.31349992  0.89380321  0.83002393  1
  O2-  O408  1  0.58017059  0.17405927  0.13518581  1
  O2-  O409  1  0.54261202  0.07630460  0.45105753  1
  O2-  O410  1  0.59672715  0.16821893  0.81392736  1
  O2-  O411  1  0.61660918  0.44979843  0.14259202  1
  O2-  O412  1  0.57708503  0.45074479  0.46501122  1
  O2-  O413  1  0.59382414  0.42855616  0.81858892  1
  O2-  O414  1  0.60037845  0.68354765  0.13268701  1
  O2-  O415  1  0.56598708  0.59635889  0.46995779  1
  O2-  O416  1  0.58049025  0.66371170  0.81417370  1
  O2-  O417  1  0.58291909  0.92314036  0.14323178  1
  O2-  O418  1  0.60464400  0.92457598  0.46204583  1
  O2-  O419  1  0.59332407  0.91947616  0.82556137  1
  O2-  O420  1  0.83058112  0.15527770  0.14796591  1
  O2-  O421  1  0.83993415  0.16611022  0.47929947  1
  O2-  O422  1  0.84844637  0.18220113  0.81848855  1
  O2-  O423  1  0.82996282  0.38263366  0.14649790  1
  O2-  O424  1  0.82529843  0.43090896  0.49644732  1
  O2-  O425  1  0.82265498  0.38234966  0.80872665  1
  O2-  O426  1  0.83480705  0.67701378  0.12826118  1
  O2-  O427  1  0.85851559  0.69860991  0.48394468  1
  O2-  O428  1  0.83449541  0.66621074  0.80778409  1
  O2-  O429  1  0.82828593  0.91658223  0.15883159  1
  O2-  O430  1  0.83307464  0.91301427  0.47694460  1
  O2-  O431  1  0.83862917  0.91297947  0.80705862  1
  O2-  O432  1  0.19054161  0.09436580  0.18500653  1
  O2-  O433  1  0.15733796  0.05780700  0.51333816  1
  O2-  O434  1  0.14839438  0.06170927  0.85827898  1
  O2-  O435  1  0.14416175  0.32741945  0.19774641  1
  O2-  O436  1  0.17163389  0.32888783  0.51666499  1
  O2-  O437  1  0.16287996  0.33420690  0.85434087  1
  O2-  O438  1  0.16031552  0.59214996  0.18970635  1
  O2-  O439  1  0.17226100  0.56912812  0.51157642  1
  O2-  O440  1  0.16477209  0.59005964  0.84377211  1
  O2-  O441  1  0.18310041  0.84076758  0.18644955  1
  O2-  O442  1  0.11815448  0.82503580  0.50542106  1
  O2-  O443  1  0.14804854  0.83354420  0.85302666  1
  O2-  O444  1  0.41795610  0.07469249  0.18219518  1
  O2-  O445  1  0.41082519  0.07906855  0.51289402  1
  O2-  O446  1  0.42077812  0.07159488  0.85577008  1
  O2-  O447  1  0.44500623  0.28099075  0.21482584  1
  O2-  O448  1  0.40877089  0.31983594  0.50832111  1
  O2-  O449  1  0.42122577  0.34609102  0.84989728  1
  O2-  O450  1  0.43800122  0.59949967  0.19138160  1
  O2-  O451  1  0.41924083  0.57451675  0.52172505  1
  O2-  O452  1  0.41768294  0.59156803  0.85490113  1
  O2-  O453  1  0.41705038  0.82194342  0.18477020  1
  O2-  O454  1  0.42976130  0.82363375  0.49349237  1
  O2-  O455  1  0.42198819  0.82844659  0.85947793  1
  O2-  O456  1  0.67571923  0.06417381  0.18634451  1
  O2-  O457  1  0.67722878  0.07620756  0.52282596  1
  O2-  O458  1  0.68463461  0.09174908  0.85966553  1
  O2-  O459  1  0.66746384  0.33827686  0.18906547  1
  O2-  O460  1  0.66467891  0.38637833  0.52594957  1
  O2-  O461  1  0.66433596  0.33341946  0.85881705  1
  O2-  O462  1  0.68223669  0.60734652  0.18268071  1
  O2-  O463  1  0.70207623  0.61331796  0.53351024  1
  O2-  O464  1  0.68482199  0.59572975  0.84862733  1
  O2-  O465  1  0.66690434  0.81691803  0.19983859  1
  O2-  O466  1  0.66862805  0.82620263  0.51950874  1
  O2-  O467  1  0.67345486  0.82753269  0.86286642  1
  O2-  O468  1  0.92004003  0.08774730  0.17674626  1
  O2-  O469  1  0.92436245  0.08543741  0.52503588  1
  O2-  O470  1  0.92560601  0.08863217  0.83504662  1
  O2-  O471  1  0.93087702  0.31562237  0.19257321  1
  O2-  O472  1  0.93319540  0.33653505  0.52223035  1
  O2-  O473  1  0.93544599  0.33941496  0.86900011  1
  O2-  O474  1  0.92424064  0.62191060  0.17989748  1
  O2-  O475  1  0.92970237  0.60374959  0.52268217  1
  O2-  O476  1  0.88585965  0.63577729  0.84112011  1
  O2-  O477  1  0.92967449  0.85432432  0.12090970  1
  O2-  O478  1  0.98690740  0.86507874  0.53770042  1
  O2-  O479  1  0.96881278  0.85607344  0.83380726  1
  O2-  O480  1  0.14755663  0.06135621  0.33249573  1
  O2-  O481  1  0.17680114  0.06235186  0.63347552  1
  O2-  O482  1  0.16155785  0.07492911  0.98046108  1
  O2-  O483  1  0.17256505  0.33562118  0.31578485  1
  O2-  O484  1  0.19111554  0.31415277  0.63705931  1
  O2-  O485  1  0.12045165  0.32398889  0.97611591  1
  O2-  O486  1  0.16205033  0.57862222  0.31382784  1
  O2-  O487  1  0.17432376  0.56886467  0.62559024  1
  O2-  O488  1  0.12448717  0.53885595  0.98516414  1
  O2-  O489  1  0.17616444  0.83705564  0.30802179  1
  O2-  O490  1  0.15046743  0.82698699  0.63280115  1
  O2-  O491  1  0.14747297  0.81499117  0.97665121  1
  O2-  O492  1  0.40432987  0.07266823  0.30527199  1
  O2-  O493  1  0.33811534  0.07679541  0.62599025  1
  O2-  O494  1  0.41864427  0.07389997  0.98127625  1
  O2-  O495  1  0.40693156  0.31498537  0.32256239  1
  O2-  O496  1  0.40722416  0.35471926  0.63830324  1
  O2-  O497  1  0.45471459  0.36322746  0.97398530  1
  O2-  O498  1  0.42393529  0.58209844  0.31559794  1
  O2-  O499  1  0.42403436  0.59358994  0.64395475  1
  O2-  O500  1  0.43489727  0.60452970  0.97884068  1
  O2-  O501  1  0.41104137  0.81950284  0.30864215  1
  O2-  O502  1  0.43199134  0.86124737  0.68346534  1
  O2-  O503  1  0.41303804  0.83070478  0.98307917  1
  O2-  O504  1  0.67678223  0.09392217  0.30748578  1
  O2-  O505  1  0.68327046  0.08204788  0.64049967  1
  O2-  O506  1  0.66913898  0.08223925  0.98321125  1
  O2-  O507  1  0.65705447  0.31225147  0.31576547  1
  O2-  O508  1  0.68160810  0.34007887  0.65229893  1
  O2-  O509  1  0.67135275  0.33753516  0.98367830  1
  O2-  O510  1  0.68923961  0.61372712  0.30073297  1
  O2-  O511  1  0.66352412  0.58371110  0.65537555  1
  O2-  O512  1  0.64058462  0.50639890  0.97619857  1
  O2-  O513  1  0.67228110  0.83321484  0.32351173  1
  O2-  O514  1  0.66384461  0.83985056  0.64878846  1
  O2-  O515  1  0.64428539  0.80679058  0.99282414  1
  O2-  O516  1  0.92264405  0.10263966  0.33458083  1
  O2-  O517  1  0.92637951  0.10000534  0.65717887  1
  O2-  O518  1  0.89738683  0.07506143  1.00238112  1
  O2-  O519  1  0.94615215  0.33956120  0.30902713  1
  O2-  O520  1  0.91040212  0.33078777  0.64757733  1
  O2-  O521  1  0.92521089  0.33166077  0.98261257  1
  O2-  O522  1  0.96742891  0.67534111  0.28999160  1
  O2-  O523  1  0.92622113  0.58073320  0.64666857  1
  O2-  O524  1  0.91559599  0.56821932  0.98936739  1
  O2-  O525  1  0.91994005  0.84416746  0.32778727  1
  O2-  O526  1  0.93266801  0.86831606  0.66666712  1
  O2-  O527  1  0.88239956  0.78622324  0.94622646  1
  O2-  O528  1  0.07826405  0.16282740  0.02086543  1
  O2-  O529  1  0.08838919  0.17686017  0.35910697  1
  O2-  O530  1  0.09465552  0.15182129  0.68093721  1
  O2-  O531  1  0.01107572  0.37046307  0.01124724  1
  O2-  O532  1  0.09185038  0.41785165  0.36118277  1
  O2-  O533  1  0.06484596  0.42990853  0.69420742  1
  O2-  O534  1  0.07668670  0.65789795  0.01660099  1
  O2-  O535  1  0.08267525  0.66449719  0.34562529  1
  O2-  O536  1  0.09015858  0.67224336  0.69068708  1
  O2-  O537  1  0.09230487  0.92096373  0.03337349  1
  O2-  O538  1  0.08910529  0.90222239  0.35975706  1
  O2-  O539  1  0.09217601  0.91602167  0.69438789  1
  O2-  O540  1  0.33611519  0.14802413  0.01370010  1
  O2-  O541  1  0.32253628  0.15424021  0.35406501  1
  O2-  O542  1  0.35830149  0.20674174  0.71493803  1
  O2-  O543  1  0.36944449  0.44438825  0.01703214  1
  O2-  O544  1  0.33902541  0.41415890  0.35471132  1
  O2-  O545  1  0.30385580  0.43942115  0.70011944  1
  O2-  O546  1  0.32295994  0.65430221  0.01476141  1
  O2-  O547  1  0.33073694  0.65583644  0.35021902  1
  O2-  O548  1  0.32296606  0.68965804  0.69749047  1
  O2-  O549  1  0.35114614  0.92516664  0.02261944  1
  O2-  O550  1  0.33762216  0.90919543  0.35029090  1
  O2-  O551  1  0.31611995  0.92445032  0.68794553  1
  O2-  O552  1  0.59006445  0.17426374  0.01740064  1
  O2-  O553  1  0.57039801  0.14370562  0.34117124  1
  O2-  O554  1  0.67798493  0.19773238  0.70002054  1
  O2-  O555  1  0.60164592  0.42617904  0.01170191  1
  O2-  O556  1  0.56767393  0.39485103  0.34645728  1
  O2-  O557  1  0.60595683  0.41415356  0.69646850  1
  O2-  O558  1  0.60396612  0.71550010  0.01177485  1
  O2-  O559  1  0.58709424  0.66819043  0.36000046  1
  O2-  O560  1  0.58801196  0.67532173  0.69049328  1
  O2-  O561  1  0.57883042  0.91425253  0.02167900  1
  O2-  O562  1  0.58192962  0.90469481  0.33882313  1
  O2-  O563  1  0.60928955  0.93604183  0.69913559  1
  O2-  O564  1  0.83375804  0.17220873  0.02821581  1
  O2-  O565  1  0.84033892  0.20666557  0.36231501  1
  O2-  O566  1  0.86038901  0.18171515  0.70045588  1
  O2-  O567  1  0.83539534  0.40019101  0.02710970  1
  O2-  O568  1  0.79571077  0.33987698  0.38106228  1
  O2-  O569  1  0.84286376  0.41961207  0.68776312  1
  O2-  O570  1  0.80590706  0.62820181  0.01116135  1
  O2-  O571  1  0.83163889  0.63856093  0.35675722  1
  O2-  O572  1  0.83140188  0.64563910  0.69113235  1
  O2-  O573  1  0.80690921  0.90648683  0.03491852  1
  O2-  O574  1  0.83169708  0.92814485  0.35918344  1
  O2-  O575  1  0.83131137  0.93589077  0.68691966  1
