# generated using pymatgen
data_H2O
_symmetry_space_group_name_H-M   'P 1'
_cell_length_a   17.99201538
_cell_length_b   17.98719476
_cell_length_c   21.99321864
_cell_angle_alpha   89.96326482
_cell_angle_beta   90.00231659
_cell_angle_gamma   119.99801154
_symmetry_Int_Tables_number   1
_chemical_formula_structural   H2O
_chemical_formula_sum   'H384 O192'
_cell_volume   6164.12253661
_cell_formula_units_Z   192
loop_
 _symmetry_equiv_pos_site_id
 _symmetry_equiv_pos_as_xyz
  1  'x, y, z'
loop_
 _atom_type_symbol
 _atom_type_oxidation_number
  H+  1.0
  O2-  -2.0
loop_
 _atom_site_type_symbol
 _atom_site_label
 _atom_site_symmetry_multiplicity
 _atom_site_fract_x
 _atom_site_fract_y
 _atom_site_fract_z
 _atom_site_occupancy
  H+  H0  1  0.17144368  0.11409536  0.60601084  1
  H+  H1  1  0.89364013  0.52848176  0.00369068  1
  H+  H2  1  0.38895125  0.61779495  0.50788751  1
  H+  H3  1  0.36248382  0.89054758  0.48984493  1
  H+  H4  1  0.33311468  0.92195171  0.73881562  1
  H+  H5  1  0.73159320  0.86471600  -0.02266865  1
  H+  H6  1  0.58901945  0.45273283  0.43679140  1
  H+  H7  1  0.37005005  0.63628158  0.00957900  1
  H+  H8  1  0.86788313  1.02412912  0.34973878  1
  H+  H9  1  0.53652646  0.14834324  0.47416908  1
  H+  H10  1  0.79452450  0.41791519  0.80809123  1
  H+  H11  1  0.99776343  0.60919808  0.49204321  1
  H+  H12  1  0.05848334  0.21863855  0.47776636  1
  H+  H13  1  0.75931877  0.88947721  0.35460154  1
  H+  H14  1  0.61956041  0.46895413  0.16788453  1
  H+  H15  1  0.86827973  0.98622934  -0.01692426  1
  H+  H16  1  0.61321764  0.14197959  0.50416625  1
  H+  H17  1  0.23346777  0.36893155  0.17419075  1
  H+  H18  1  0.62976448  0.36329471  0.84473582  1
  H+  H19  1  0.35761635  0.23051183  0.17556254  1
  H+  H20  1  0.12819117  0.27548545  0.32343975  1
  H+  H21  1  0.86606403  0.47096708  0.16101573  1
  H+  H22  1  0.38708370  0.29069735  0.99362107  1
  H+  H23  1  0.85857821  0.97605507  0.81599987  1
  H+  H24  1  0.54609681  0.63974516  0.82647617  1
  H+  H25  1  0.13171094  0.62273507  0.50109454  1
  H+  H26  1  0.89235145  0.61217231  0.17549866  1
  H+  H27  1  0.28192046  0.38870917  0.67953796  1
  H+  H28  1  0.13679664  0.86701335  0.16595471  1
  H+  H29  1  0.45352021  0.69915431  0.64674592  1
  H+  H30  1  0.64725566  0.51233540  0.18205094  1
  H+  H31  1  0.38623191  0.11824473  0.32263563  1
  H+  H32  1  0.87937205  0.36067852  0.64642292  1
  H+  H33  1  0.02940753  0.20502431  0.50505977  1
  H+  H34  1  -0.03064897  0.10666979  0.83019422  1
  H+  H35  1  0.55588546  0.41260386  0.82195040  1
  H+  H36  1  -0.02032103  0.86579043  0.65316837  1
  H+  H37  1  0.27588553  0.39359712  0.50438782  1
  H+  H38  1  0.86261357  0.97516150  0.65803255  1
  H+  H39  1  0.15306726  0.58082617  0.59492743  1
  H+  H40  1  0.25605692  0.16822209  0.01619351  1
  H+  H41  1  0.87357424  0.86340218  0.83046325  1
  H+  H42  1  0.63634213  0.79419706  0.18043816  1
  H+  H43  1  0.85724754  0.69669484  0.49224514  1
  H+  H44  1  0.40624678  0.08675787  0.22755179  1
  H+  H45  1  0.38658358  0.88314620  0.83636805  1
  H+  H46  1  1.02769409  0.88741754  0.15481300  1
  H+  H47  1  0.65149163  0.27797120  0.50068568  1
  H+  H48  1  0.38278498  0.75531010  0.31455755  1
  H+  H49  1  0.19759922  1.01267646  0.53715561  1
  H+  H50  1  0.88800686  0.86011495  0.65318456  1
  H+  H51  1  0.88289793  0.35757024  0.17818184  1
  H+  H52  1  0.87821735  0.72458550  0.67032840  1
  H+  H53  1  0.72663029  0.12125943  0.17355469  1
  H+  H54  1  0.48294840  0.85935048  -0.00315430  1
  H+  H55  1  0.47751573  0.87519676  0.16418361  1
  H+  H56  1  0.49846670  0.62817256  0.99350746  1
  H+  H57  1  0.41141742  0.53839209  0.99161912  1
  H+  H58  1  0.13361438  0.10563230  0.83322030  1
  H+  H59  1  0.90366617  0.36695978  0.55095031  1
  H+  H60  1  0.01790158  0.88841575  0.33167238  1
  H+  H61  1  0.88022206  0.84247186  0.50656821  1
  H+  H62  1  0.90809173  0.59277733  0.94915327  1
  H+  H63  1  0.86512064  0.22792702  0.81677646  1
  H+  H64  1  0.48810390  0.85778315  0.83654208  1
  H+  H65  1  0.86108882  0.13515383  0.15269017  1
  H+  H66  1  0.39037918  0.03150171  0.32170428  1
  H+  H67  1  0.60955358  0.90117302  0.16672970  1
  H+  H68  1  0.02244923  0.40741035  0.48509623  1
  H+  H69  1  0.48730908  0.36128023  0.65879094  1
  H+  H70  1  -0.02183690  0.60847209  0.16709699  1
  H+  H71  1  0.37522003  1.02667743  0.16815074  1
  H+  H72  1  0.72830773  0.10367905  0.67014732  1
  H+  H73  1  0.31979226  0.16909782  0.43431222  1
  H+  H74  1  0.73054215  0.62154430  0.32630810  1
  H+  H75  1  0.22809376  0.44718169  0.82889569  1
  H+  H76  1  0.11615115  0.64486364  0.00386953  1
  H+  H77  1  0.84890628  0.14060395  0.37702368  1
  H+  H78  1  0.13003096  0.02272271  0.32268537  1
  H+  H79  1  0.34161721  0.65669285  0.68251790  1
  H+  H80  1  0.61263507  0.88194264  1.00319502  1
  H+  H81  1  0.13908252  0.53619324  0.50445257  1
  H+  H82  1  0.71620356  0.12061752  0.34039562  1
  H+  H83  1  0.53389533  0.39350846  0.00918669  1
  H+  H84  1  0.14372503  0.37754175  0.51873217  1
  H+  H85  1  0.16812896  0.33509149  0.22956245  1
  H+  H86  1  0.89847449  0.62560881  0.32119141  1
  H+  H87  1  0.64421430  0.27742907  0.65060659  1
  H+  H88  1  0.01309687  0.13731223  0.35130319  1
  H+  H89  1  0.62831638  0.89762214  0.49799321  1
  H+  H90  1  0.30057273  0.65533282  0.17772823  1
  H+  H91  1  0.09830922  0.47124446  0.66130508  1
  H+  H92  1  0.23518356  0.16562000  0.51123075  1
  H+  H93  1  0.65607614  0.13431148  0.98780113  1
  H+  H94  1  0.59701514  0.89097563  0.34451525  1
  H+  H95  1  0.14519039  0.87361557  0.65237961  1
  H+  H96  1  0.02647066  0.64453221  0.00498296  1
  H+  H97  1  0.54195911  0.66640693  0.16056708  1
  H+  H98  1  0.36267635  0.90291994  0.67678795  1
  H+  H99  1  0.53552879  0.13525806  0.82262620  1
  H+  H100  1  0.22268579  0.12369221  0.66717351  1
  H+  H101  1  0.64808600  0.52082257  0.66291715  1
  H+  H102  1  0.00345836  0.88133010  0.81760643  1
  H+  H103  1  0.02491727  0.39486219  0.33748114  1
  H+  H104  1  0.62906358  0.02185866  0.52463643  1
  H+  H105  1  0.61259858  0.23094635  0.01149773  1
  H+  H106  1  0.86255538  0.13588205  0.81765597  1
  H+  H107  1  0.64725102  0.77247730  0.83063002  1
  H+  H108  1  0.50359047  0.33206470  0.16229386  1
  H+  H109  1  0.23610470  0.88096874  0.65760515  1
  H+  H110  1  0.82740819  0.63523566  0.83900024  1
  H+  H111  1  0.62050020  0.77223246  0.34177396  1
  H+  H112  1  0.61558494  0.16579268  0.31203932  1
  H+  H113  1  0.41855395  0.36721299  0.83079610  1
  H+  H114  1  0.67387346  0.63012600  0.83391408  1
  H+  H115  1  0.73145750  0.86020633  0.65833817  1
  H+  H116  1  0.88656585  0.60572146  0.64634073  1
  H+  H117  1  0.10295684  0.21291361  0.81508199  1
  H+  H118  1  0.34737925  0.62612016  0.34431998  1
  H+  H119  1  0.52422542  0.15806938  0.30458795  1
  H+  H120  1  0.90154858  0.76827368  0.18422681  1
  H+  H121  1  0.07498917  0.70097385  0.83021798  1
  H+  H122  1  0.36160978  0.89048355  0.15715890  1
  H+  H123  1  0.22122610  0.11737587  0.17208104  1
  H+  H124  1  0.26862398  0.13903328  0.33508377  1
  H+  H125  1  0.89885245  0.47873992  0.49296872  1
  H+  H126  1  0.35372095  0.77968862  0.66239531  1
  H+  H127  1  0.10748249  0.47411823  0.15695114  1
  H+  H128  1  0.38022784  0.74390918  0.15839898  1
  H+  H129  1  0.26276892  0.37843319  0.34479105  1
  H+  H130  1  0.50145704  0.58954579  0.65185378  1
  H+  H131  1  0.63993930  0.68678782  0.16015949  1
  H+  H132  1  0.46708087  0.84886308  0.31451672  1
  H+  H133  1  0.60437202  0.60783682  0.48205717  1
  H+  H134  1  0.09478356  0.39907097  0.81045019  1
  H+  H135  1  0.14344001  0.78208487  0.98607822  1
  H+  H136  1  0.28859203  0.89281220  -0.00417512  1
  H+  H137  1  0.90311290  0.85824111  0.16408608  1
  H+  H138  1  0.83728687  0.53304513  0.85288648  1
  H+  H139  1  0.93215770  0.85060233  0.91468456  1
  H+  H140  1  0.44809031  0.67424171  0.67574912  1
  H+  H141  1  0.31441275  0.39409965  0.82438580  1
  H+  H142  1  0.61515272  0.22807671  0.82855382  1
  H+  H143  1  0.28119566  0.90296940  0.33511724  1
  H+  H144  1  0.61149341  0.87974765  0.82227454  1
  H+  H145  1  0.12790183  0.11060033  0.32257850  1
  H+  H146  1  0.77724260  0.38991541  0.00886753  1
  H+  H147  1  0.58848394  0.32717179  0.15258165  1
  H+  H148  1  0.86345672  0.34462117  0.82343700  1
  H+  H149  1  0.11658125  0.38872254  0.15880102  1
  H+  H150  1  0.66654550  0.35151317  0.23538092  1
  H+  H151  1  0.78495151  0.47793960  0.83257309  1
  H+  H152  1  0.77762347  0.38163856  0.16437341  1
  H+  H153  1  0.79272484  0.63802665  0.68270526  1
  H+  H154  1  0.86981631  0.61441386  0.48242393  1
  H+  H155  1  0.15879488  0.00063331  0.55624457  1
  H+  H156  1  0.65063248  0.49674960  0.82095531  1
  H+  H157  1  0.12835420  0.11333773  -0.01384517  1
  H+  H158  1  0.18414932  0.83375535  0.82074052  1
  H+  H159  1  0.23044466  0.60965855  0.99601813  1
  H+  H160  1  0.62388855  0.14115903  0.67484534  1
  H+  H161  1  0.39798773  0.35993544  0.65932533  1
  H+  H162  1  0.62653292  0.64230192  0.01349833  1
  H+  H163  1  0.39978321  0.37116759  0.19845034  1
  H+  H164  1  0.41633848  0.00468753  0.98421678  1
  H+  H165  1  0.38737151  0.49778362  0.16834179  1
  H+  H166  1  0.13048775  0.62381763  0.33015503  1
  H+  H167  1  0.86628116  0.63781417  0.03753278  1
  H+  H168  1  0.59754461  0.18007257  0.72890926  1
  H+  H169  1  0.86249890  0.47399177  0.65641840  1
  H+  H170  1  0.87192109  0.23770391  -0.00099868  1
  H+  H171  1  0.08321673  0.92222537  0.05684837  1
  H+  H172  1  0.33299795  0.08163013  1.01788282  1
  H+  H173  1  0.34048824  0.92995192  0.39289332  1
  H+  H174  1  0.90529201  0.89201177  0.97397571  1
  H+  H175  1  0.61264734  0.99031401  0.15975939  1
  H+  H176  1  0.62501350  0.38757475  0.66374090  1
  H+  H177  1  0.19925525  0.60158750  0.13221763  1
  H+  H178  1  0.60114424  0.13003124  0.16082527  1
  H+  H179  1  0.63952516  0.36655450  1.00496875  1
  H+  H180  1  0.51222416  0.13205429  0.15771823  1
  H+  H181  1  0.11273666  -0.02054422  0.15010789  1
  H+  H182  1  0.36371071  0.23428193  0.49011251  1
  H+  H183  1  0.67038262  0.09469616  0.23503869  1
  H+  H184  1  0.70405605  0.83450537  0.51203928  1
  H+  H185  1  0.11543113  0.13834520  0.15392832  1
  H+  H186  1  0.84483663  0.66199056  0.22435334  1
  H+  H187  1  0.29256770  0.38405167  0.07291046  1
  H+  H188  1  0.64726330  0.86769784  0.66545113  1
  H+  H189  1  0.87725288  0.10857567  0.55552272  1
  H+  H190  1  0.51496946  0.10678661  0.98990705  1
  H+  H191  1  0.91000540  0.08305890  0.88960703  1
  H+  H192  1  0.10760492  0.88697747  0.33201185  1
  H+  H193  1  0.00373467  0.85363862  0.48371993  1
  H+  H194  1  0.08832964  0.61044950  0.67728634  1
  H+  H195  1  0.11308333  0.73242761  0.15739522  1
  H+  H196  1  0.77205410  0.38428651  0.65501918  1
  H+  H197  1  0.11101145  0.98594330  0.66794384  1
  H+  H198  1  0.40251425  0.62629428  0.18080556  1
  H+  H199  1  0.11996404  -0.01139220  -0.00012676  1
  H+  H200  1  0.19639997  0.38032609  0.77593449  1
  H+  H201  1  0.40268769  0.13060678  0.64526689  1
  H+  H202  1  0.39612602  0.11960369  0.48203914  1
  H+  H203  1  0.57972743  0.16432507  0.06972064  1
  H+  H204  1  0.27039894  0.64294354  0.49818582  1
  H+  H205  1  0.67316859  0.33592288  0.58873433  1
  H+  H206  1  0.40952672  0.53407975  0.83605709  1
  H+  H207  1  0.96860408  0.59667831  0.65235721  1
  H+  H208  1  0.22434028  0.86490419  0.16829615  1
  H+  H209  1  0.88197143  0.27211003  0.64276017  1
  H+  H210  1  0.27340798  0.88974740  0.48838496  1
  H+  H211  1  0.77025160  0.88600476  0.81478879  1
  H+  H212  1  0.46878532  0.36366620  0.36729476  1
  H+  H213  1  0.71619774  0.10935584  0.53387575  1
  H+  H214  1  0.39528208  0.10755651  0.84279396  1
  H+  H215  1  0.46649358  0.60527409  0.33619137  1
  H+  H216  1  0.39094528  0.77098370  -0.00430332  1
  H+  H217  1  0.47225630  0.86206348  0.51063382  1
  H+  H218  1  0.88012509  0.87048024  0.32381306  1
  H+  H219  1  0.85995641  0.76817646  0.83857810  1
  H+  H220  1  0.98171083  0.10807315  0.15133165  1
  H+  H221  1  0.73414734  0.62109725  1.02649231  1
  H+  H222  1  0.97050455  0.11435567  0.98492634  1
  H+  H223  1  0.63119739  0.64155491  0.67779069  1
  H+  H224  1  0.12501185  0.52623444  0.83784437  1
  H+  H225  1  0.74596109  0.12971260  0.83302962  1
  H+  H226  1  0.64437326  0.77473428  0.98371461  1
  H+  H227  1  0.10313307  0.13820260  0.66975289  1
  H+  H228  1  0.06116428  -0.00835819  0.46667618  1
  H+  H229  1  0.86710643  0.13407090  0.66058458  1
  H+  H230  1  0.62760963  1.03421478  0.32924389  1
  H+  H231  1  0.00232433  0.89000747  -0.02070747  1
  H+  H232  1  0.86965690  0.97633991  0.51414968  1
  H+  H233  1  0.20271905  0.60317711  0.65975954  1
  H+  H234  1  0.15902641  0.59582601  0.26801353  1
  H+  H235  1  0.94258299  0.60846504  0.85157361  1
  H+  H236  1  0.74552288  0.35858358  0.50461629  1
  H+  H237  1  0.88437872  0.36187732  0.98580988  1
  H+  H238  1  0.13986971  0.78014736  0.32885740  1
  H+  H239  1  0.83701898  0.66529601  0.39448066  1
  H+  H240  1  0.47527974  0.35968945  0.49397496  1
  H+  H241  1  0.12753592  1.01505466  0.83729325  1
  H+  H242  1  -0.02954245  0.35601907  0.17947429  1
  H+  H243  1  0.35828133  0.22756020  0.34400211  1
  H+  H244  1  0.86392911  0.22515782  0.16197386  1
  H+  H245  1  0.09707945  0.21988352  -0.00212317  1
  H+  H246  1  0.12751355  0.61704829  0.15877714  1
  H+  H247  1  0.31425563  0.07108023  -0.01361153  1
  H+  H248  1  0.18836601  0.21708025  0.53373677  1
  H+  H249  1  0.39491951  1.03292478  0.47056879  1
  H+  H250  1  0.87608502  0.38454880  0.38316942  1
  H+  H251  1  0.52607797  0.62564399  0.49100612  1
  H+  H252  1  0.12982311  0.27533620  0.67302154  1
  H+  H253  1  0.60555762  0.63794093  0.33779942  1
  H+  H254  1  0.36965107  0.21800167  0.83204101  1
  H+  H255  1  0.38081750  0.46638569  0.66701594  1
  H+  H256  1  -0.03955724  0.36412431  0.82698823  1
  H+  H257  1  0.75818052  0.67225539  0.18099669  1
  H+  H258  1  0.38419552  0.77349346  0.50624112  1
  H+  H259  1  0.11222035  0.48524666  0.33356008  1
  H+  H260  1  0.41678954  0.82963866  0.22242765  1
  H+  H261  1  0.21639953  0.61271546  0.84512343  1
  H+  H262  1  0.35857796  0.63712607  0.82928746  1
  H+  H263  1  0.11549921  0.22819350  0.15278296  1
  H+  H264  1  0.12376999  0.49013715  0.00951427  1
  H+  H265  1  0.72680542  0.57822955  0.47745417  1
  H+  H266  1  0.85048506  0.22823113  0.36932884  1
  H+  H267  1  0.56868765  0.36886880  0.29390909  1
  H+  H268  1  0.27767556  0.13037182  0.83321754  1
  H+  H269  1  0.62102579  0.72594892  0.67553337  1
  H+  H270  1  0.81682929  0.38832932  0.74500730  1
  H+  H271  1  0.13258484  0.36685727  0.32041347  1
  H+  H272  1  0.36427096  0.39079839  0.49806332  1
  H+  H273  1  0.85019414  0.22664862  0.52832658  1
  H+  H274  1  0.26163947  0.63288083  0.34129022  1
  H+  H275  1  0.49699678  0.14976447  0.64338631  1
  H+  H276  1  0.65280128  0.13244071  0.83577613  1
  H+  H277  1  0.87015686  0.96493465  0.13373618  1
  H+  H278  1  0.64557459  0.53309268  1.01958186  1
  H+  H279  1  0.86187354  0.73430911  0.33962837  1
  H+  H280  1  0.88405584  0.11966186  0.98563860  1
  H+  H281  1  0.13577063  0.85890037  0.50201957  1
  H+  H282  1  0.03270782  0.64860970  0.34155793  1
  H+  H283  1  0.10584235  0.71606794  0.48977347  1
  H+  H284  1  0.10859403  0.38814133  1.00478363  1
  H+  H285  1  0.64501229  0.26824873  0.19698957  1
  H+  H286  1  0.30935643  0.89450246  0.85878598  1
  H+  H287  1  0.00940552  0.38010991  0.65966444  1
  H+  H288  1  0.65789227  0.33094755  0.94393095  1
  H+  H289  1  0.08089224  0.61730291  0.83925419  1
  H+  H290  1  0.31254137  0.20002923  0.07868501  1
  H+  H291  1  0.55685119  0.91990377  0.39576827  1
  H+  H292  1  0.35553910  0.14285010  0.15961346  1
  H+  H293  1  0.92611341  0.57170403  0.55109260  1
  H+  H294  1  0.83790295  0.66093537  0.09940695  1
  H+  H295  1  0.06493725  0.89291647  0.42430250  1
  H+  H296  1  0.79135533  0.86846409  0.12507613  1
  H+  H297  1  0.84122909  0.17712483  0.06018889  1
  H+  H298  1  0.08689349  0.16184383  0.39816743  1
  H+  H299  1  0.16337151  0.83407705  0.26671731  1
  H+  H300  1  0.08749853  0.42776650  0.43100792  1
  H+  H301  1  0.36385348  0.42382203  0.76191450  1
  H+  H302  1  0.83698774  0.41287637  0.06711133  1
  H+  H303  1  0.91526345  0.84293753  0.26452082  1
  H+  H304  1  0.06341734  0.42638625  0.75213830  1
  H+  H305  1  0.83719096  0.91960498  0.72037010  1
  H+  H306  1  0.08801477  0.87508266  0.82157898  1
  H+  H307  1  0.58626630  0.92145693  0.76794781  1
  H+  H308  1  0.43982044  0.33920645  0.89346202  1
  H+  H309  1  0.08757303  0.42000946  0.07317310  1
  H+  H310  1  0.61941993  0.28833409  0.33422876  1
  H+  H311  1  0.42380495  0.33541571  0.25713132  1
  H+  H312  1  0.15602819  0.08177260  0.22817052  1
  H+  H313  1  0.15353560  0.82595754  0.89061332  1
  H+  H314  1  0.74589643  0.13460623  0.98654452  1
  H+  H315  1  0.42710220  0.59148707  0.24046682  1
  H+  H316  1  0.90561073  0.32666487  0.27750093  1
  H+  H317  1  0.43030776  0.82971019  0.89989111  1
  H+  H318  1  0.90775574  0.81104278  0.56518344  1
  H+  H319  1  0.43242484  0.33755470  0.56188784  1
  H+  H320  1  0.68952212  0.11141192  0.90327620  1
  H+  H321  1  0.41083930  0.44680298  0.12208491  1
  H+  H322  1  0.94271773  0.98131578  0.47400670  1
  H+  H323  1  0.16534606  0.57721226  0.93770483  1
  H+  H324  1  0.36138312  0.72673783  0.83351789  1
  H+  H325  1  0.44120872  0.56391799  0.59238182  1
  H+  H326  1  0.07800923  0.16442439  0.05877700  1
  H+  H327  1  0.84799995  0.91967952  0.03842517  1
  H+  H328  1  0.33361473  0.91902507  0.09712863  1
  H+  H329  1  0.40070369  0.38053714  0.98104474  1
  H+  H330  1  0.15160436  0.33521274  0.92989073  1
  H+  H331  1  0.20197124  0.34497975  0.99284091  1
  H+  H332  1  0.32675205  0.66727864  0.43766758  1
  H+  H333  1  0.39954581  0.83533056  0.60418349  1
  H+  H334  1  0.33844259  0.66348279  0.06949062  1
  H+  H335  1  0.82607984  0.17177245  0.46885989  1
  H+  H336  1  0.65385145  0.50770946  0.51865235  1
  H+  H337  1  0.32046865  0.41050054  0.40627676  1
  H+  H338  1  0.57125418  0.38716394  0.07287055  1
  H+  H339  1  0.90408574  0.32799539  0.92405382  1
  H+  H340  1  0.06951757  0.15525546  0.75569680  1
  H+  H341  1  0.30374004  0.66639324  0.74400770  1
  H+  H342  1  0.92053597  0.06067940  0.20612199  1
  H+  H343  1  0.68581375  0.63718178  0.23249996  1
  H+  H344  1  0.84300489  0.16895526  0.72104759  1
  H+  H345  1  0.28422197  0.30153885  0.03968956  1
  H+  H346  1  0.36345224  0.22451069  0.67542251  1
  H+  H347  1  0.04821557  0.62895911  0.73674904  1
  H+  H348  1  0.65359241  0.53052795  0.30751682  1
  H+  H349  1  0.66478198  0.83924626  0.57644201  1
  H+  H350  1  0.38433893  0.36381139  0.34513667  1
  H+  H351  1  0.88962617  0.09890845  0.30168016  1
  H+  H352  1  0.45117351  0.07211922  0.92148514  1
  H+  H353  1  0.33293385  0.16464188  0.73474899  1
  H+  H354  1  0.65002048  0.83590921  0.28540124  1
  H+  H355  1  0.43240290  0.59345551  0.89518114  1
  H+  H356  1  0.37821927  0.51486395  0.33103204  1
  H+  H357  1  0.40391132  0.02177456  0.83856196  1
  H+  H358  1  0.08847204  0.66936448  0.40491033  1
  H+  H359  1  0.66016255  0.97378819  0.45137459  1
  H+  H360  1  0.59440323  0.68806845  0.06203417  1
  H+  H361  1  0.67143084  0.83325316  0.88898233  1
  H+  H362  1  0.12735294  0.36402857  0.67259320  1
  H+  H363  1  0.60096276  0.66645316  0.76526290  1
  H+  H364  1  0.16745806  0.08695004  0.92980299  1
  H+  H365  1  0.58077733  0.37003873  0.40617572  1
  H+  H366  1  0.37164255  0.88024437  0.00257879  1
  H+  H367  1  0.57673315  0.65748072  0.40168005  1
  H+  H368  1  0.08731317  0.08271468  0.49278724  1
  H+  H369  1  0.17418572  0.83953280  0.56181873  1
  H+  H370  1  0.65557558  0.06605394  0.62006659  1
  H+  H371  1  0.69087949  0.59364769  0.61183075  1
  H+  H372  1  0.07850210  0.92295881  0.72531807  1
  H+  H373  1  0.71829530  0.88397037  0.20230857  1
  H+  H374  1  0.58526330  0.91398269  0.06319913  1
  H+  H375  1  0.01038977  0.13285438  0.66208299  1
  H+  H376  1  0.55382569  0.28678650  0.87725196  1
  H+  H377  1  0.17353481  0.35431848  0.58048715  1
  H+  H378  1  0.38661395  0.52779942  0.50382134  1
  H+  H379  1  0.83211253  0.92255630  0.40785349  1
  H+  H380  1  0.14633532  0.87205379  0.98421016  1
  H+  H381  1  0.92902017  0.59041386  0.26580917  1
  H+  H382  1  0.08545442  0.67766115  0.09519288  1
  H+  H383  1  0.60426620  0.42149387  0.72603814  1
  O2-  O384  1  0.08573335  0.16893386  0.13599263  1
  O2-  O385  1  0.04787485  0.03932791  0.46313385  1
  O2-  O386  1  0.07423534  0.15322959  0.80204040  1
  O2-  O387  1  0.08156916  0.41335597  0.14211108  1
  O2-  O388  1  0.08363864  0.42750425  0.47611143  1
  O2-  O389  1  0.06543303  0.43039284  0.79846520  1
  O2-  O390  1  0.08455387  0.67222985  0.14050524  1
  O2-  O391  1  0.08051129  0.65741944  0.47301310  1
  O2-  O392  1  0.04363205  0.63830818  0.82248784  1
  O2-  O393  1  0.08541789  0.92005220  0.13336415  1
  O2-  O394  1  0.06294514  0.89445869  0.46958979  1
  O2-  O395  1  0.06594402  0.91288468  0.80745906  1
  O2-  O396  1  0.32564474  0.17667541  0.15142400  1
  O2-  O397  1  0.32026673  0.17409333  0.47946902  1
  O2-  O398  1  0.33861438  0.15656941  0.81997977  1
  O2-  O399  1  0.36503555  0.43798466  0.15015663  1
  O2-  O400  1  0.33286010  0.41995472  0.48304745  1
  O2-  O401  1  0.37279524  0.42690927  0.80813054  1
  O2-  O402  1  0.35011308  0.67842826  0.15043903  1
  O2-  O403  1  0.33143887  0.66983552  0.48296874  1
  O2-  O404  1  0.32370453  0.66476260  0.82056158  1
  O2-  O405  1  0.32928324  0.91905974  0.14203718  1
  O2-  O406  1  0.33351247  0.91986588  0.47180744  1
  O2-  O407  1  0.35420371  0.91630095  0.82805514  1
  O2-  O408  1  0.57271458  0.16006559  0.14262037  1
  O2-  O409  1  0.60062137  0.17782878  0.47693615  1
  O2-  O410  1  0.59696418  0.17068385  0.81043373  1
  O2-  O411  1  0.53875888  0.32491700  0.13108569  1
  O2-  O412  1  0.54600411  0.39351825  0.42440226  1
  O2-  O413  1  0.61517739  0.43618298  0.80633791  1
  O2-  O414  1  0.59904737  0.70662297  0.14314050  1
  O2-  O415  1  0.58364988  0.64771257  0.47207602  1
  O2-  O416  1  0.60585398  0.66684355  0.81127680  1
  O2-  O417  1  0.58245155  0.92962614  0.14458139  1
  O2-  O418  1  0.60938386  0.93546697  0.47502925  1
  O2-  O419  1  0.57600440  0.90636763  0.81231114  1
  O2-  O420  1  0.83203988  0.16748110  0.14173595  1
  O2-  O421  1  0.82649069  0.16753645  0.51409547  1
  O2-  O422  1  0.83285010  0.16643820  0.80169543  1
  O2-  O423  1  0.83710966  0.40911629  0.14763236  1
  O2-  O424  1  0.86553290  0.41032576  0.47948545  1
  O2-  O425  1  0.80199595  0.37065647  0.78870171  1
  O2-  O426  1  0.85395050  0.67932537  0.18174562  1
  O2-  O427  1  0.83376084  0.64068535  0.47053962  1
  O2-  O428  1  0.79220634  0.65827033  0.81972238  1
  O2-  O429  1  0.85129919  0.90755595  0.11482361  1
  O2-  O430  1  0.87885033  0.94387154  0.48152265  1
  O2-  O431  1  0.83196370  0.91607619  0.80023055  1
  O2-  O432  1  0.15839593  0.08468822  0.18245891  1
  O2-  O433  1  0.18276828  0.16027471  0.53324027  1
  O2-  O434  1  0.16214817  0.07596049  0.85180052  1
  O2-  O435  1  0.17189508  0.33775845  0.18359407  1
  O2-  O436  1  0.17743044  0.35269490  0.53589531  1
  O2-  O437  1  0.19508567  0.38552490  0.82051607  1
  O2-  O438  1  0.15906950  0.58357634  0.16625249  1
  O2-  O439  1  0.16659322  0.59545916  0.52098839  1
  O2-  O440  1  0.15676046  0.58043660  0.86192098  1
  O2-  O441  1  0.16353769  0.83433736  0.18295069  1
  O2-  O442  1  0.17091141  0.83390311  0.51592307  1
  O2-  O443  1  0.13400175  0.81377397  0.84693526  1
  O2-  O444  1  0.40492187  0.08782569  0.18148883  1
  O2-  O445  1  0.42844238  0.09559825  0.46246409  1
  O2-  O446  1  0.43274761  0.08280558  0.85382801  1
  O2-  O447  1  0.41898394  0.33119717  0.21187908  1
  O2-  O448  1  0.42163202  0.33874711  0.51739902  1
  O2-  O449  1  0.44506272  0.33473905  0.84867920  1
  O2-  O450  1  0.43245245  0.59532001  0.19480393  1
  O2-  O451  1  0.42130295  0.58794752  0.51895423  1
  O2-  O452  1  0.43010581  0.59384178  0.85003664  1
  O2-  O453  1  0.41568365  0.83932595  0.17658118  1
  O2-  O454  1  0.41180716  0.83419604  0.52178059  1
  O2-  O455  1  0.42558346  0.82744813  0.85467815  1
  O2-  O456  1  0.66688813  0.09175672  0.18965769  1
  O2-  O457  1  0.65453928  0.07793741  0.54579686  1
  O2-  O458  1  0.68693904  0.10655711  0.85425068  1
  O2-  O459  1  0.67372802  0.33130266  0.19511711  1
  O2-  O460  1  0.68573557  0.33887259  0.51651831  1
  O2-  O461  1  0.61513889  0.31074408  0.86983084  1
  O2-  O462  1  0.70100812  0.66642115  0.19255172  1
  O2-  O463  1  0.66235966  0.54278831  0.48274995  1
  O2-  O464  1  0.70788039  0.60259296  0.84803073  1
  O2-  O465  1  0.65623546  0.84895388  0.20568562  1
  O2-  O466  1  0.66191678  0.84585095  0.53083024  1
  O2-  O467  1  0.67334881  0.83390151  0.84344690  1
  O2-  O468  1  0.91906806  0.06964668  0.16253177  1
  O2-  O469  1  0.90572656  0.07513991  0.56568684  1
  O2-  O470  1  0.90864070  0.07978823  0.84417438  1
  O2-  O471  1  0.91122271  0.32546737  0.19547205  1
  O2-  O472  1  0.91087607  0.36812682  0.50576076  1
  O2-  O473  1  0.90197571  0.32463944  0.84291078  1
  O2-  O474  1  0.91866241  0.57463036  0.18296194  1
  O2-  O475  1  0.92895558  0.56682065  0.50586629  1
  O2-  O476  1  0.88715238  0.59478345  0.87151091  1
  O2-  O477  1  0.93501085  0.83858343  0.18932248  1
  O2-  O478  1  0.89944399  0.80220388  0.51977641  1
  O2-  O479  1  0.90088241  0.82993644  0.84765705  1
  O2-  O480  1  0.15918430  0.08286672  0.30581133  1
  O2-  O481  1  0.16289913  0.09713020  0.64973542  1
  O2-  O482  1  0.16657974  0.08974585  0.97538860  1
  O2-  O483  1  0.16116467  0.33420671  0.30593273  1
  O2-  O484  1  0.16668131  0.33936035  0.67075375  1
  O2-  O485  1  0.14437392  0.32956766  0.97398956  1
  O2-  O486  1  0.15829244  0.58967849  0.31216174  1
  O2-  O487  1  0.14567036  0.56826565  0.64021778  1
  O2-  O488  1  0.16828936  0.57819840  0.98365664  1
  O2-  O489  1  0.16450691  0.83961491  0.31161241  1
  O2-  O490  1  0.17942487  0.84901810  0.63656612  1
  O2-  O491  1  0.17467024  0.84101060  0.96744013  1
  O2-  O492  1  0.41601435  0.09104002  0.30238371  1
  O2-  O493  1  0.45012102  0.14447382  0.61729799  1
  O2-  O494  1  0.46643962  0.05635495  0.96266340  1
  O2-  O495  1  0.42260765  0.33954249  0.33567274  1
  O2-  O496  1  0.42728162  0.32989201  0.64287389  1
  O2-  O497  1  0.42685201  0.34540329  0.97193329  1
  O2-  O498  1  0.40774968  0.57592889  0.31738007  1
  O2-  O499  1  0.45371105  0.54103412  0.62973886  1
  O2-  O500  1  0.43588919  0.59765638  0.97810195  1
  O2-  O501  1  0.42343600  0.80347168  0.28821376  1
  O2-  O502  1  0.39696946  0.83750043  0.64903739  1
  O2-  O503  1  0.42094423  0.83072400  0.98021183  1
  O2-  O504  1  0.66431523  0.09420160  0.31444970  1
  O2-  O505  1  0.66462580  0.07423474  0.66528196  1
  O2-  O506  1  0.68823085  0.11090069  0.96643013  1
  O2-  O507  1  0.63930379  0.34923614  0.35119868  1
  O2-  O508  1  0.67137488  0.33797083  0.63508286  1
  O2-  O509  1  0.66675524  0.33309919  0.98869241  1
  O2-  O510  1  0.67074087  0.59147638  0.30871466  1
  O2-  O511  1  0.68008530  0.58523444  0.65530704  1
  O2-  O512  1  0.67541908  0.59428128  1.00772534  1
  O2-  O513  1  0.65107987  0.83505731  0.33060206  1
  O2-  O514  1  0.66830934  0.82928177  0.64849953  1
  O2-  O515  1  0.66984436  0.83428658  0.96664287  1
  O2-  O516  1  0.90103851  0.08912334  0.34331984  1
  O2-  O517  1  0.90938344  0.07653363  0.63361508  1
  O2-  O518  1  0.91126149  0.08704985  0.96766182  1
  O2-  O519  1  0.91134630  0.32841810  0.32315939  1
  O2-  O520  1  0.91028536  0.33236351  0.62696302  1
  O2-  O521  1  0.91059335  0.32897279  0.96899546  1
  O2-  O522  1  0.93444300  0.60048012  0.31028136  1
  O2-  O523  1  0.91202454  0.57134646  0.62928880  1
  O2-  O524  1  0.92313646  0.59085850  0.99271717  1
  O2-  O525  1  0.91049225  0.84036298  0.31025873  1
  O2-  O526  1  0.91853877  0.82942194  0.63959512  1
  O2-  O527  1  0.94058893  0.86308248  0.96072879  1
  O2-  O528  1  0.07258175  0.16034863  0.01329625  1
  O2-  O529  1  0.07688855  0.16806281  0.35519519  1
  O2-  O530  1  0.06796724  0.16471419  0.68372441  1
  O2-  O531  1  0.09070243  0.42676166  0.02604107  1
  O2-  O532  1  0.08695806  0.42420945  0.34781199  1
  O2-  O533  1  0.06742296  0.41117966  0.67984179  1
  O2-  O534  1  0.08977515  0.67921222  0.01634420  1
  O2-  O535  1  0.09323017  0.67625647  0.35727663  1
  O2-  O536  1  0.05352801  0.63534969  0.69226682  1
  O2-  O537  1  0.08706987  0.92563998  0.01084492  1
  O2-  O538  1  0.07813010  0.91853941  0.34707355  1
  O2-  O539  1  0.08105313  0.92436399  0.68026504  1
  O2-  O540  1  0.30124373  0.21918843  0.03844477  1
  O2-  O541  1  0.32641473  0.16525824  0.35405749  1
  O2-  O542  1  0.32348515  0.16545886  0.69061058  1
  O2-  O543  1  0.28371640  0.35698013  0.03278021  1
  O2-  O544  1  0.32259752  0.40804936  0.36064868  1
  O2-  O545  1  0.34264320  0.41205961  0.69173904  1
  O2-  O546  1  0.33307492  0.65932423  0.02437826  1
  O2-  O547  1  0.32139263  0.66086711  0.35775929  1
  O2-  O548  1  0.29679623  0.66655173  0.69882242  1
  O2-  O549  1  0.34721966  0.91899536  0.01341867  1
  O2-  O550  1  0.34202858  0.93486174  0.34765089  1
  O2-  O551  1  0.33360205  0.93274049  0.69524084  1
  O2-  O552  1  0.58570991  0.16840859  0.02335050  1
  O2-  O553  1  0.58750095  0.19937990  0.30183685  1
  O2-  O554  1  0.60033642  0.17977002  0.68404270  1
  O2-  O555  1  0.58862577  0.41568483  0.03135097  1
  O2-  O556  1  0.63130908  0.39575222  0.29839319  1
  O2-  O557  1  0.59656999  0.41962673  0.68117602  1
  O2-  O558  1  0.59343109  0.67596297  0.01780647  1
  O2-  O559  1  0.57329582  0.66409846  0.35564058  1
  O2-  O560  1  0.59487134  0.66582507  0.69168405  1
  O2-  O561  1  0.57719103  0.90585368  0.01868757  1
  O2-  O562  1  0.56549665  0.92306144  0.35141827  1
  O2-  O563  1  0.62342284  0.93992059  0.69506382  1
  O2-  O564  1  0.84392253  0.17584043  0.01510177  1
  O2-  O565  1  0.81771157  0.17097741  0.38867880  1
  O2-  O566  1  0.84004785  0.16836541  0.67587205  1
  O2-  O567  1  0.83851125  0.41883732  0.02189196  1
  O2-  O568  1  0.86622217  0.37532477  0.33879265  1
  O2-  O569  1  0.83308200  0.41184893  0.67064579  1
  O2-  O570  1  0.83492675  0.66491175  0.05492052  1
  O2-  O571  1  0.83241728  0.67194002  0.34962960  1
  O2-  O572  1  0.85555324  0.66522054  0.68580130  1
  O2-  O573  1  0.84641218  0.92348551  -0.00683614  1
  O2-  O574  1  0.82245677  0.92280069  0.36308530  1
  O2-  O575  1  0.83569606  0.91466917  0.67517704  1
