# generated using pymatgen
data_Fe89.6Co38.4
_symmetry_space_group_name_H-M   'P 1'
_cell_length_a   11.46040000
_cell_length_b   11.46040000
_cell_length_c   11.46040000
_cell_angle_alpha   90.00000000
_cell_angle_beta   90.00000000
_cell_angle_gamma   90.00000000
_symmetry_Int_Tables_number   1
_chemical_formula_structural   Fe89.6Co38.4
_chemical_formula_sum   'Fe89.6 Co38.4'
_cell_volume   1505.21773942
_cell_formula_units_Z   1
loop_
 _symmetry_equiv_pos_site_id
 _symmetry_equiv_pos_as_xyz
  1  'x, y, z'
loop_
 _atom_type_symbol
 _atom_type_oxidation_number
  Fe0+  0.0
  Co0+  0.0
loop_
 _atom_site_type_symbol
 _atom_site_label
 _atom_site_symmetry_multiplicity
 _atom_site_fract_x
 _atom_site_fract_y
 _atom_site_fract_z
 _atom_site_occupancy

  Fe0+  Co1  1  0.50000000  0.75000000  0.75000000  1.0
  Fe0+  Co1  1  0.00000000  0.75000000  0.25000000  1.0
  Fe0+  Co1  1  0.50000000  0.25000000  0.00000000  1.0
  Fe0+  Co1  1  0.12500000  0.87500000  0.37500000  1.0
  Fe0+  Co1  1  0.25000000  0.00000000  0.00000000  1.0
  Fe0+  Co1  1  0.25000000  0.25000000  0.00000000  1.0
  Fe0+  Co1  1  0.37500000  0.62500000  0.87500000  1.0
  Fe0+  Co1  1  0.62500000  0.62500000  0.62500000  1.0
  Fe0+  Co1  1  0.37500000  0.12500000  0.62500000  1.0
  Fe0+  Co1  1  0.50000000  0.75000000  0.00000000  1.0
  Fe0+  Co1  1  0.37500000  0.62500000  0.12500000  1.0
  Fe0+  Co1  1  0.75000000  0.25000000  0.50000000  1.0
  Fe0+  Co1  1  0.00000000  0.00000000  0.75000000  1.0
  Fe0+  Co1  1  0.25000000  0.00000000  0.25000000  1.0
  Fe0+  Co1  1  0.87500000  0.62500000  0.12500000  1.0
  Fe0+  Co1  1  0.75000000  0.75000000  0.75000000  1.0
  Fe0+  Co1  1  0.12500000  0.87500000  0.87500000  1.0
  Fe0+  Co1  1  0.50000000  0.75000000  0.25000000  1.0
  Fe0+  Co1  1  0.62500000  0.12500000  0.87500000  1.0
  Fe0+  Co1  1  0.37500000  0.37500000  0.37500000  1.0
  Fe0+  Co1  1  0.12500000  0.37500000  0.12500000  1.0
  Fe0+  Co1  1  0.50000000  0.25000000  0.50000000  1.0
  Fe0+  Co1  1  0.87500000  0.62500000  0.37500000  1.0
  Fe0+  Co1  1  0.00000000  0.00000000  0.25000000  1.0
  Fe0+  Co1  1  0.00000000  0.75000000  0.75000000  1.0
  Fe0+  Co1  1  0.12500000  0.62500000  0.37500000  1.0
  Fe0+  Co1  1  0.87500000  0.12500000  0.87500000  1.0
  Fe0+  Co1  1  0.50000000  0.50000000  0.75000000  1.0
  Fe0+  Co1  1  0.25000000  0.50000000  0.50000000  1.0
  Fe0+  Co1  1  0.12500000  0.62500000  0.62500000  1.0
  Fe0+  Co1  1  0.75000000  0.50000000  0.50000000  1.0
  Fe0+  Co1  1  0.75000000  0.50000000  0.75000000  1.0
  Fe0+  Co1  1  0.62500000  0.12500000  0.37500000  1.0
  Fe0+  Co1  1  0.12500000  0.87500000  0.12500000  1.0
  Fe0+  Co1  1  0.62500000  0.37500000  0.37500000  1.0
  Fe0+  Co1  1  0.50000000  0.25000000  0.75000000  1.0
  Fe0+  Co1  1  0.50000000  0.00000000  0.75000000  1.0
  Fe0+  Co1  1  0.12500000  0.12500000  0.87500000  1.0
  Fe0+  Co1  1  0.37500000  0.87500000  0.62500000  1.0
  Fe0+  Co1  1  0.75000000  0.75000000  0.00000000  1.0
  Fe0+  Co1  1  0.25000000  0.00000000  0.50000000  1.0
  Fe0+  Co1  1  0.50000000  0.00000000  0.25000000  1.0
  Fe0+  Co1  1  0.75000000  0.00000000  0.00000000  1.0
  Fe0+  Co1  1  0.37500000  0.12500000  0.37500000  1.0
  Fe0+  Co1  1  0.87500000  0.37500000  0.62500000  1.0
  Fe0+  Co1  1  0.00000000  0.50000000  0.75000000  1.0
  Fe0+  Co1  1  0.37500000  0.87500000  0.87500000  1.0
  Fe0+  Co1  1  0.12500000  0.37500000  0.87500000  1.0
  Fe0+  Co1  1  0.50000000  0.50000000  0.25000000  1.0
  Fe0+  Co1  1  0.75000000  0.50000000  0.00000000  1.0
  Fe0+  Co1  1  0.62500000  0.87500000  0.12500000  1.0
  Fe0+  Co1  1  0.25000000  0.50000000  0.75000000  1.0
  Fe0+  Co1  1  0.00000000  0.25000000  0.00000000  1.0
  Fe0+  Co1  1  0.75000000  0.25000000  0.00000000  1.0
  Fe0+  Co1  1  0.87500000  0.62500000  0.87500000  1.0
  Fe0+  Co1  1  0.12500000  0.87500000  0.62500000  1.0
  Fe0+  Co1  1  0.37500000  0.62500000  0.37500000  1.0
  Fe0+  Co1  1  0.62500000  0.37500000  0.62500000  1.0
  Fe0+  Co1  1  0.00000000  0.50000000  0.25000000  1.0
  Fe0+  Co1  1  0.25000000  0.75000000  0.75000000  1.0
  Fe0+  Co1  1  0.00000000  0.50000000  0.00000000  1.0
  Fe0+  Co1  1  0.87500000  0.37500000  0.12500000  1.0
  Fe0+  Co1  1  0.62500000  0.62500000  0.87500000  1.0
  Fe0+  Co1  1  0.37500000  0.37500000  0.62500000  1.0
  Fe0+  Co1  1  0.87500000  0.12500000  0.37500000  1.0
  Fe0+  Co1  1  0.12500000  0.62500000  0.87500000  1.0
  Fe0+  Co1  1  0.37500000  0.37500000  0.87500000  1.0
  Fe0+  Co1  1  0.37500000  0.87500000  0.37500000  1.0
  Fe0+  Co1  1  0.75000000  0.00000000  0.25000000  1.0
  Fe0+  Co1  1  0.25000000  0.50000000  0.00000000  1.0
  Fe0+  Co1  1  0.50000000  0.75000000  0.50000000  1.0
  Fe0+  Co1  1  0.50000000  0.50000000  0.00000000  1.0
  Fe0+  Co1  1  0.25000000  0.00000000  0.75000000  1.0
  Fe0+  Co1  1  0.75000000  0.00000000  0.75000000  1.0
  Fe0+  Co1  1  0.37500000  0.37500000  0.12500000  1.0
  Fe0+  Co1  1  0.50000000  0.50000000  0.50000000  1.0
  Fe0+  Co1  1  0.00000000  0.25000000  0.50000000  1.0
  Fe0+  Co1  1  0.62500000  0.62500000  0.12500000  1.0
  Fe0+  Co1  1  0.87500000  0.37500000  0.37500000  1.0
  Fe0+  Co1  1  0.00000000  0.75000000  0.00000000  1.0
  Fe0+  Co1  1  0.62500000  0.87500000  0.62500000  1.0
  Fe0+  Co1  1  0.25000000  0.25000000  0.75000000  1.0
  Fe0+  Co1  1  0.87500000  0.37500000  0.87500000  1.0
  Fe0+  Co1  1  0.62500000  0.37500000  0.12500000  1.0
  Fe0+  Co1  1  0.37500000  0.12500000  0.12500000  1.0
  Fe0+  Co1  1  0.87500000  0.87500000  0.62500000  1.0
  Fe0+  Co1  1  0.87500000  0.87500000  0.37500000  1.0
  Fe0+  Co1  1  0.25000000  0.50000000  0.25000000  1.0
  Fe0+  Co1  1  0.25000000  0.75000000  0.50000000  1.0
  Fe0+  Co1  1  0.37500000  0.12500000  0.87500000  1.0
  Co0+  Co1  1  0.75000000  0.25000000  0.25000000  1.0
  Co0+  Co1  1  0.75000000  0.75000000  0.25000000  1.0
  Co0+  Co1  1  0.12500000  0.62500000  0.12500000  1.0
  Co0+  Co1  1  0.62500000  0.87500000  0.87500000  1.0
  Co0+  Co1  1  0.62500000  0.12500000  0.62500000  1.0
  Co0+  Co1  1  0.75000000  0.75000000  0.50000000  1.0
  Co0+  Co1  1  0.12500000  0.37500000  0.37500000  1.0
  Co0+  Co1  1  0.12500000  0.37500000  0.62500000  1.0
  Co0+  Co1  1  0.25000000  0.25000000  0.25000000  1.0
  Co0+  Co1  1  0.25000000  0.25000000  0.50000000  1.0
  Co0+  Co1  1  0.37500000  0.62500000  0.62500000  1.0
  Co0+  Co1  1  0.25000000  0.75000000  0.25000000  1.0
  Co0+  Co1  1  0.50000000  0.00000000  0.00000000  1.0
  Co0+  Co1  1  0.12500000  0.12500000  0.12500000  1.0
  Co0+  Co1  1  0.62500000  0.87500000  0.37500000  1.0
  Co0+  Co1  1  0.50000000  0.00000000  0.50000000  1.0
  Co0+  Co1  1  0.50000000  0.25000000  0.25000000  1.0
  Co0+  Co1  1  0.00000000  0.00000000  0.50000000  1.0
  Co0+  Co1  1  0.75000000  0.00000000  0.50000000  1.0
  Co0+  Co1  1  0.62500000  0.62500000  0.37500000  1.0
  Co0+  Co1  1  0.00000000  0.00000000  0.00000000  1.0
  Co0+  Co1  1  0.37500000  0.87500000  0.12500000  1.0
  Co0+  Co1  1  0.87500000  0.12500000  0.12500000  1.0
  Co0+  Co1  1  0.00000000  0.25000000  0.25000000  1.0
  Co0+  Co1  1  0.75000000  0.50000000  0.25000000  1.0
  Co0+  Co1  1  0.87500000  0.87500000  0.87500000  1.0
  Co0+  Co1  1  0.12500000  0.12500000  0.62500000  1.0
  Co0+  Co1  1  0.62500000  0.37500000  0.87500000  1.0
  Co0+  Co1  1  0.87500000  0.62500000  0.62500000  1.0
  Co0+  Co1  1  0.00000000  0.50000000  0.50000000  1.0
  Co0+  Co1  1  0.00000000  0.25000000  0.75000000  1.0
  Co0+  Co1  1  0.87500000  0.12500000  0.62500000  1.0
  Co0+  Co1  1  0.87500000  0.87500000  0.12500000  1.0
  Co0+  Co1  1  0.75000000  0.25000000  0.75000000  1.0
  Co0+  Co1  1  0.62500000  0.12500000  0.12500000  1.0
  Co0+  Co1  1  0.25000000  0.75000000  0.00000000  1.0
  Co0+  Co1  1  0.00000000  0.75000000  0.50000000  1.0
  Co0+  Co1  1  0.12500000  0.12500000  0.37500000  1.0


























































































































































































































































































































































































