# generated using pymatgen
data_HfZrTaTiMo
_symmetry_space_group_name_H-M   'P 1'
_cell_length_a   15.84739799
_cell_length_b   15.83139606
_cell_length_c   15.41769816
_cell_angle_alpha   89.95889392
_cell_angle_beta   90.01715467
_cell_angle_gamma   89.81413080
_symmetry_Int_Tables_number   1
_chemical_formula_structural   HfZrTaTiMo
_chemical_formula_sum   'Hf40 Zr40 Ta40 Ti40 Mo40'
_cell_volume   3868.06978817
_cell_formula_units_Z   40
loop_
 _symmetry_equiv_pos_site_id
 _symmetry_equiv_pos_as_xyz
  1  'x, y, z'
loop_
 _atom_site_type_symbol
 _atom_site_label
 _atom_site_symmetry_multiplicity
 _atom_site_fract_x
 _atom_site_fract_y
 _atom_site_fract_z
 _atom_site_occupancy
  Hf  Hf0  1  0.81587900  0.19833281  0.49036601  1
  Hf  Hf1  1  0.18148424  0.00826982  0.26130179  1
  Hf  Hf2  1  0.09245072  0.09480001  0.11036911  1
  Hf  Hf3  1  0.49541659  0.10327140  0.12873391  1
  Hf  Hf4  1  0.90098203  0.30003801  0.63511244  1
  Hf  Hf5  1  0.79969681  0.39644029  0.26174878  1
  Hf  Hf6  1  0.20094601  0.59952623  0.25249013  1
  Hf  Hf7  1  0.59923935  0.40080132  -0.00342062  1
  Hf  Hf8  1  0.79358207  0.80900887  0.49078028  1
  Hf  Hf9  1  -0.00038916  0.79114734  0.26033439  1
  Hf  Hf10  1  0.00256276  0.21405288  -0.02685477  1
  Hf  Hf11  1  0.49698710  0.88775630  0.12935503  1
  Hf  Hf12  1  0.10969508  0.49997290  0.38363516  1
  Hf  Hf13  1  0.09405586  0.69053163  0.61673917  1
  Hf  Hf14  1  0.69509834  0.29925957  0.87480161  1
  Hf  Hf15  1  0.69444969  0.89670581  0.63506749  1
  Hf  Hf16  1  0.79593896  0.00450093  0.74098256  1
  Hf  Hf17  1  0.10103170  0.49614104  0.62762262  1
  Hf  Hf18  1  0.40229776  0.62864152  0.73736452  1
  Hf  Hf19  1  0.38343539  0.21667032  0.24154759  1
  Hf  Hf20  1  0.08723570  0.90386876  0.39767531  1
  Hf  Hf21  1  0.00158592  0.38652834  0.49145623  1
  Hf  Hf22  1  0.39713874  0.80111041  0.52098241  1
  Hf  Hf23  1  0.20471134  0.79524111  0.26613542  1
  Hf  Hf24  1  0.11995331  0.28205680  0.13201639  1
  Hf  Hf25  1  0.28428750  0.10676596  0.12826844  1
  Hf  Hf26  1  0.50545215  0.50903601  0.13272353  1
  Hf  Hf27  1  0.20628075  -0.01816762  -0.01150141  1
  Hf  Hf28  1  0.90835987  0.29726841  0.13291805  1
  Hf  Hf29  1  0.40348318  0.00168292  0.51185685  1
  Hf  Hf30  1  0.30063143  0.10559518  0.37760952  1
  Hf  Hf31  1  0.89233520  0.69948608  0.11542393  1
  Hf  Hf32  1  0.20410978  0.19497783  0.75015646  1
  Hf  Hf33  1  -0.00711469  -0.00704116  -0.01597441  1
  Hf  Hf34  1  0.41047370  0.40344791  0.74559063  1
  Hf  Hf35  1  0.32311836  0.28217118  0.87389712  1
  Hf  Hf36  1  0.69115735  0.09891408  0.87881680  1
  Hf  Hf37  1  0.10828013  0.50616599  0.86044704  1
  Hf  Hf38  1  0.89427875  0.69937822  0.88059827  1
  Hf  Hf39  1  0.70029941  0.09378080  0.38469644  1
  Zr  Zr40  1  0.50851191  0.51622333  0.61121339  1
  Zr  Zr41  1  0.90256591  0.90281174  0.13631873  1
  Zr  Zr42  1  0.70330585  0.49477550  0.60657237  1
  Zr  Zr43  1  0.68259767  0.70746444  0.11449021  1
  Zr  Zr44  1  0.49042312  0.11527381  0.87918419  1
  Zr  Zr45  1  0.21109019  0.60022812  0.00671804  1
  Zr  Zr46  1  0.78837907  0.81517188  0.00105531  1
  Zr  Zr47  1  0.50533208  0.29868329  0.36165275  1
  Zr  Zr48  1  0.42160357  0.20132381  0.51570996  1
  Zr  Zr49  1  0.69586663  0.29882980  0.38151826  1
  Zr  Zr50  1  0.89800690  0.10837959  0.12523895  1
  Zr  Zr51  1  0.68654776  0.69159997  0.60735987  1
  Zr  Zr52  1  0.70487286  0.50775518  0.12085939  1
  Zr  Zr53  1  0.70280935  0.30244097  0.61871002  1
  Zr  Zr54  1  0.00000334  0.59116423  -0.00528573  1
  Zr  Zr55  1  0.89449708  0.89752624  0.86065414  1
  Zr  Zr56  1  0.30289947  0.90031159  0.37763080  1
  Zr  Zr57  1  0.40391065  0.40038855  -0.00521231  1
  Zr  Zr58  1  0.90260732  0.50066591  0.12983249  1
  Zr  Zr59  1  0.10365217  0.48595528  0.13142229  1
  Zr  Zr60  1  0.20062096  0.39045554  -0.01602351  1
  Zr  Zr61  1  0.49362220  0.49500501  0.36949059  1
  Zr  Zr62  1  0.10295338  0.09062102  0.86080865  1
  Zr  Zr63  1  0.01063387  0.17641938  0.27519000  1
  Zr  Zr64  1  0.21962653  0.78933062  0.72642808  1
  Zr  Zr65  1  0.39266594  0.00433859  -0.00248456  1
  Zr  Zr66  1  0.10572425  0.70178474  0.86334159  1
  Zr  Zr67  1  0.01063416  0.39097750  0.26710214  1
  Zr  Zr68  1  0.48723656  0.70067590  0.37788919  1
  Zr  Zr69  1  0.09833196  0.28902342  0.62728467  1
  Zr  Zr70  1  0.10633609  0.89194105  0.12401480  1
  Zr  Zr71  1  0.62485137  0.19472354  0.23233614  1
  Zr  Zr72  1  0.59886797  0.59789428  0.76618860  1
  Zr  Zr73  1  0.09879032  0.69977142  0.11753801  1
  Zr  Zr74  1  0.79467372  0.60134761  0.75117852  1
  Zr  Zr75  1  0.59504042  0.00234553  0.50568844  1
  Zr  Zr76  1  0.79976334  0.61831485  0.26868794  1
  Zr  Zr77  1  0.89590758  0.91723084  0.36937943  1
  Zr  Zr78  1  -0.00136594  0.39233708  0.76630119  1
  Zr  Zr79  1  0.59055044  0.78355302  0.76037524  1
  Ta  Ta80  1  0.60513011  -0.00515974  0.24115784  1
  Ta  Ta81  1  0.80010562  0.20230531  0.75689401  1
  Ta  Ta82  1  0.39610923  0.40291838  0.51495911  1
  Ta  Ta83  1  0.79133822  0.00477459  0.00427147  1
  Ta  Ta84  1  0.10391619  0.89249966  0.84818217  1
  Ta  Ta85  1  0.59510588  0.80831454  0.48691497  1
  Ta  Ta86  1  0.68862489  0.90173244  0.86770071  1
  Ta  Ta87  1  0.50361015  0.31339431  0.13981269  1
  Ta  Ta88  1  0.78829044  0.01527590  0.23861164  1
  Ta  Ta89  1  0.50037346  0.09763535  0.35753450  1
  Ta  Ta90  1  0.30593592  0.48882157  0.13602797  1
  Ta  Ta91  1  0.30491011  0.51414043  0.85953793  1
  Ta  Ta92  1  0.20062562  0.79864570  0.50678317  1
  Ta  Ta93  1  0.81255722  0.39544040  -0.00974000  1
  Ta  Ta94  1  0.79687217  0.40620385  0.76136633  1
  Ta  Ta95  1  0.60313910  -0.00749677  0.01036474  1
  Ta  Ta96  1  0.59508102  0.20484816  0.73678378  1
  Ta  Ta97  1  0.20686077  0.19449894  0.50909026  1
  Ta  Ta98  1  0.22249858  0.38187745  0.26119666  1
  Ta  Ta99  1  0.60119481  0.40378498  0.75785407  1
  Ta  Ta100  1  0.21077045  0.39445894  0.75430778  1
  Ta  Ta101  1  0.39328307  0.00185556  0.74740585  1
  Ta  Ta102  1  0.49847084  0.89604523  0.64406867  1
  Ta  Ta103  1  0.49500034  0.90121421  0.87096737  1
  Ta  Ta104  1  0.21124634  0.39604220  0.50448633  1
  Ta  Ta105  1  0.49417919  0.70358500  0.11956094  1
  Ta  Ta106  1  0.39112574  0.61167150  0.23972426  1
  Ta  Ta107  1  0.89721348  0.69809948  0.61060256  1
  Ta  Ta108  1  0.79971218  0.60126546  0.48756912  1
  Ta  Ta109  1  0.60045269  0.60870681  0.26121975  1
  Ta  Ta110  1  0.59567195  0.20588861  0.01208483  1
  Ta  Ta111  1  0.09376531  0.89813121  0.62082391  1
  Ta  Ta112  1  0.11927395  0.28661029  0.38468709  1
  Ta  Ta113  1  0.90118408  0.50186456  0.61394236  1
  Ta  Ta114  1  -0.00351547  -0.00353051  0.73706546  1
  Ta  Ta115  1  0.80063992  0.20319655  -0.01076975  1
  Ta  Ta116  1  0.49656621  0.90537352  0.36117269  1
  Ta  Ta117  1  0.69019804  0.49861790  0.38131186  1
  Ta  Ta118  1  0.90490604  0.50449588  0.38269213  1
  Ta  Ta119  1  0.80843478  0.00261792  0.51641511  1
  Ti  Ti120  1  0.38130456  0.81505194  0.00210267  1
  Ti  Ti121  1  0.39153814  -0.00532175  0.24179156  1
  Ti  Ti122  1  0.21062275  0.19002901  -0.02085640  1
  Ti  Ti123  1  -0.01005847  0.60000488  0.74597147  1
  Ti  Ti124  1  0.00247259  0.60213597  0.25984054  1
  Ti  Ti125  1  0.29943129  0.71842944  0.12081690  1
  Ti  Ti126  1  0.78264329  0.81151552  0.25945199  1
  Ti  Ti127  1  0.39477066  0.60175453  0.01031353  1
  Ti  Ti128  1  0.19909375  -0.00053705  0.51313429  1
  Ti  Ti129  1  0.89413537  0.50207732  0.87760764  1
  Ti  Ti130  1  0.71180292  0.30395459  0.12069806  1
  Ti  Ti131  1  0.30877300  0.50050844  0.37529111  1
  Ti  Ti132  1  0.31159577  0.30375311  0.39181825  1
  Ti  Ti133  1  0.30249193  0.70559859  0.87982205  1
  Ti  Ti134  1  0.90664769  0.10749533  0.63316707  1
  Ti  Ti135  1  0.91148525  0.70350867  0.39617925  1
  Ti  Ti136  1  0.21055520  0.59512775  0.50436828  1
  Ti  Ti137  1  0.58572112  0.38546593  0.50671549  1
  Ti  Ti138  1  0.80989985  0.39826499  0.48516862  1
  Ti  Ti139  1  0.00216903  0.18480032  0.48814981  1
  Ti  Ti140  1  0.09557624  0.09520504  0.62527570  1
  Ti  Ti141  1  0.30253122  0.30117281  0.62726550  1
  Ti  Ti142  1  0.60223702  0.80084088  0.26344221  1
  Ti  Ti143  1  0.48926484  0.70828880  0.90166847  1
  Ti  Ti144  1  0.00349677  0.39540486  -0.01508072  1
  Ti  Ti145  1  0.69215094  0.69844289  0.89885459  1
  Ti  Ti146  1  0.40759049  0.19708242  0.73324546  1
  Ti  Ti147  1  0.09524222  0.69533622  0.39914307  1
  Ti  Ti148  1  0.29704173  0.09502258  0.63047047  1
  Ti  Ti149  1  0.29782134  0.50624654  0.63437132  1
  Ti  Ti150  1  0.70282534  0.50750864  0.89284386  1
  Ti  Ti151  1  0.69740992  0.10781406  0.62046883  1
  Ti  Ti152  1  0.49529204  0.51113508  0.88143693  1
  Ti  Ti153  1  0.79436475  0.79163517  0.74678634  1
  Ti  Ti154  1  0.89613705  0.10142112  0.86606595  1
  Ti  Ti155  1  -0.01061821  0.79712771  0.73397759  1
  Ti  Ti156  1  0.59163199  0.00838898  0.74859400  1
  Ti  Ti157  1  0.29947872  0.89762006  0.85252167  1
  Ti  Ti158  1  0.30082914  0.69312315  0.38769197  1
  Ti  Ti159  1  0.00940753  0.80423014  -0.01022692  1
  Mo  Mo160  1  0.29643502  0.90548855  0.62539018  1
  Mo  Mo161  1  0.79574544  0.59845016  -0.00678993  1
  Mo  Mo162  1  0.30430941  0.09473606  0.86153310  1
  Mo  Mo163  1  0.50561595  0.70475971  0.60592308  1
  Mo  Mo164  1  0.80856062  0.20024899  0.26373927  1
  Mo  Mo165  1  0.59942251  0.60385408  0.47558883  1
  Mo  Mo166  1  -0.00524299  0.18973668  0.75698324  1
  Mo  Mo167  1  0.39887974  0.40662706  0.24836327  1
  Mo  Mo168  1  0.10923083  0.29730031  0.86689728  1
  Mo  Mo169  1  0.30207268  0.29922000  0.10937499  1
  Mo  Mo170  1  -0.00548059  0.79966399  0.50762255  1
  Mo  Mo171  1  0.39597188  0.79858878  0.24310275  1
  Mo  Mo172  1  0.69648783  0.70487013  0.37961477  1
  Mo  Mo173  1  0.50288350  0.09675714  0.64025674  1
  Mo  Mo174  1  0.89531350  0.89418735  0.63429455  1
  Mo  Mo175  1  -0.01033293  0.00352959  0.52639740  1
  Mo  Mo176  1  0.70227486  0.10456935  0.10628009  1
  Mo  Mo177  1  0.89479889  0.30050964  0.86590321  1
  Mo  Mo178  1  0.58687478  0.80954751  -0.01327955  1
  Mo  Mo179  1  0.20751391  0.80316727  -0.01858948  1
  Mo  Mo180  1  0.39250371  0.59569284  0.50607693  1
  Mo  Mo181  1  0.40293530  0.80290476  0.74616188  1
  Mo  Mo182  1  -0.00095687  0.59464567  0.50023835  1
  Mo  Mo183  1  0.89867472  0.09218911  0.37377044  1
  Mo  Mo184  1  0.10248238  0.08933082  0.40519059  1
  Mo  Mo185  1  0.19882669  -0.00596616  0.73291546  1
  Mo  Mo186  1  0.20274474  0.19983602  0.26876099  1
  Mo  Mo187  1  0.90662205  0.29551025  0.36839994  1
  Mo  Mo188  1  0.29835148  0.89819114  0.13844710  1
  Mo  Mo189  1  0.50698916  0.30062069  0.86289988  1
  Mo  Mo190  1  0.40272857  0.20677762  0.02054941  1
  Mo  Mo191  1  0.50213176  0.30701620  0.63610348  1
  Mo  Mo192  1  0.29928353  0.69131874  0.60699285  1
  Mo  Mo193  1  0.69590390  0.90265013  0.13520681  1
  Mo  Mo194  1  0.69408420  0.90603433  0.36589056  1
  Mo  Mo195  1  -0.00271098  -0.00555796  0.24758943  1
  Mo  Mo196  1  0.60939095  0.40717074  0.23723582  1
  Mo  Mo197  1  0.60139292  0.19607621  0.51414053  1
  Mo  Mo198  1  0.58728176  0.60407462  -0.00987891  1
  Mo  Mo199  1  0.20649358  0.59514105  0.74146281  1
