# generated using pymatgen
data_HfZrTaTiMo
_symmetry_space_group_name_H-M   'P 1'
_cell_length_a   15.83793135
_cell_length_b   15.83244169
_cell_length_c   15.40153354
_cell_angle_alpha   89.99645024
_cell_angle_beta   89.99017467
_cell_angle_gamma   89.91128505
_symmetry_Int_Tables_number   1
_chemical_formula_structural   HfZrTaTiMo
_chemical_formula_sum   'Hf40 Zr40 Ta40 Ti40 Mo40'
_cell_volume   3861.97796417
_cell_formula_units_Z   40
loop_
 _symmetry_equiv_pos_site_id
 _symmetry_equiv_pos_as_xyz
  1  'x, y, z'
loop_
 _atom_site_type_symbol
 _atom_site_label
 _atom_site_symmetry_multiplicity
 _atom_site_fract_x
 _atom_site_fract_y
 _atom_site_fract_z
 _atom_site_occupancy
  Hf  Hf0  1  0.69799239  0.50842073  0.12595564  1
  Hf  Hf1  1  0.20123040  0.60368706  0.75380879  1
  Hf  Hf2  1  0.90843199  0.10195304  0.88639715  1
  Hf  Hf3  1  0.49948447  0.08369127  0.39593991  1
  Hf  Hf4  1  0.90544631  0.30630530  0.88284240  1
  Hf  Hf5  1  0.10503127  0.31591611  0.13213634  1
  Hf  Hf6  1  0.79718679  0.41010622  0.25092452  1
  Hf  Hf7  1  0.00535213  0.80768608  0.76307697  1
  Hf  Hf8  1  0.09875350  0.29938819  0.87608582  1
  Hf  Hf9  1  0.69208521  0.89612143  0.86427203  1
  Hf  Hf10  1  0.48372891  0.50650649  0.12987886  1
  Hf  Hf11  1  0.58538726  0.39731041  0.24922636  1
  Hf  Hf12  1  0.69047995  0.29363896  0.13248633  1
  Hf  Hf13  1  0.30443432  0.89158238  0.88469645  1
  Hf  Hf14  1  0.58496709  0.18519469  0.25113105  1
  Hf  Hf15  1  0.29352154  0.09998839  0.39167440  1
  Hf  Hf16  1  0.28832207  0.50193306  0.12542194  1
  Hf  Hf17  1  0.28847405  0.88883515  0.63035841  1
  Hf  Hf18  1  0.20740438  0.60278999  0.48692335  1
  Hf  Hf19  1  0.79841492  0.19299916  0.00959036  1
  Hf  Hf20  1  0.40896258  0.58502459  0.49546121  1
  Hf  Hf21  1  0.21614780  0.20836173  0.24248894  1
  Hf  Hf22  1  0.00945817  0.61070369  0.49837287  1
  Hf  Hf23  1  0.89853085  0.29829779  0.61295202  1
  Hf  Hf24  1  0.58290709  0.19667321  -0.00373871  1
  Hf  Hf25  1  0.29165064  0.29916756  0.62557703  1
  Hf  Hf26  1  0.30916430  0.90054325  0.37967415  1
  Hf  Hf27  1  0.69000911  0.50425848  0.62478471  1
  Hf  Hf28  1  0.00546537  0.79930351  0.25034518  1
  Hf  Hf29  1  0.10295940  0.90075396  0.12210285  1
  Hf  Hf30  1  0.89792831  0.90628247  0.11609270  1
  Hf  Hf31  1  0.90315968  0.70397307  0.62693267  1
  Hf  Hf32  1  0.21273249  0.78630996  0.24654513  1
  Hf  Hf33  1  0.41696567  0.00205495  0.24324619  1
  Hf  Hf34  1  0.00269730  0.40439474  0.73976335  1
  Hf  Hf35  1  0.09201213  0.49655423  0.36639993  1
  Hf  Hf36  1  0.59031675  0.39334362  -0.00565200  1
  Hf  Hf37  1  0.40041461  0.39088224  -0.00944791  1
  Hf  Hf38  1  0.90950892  0.30802768  0.13071463  1
  Hf  Hf39  1  0.70153844  0.30545143  0.61964551  1
  Zr  Zr40  1  0.01502978  0.80413343  0.49027201  1
  Zr  Zr41  1  0.48914931  0.69898934  0.87380153  1
  Zr  Zr42  1  0.79851259  0.40338253  0.00573706  1
  Zr  Zr43  1  0.32641579  0.11307130  0.10946132  1
  Zr  Zr44  1  0.80818051  0.19016200  0.24999644  1
  Zr  Zr45  1  0.38718825  0.38434844  0.25749675  1
  Zr  Zr46  1  0.08928899  0.51731096  0.13719799  1
  Zr  Zr47  1  0.51115225  0.89280322  0.11474176  1
  Zr  Zr48  1  0.59382743  0.20763460  0.50431408  1
  Zr  Zr49  1  0.29430922  0.10064419  0.62560789  1
  Zr  Zr50  1  0.10057104  0.29651664  0.37398059  1
  Zr  Zr51  1  0.48618494  0.31509025  0.62810912  1
  Zr  Zr52  1  0.89997361  0.50171492  0.37973766  1
  Zr  Zr53  1  0.89647002  0.50156621  0.61480505  1
  Zr  Zr54  1  0.40800069  0.78871177  0.24841228  1
  Zr  Zr55  1  0.69981314  0.09759810  0.38721249  1
  Zr  Zr56  1  0.59847675  -0.00202416  -0.01039986  1
  Zr  Zr57  1  0.70680504  0.50211199  0.86871357  1
  Zr  Zr58  1  0.69498997  0.90177668  0.39087616  1
  Zr  Zr59  1  0.81404856  0.00147307  0.75317015  1
  Zr  Zr60  1  0.70926782  0.10477787  0.62048949  1
  Zr  Zr61  1  0.90840794  0.68848295  0.13049892  1
  Zr  Zr62  1  0.59379223  0.59577759  -0.00628445  1
  Zr  Zr63  1  0.51466768  0.69325167  0.38366128  1
  Zr  Zr64  1  0.79790891  -0.00442879  0.24685604  1
  Zr  Zr65  1  0.50052967  0.09273148  0.63281516  1
  Zr  Zr66  1  0.90736947  0.90704747  0.61710719  1
  Zr  Zr67  1  0.19112117  0.77826148  0.00377481  1
  Zr  Zr68  1  0.19182738  0.00464117  0.76656080  1
  Zr  Zr69  1  -0.00590548  0.18492821  0.49509800  1
  Zr  Zr70  1  0.21117806  0.00324167  0.23501169  1
  Zr  Zr71  1  0.90091731  0.90440912  0.37458276  1
  Zr  Zr72  1  0.79911397  0.79918458  -0.00578120  1
  Zr  Zr73  1  0.69885356  0.90690996  0.62567023  1
  Zr  Zr74  1  0.69946706  0.70108152  0.64548163  1
  Zr  Zr75  1  0.67821491  0.51469637  0.37588243  1
  Zr  Zr76  1  0.70009278  0.09976398  0.86585036  1
  Zr  Zr77  1  0.59042514  0.39719852  0.76518191  1
  Zr  Zr78  1  0.90685900  0.30235251  0.37220025  1
  Zr  Zr79  1  0.29481048  0.30014104  0.86038457  1
  Ta  Ta80  1  0.29935683  0.10474232  0.87724143  1
  Ta  Ta81  1  0.49858892  0.88790852  0.64345719  1
  Ta  Ta82  1  0.10018998  0.09821738  0.62371822  1
  Ta  Ta83  1  0.10191567  0.29650085  0.61654231  1
  Ta  Ta84  1  0.91245374  0.50174102  0.88421809  1
  Ta  Ta85  1  0.00863902  0.19469169  0.75016709  1
  Ta  Ta86  1  0.78673489  0.61248484  0.49050672  1
  Ta  Ta87  1  0.19724186  0.40598192  -0.00415832  1
  Ta  Ta88  1  0.69582568  0.30249664  0.37918481  1
  Ta  Ta89  1  0.69766571  0.70051125  0.86832159  1
  Ta  Ta90  1  0.49829012  0.69085946  0.63057561  1
  Ta  Ta91  1  0.90302318  0.69572503  0.87254465  1
  Ta  Ta92  1  0.40124744  0.79300400  0.50695789  1
  Ta  Ta93  1  0.69227772  0.70802798  0.11818328  1
  Ta  Ta94  1  0.30894750  0.49356399  0.63340796  1
  Ta  Ta95  1  0.01639538  0.61029556  -0.01141331  1
  Ta  Ta96  1  0.31139728  0.89415954  0.10515515  1
  Ta  Ta97  1  0.00224837  0.79370939  -0.00423537  1
  Ta  Ta98  1  0.20364045  0.20445821  0.00605860  1
  Ta  Ta99  1  0.69273631  0.08558822  0.12472956  1
  Ta  Ta100  1  0.29903260  0.69464677  0.61966398  1
  Ta  Ta101  1  0.89586418  0.70153683  0.37218470  1
  Ta  Ta102  1  0.50722393  0.89721886  0.38666220  1
  Ta  Ta103  1  0.20101942  0.00831363  -0.00010281  1
  Ta  Ta104  1  0.10429050  0.90225214  0.63014058  1
  Ta  Ta105  1  0.20451825  0.40223970  0.49419389  1
  Ta  Ta106  1  0.49783859  0.89141409  0.86240211  1
  Ta  Ta107  1  0.30460762  0.50564373  0.87322713  1
  Ta  Ta108  1  0.09977436  0.90256630  0.88978073  1
  Ta  Ta109  1  0.11270590  0.71276900  0.63596462  1
  Ta  Ta110  1  0.80763569  0.80053700  0.75997464  1
  Ta  Ta111  1  0.00842876  0.20134988  0.01207736  1
  Ta  Ta112  1  0.59879385  0.79262865  0.51307549  1
  Ta  Ta113  1  0.80737377  0.60272657  -0.00135708  1
  Ta  Ta114  1  0.10960732  0.90932445  0.36036163  1
  Ta  Ta115  1  0.00608673  0.60116346  0.75114737  1
  Ta  Ta116  1  0.79197729  0.61074306  0.25365960  1
  Ta  Ta117  1  0.80931995  0.20897529  0.75477074  1
  Ta  Ta118  1  0.79066360  0.40344874  0.49031627  1
  Ta  Ta119  1  0.59108462  0.61432808  0.23751270  1
  Ti  Ti120  1  0.60159839  0.20264388  0.74989695  1
  Ti  Ti121  1  0.10071787  0.10107035  0.36419602  1
  Ti  Ti122  1  0.49834653  0.30027571  0.38276761  1
  Ti  Ti123  1  0.49805819  0.09505576  0.85608288  1
  Ti  Ti124  1  -0.00490620  0.01634353  0.24568954  1
  Ti  Ti125  1  0.40015243  0.20231687  0.75460254  1
  Ti  Ti126  1  0.49383981  0.70275088  0.10569670  1
  Ti  Ti127  1  0.58499077  0.59468057  0.75651782  1
  Ti  Ti128  1  0.19866336  0.79555911  0.48360215  1
  Ti  Ti129  1  0.79412965  0.79713424  0.24883536  1
  Ti  Ti130  1  0.90682009  0.10392617  0.63341290  1
  Ti  Ti131  1  0.00580105  0.00620019  0.00377614  1
  Ti  Ti132  1  0.70281562  0.29487958  0.87366029  1
  Ti  Ti133  1  0.09966037  0.10604407  0.12772463  1
  Ti  Ti134  1  0.40123503  -0.01479418  0.51652730  1
  Ti  Ti135  1  0.39292726  0.40451939  0.48132538  1
  Ti  Ti136  1  0.19027254  -0.00606623  0.49961705  1
  Ti  Ti137  1  0.82286943  0.02214926  0.49407377  1
  Ti  Ti138  1  0.38892938  0.78587258  0.74438490  1
  Ti  Ti139  1  0.69832034  0.89603064  0.11642013  1
  Ti  Ti140  1  0.01019886  0.00028123  0.48998571  1
  Ti  Ti141  1  0.80405233  0.40032558  0.75226249  1
  Ti  Ti142  1  0.39397962  0.20680814  0.49840660  1
  Ti  Ti143  1  0.00691250  0.00444776  0.76197935  1
  Ti  Ti144  1  0.10701483  0.50016138  0.61653355  1
  Ti  Ti145  1  0.38635710  0.59958798  0.26905462  1
  Ti  Ti146  1  0.57979684  0.41867943  0.49561987  1
  Ti  Ti147  1  0.39456762  -0.00449998  0.75393695  1
  Ti  Ti148  1  0.10209194  0.50039082  0.87866544  1
  Ti  Ti149  1  0.60748083  0.80389542  0.25380595  1
  Ti  Ti150  1  0.30071894  0.69356016  0.88278182  1
  Ti  Ti151  1  0.19520895  0.40380481  0.74678254  1
  Ti  Ti152  1  0.79900480  0.79693265  0.49898556  1
  Ti  Ti153  1  0.20741752  0.40288869  0.26339526  1
  Ti  Ti154  1  0.30427373  0.68459118  0.11183446  1
  Ti  Ti155  1  0.47561647  0.27906514  0.12382655  1
  Ti  Ti156  1  0.81087371  0.59728960  0.75732371  1
  Ti  Ti157  1  0.40902177  0.00474742  -0.00910062  1
  Ti  Ti158  1  0.39837043  0.19824243  0.26915888  1
  Ti  Ti159  1  0.90159555  0.90507033  0.88997016  1
  Mo  Mo160  1  0.19033047  0.19928079  0.74429846  1
  Mo  Mo161  1  -0.00598690  0.60466831  0.26654249  1
  Mo  Mo162  1  0.30575092  0.70313977  0.39266693  1
  Mo  Mo163  1  0.60007039  0.60077044  0.51376115  1
  Mo  Mo164  1  0.58944257  -0.00104085  0.74916933  1
  Mo  Mo165  1  0.29783380  0.30512593  0.11020124  1
  Mo  Mo166  1  0.29566343  0.49843493  0.36728052  1
  Mo  Mo167  1  0.39877081  0.79572902  0.00165306  1
  Mo  Mo168  1  0.10191415  0.70052429  0.35893044  1
  Mo  Mo169  1  0.40255588  0.19594489  -0.02478269  1
  Mo  Mo170  1  0.39420637  0.40434468  0.76112100  1
  Mo  Mo171  1  0.29733107  0.29579080  0.39602327  1
  Mo  Mo172  1  0.89966431  0.50722222  0.11532144  1
  Mo  Mo173  1  0.59678467  0.79442642  0.74814856  1
  Mo  Mo174  1  0.49791978  0.28839926  0.86169829  1
  Mo  Mo175  1  0.19365779  0.19453447  0.50312918  1
  Mo  Mo176  1  0.39586722  0.59923914  0.74041002  1
  Mo  Mo177  1  0.91242503  0.09939184  0.36614774  1
  Mo  Mo178  1  0.00397613  0.41078008  0.00384110  1
  Mo  Mo179  1  0.48829688  0.49727262  0.86748048  1
  Mo  Mo180  1  0.20114273  0.79901462  0.76324689  1
  Mo  Mo181  1  0.10109960  0.10430906  0.89102538  1
  Mo  Mo182  1  0.70169111  0.70871741  0.36997295  1
  Mo  Mo183  1  0.60047013  0.79479175  -0.01108955  1
  Mo  Mo184  1  -0.00331153  0.40489902  0.23870332  1
  Mo  Mo185  1  0.58807930  -0.01172297  0.52345948  1
  Mo  Mo186  1  0.60158873  -0.01085902  0.24502777  1
  Mo  Mo187  1  0.39078955  0.59610407  0.00009781  1
  Mo  Mo188  1  0.79906407  0.20470821  0.48875409  1
  Mo  Mo189  1  0.90598296  0.09963118  0.11200242  1
  Mo  Mo190  1  0.00657009  0.40542738  0.51829042  1
  Mo  Mo191  1  0.49306164  0.50149022  0.63765849  1
  Mo  Mo192  1  0.80190872  -0.00059139  0.00538322  1
  Mo  Mo193  1  0.20606833  0.60369098  0.26779707  1
  Mo  Mo194  1  0.10023298  0.70007373  0.85948011  1
  Mo  Mo195  1  0.10733882  0.69338919  0.14057875  1
  Mo  Mo196  1  0.50500890  0.09868242  0.12279872  1
  Mo  Mo197  1  0.01055752  0.19441109  0.23750751  1
  Mo  Mo198  1  0.49540942  0.49891560  0.35685611  1
  Mo  Mo199  1  0.19834745  0.59369965  -0.01480419  1
