# generated using pymatgen
data_HfZrTaTiMo
_symmetry_space_group_name_H-M   'P 1'
_cell_length_a   15.82772461
_cell_length_b   15.83960976
_cell_length_c   15.42096812
_cell_angle_alpha   90.00919828
_cell_angle_beta   90.00831048
_cell_angle_gamma   90.01589721
_symmetry_Int_Tables_number   1
_chemical_formula_structural   HfZrTaTiMo
_chemical_formula_sum   'Hf40 Zr40 Ta40 Ti40 Mo40'
_cell_volume   3866.11328229
_cell_formula_units_Z   40
loop_
 _symmetry_equiv_pos_site_id
 _symmetry_equiv_pos_as_xyz
  1  'x, y, z'
loop_
 _atom_site_type_symbol
 _atom_site_label
 _atom_site_symmetry_multiplicity
 _atom_site_fract_x
 _atom_site_fract_y
 _atom_site_fract_z
 _atom_site_occupancy
  Hf  Hf0  1  0.79634822  0.19084009  0.49801018  1
  Hf  Hf1  1  0.50944958  0.50691071  0.63943709  1
  Hf  Hf2  1  0.89268570  0.70655219  0.61666129  1
  Hf  Hf3  1  0.69487745  0.30201026  0.61933046  1
  Hf  Hf4  1  0.08965585  0.69914423  0.36189104  1
  Hf  Hf5  1  0.60519938  0.20525429  0.76700260  1
  Hf  Hf6  1  0.88954202  0.70599625  0.87077545  1
  Hf  Hf7  1  0.50374066  0.88794664  0.63591419  1
  Hf  Hf8  1  0.81317198  0.41027108  0.24727900  1
  Hf  Hf9  1  0.09877758  0.90536110  0.86214558  1
  Hf  Hf10  1  0.09980681  0.50327847  0.86351543  1
  Hf  Hf11  1  0.60243751  0.80185513  0.49085005  1
  Hf  Hf12  1  0.79981122  0.59574540  0.00914401  1
  Hf  Hf13  1  0.50335946  0.51088347  0.36244066  1
  Hf  Hf14  1  0.30339672  0.50514122  0.36975443  1
  Hf  Hf15  1  0.79638619  0.79687507  0.24313044  1
  Hf  Hf16  1  0.30521717  0.90474590  0.62897124  1
  Hf  Hf17  1  0.40067759  0.62942025  0.74200325  1
  Hf  Hf18  1  0.78452893  0.59446227  0.23534241  1
  Hf  Hf19  1  0.40488905  0.80273942  0.48824058  1
  Hf  Hf20  1  0.70329639  0.89105756  0.63859436  1
  Hf  Hf21  1  0.40858261  0.00525540  0.49457062  1
  Hf  Hf22  1  0.09944714  0.70078963  0.13428411  1
  Hf  Hf23  1  0.69153741  0.70087295  0.63972104  1
  Hf  Hf24  1  0.39659475  0.20390463  0.51126975  1
  Hf  Hf25  1  0.29133921  0.30874411  0.14622231  1
  Hf  Hf26  1  0.31474115  0.10543348  0.36574462  1
  Hf  Hf27  1  0.69878144  0.08444752  0.36374228  1
  Hf  Hf28  1  0.29588967  0.29245531  0.85563609  1
  Hf  Hf29  1  0.18598514  0.59856674  0.49954549  1
  Hf  Hf30  1  0.80960619  0.20618316  0.73426742  1
  Hf  Hf31  1  0.49449800  0.50538091  0.88056789  1
  Hf  Hf32  1  0.61050777  0.20793502  -0.01258975  1
  Hf  Hf33  1  0.79528892  -0.00956142  0.50398666  1
  Hf  Hf34  1  0.49793621  0.09442388  0.64417068  1
  Hf  Hf35  1  0.89135343  0.70000106  0.38825933  1
  Hf  Hf36  1  0.09959956  0.48929277  0.14029241  1
  Hf  Hf37  1  0.81276075  -0.00417245  -0.01507565  1
  Hf  Hf38  1  0.39664843  -0.01905414  0.77753602  1
  Hf  Hf39  1  0.18894638  0.39724952  -0.00475983  1
  Zr  Zr40  1  0.20275536  0.79696754  0.49695180  1
  Zr  Zr41  1  0.09428595  0.30075908  0.15433962  1
  Zr  Zr42  1  0.90212834  0.27970916  0.15083788  1
  Zr  Zr43  1  0.29423609  0.50584820  0.87144357  1
  Zr  Zr44  1  0.19402271  0.00184689  0.00250367  1
  Zr  Zr45  1  0.40375333  0.40677978  0.50800040  1
  Zr  Zr46  1  0.09683340  0.69850267  0.87244368  1
  Zr  Zr47  1  0.21487019  -0.01623291  0.26023250  1
  Zr  Zr48  1  0.70613153  0.30113622  0.36943011  1
  Zr  Zr49  1  0.80437204  0.20881480  -0.01164092  1
  Zr  Zr50  1  0.49873331  0.30567203  0.36605584  1
  Zr  Zr51  1  0.29391655  0.68922292  0.90050999  1
  Zr  Zr52  1  0.41693983  -0.00531917  0.24315825  1
  Zr  Zr53  1  -0.02123833  0.58773336  0.24671413  1
  Zr  Zr54  1  0.00004857  0.59484484  0.00392019  1
  Zr  Zr55  1  0.20198339  0.39669249  0.50371207  1
  Zr  Zr56  1  -0.00855082  0.40356992  0.73011263  1
  Zr  Zr57  1  0.20309622  -0.00201019  0.49341904  1
  Zr  Zr58  1  0.20442855  0.19945155  0.50209142  1
  Zr  Zr59  1  0.60281288  -0.00796462  0.77419230  1
  Zr  Zr60  1  0.50638854  0.51081021  0.11942780  1
  Zr  Zr61  1  0.00220693  0.19599050  -0.00166715  1
  Zr  Zr62  1  0.08849797  0.10210737  0.15002482  1
  Zr  Zr63  1  0.72821395  0.09980276  0.13632545  1
  Zr  Zr64  1  0.91747253  0.10414872  0.85304479  1
  Zr  Zr65  1  0.61068004  -0.00178352  -0.02146716  1
  Zr  Zr66  1  0.29636529  0.51183491  0.63272201  1
  Zr  Zr67  1  0.51367854  0.09705127  0.11105113  1
  Zr  Zr68  1  0.50311512  0.30027633  0.63692158  1
  Zr  Zr69  1  0.08955286  0.28744559  0.84953799  1
  Zr  Zr70  1  0.58798449  0.60506400  0.50313028  1
  Zr  Zr71  1  0.39713767  0.39962344  0.00248242  1
  Zr  Zr72  1  0.39494494  0.20206227  0.00032462  1
  Zr  Zr73  1  0.60169556  0.19720797  0.24860093  1
  Zr  Zr74  1  0.29899014  0.10366117  0.13477986  1
  Zr  Zr75  1  0.90293409  0.89894777  0.38020009  1
  Zr  Zr76  1  0.21778642  0.79360617  0.74957138  1
  Zr  Zr77  1  0.08958688  0.89644218  0.14750633  1
  Zr  Zr78  1  0.19282097  0.19964920  0.00047456  1
  Zr  Zr79  1  0.58770273  0.80176921  0.24240345  1
  Ta  Ta80  1  0.61529152  0.39733897  -0.00338291  1
  Ta  Ta81  1  0.60218624  0.40155150  0.49457481  1
  Ta  Ta82  1  0.90267842  0.30373540  0.60031663  1
  Ta  Ta83  1  0.90644759  0.30046825  0.38381075  1
  Ta  Ta84  1  0.50916631  0.30714168  0.12576025  1
  Ta  Ta85  1  -0.00061007  0.00108054  0.00003501  1
  Ta  Ta86  1  0.29994249  0.70247545  0.36079193  1
  Ta  Ta87  1  0.69673954  0.09377210  0.63387331  1
  Ta  Ta88  1  0.60699312  0.60239812  -0.01040320  1
  Ta  Ta89  1  0.59341331  0.18837580  0.49571732  1
  Ta  Ta90  1  0.79905318  0.40634031  0.73340016  1
  Ta  Ta91  1  0.69219105  0.69436625  0.36901718  1
  Ta  Ta92  1  0.58816987  0.78882692  0.77585573  1
  Ta  Ta93  1  -0.00260898  -0.00733307  0.73130034  1
  Ta  Ta94  1  0.79644978  0.80074267  0.00720592  1
  Ta  Ta95  1  0.00672428  0.19638719  0.49845053  1
  Ta  Ta96  1  0.39563567  0.61738312  0.50746349  1
  Ta  Ta97  1  0.10325378  0.09361077  0.62760890  1
  Ta  Ta98  1  0.79986959  0.59288753  0.74757337  1
  Ta  Ta99  1  0.28728877  0.09841939  0.85651394  1
  Ta  Ta100  1  0.89223282  0.31290939  0.86427916  1
  Ta  Ta101  1  0.19751735  0.39890501  0.73362552  1
  Ta  Ta102  1  0.61376896  0.41469031  0.23814537  1
  Ta  Ta103  1  0.49208233  0.70051882  0.35600137  1
  Ta  Ta104  1  0.50138922  0.89549393  0.10514633  1
  Ta  Ta105  1  -0.00865943  0.81245985  -0.00111671  1
  Ta  Ta106  1  -0.01075774  0.39318420  -0.00060911  1
  Ta  Ta107  1  0.71458318  0.49304983  0.87959778  1
  Ta  Ta108  1  0.70055124  0.50373184  0.37985999  1
  Ta  Ta109  1  0.01101883  0.41164432  0.49792809  1
  Ta  Ta110  1  0.69784203  0.90543967  0.12471527  1
  Ta  Ta111  1  0.89473865  0.90934929  0.13251242  1
  Ta  Ta112  1  0.30289935  0.30560614  0.35945064  1
  Ta  Ta113  1  0.09271184  0.89415807  0.36482548  1
  Ta  Ta114  1  -0.00680442  0.60079421  0.73838153  1
  Ta  Ta115  1  0.78817850  0.60097664  0.50567064  1
  Ta  Ta116  1  0.19275397  0.80514691  0.00682527  1
  Ta  Ta117  1  0.90156814  0.70893340  0.12224129  1
  Ta  Ta118  1  0.40003531  0.39944701  0.74857097  1
  Ta  Ta119  1  0.39260144  -0.00377889  -0.00848284  1
  Ti  Ti120  1  0.90029906  0.89173990  0.61422892  1
  Ti  Ti121  1  0.19214441  0.19800125  0.27236959  1
  Ti  Ti122  1  0.70016703  0.89593975  0.36378446  1
  Ti  Ti123  1  0.89905278  0.49738461  0.87511840  1
  Ti  Ti124  1  0.09974400  0.30901631  0.37293029  1
  Ti  Ti125  1  0.90199764  0.50454296  0.39509988  1
  Ti  Ti126  1  0.60459184  0.60240462  0.77127824  1
  Ti  Ti127  1  0.09811169  0.29488658  0.62379904  1
  Ti  Ti128  1  0.40373619  0.40919348  0.24004941  1
  Ti  Ti129  1  0.81221782  -0.01095815  0.74726691  1
  Ti  Ti130  1  0.70693032  0.30202515  0.13370760  1
  Ti  Ti131  1  0.89965647  0.50796846  0.60755950  1
  Ti  Ti132  1  0.49192464  0.69931236  0.89706341  1
  Ti  Ti133  1  0.49626714  0.30538641  0.87314041  1
  Ti  Ti134  1  0.60860216  0.79716615  -0.01055299  1
  Ti  Ti135  1  0.39931695  0.60926412  0.23478414  1
  Ti  Ti136  1  0.79664807  0.40599070  0.50109560  1
  Ti  Ti137  1  0.10305349  0.10054095  0.84228062  1
  Ti  Ti138  1  0.29443414  0.70546751  0.12542425  1
  Ti  Ti139  1  0.38555178  0.81135045  0.24251511  1
  Ti  Ti140  1  0.29469476  0.50914348  0.12121653  1
  Ti  Ti141  1  0.41107439  0.20151770  0.24415160  1
  Ti  Ti142  1  0.50966827  0.91081127  0.36820616  1
  Ti  Ti143  1  0.49440640  0.70398732  0.11243080  1
  Ti  Ti144  1  0.09783580  0.69648584  0.63181212  1
  Ti  Ti145  1  0.00849070  0.79937331  0.50444037  1
  Ti  Ti146  1  -0.02640232  0.01474816  0.25808252  1
  Ti  Ti147  1  0.90670200  0.09349683  0.61531679  1
  Ti  Ti148  1  0.48793445  0.10841053  0.87498223  1
  Ti  Ti149  1  0.20181132  0.59818997  0.25043532  1
  Ti  Ti150  1  0.10069257  0.89705376  0.62847495  1
  Ti  Ti151  1  0.71888469  0.10226323  0.85862821  1
  Ti  Ti152  1  0.39091379  0.80665167  -0.00179361  1
  Ti  Ti153  1  0.60856745  0.40422297  0.76729483  1
  Ti  Ti154  1  0.68566160  0.69854388  0.12188902  1
  Ti  Ti155  1  0.69597786  0.50066884  0.62539120  1
  Ti  Ti156  1  -0.00954338  0.80278909  0.74705787  1
  Ti  Ti157  1  0.59962543  0.00214439  0.50364000  1
  Ti  Ti158  1  0.72063653  0.87920355  0.86496930  1
  Ti  Ti159  1  0.08700260  0.08629220  0.38147489  1
  Mo  Mo160  1  0.20345442  0.40740048  0.26737270  1
  Mo  Mo161  1  0.30070947  0.29963300  0.64028831  1
  Mo  Mo162  1  0.59910265  0.60477972  0.24471841  1
  Mo  Mo163  1  0.90714963  0.89770261  0.86959884  1
  Mo  Mo164  1  -0.00332347  0.19872470  0.71664540  1
  Mo  Mo165  1  0.69987059  0.49527237  0.10641559  1
  Mo  Mo166  1  0.70083179  0.69399413  0.87157415  1
  Mo  Mo167  1  0.79974965  -0.00679622  0.25584366  1
  Mo  Mo168  1  0.60351748  -0.01000457  0.23803385  1
  Mo  Mo169  1  0.09460296  0.50606492  0.63421548  1
  Mo  Mo170  1  0.19794943  -0.00272699  0.74461078  1
  Mo  Mo171  1  0.19799703  0.59975571  0.02401246  1
  Mo  Mo172  1  -0.00779032  0.80040768  0.24853578  1
  Mo  Mo173  1  0.00168753  0.19386672  0.28703390  1
  Mo  Mo174  1  0.78863173  0.79585861  0.49042198  1
  Mo  Mo175  1  0.50066509  0.88791965  0.89757306  1
  Mo  Mo176  1  0.50622624  0.09951719  0.37794383  1
  Mo  Mo177  1  0.50169508  0.70895256  0.63235101  1
  Mo  Mo178  1  0.29270204  0.89650133  0.89147394  1
  Mo  Mo179  1  0.30267350  0.09853531  0.64641346  1
  Mo  Mo180  1  0.39989352  0.19647718  0.75417959  1
  Mo  Mo181  1  0.90280780  0.09640762  0.39927831  1
  Mo  Mo182  1  0.19205666  0.60309235  0.73416797  1
  Mo  Mo183  1  0.00518513  -0.00876684  0.51658897  1
  Mo  Mo184  1  0.20074890  0.19822333  0.72677310  1
  Mo  Mo185  1  0.30241085  0.89259020  0.11009463  1
  Mo  Mo186  1  0.80734519  0.39791049  0.01224073  1
  Mo  Mo187  1  0.30619780  0.89518161  0.37702316  1
  Mo  Mo188  1  -0.00212545  0.60075110  0.51017819  1
  Mo  Mo189  1  0.81914592  0.18645250  0.27449898  1
  Mo  Mo190  1  0.90598627  0.09269210  0.12449312  1
  Mo  Mo191  1  0.30130695  0.70878170  0.61427814  1
  Mo  Mo192  1  0.40075032  0.60643768  0.01922144  1
  Mo  Mo193  1  0.70938712  0.31137428  0.86274256  1
  Mo  Mo194  1  0.80340765  0.79826780  0.75063612  1
  Mo  Mo195  1  0.90263342  0.49019315  0.11746098  1
  Mo  Mo196  1  0.20413066  0.79460086  0.25532420  1
  Mo  Mo197  1  0.40568838  0.80033252  0.77465210  1
  Mo  Mo198  1  -0.00138917  0.40188005  0.27974033  1
  Mo  Mo199  1  0.09810574  0.50012985  0.36560637  1
