# generated using pymatgen
data_HfZrTaTiMo
_symmetry_space_group_name_H-M   'P 1'
_cell_length_a   15.84750148
_cell_length_b   15.83996190
_cell_length_c   15.41874112
_cell_angle_alpha   89.95054004
_cell_angle_beta   90.02311876
_cell_angle_gamma   89.94913000
_symmetry_Int_Tables_number   1
_chemical_formula_structural   HfZrTaTiMo
_chemical_formula_sum   'Hf40 Zr40 Ta40 Ti40 Mo40'
_cell_volume   3870.46800713
_cell_formula_units_Z   40
loop_
 _symmetry_equiv_pos_site_id
 _symmetry_equiv_pos_as_xyz
  1  'x, y, z'
loop_
 _atom_site_type_symbol
 _atom_site_label
 _atom_site_symmetry_multiplicity
 _atom_site_fract_x
 _atom_site_fract_y
 _atom_site_fract_z
 _atom_site_occupancy
  Hf  Hf0  1  0.30737748  0.90269488  0.40569616  1
  Hf  Hf1  1  0.20934702  0.00753786  0.26340346  1
  Hf  Hf2  1  0.88199943  0.70199025  0.39125372  1
  Hf  Hf3  1  0.59759690  0.00240099  -0.02125680  1
  Hf  Hf4  1  0.79486235  0.20297427  0.73374269  1
  Hf  Hf5  1  0.09844413  0.49861136  0.62182798  1
  Hf  Hf6  1  0.10068878  0.90431062  0.62871750  1
  Hf  Hf7  1  0.50169284  0.49404254  0.36605574  1
  Hf  Hf8  1  0.39608155  0.78634441  -0.00416093  1
  Hf  Hf9  1  0.68085343  0.67953784  0.62390919  1
  Hf  Hf10  1  0.41165738  0.79714829  0.74621904  1
  Hf  Hf11  1  0.09701513  0.70072143  0.62095780  1
  Hf  Hf12  1  0.69998417  0.89501284  0.86018994  1
  Hf  Hf13  1  0.49422597  0.48977118  0.12837609  1
  Hf  Hf14  1  0.90294976  0.10304259  0.38214604  1
  Hf  Hf15  1  0.10117664  0.10438426  0.86454687  1
  Hf  Hf16  1  0.09722797  0.30082792  0.39493559  1
  Hf  Hf17  1  -0.01409216  0.81312627  0.50444300  1
  Hf  Hf18  1  0.60378193  0.18506532  0.76189949  1
  Hf  Hf19  1  0.39634658  0.18724923  0.25790495  1
  Hf  Hf20  1  0.18889189  0.39275271  0.25112644  1
  Hf  Hf21  1  0.89118917  0.29407000  0.88429419  1
  Hf  Hf22  1  0.88250425  0.70867080  0.11371768  1
  Hf  Hf23  1  0.00689835  -0.00048213  -0.00662087  1
  Hf  Hf24  1  0.00080126  0.80059224  0.27473458  1
  Hf  Hf25  1  0.60081955  0.60482782  0.24446179  1
  Hf  Hf26  1  0.20350378  0.80680422  0.26276615  1
  Hf  Hf27  1  0.50181184  0.89585230  0.11704266  1
  Hf  Hf28  1  0.29543624  0.90656847  0.11627640  1
  Hf  Hf29  1  0.09463896  0.71001514  0.12703152  1
  Hf  Hf30  1  0.41902118  0.00097166  0.76407078  1
  Hf  Hf31  1  0.87886784  0.70324900  0.88294929  1
  Hf  Hf32  1  0.11444140  0.09344804  0.11672719  1
  Hf  Hf33  1  0.70779324  0.88593963  0.12527323  1
  Hf  Hf34  1  0.39747957  0.61891740  0.24027893  1
  Hf  Hf35  1  0.09298759  0.50552396  0.12525564  1
  Hf  Hf36  1  0.71138665  0.10239638  0.36242260  1
  Hf  Hf37  1  0.29936363  0.29435724  0.37980184  1
  Hf  Hf38  1  0.89460296  0.29875381  0.38312445  1
  Hf  Hf39  1  0.79944958  0.00627613  -0.00683069  1
  Zr  Zr40  1  0.30173639  0.49923415  0.37745113  1
  Zr  Zr41  1  0.10467767  0.29822397  0.85570255  1
  Zr  Zr42  1  0.90060944  0.90458646  0.85510307  1
  Zr  Zr43  1  0.78609785  0.60570295  0.25320683  1
  Zr  Zr44  1  -0.00858915  0.40309286  0.24710550  1
  Zr  Zr45  1  0.68783429  0.68248945  0.87885456  1
  Zr  Zr46  1  0.61870067  -0.01549070  0.49015232  1
  Zr  Zr47  1  0.40356041  0.19803802  0.75314941  1
  Zr  Zr48  1  0.89664673  0.10837192  0.86810350  1
  Zr  Zr49  1  0.00486787  0.60125268  -0.01781255  1
  Zr  Zr50  1  0.21026642  0.61328188  0.00069900  1
  Zr  Zr51  1  0.86637653  0.49785033  0.88855321  1
  Zr  Zr52  1  0.89991660  0.90259839  0.13523825  1
  Zr  Zr53  1  0.51604101  0.30825193  0.62794761  1
  Zr  Zr54  1  0.11090637  0.10344182  0.39490627  1
  Zr  Zr55  1  0.50599249  0.08940496  0.61408146  1
  Zr  Zr56  1  0.18843741  0.61156385  0.26707798  1
  Zr  Zr57  1  0.30739341  0.70921791  0.39751579  1
  Zr  Zr58  1  0.30065485  0.50206344  0.13084258  1
  Zr  Zr59  1  0.29893534  0.69550432  0.85150101  1
  Zr  Zr60  1  0.70456370  0.10072716  0.13941416  1
  Zr  Zr61  1  0.31308820  0.29798971  0.12949198  1
  Zr  Zr62  1  0.41811026  0.42015314  0.75489164  1
  Zr  Zr63  1  0.00886559  -0.00066686  0.26207157  1
  Zr  Zr64  1  -0.01261036  0.60187685  0.75799823  1
  Zr  Zr65  1  -0.01153308  0.60158633  0.26232985  1
  Zr  Zr66  1  0.49935979  0.10597248  0.11752052  1
  Zr  Zr67  1  0.30290745  0.31367502  0.63539595  1
  Zr  Zr68  1  0.19506083  0.80625037  -0.01156443  1
  Zr  Zr69  1  0.59613010  -0.00895554  0.25625435  1
  Zr  Zr70  1  0.69990515  0.29905234  0.35458108  1
  Zr  Zr71  1  0.01147082  0.20593590  0.23825432  1
  Zr  Zr72  1  0.39727790  -0.00469349  0.25708570  1
  Zr  Zr73  1  0.00332727  0.39631704  -0.00180267  1
  Zr  Zr74  1  0.20254288  0.39946595  -0.00022786  1
  Zr  Zr75  1  0.78160399  0.81022844  0.51075431  1
  Zr  Zr76  1  -0.01221343  0.40402732  0.75600142  1
  Zr  Zr77  1  0.79402699  0.78965497  0.73221170  1
  Zr  Zr78  1  0.89252060  0.50080030  0.60630161  1
  Zr  Zr79  1  0.00153691  0.80552620  -0.01671209  1
  Ta  Ta80  1  0.31070960  0.90434090  0.62746124  1
  Ta  Ta81  1  0.00341206  0.20043560  0.01157497  1
  Ta  Ta82  1  0.89687234  0.09649642  0.61620086  1
  Ta  Ta83  1  0.30313438  0.70167093  0.61894708  1
  Ta  Ta84  1  0.10667683  0.90308113  0.40613740  1
  Ta  Ta85  1  0.20673455  0.20056405  0.52571778  1
  Ta  Ta86  1  0.51222747  0.51008681  0.60363625  1
  Ta  Ta87  1  0.50177447  0.29578861  0.36687984  1
  Ta  Ta88  1  0.69171063  0.29496400  0.13816530  1
  Ta  Ta89  1  0.70400494  0.30344380  0.87752375  1
  Ta  Ta90  1  0.29763722  0.89960515  0.85823108  1
  Ta  Ta91  1  0.88624295  0.49404127  0.39504579  1
  Ta  Ta92  1  0.88825438  0.50425064  0.11143537  1
  Ta  Ta93  1  0.19801594  0.60387595  0.50127981  1
  Ta  Ta94  1  0.29964960  0.30719404  0.86514798  1
  Ta  Ta95  1  0.50141772  0.88791267  0.38153952  1
  Ta  Ta96  1  0.61027111  0.20215271  -0.01087773  1
  Ta  Ta97  1  0.40515502  0.20224907  0.50590247  1
  Ta  Ta98  1  0.40833902  0.39848159  0.49570278  1
  Ta  Ta99  1  0.89160578  0.68724456  0.61092170  1
  Ta  Ta100  1  0.31445480  0.50829783  0.87267238  1
  Ta  Ta101  1  0.20287100  0.20471442  -0.00100793  1
  Ta  Ta102  1  0.79661259  0.40983182  0.24150516  1
  Ta  Ta103  1  0.10291950  0.90233626  0.12892965  1
  Ta  Ta104  1  0.31115284  0.50839011  0.61291693  1
  Ta  Ta105  1  0.60748484  0.20002106  0.49851904  1
  Ta  Ta106  1  0.00146136  0.19993800  0.51714198  1
  Ta  Ta107  1  0.08723402  0.50058189  0.39613041  1
  Ta  Ta108  1  0.09841798  0.30719085  0.62802940  1
  Ta  Ta109  1  0.50192174  0.09795063  0.38914591  1
  Ta  Ta110  1  0.40073610  -0.00469375  -0.02193240  1
  Ta  Ta111  1  0.40526835  0.39923722  -0.01353542  1
  Ta  Ta112  1  0.89495114  0.30553689  0.61164165  1
  Ta  Ta113  1  0.69553957  0.48815565  0.60522531  1
  Ta  Ta114  1  0.69311246  0.49687087  0.11515311  1
  Ta  Ta115  1  0.21376361  0.01056054  0.74107971  1
  Ta  Ta116  1  0.40856681  0.20774420  -0.01454908  1
  Ta  Ta117  1  0.29815385  0.10704279  0.87864551  1
  Ta  Ta118  1  0.10648659  0.90091124  0.84119437  1
  Ta  Ta119  1  0.12225942  0.50365352  0.85821483  1
  Ti  Ti120  1  0.10719051  0.70507660  0.84791202  1
  Ti  Ti121  1  0.70121736  0.08007156  0.62727490  1
  Ti  Ti122  1  0.89244026  0.29677366  0.12301067  1
  Ti  Ti123  1  0.09839836  0.10204670  0.62671128  1
  Ti  Ti124  1  0.21053644  0.59511635  0.73284199  1
  Ti  Ti125  1  0.60338400  0.59869397  0.47541893  1
  Ti  Ti126  1  0.42113451  0.60431850  0.73262962  1
  Ti  Ti127  1  0.41434022  0.79994697  0.52124970  1
  Ti  Ti128  1  0.20260362  0.19814001  0.24125934  1
  Ti  Ti129  1  0.71350488  0.88814952  0.35387185  1
  Ti  Ti130  1  0.20919429  0.00737343  0.52396365  1
  Ti  Ti131  1  0.49850963  0.70413731  0.38360882  1
  Ti  Ti132  1  0.30855377  0.09803294  0.40382237  1
  Ti  Ti133  1  0.78138904  0.58261958  0.74549076  1
  Ti  Ti134  1  0.30590312  0.09891792  0.10262422  1
  Ti  Ti135  1  0.78616863  0.38838706  0.01407368  1
  Ti  Ti136  1  0.78956988  0.39683536  0.74120852  1
  Ti  Ti137  1  0.89009340  0.91178123  0.63674779  1
  Ti  Ti138  1  0.50490466  0.29874280  0.14392142  1
  Ti  Ti139  1  0.60050887  0.79529522  0.50158350  1
  Ti  Ti140  1  0.78810787  0.20252241  0.51454163  1
  Ti  Ti141  1  0.61050555  0.41364644  0.75454437  1
  Ti  Ti142  1  -0.00817760  0.79553609  0.73904892  1
  Ti  Ti143  1  0.20130702  -0.00219697  -0.02037620  1
  Ti  Ti144  1  0.40404687  0.80107191  0.24419236  1
  Ti  Ti145  1  0.51798237  0.89946296  0.62737648  1
  Ti  Ti146  1  0.80938606  -0.00916942  0.49551256  1
  Ti  Ti147  1  0.20539003  0.19882213  0.73693926  1
  Ti  Ti148  1  0.50917075  0.30726442  0.87039041  1
  Ti  Ti149  1  0.59249765  0.38900801  0.00574998  1
  Ti  Ti150  1  -0.00210678  0.01042286  0.73980804  1
  Ti  Ti151  1  0.60754421  0.39125108  0.48879037  1
  Ti  Ti152  1  0.67875678  0.49857385  0.89797134  1
  Ti  Ti153  1  0.89643647  0.10180327  0.13277746  1
  Ti  Ti154  1  0.20383811  0.40226965  0.50467820  1
  Ti  Ti155  1  0.49799364  0.67388187  0.88493852  1
  Ti  Ti156  1  -0.00499469  0.20426147  0.73261129  1
  Ti  Ti157  1  0.60141323  0.78622180  0.24738833  1
  Ti  Ti158  1  0.59694996  0.79310158  -0.00512338  1
  Ti  Ti159  1  0.58928983  0.78648023  0.75055638  1
  Mo  Mo160  1  0.78971993  0.39073122  0.49939028  1
  Mo  Mo161  1  0.20991399  0.41172873  0.74702225  1
  Mo  Mo162  1  -0.00243118  0.00351329  0.51247073  1
  Mo  Mo163  1  0.79856209  0.20463780  0.01674109  1
  Mo  Mo164  1  0.09690302  0.70456299  0.40216549  1
  Mo  Mo165  1  0.80901460  0.20405524  0.23482597  1
  Mo  Mo166  1  0.41172638  -0.00609376  0.50411179  1
  Mo  Mo167  1  0.68487452  0.70710935  0.38116462  1
  Mo  Mo168  1  0.39716242  0.59826502  0.01228114  1
  Mo  Mo169  1  0.20186976  0.80418639  0.51794158  1
  Mo  Mo170  1  0.70630019  0.10672747  0.87427264  1
  Mo  Mo171  1  0.69354423  0.70186994  0.10709518  1
  Mo  Mo172  1  0.30654037  0.10086208  0.62285324  1
  Mo  Mo173  1  -0.00097597  0.39690745  0.50338730  1
  Mo  Mo174  1  0.50030923  0.70417149  0.11904912  1
  Mo  Mo175  1  0.50252069  0.69483781  0.61081289  1
  Mo  Mo176  1  0.40642966  0.60086235  0.50294081  1
  Mo  Mo177  1  0.50160831  0.88548932  0.87837541  1
  Mo  Mo178  1  0.79599232  0.00709833  0.74258697  1
  Mo  Mo179  1  0.50587791  0.50340004  0.89381691  1
  Mo  Mo180  1  0.40097272  0.39361305  0.26687065  1
  Mo  Mo181  1  0.29942960  0.71193217  0.13401513  1
  Mo  Mo182  1  0.58866342  0.60102024  0.02042072  1
  Mo  Mo183  1  0.59367397  0.19650563  0.26203247  1
  Mo  Mo184  1  0.60243491  0.40070282  0.24363618  1
  Mo  Mo185  1  -0.00320554  0.60454493  0.49233713  1
  Mo  Mo186  1  0.69094191  0.90004592  0.64470619  1
  Mo  Mo187  1  0.59106384  0.58050959  0.74879555  1
  Mo  Mo188  1  0.70066940  0.49691153  0.38229475  1
  Mo  Mo189  1  0.10185449  0.29436835  0.12195561  1
  Mo  Mo190  1  0.69586798  0.30123260  0.62978788  1
  Mo  Mo191  1  0.80948665  -0.00347494  0.25823684  1
  Mo  Mo192  1  0.78508026  0.59709841  0.49098453  1
  Mo  Mo193  1  0.78910602  0.80273778  -0.00884787  1
  Mo  Mo194  1  0.50094251  0.10535030  0.88655880  1
  Mo  Mo195  1  0.89546386  0.90728695  0.37152536  1
  Mo  Mo196  1  0.20530358  0.80421001  0.73295342  1
  Mo  Mo197  1  0.78756248  0.59651253  0.01107893  1
  Mo  Mo198  1  0.79579660  0.79415362  0.25586777  1
  Mo  Mo199  1  0.60322112  -0.00693163  0.75990733  1
