# generated using pymatgen
data_HfZrTaTiMo
_symmetry_space_group_name_H-M   'P 1'
_cell_length_a   15.83232973
_cell_length_b   15.84040040
_cell_length_c   15.38949695
_cell_angle_alpha   90.03682877
_cell_angle_beta   90.02758624
_cell_angle_gamma   90.15375010
_symmetry_Int_Tables_number   1
_chemical_formula_structural   HfZrTaTiMo
_chemical_formula_sum   'Hf40 Zr40 Ta40 Ti40 Mo40'
_cell_volume   3859.52360104
_cell_formula_units_Z   40
loop_
 _symmetry_equiv_pos_site_id
 _symmetry_equiv_pos_as_xyz
  1  'x, y, z'
loop_
 _atom_site_type_symbol
 _atom_site_label
 _atom_site_symmetry_multiplicity
 _atom_site_fract_x
 _atom_site_fract_y
 _atom_site_fract_z
 _atom_site_occupancy
  Hf  Hf0  1  0.19221875  0.40542240  -0.00341646  1
  Hf  Hf1  1  0.30976666  0.51169800  0.11443761  1
  Hf  Hf2  1  0.40996374  0.78985064  -0.01056354  1
  Hf  Hf3  1  0.20276583  0.40870430  0.49716215  1
  Hf  Hf4  1  0.60180090  0.79636480  0.74433300  1
  Hf  Hf5  1  0.60101730  0.79027187  -0.01449137  1
  Hf  Hf6  1  0.30811745  0.29055586  0.89089132  1
  Hf  Hf7  1  0.40198100  -0.00779346  0.00527480  1
  Hf  Hf8  1  0.21562429  0.61982603  0.24847732  1
  Hf  Hf9  1  0.90082330  0.30307407  0.11339632  1
  Hf  Hf10  1  0.30104654  0.29775985  0.61482734  1
  Hf  Hf11  1  0.30190445  0.90135434  0.86797482  1
  Hf  Hf12  1  0.80584101  0.20299703  0.25096861  1
  Hf  Hf13  1  0.10275698  0.71126963  0.37611209  1
  Hf  Hf14  1  0.51229201  0.29702578  0.89563086  1
  Hf  Hf15  1  0.91183004  0.89569019  0.89114706  1
  Hf  Hf16  1  0.59396858  0.80605046  0.27723226  1
  Hf  Hf17  1  0.80854935  0.79955162  0.24564271  1
  Hf  Hf18  1  0.09991551  0.51236271  0.36966140  1
  Hf  Hf19  1  0.19040702  0.18736754  0.75305225  1
  Hf  Hf20  1  0.69777012  0.50879497  0.37990890  1
  Hf  Hf21  1  0.11183005  0.89518834  0.60832185  1
  Hf  Hf22  1  0.79878479  -0.00160672  0.00147326  1
  Hf  Hf23  1  0.50263019  0.30093548  0.60063712  1
  Hf  Hf24  1  -0.00440130  0.80672558  0.73952493  1
  Hf  Hf25  1  0.30745200  0.08948665  0.14139738  1
  Hf  Hf26  1  0.31116395  0.51074953  0.87245030  1
  Hf  Hf27  1  -0.00717036  0.59341168  0.50766354  1
  Hf  Hf28  1  0.70582856  0.31227341  0.11094995  1
  Hf  Hf29  1  0.89157514  0.90899852  0.61610277  1
  Hf  Hf30  1  0.31009594  0.30357547  0.12484700  1
  Hf  Hf31  1  0.59806744  0.80198650  0.50561876  1
  Hf  Hf32  1  -0.01129105  0.60865816  -0.00779351  1
  Hf  Hf33  1  0.31266256  0.50987118  0.37234822  1
  Hf  Hf34  1  0.01082589  0.01164234  0.74661183  1
  Hf  Hf35  1  -0.00716727  -0.00983818  0.24651054  1
  Hf  Hf36  1  0.89495720  0.49905222  0.12203615  1
  Hf  Hf37  1  0.10258097  0.90706017  0.89268575  1
  Hf  Hf38  1  0.20331934  0.40980186  0.24069300  1
  Hf  Hf39  1  0.59571719  -0.00495331  0.48998610  1
  Zr  Zr40  1  0.49896329  0.49392138  0.62444780  1
  Zr  Zr41  1  0.52043416  0.50239333  0.87379469  1
  Zr  Zr42  1  0.09321630  0.29282500  0.62263006  1
  Zr  Zr43  1  0.29457410  0.71594489  0.63614884  1
  Zr  Zr44  1  0.70832083  0.89307506  0.86877125  1
  Zr  Zr45  1  0.29392163  0.50981249  0.64548481  1
  Zr  Zr46  1  0.08545762  0.28168898  0.88528299  1
  Zr  Zr47  1  0.78528201  0.59609824  -0.00384329  1
  Zr  Zr48  1  0.48950169  0.68819743  0.39330104  1
  Zr  Zr49  1  0.89859036  0.29239101  0.63663163  1
  Zr  Zr50  1  0.38845177  0.77762487  0.25815453  1
  Zr  Zr51  1  0.60344833  0.21041541  0.24546444  1
  Zr  Zr52  1  0.48613744  0.09479667  0.35839097  1
  Zr  Zr53  1  0.80203625  0.20367767  0.48137248  1
  Zr  Zr54  1  0.20984144  0.00640554  0.49094871  1
  Zr  Zr55  1  0.61211376  0.60473656  0.51925644  1
  Zr  Zr56  1  0.49891220  0.30029879  0.38253776  1
  Zr  Zr57  1  0.61584535  0.21899914  0.73729682  1
  Zr  Zr58  1  0.19572654  0.20227979  0.24318467  1
  Zr  Zr59  1  0.09981705  0.70070954  0.12273269  1
  Zr  Zr60  1  0.69762399  0.91246423  0.63501520  1
  Zr  Zr61  1  0.81035257  0.40820304  0.49461491  1
  Zr  Zr62  1  0.29408091  0.09589508  0.88455003  1
  Zr  Zr63  1  0.69807274  0.08990739  0.36195837  1
  Zr  Zr64  1  0.19489114  0.39255893  0.76557177  1
  Zr  Zr65  1  0.10883560  0.30045245  0.37434348  1
  Zr  Zr66  1  0.68189185  0.69528312  0.13507010  1
  Zr  Zr67  1  0.00170284  0.00238684  0.48782721  1
  Zr  Zr68  1  0.81255016  0.01764969  0.76826941  1
  Zr  Zr69  1  0.40943169  0.38698184  0.75716715  1
  Zr  Zr70  1  0.20640312  0.79788758  0.00023183  1
  Zr  Zr71  1  0.51238962  0.31138436  0.11055557  1
  Zr  Zr72  1  0.49997491  0.10425275  0.86370305  1
  Zr  Zr73  1  0.69455762  0.31331100  0.89727369  1
  Zr  Zr74  1  -0.00322713  0.40129717  0.25433833  1
  Zr  Zr75  1  0.69430473  0.90059756  0.12733599  1
  Zr  Zr76  1  0.09420717  0.49733459  0.64009652  1
  Zr  Zr77  1  0.79957492  0.18714500  -0.00535025  1
  Zr  Zr78  1  0.49720654  0.89392209  0.13719227  1
  Zr  Zr79  1  0.50515938  0.09742128  0.62487461  1
  Ta  Ta80  1  -0.00368645  0.80182885  0.24241983  1
  Ta  Ta81  1  -0.00641586  0.39900396  0.48794720  1
  Ta  Ta82  1  0.19856394  0.00089112  0.73865669  1
  Ta  Ta83  1  -0.00316843  0.20239897  0.47559392  1
  Ta  Ta84  1  0.39107948  0.60039936  0.51684171  1
  Ta  Ta85  1  0.41069877  0.18867720  0.01812006  1
  Ta  Ta86  1  0.29207712  0.89129570  0.36666915  1
  Ta  Ta87  1  0.69767915  0.50245559  0.13430240  1
  Ta  Ta88  1  0.90102895  0.10678004  0.61548458  1
  Ta  Ta89  1  0.50158683  0.49152920  0.39642089  1
  Ta  Ta90  1  0.49017321  0.70207105  0.63426184  1
  Ta  Ta91  1  0.50223964  0.90538725  0.85554003  1
  Ta  Ta92  1  0.79853278  0.40202663  0.26406610  1
  Ta  Ta93  1  0.59729423  0.00157079  -0.00826616  1
  Ta  Ta94  1  0.20165521  0.19506587  0.01615868  1
  Ta  Ta95  1  0.59962064  0.41323142  0.24943713  1
  Ta  Ta96  1  0.70471429  0.68737180  0.85374148  1
  Ta  Ta97  1  0.10231234  0.69681865  0.63282313  1
  Ta  Ta98  1  0.71410656  0.10525913  0.62531164  1
  Ta  Ta99  1  0.50681535  0.52494247  0.11061677  1
  Ta  Ta100  1  0.31338361  0.30098558  0.36720748  1
  Ta  Ta101  1  0.41428383  0.41231747  0.24517070  1
  Ta  Ta102  1  -0.00669434  0.40778995  -0.01454834  1
  Ta  Ta103  1  0.88920497  0.49978660  0.86071495  1
  Ta  Ta104  1  0.48666542  0.89737780  0.63335765  1
  Ta  Ta105  1  0.39216815  0.00257839  0.73972088  1
  Ta  Ta106  1  0.09739325  0.09449814  0.12274218  1
  Ta  Ta107  1  0.70924403  0.70205479  0.37952099  1
  Ta  Ta108  1  0.19375072  0.80711491  0.75606651  1
  Ta  Ta109  1  0.09446600  0.09127913  0.90551534  1
  Ta  Ta110  1  0.19782661  0.60331884  -0.01461823  1
  Ta  Ta111  1  0.09097355  0.70678765  0.87087532  1
  Ta  Ta112  1  0.89973589  0.69896907  0.37734764  1
  Ta  Ta113  1  -0.00530710  0.78942387  0.50855171  1
  Ta  Ta114  1  0.50527036  0.08944969  0.14407320  1
  Ta  Ta115  1  0.78740425  0.38829466  0.75271771  1
  Ta  Ta116  1  0.19199117  -0.01273788  0.24760571  1
  Ta  Ta117  1  0.80698405  0.60696484  0.51756332  1
  Ta  Ta118  1  -0.00423358  0.19514984  0.24979486  1
  Ta  Ta119  1  0.80154308  0.59990771  0.25400871  1
  Ti  Ti120  1  0.60870545  0.59479775  0.73507532  1
  Ti  Ti121  1  0.80995864  0.78602814  0.01250974  1
  Ti  Ti122  1  0.69110292  0.10627995  0.86809375  1
  Ti  Ti123  1  0.38794831  0.80572998  0.49967214  1
  Ti  Ti124  1  0.70466540  0.48689501  0.62970742  1
  Ti  Ti125  1  -0.00817160  0.60680700  0.24674514  1
  Ti  Ti126  1  0.39573825  0.19830164  0.74403921  1
  Ti  Ti127  1  0.09359118  0.51040653  0.86608958  1
  Ti  Ti128  1  0.09419949  0.10889878  0.61136132  1
  Ti  Ti129  1  0.58650603  0.60154131  0.26209578  1
  Ti  Ti130  1  0.31492596  0.69384058  0.11092509  1
  Ti  Ti131  1  0.20292271  0.19623368  0.48751783  1
  Ti  Ti132  1  0.09457900  0.89916985  0.11392229  1
  Ti  Ti133  1  0.89579185  0.28884679  0.87567149  1
  Ti  Ti134  1  0.29435072  0.89060075  0.13771562  1
  Ti  Ti135  1  0.39041840  0.18852068  0.49399415  1
  Ti  Ti136  1  0.69282208  0.31014361  0.38032474  1
  Ti  Ti137  1  0.69253636  0.09240395  0.13340786  1
  Ti  Ti138  1  0.10135671  0.09685678  0.36249120  1
  Ti  Ti139  1  0.71592845  0.90110583  0.38300290  1
  Ti  Ti140  1  0.09698585  0.50722309  0.11937423  1
  Ti  Ti141  1  0.49498755  0.69015139  0.85221843  1
  Ti  Ti142  1  -0.00736937  0.60620549  0.74807438  1
  Ti  Ti143  1  0.89907266  0.49423239  0.64416452  1
  Ti  Ti144  1  0.20037711  0.61058584  0.50067142  1
  Ti  Ti145  1  0.60823374  0.19518073  0.49699415  1
  Ti  Ti146  1  0.89468626  0.08842927  0.37236738  1
  Ti  Ti147  1  0.29745437  0.09950671  0.62179905  1
  Ti  Ti148  1  0.39587538  -0.00780021  0.49808814  1
  Ti  Ti149  1  0.90306667  0.09584755  0.12197020  1
  Ti  Ti150  1  -0.00610420  0.39238124  0.76548757  1
  Ti  Ti151  1  0.09225831  0.30152789  0.11624304  1
  Ti  Ti152  1  0.88939618  0.70412476  0.85893747  1
  Ti  Ti153  1  0.40842909  0.40956237  -0.00104675  1
  Ti  Ti154  1  0.80466871  -0.00882216  0.23996729  1
  Ti  Ti155  1  0.30175425  0.09911073  0.35411669  1
  Ti  Ti156  1  0.89710923  0.89166256  0.38845398  1
  Ti  Ti157  1  0.30050667  0.69741187  0.85882422  1
  Ti  Ti158  1  0.79768569  0.79138083  0.51197769  1
  Ti  Ti159  1  0.09925435  0.89239983  0.37676217  1
  Mo  Mo160  1  -0.00748723  0.18525171  0.75482148  1
  Mo  Mo161  1  0.91963615  0.10623624  0.88890345  1
  Mo  Mo162  1  0.18886423  0.60951276  0.76987492  1
  Mo  Mo163  1  -0.00769413  0.79445470  0.00794639  1
  Mo  Mo164  1  0.79896426  0.00056194  0.49887174  1
  Mo  Mo165  1  -0.00358188  -0.00199558  0.02056976  1
  Mo  Mo166  1  0.60750355  0.39885872  0.73248067  1
  Mo  Mo167  1  0.60057334  0.17270153  0.01604069  1
  Mo  Mo168  1  0.48477375  0.89779099  0.38611358  1
  Mo  Mo169  1  0.29358410  0.70043547  0.39536136  1
  Mo  Mo170  1  0.59889657  0.00408057  0.75164775  1
  Mo  Mo171  1  0.40339260  0.60358753  0.74302952  1
  Mo  Mo172  1  0.70453558  0.50396928  0.85090384  1
  Mo  Mo173  1  0.60949163  0.39686136  0.50411854  1
  Mo  Mo174  1  0.80756441  0.40861979  -0.01747400  1
  Mo  Mo175  1  0.90099983  0.69996957  0.62990269  1
  Mo  Mo176  1  0.39492285  -0.01426048  0.25724747  1
  Mo  Mo177  1  0.39913807  0.80297026  0.76018864  1
  Mo  Mo178  1  0.30208964  0.90588372  0.63089431  1
  Mo  Mo179  1  0.40882527  0.59363707  0.25024674  1
  Mo  Mo180  1  0.70412186  0.29897928  0.61044020  1
  Mo  Mo181  1  0.61487353  0.43268318  0.00978183  1
  Mo  Mo182  1  0.80454627  0.20004862  0.76248686  1
  Mo  Mo183  1  0.59907523  0.61243975  -0.01376493  1
  Mo  Mo184  1  0.60133424  -0.01051280  0.26500130  1
  Mo  Mo185  1  0.90215867  0.30102592  0.36381245  1
  Mo  Mo186  1  -0.00006333  0.20000223  0.02097473  1
  Mo  Mo187  1  0.80222175  0.59533549  0.73378823  1
  Mo  Mo188  1  0.49673096  0.69533650  0.12834889  1
  Mo  Mo189  1  0.89922505  0.50986518  0.36911994  1
  Mo  Mo190  1  0.90176132  0.89416424  0.11337745  1
  Mo  Mo191  1  0.40185838  0.61090139  -0.01601800  1
  Mo  Mo192  1  0.19349430  0.80543724  0.24272085  1
  Mo  Mo193  1  0.39447178  0.40064236  0.49402303  1
  Mo  Mo194  1  0.70513926  0.70194436  0.63715825  1
  Mo  Mo195  1  0.89785229  0.69569326  0.13707360  1
  Mo  Mo196  1  0.19933857  0.79948779  0.49871036  1
  Mo  Mo197  1  0.40037818  0.20665190  0.23716274  1
  Mo  Mo198  1  0.20124274  -0.00251196  0.02472602  1
  Mo  Mo199  1  0.80568136  0.79538685  0.74369049  1
