# generated using pymatgen
data_HfZrTaTiMo
_symmetry_space_group_name_H-M   'P 1'
_cell_length_a   15.84411966
_cell_length_b   15.82139242
_cell_length_c   15.41339134
_cell_angle_alpha   90.00348606
_cell_angle_beta   90.06749438
_cell_angle_gamma   89.99891058
_symmetry_Int_Tables_number   1
_chemical_formula_structural   HfZrTaTiMo
_chemical_formula_sum   'Hf40 Zr40 Ta40 Ti40 Mo40'
_cell_volume   3863.76513353
_cell_formula_units_Z   40
loop_
 _symmetry_equiv_pos_site_id
 _symmetry_equiv_pos_as_xyz
  1  'x, y, z'
loop_
 _atom_site_type_symbol
 _atom_site_label
 _atom_site_symmetry_multiplicity
 _atom_site_fract_x
 _atom_site_fract_y
 _atom_site_fract_z
 _atom_site_occupancy
  Hf  Hf0  1  0.40592357  0.00230819  -0.01635024  1
  Hf  Hf1  1  0.49811972  0.89191369  0.61634518  1
  Hf  Hf2  1  0.70438632  0.09682837  0.37001322  1
  Hf  Hf3  1  0.01618028  0.21469272  0.75744142  1
  Hf  Hf4  1  -0.01751004  0.61984222  0.25349944  1
  Hf  Hf5  1  0.20939323  0.00628790  0.49258294  1
  Hf  Hf6  1  0.30076023  0.49653183  0.85394417  1
  Hf  Hf7  1  0.40630778  0.21029213  -0.02030421  1
  Hf  Hf8  1  0.12217993  0.09439255  0.88807059  1
  Hf  Hf9  1  0.60332738  0.39922968  0.49196937  1
  Hf  Hf10  1  -0.00223611  0.79610978  0.02580710  1
  Hf  Hf11  1  0.41640290  0.19985469  0.75458474  1
  Hf  Hf12  1  0.11621844  0.29977970  0.11947512  1
  Hf  Hf13  1  0.09875404  0.69548702  0.60564608  1
  Hf  Hf14  1  0.40579752  0.39763136  0.24665469  1
  Hf  Hf15  1  0.60277993  0.79315839  0.74652340  1
  Hf  Hf16  1  0.59467202  0.20144650  0.24477063  1
  Hf  Hf17  1  0.49186843  0.28613238  0.38816052  1
  Hf  Hf18  1  0.29659506  0.70504773  0.86651469  1
  Hf  Hf19  1  0.49719931  0.69565695  0.60937912  1
  Hf  Hf20  1  -0.01666574  0.81605238  0.50704935  1
  Hf  Hf21  1  0.89289610  0.50564436  0.62426514  1
  Hf  Hf22  1  0.79739912  0.80228842  0.01607527  1
  Hf  Hf23  1  0.19317154  0.80143849  0.74377428  1
  Hf  Hf24  1  0.18810139  0.40262452  0.48686024  1
  Hf  Hf25  1  0.69400579  0.49631481  0.62257268  1
  Hf  Hf26  1  0.69755359  0.69003664  0.60901613  1
  Hf  Hf27  1  0.81129792  0.19747497  0.49570009  1
  Hf  Hf28  1  0.40642624  0.00143560  0.74504048  1
  Hf  Hf29  1  0.29074952  0.49472314  0.13751230  1
  Hf  Hf30  1  0.29151515  0.50165097  0.63322899  1
  Hf  Hf31  1  0.91230857  0.10362690  0.87933802  1
  Hf  Hf32  1  0.79915215  -0.00563919  0.01514962  1
  Hf  Hf33  1  0.41666677  -0.01332114  0.26781557  1
  Hf  Hf34  1  0.59617401  0.59013608  0.75791646  1
  Hf  Hf35  1  0.39267620  0.59172769  0.00624279  1
  Hf  Hf36  1  0.28869857  0.91022370  0.87085191  1
  Hf  Hf37  1  0.81149059  -0.00690605  0.50076328  1
  Hf  Hf38  1  0.00012809  0.00159704  0.02386737  1
  Hf  Hf39  1  0.89817188  0.89540459  0.87258724  1
  Zr  Zr40  1  0.39319099  0.39799619  0.50765364  1
  Zr  Zr41  1  0.79654987  0.39825434  0.76808208  1
  Zr  Zr42  1  0.28645399  0.29628042  0.63901031  1
  Zr  Zr43  1  0.59856846  0.39957680  0.25986842  1
  Zr  Zr44  1  0.29804288  0.10433567  0.10895553  1
  Zr  Zr45  1  0.80204922  0.20054258  0.23084944  1
  Zr  Zr46  1  0.29964431  0.70412309  0.37777565  1
  Zr  Zr47  1  0.79857711  0.60755693  0.76205721  1
  Zr  Zr48  1  0.90660012  0.30498826  0.62948196  1
  Zr  Zr49  1  0.70960945  0.88813749  0.62242918  1
  Zr  Zr50  1  0.10863186  0.90406310  0.61765224  1
  Zr  Zr51  1  0.80048906  0.00317993  0.74421497  1
  Zr  Zr52  1  0.18578447  0.60319865  0.00044773  1
  Zr  Zr53  1  0.68985930  0.69596003  0.14571978  1
  Zr  Zr54  1  0.58599051  0.59634077  0.00139918  1
  Zr  Zr55  1  -0.00553248  0.59048155  0.48579055  1
  Zr  Zr56  1  0.09694478  0.89314246  0.88285032  1
  Zr  Zr57  1  0.20295801  0.00181944  0.25081301  1
  Zr  Zr58  1  0.78229030  0.38907836  0.01002844  1
  Zr  Zr59  1  0.09231482  0.71343579  0.38250729  1
  Zr  Zr60  1  0.08783296  0.48761463  0.63362897  1
  Zr  Zr61  1  0.20502481  0.20062316  0.24870549  1
  Zr  Zr62  1  -0.00330250  0.01505683  0.49987147  1
  Zr  Zr63  1  0.00661581  -0.00356349  0.74268201  1
  Zr  Zr64  1  0.19247867  0.80730095  0.24750876  1
  Zr  Zr65  1  0.11284111  0.11969287  0.63030928  1
  Zr  Zr66  1  0.89127506  0.51221814  0.12501470  1
  Zr  Zr67  1  0.18292087  0.60589271  0.75348746  1
  Zr  Zr68  1  0.40039743  0.79295208  -0.00119422  1
  Zr  Zr69  1  0.80760888  0.19474754  0.01367771  1
  Zr  Zr70  1  0.88840716  0.49794768  0.35646896  1
  Zr  Zr71  1  0.21020159  0.40356687  -0.00899094  1
  Zr  Zr72  1  0.48880973  0.71081839  0.15094051  1
  Zr  Zr73  1  0.31660321  0.89685082  0.12568456  1
  Zr  Zr74  1  0.89929645  0.50565642  0.89275736  1
  Zr  Zr75  1  0.31612074  0.10897423  0.37907157  1
  Zr  Zr76  1  0.50241996  0.89488286  0.86157616  1
  Zr  Zr77  1  0.59941650  0.80428662  0.00144041  1
  Zr  Zr78  1  0.50217625  0.09765954  0.11625155  1
  Zr  Zr79  1  0.80020252  0.39602975  0.48842920  1
  Ta  Ta80  1  0.78922685  0.60756363  0.00520183  1
  Ta  Ta81  1  0.00545088  0.40167599  0.23666590  1
  Ta  Ta82  1  0.08800761  0.50007243  0.87632453  1
  Ta  Ta83  1  0.49146431  0.69358383  0.86226817  1
  Ta  Ta84  1  -0.00723549  0.78832236  0.74041796  1
  Ta  Ta85  1  -0.00049544  0.39270701  0.47915194  1
  Ta  Ta86  1  0.39433747  0.59517575  0.49904438  1
  Ta  Ta87  1  0.49747464  0.69941370  0.38164320  1
  Ta  Ta88  1  0.79352679  0.39550212  0.23544347  1
  Ta  Ta89  1  0.50798439  0.31613176  0.10263283  1
  Ta  Ta90  1  0.30038609  0.30246182  0.37131899  1
  Ta  Ta91  1  0.90887626  0.89997659  0.35635801  1
  Ta  Ta92  1  0.90867399  0.29327949  0.35223666  1
  Ta  Ta93  1  0.29817291  0.70657856  0.60965564  1
  Ta  Ta94  1  0.60756546  0.00194998  0.50734183  1
  Ta  Ta95  1  0.29446552  0.69577985  0.14273695  1
  Ta  Ta96  1  0.91116849  0.29977050  0.89692904  1
  Ta  Ta97  1  0.69824062  0.70481347  0.88019299  1
  Ta  Ta98  1  0.30109778  0.09858268  0.63435926  1
  Ta  Ta99  1  0.09410322  0.10848380  0.37151139  1
  Ta  Ta100  1  0.60228074  0.01032682  0.73402535  1
  Ta  Ta101  1  0.60826475  0.19864650  0.50937487  1
  Ta  Ta102  1  0.09632303  0.29796610  0.35752721  1
  Ta  Ta103  1  0.88850387  0.70206114  0.61088908  1
  Ta  Ta104  1  0.68788417  0.08794750  0.12688285  1
  Ta  Ta105  1  0.00929116  -0.00060058  0.23451439  1
  Ta  Ta106  1  0.90340191  0.10865522  0.63393234  1
  Ta  Ta107  1  0.50919034  0.09724300  0.39115006  1
  Ta  Ta108  1  0.50922342  0.29996347  0.62821018  1
  Ta  Ta109  1  0.61440910  0.21030072  -0.00788949  1
  Ta  Ta110  1  0.59521256  0.39080827  0.76288522  1
  Ta  Ta111  1  0.69931528  0.90380494  0.86790641  1
  Ta  Ta112  1  0.81174899  0.78666152  0.25497867  1
  Ta  Ta113  1  0.18746584  0.59347326  0.25852672  1
  Ta  Ta114  1  0.70153550  0.29648354  0.63557614  1
  Ta  Ta115  1  0.00491096  0.40533830  0.01863588  1
  Ta  Ta116  1  0.19855237  0.20803008  0.48962563  1
  Ta  Ta117  1  0.69208691  0.89977163  0.15053247  1
  Ta  Ta118  1  0.19609242  0.79761408  0.01226411  1
  Ta  Ta119  1  0.80692820  -0.00127172  0.24302638  1
  Ti  Ti120  1  0.39897222  0.59628599  0.25621079  1
  Ti  Ti121  1  0.69287797  0.69157633  0.36524556  1
  Ti  Ti122  1  0.09526839  0.69253894  0.13387113  1
  Ti  Ti123  1  0.70761033  0.10801985  0.62622490  1
  Ti  Ti124  1  0.40588891  -0.00128232  0.50288610  1
  Ti  Ti125  1  0.52081294  0.09724091  0.87980140  1
  Ti  Ti126  1  -0.00769998  0.61006648  0.75499796  1
  Ti  Ti127  1  0.51457271  0.91011447  0.12514592  1
  Ti  Ti128  1  0.70359885  0.09535662  0.87801778  1
  Ti  Ti129  1  0.70655033  0.29546142  0.37005985  1
  Ti  Ti130  1  0.80533943  0.20345193  0.76103316  1
  Ti  Ti131  1  0.60792896  0.19797847  0.75395678  1
  Ti  Ti132  1  0.49952269  0.49649497  0.62344863  1
  Ti  Ti133  1  0.49531040  0.50516306  0.38587451  1
  Ti  Ti134  1  0.79006594  0.59900348  0.47732422  1
  Ti  Ti135  1  0.90984224  0.10167210  0.35787527  1
  Ti  Ti136  1  0.17786521  0.38260604  0.75949112  1
  Ti  Ti137  1  0.69121941  0.49819531  0.88712329  1
  Ti  Ti138  1  0.79699825  0.79889532  0.48028653  1
  Ti  Ti139  1  0.40147900  0.19429778  0.52089010  1
  Ti  Ti140  1  0.48547862  0.48427144  0.87269200  1
  Ti  Ti141  1  0.58342046  0.81657525  0.27198267  1
  Ti  Ti142  1  0.29723401  0.49567499  0.36687315  1
  Ti  Ti143  1  -0.00501220  0.39997571  0.76562485  1
  Ti  Ti144  1  0.70191325  0.90329334  0.36499497  1
  Ti  Ti145  1  0.30424740  0.89494049  0.61988015  1
  Ti  Ti146  1  0.60288349  0.79982990  0.48482807  1
  Ti  Ti147  1  0.39961549  0.60424291  0.73739147  1
  Ti  Ti148  1  0.00545582  0.21035549  0.49755423  1
  Ti  Ti149  1  0.40613843  0.20139856  0.24072068  1
  Ti  Ti150  1  0.67930615  0.49308185  0.12225592  1
  Ti  Ti151  1  0.31135960  0.30886144  0.86141993  1
  Ti  Ti152  1  0.30978515  0.30068692  0.11674118  1
  Ti  Ti153  1  0.09927299  0.90709286  0.37898265  1
  Ti  Ti154  1  0.80523957  0.79279849  0.75201614  1
  Ti  Ti155  1  0.90555330  0.70106469  0.89124891  1
  Ti  Ti156  1  0.10141921  0.29468717  0.89961151  1
  Ti  Ti157  1  0.59090473  0.58773575  0.25820965  1
  Ti  Ti158  1  0.19797511  0.59257842  0.48514553  1
  Ti  Ti159  1  0.00311906  0.19310499  0.22196097  1
  Mo  Mo160  1  0.50481769  0.90013293  0.40041567  1
  Mo  Mo161  1  0.61107230  0.00222900  -0.00768834  1
  Mo  Mo162  1  0.20062790  0.80835436  0.49826369  1
  Mo  Mo163  1  0.09820831  0.30499177  0.61706556  1
  Mo  Mo164  1  0.30411102  0.10278934  0.86406843  1
  Mo  Mo165  1  0.89172212  0.69843863  0.11929633  1
  Mo  Mo166  1  0.00904432  0.20263798  0.01094711  1
  Mo  Mo167  1  0.89846208  0.89655902  0.63678962  1
  Mo  Mo168  1  0.89823425  0.89629474  0.14567820  1
  Mo  Mo169  1  0.10705020  0.10341241  0.10878866  1
  Mo  Mo170  1  0.30336584  0.89891265  0.39072177  1
  Mo  Mo171  1  0.40212142  0.40526614  0.00502449  1
  Mo  Mo172  1  0.20377124  -0.00513076  0.01465090  1
  Mo  Mo173  1  0.10826764  0.89965952  0.12153270  1
  Mo  Mo174  1  0.09614493  0.49661023  0.35764781  1
  Mo  Mo175  1  0.41100600  0.40248690  0.73474097  1
  Mo  Mo176  1  -0.00187011  0.80628209  0.24329738  1
  Mo  Mo177  1  0.60389585  -0.00155306  0.26826632  1
  Mo  Mo178  1  0.40090658  0.80148140  0.26945419  1
  Mo  Mo179  1  0.21079088  0.00275506  0.73704038  1
  Mo  Mo180  1  0.59534008  0.59602944  0.48511530  1
  Mo  Mo181  1  0.49592286  0.50135459  0.12869621  1
  Mo  Mo182  1  0.90229857  0.09844796  0.13174711  1
  Mo  Mo183  1  -0.00132972  0.60326286  0.00492499  1
  Mo  Mo184  1  0.70492822  0.28822782  0.86228701  1
  Mo  Mo185  1  0.88744373  0.70644899  0.38771863  1
  Mo  Mo186  1  0.20970425  0.20468243  0.77218987  1
  Mo  Mo187  1  0.78149846  0.59800340  0.25177238  1
  Mo  Mo188  1  0.59446196  0.39932786  -0.01835013  1
  Mo  Mo189  1  0.90812218  0.30425775  0.12558381  1
  Mo  Mo190  1  0.20157665  0.39985142  0.26017768  1
  Mo  Mo191  1  0.39462123  0.79163136  0.73787975  1
  Mo  Mo192  1  0.50674071  0.10126704  0.61306496  1
  Mo  Mo193  1  0.09740577  0.50485558  0.13819930  1
  Mo  Mo194  1  0.50707080  0.30164916  0.87558426  1
  Mo  Mo195  1  0.69392205  0.50220551  0.36532356  1
  Mo  Mo196  1  0.69040906  0.29864617  0.12694626  1
  Mo  Mo197  1  0.39802854  0.80256518  0.49127183  1
  Mo  Mo198  1  0.08500206  0.69933735  0.88059847  1
  Mo  Mo199  1  0.21523274  0.20404267  -0.01590523  1
