# generated using pymatgen
data_HfZrTaTiMo
_symmetry_space_group_name_H-M   'P 1'
_cell_length_a   15.85626357
_cell_length_b   15.82154073
_cell_length_c   15.40704464
_cell_angle_alpha   90.03533795
_cell_angle_beta   89.97438910
_cell_angle_gamma   90.02583751
_symmetry_Int_Tables_number   1
_chemical_formula_structural   HfZrTaTiMo
_chemical_formula_sum   'Hf40 Zr40 Ta40 Ti40 Mo40'
_cell_volume   3865.17178489
_cell_formula_units_Z   40
loop_
 _symmetry_equiv_pos_site_id
 _symmetry_equiv_pos_as_xyz
  1  'x, y, z'
loop_
 _atom_site_type_symbol
 _atom_site_label
 _atom_site_symmetry_multiplicity
 _atom_site_fract_x
 _atom_site_fract_y
 _atom_site_fract_z
 _atom_site_occupancy
  Hf  Hf0  1  0.28504986  0.49953225  0.87578379  1
  Hf  Hf1  1  0.78963685  0.59409549  0.73173721  1
  Hf  Hf2  1  0.08957952  0.50148624  0.87630624  1
  Hf  Hf3  1  0.49181942  0.29438946  0.87288204  1
  Hf  Hf4  1  0.31119278  0.50376331  0.37295411  1
  Hf  Hf5  1  0.19494234  0.19952672  0.25235382  1
  Hf  Hf6  1  0.79420304  0.79959971  0.25267750  1
  Hf  Hf7  1  0.60241170  0.40406005  0.23791158  1
  Hf  Hf8  1  0.00892643  -0.00725786  0.24741174  1
  Hf  Hf9  1  0.39860177  0.80184656  0.00280116  1
  Hf  Hf10  1  0.39241747  0.39806930  0.75069907  1
  Hf  Hf11  1  0.19035551  0.60743980  0.25726225  1
  Hf  Hf12  1  0.70196383  0.51169848  0.11444678  1
  Hf  Hf13  1  0.40354253  0.19880026  0.49523154  1
  Hf  Hf14  1  -0.00156372  0.00870102  0.75282379  1
  Hf  Hf15  1  0.20975991  0.20536197  0.75818540  1
  Hf  Hf16  1  0.51477031  0.30437537  0.63387721  1
  Hf  Hf17  1  0.49069603  0.68729327  0.62531680  1
  Hf  Hf18  1  0.79353626  0.80007484  0.74057639  1
  Hf  Hf19  1  0.50151707  0.10215678  0.87638729  1
  Hf  Hf20  1  0.10268659  0.30385597  0.89241088  1
  Hf  Hf21  1  0.59588940  0.81012374  -0.02441862  1
  Hf  Hf22  1  0.90013832  0.90202360  0.61794568  1
  Hf  Hf23  1  0.50176443  0.09712807  0.13777667  1
  Hf  Hf24  1  0.09868518  0.30096404  0.62257787  1
  Hf  Hf25  1  0.59981435  0.61121392  0.26015922  1
  Hf  Hf26  1  0.89854403  0.89597142  0.39431429  1
  Hf  Hf27  1  0.41365461  0.40903095  0.51266251  1
  Hf  Hf28  1  0.10382542  0.72480824  0.39610564  1
  Hf  Hf29  1  0.10437311  0.10589568  0.61137874  1
  Hf  Hf30  1  0.21099443  0.61033893  0.50497189  1
  Hf  Hf31  1  0.20569427  0.20090455  0.48005282  1
  Hf  Hf32  1  0.10264944  0.09092272  0.11310464  1
  Hf  Hf33  1  0.60286553  0.79460246  0.74871321  1
  Hf  Hf34  1  0.78763744  0.39327774  0.51215381  1
  Hf  Hf35  1  0.79220884  0.18192478  0.22627934  1
  Hf  Hf36  1  0.70924598  0.30231187  0.87605007  1
  Hf  Hf37  1  0.90689821  0.89503606  0.87579745  1
  Hf  Hf38  1  0.70778877  0.10088824  0.61458555  1
  Hf  Hf39  1  0.38338373  0.60506664  -0.01230834  1
  Zr  Zr40  1  0.48895972  0.50330067  0.12470933  1
  Zr  Zr41  1  -0.00289310  0.79747283  0.24691820  1
  Zr  Zr42  1  0.19772106  0.40587033  0.24803785  1
  Zr  Zr43  1  0.61045201  -0.00933729  0.76285163  1
  Zr  Zr44  1  0.88700794  0.50185375  0.37326802  1
  Zr  Zr45  1  0.50420489  0.30956482  0.36321725  1
  Zr  Zr46  1  0.50400417  0.70529353  0.12156035  1
  Zr  Zr47  1  0.59776633  0.00022181  0.48608605  1
  Zr  Zr48  1  0.91398260  0.29853842  0.13022337  1
  Zr  Zr49  1  0.20214449  0.40246786  0.49357700  1
  Zr  Zr50  1  0.10447489  0.69817836  0.87076417  1
  Zr  Zr51  1  0.69361606  0.49412529  0.38358114  1
  Zr  Zr52  1  0.81019551  0.19633177  0.75974838  1
  Zr  Zr53  1  0.30348242  0.89031919  0.86907680  1
  Zr  Zr54  1  0.08503727  0.49996321  0.11901743  1
  Zr  Zr55  1  0.30863934  0.10293909  0.12743336  1
  Zr  Zr56  1  0.62030887  0.00266487  0.25792619  1
  Zr  Zr57  1  0.58556048  0.60232031  -0.02830679  1
  Zr  Zr58  1  0.20158848  0.01212799  0.75638721  1
  Zr  Zr59  1  0.60443458  0.79792031  0.26961251  1
  Zr  Zr60  1  0.10154603  0.89874166  0.61778507  1
  Zr  Zr61  1  0.28801025  0.89317956  0.36278586  1
  Zr  Zr62  1  0.10109440  0.89867714  0.88075698  1
  Zr  Zr63  1  0.89296524  0.49965669  0.14480117  1
  Zr  Zr64  1  0.29498093  0.91065475  0.13287226  1
  Zr  Zr65  1  0.89615641  0.69974622  0.39910848  1
  Zr  Zr66  1  0.59300976  0.40014078  -0.00300071  1
  Zr  Zr67  1  0.20315980  0.40374219  0.01450222  1
  Zr  Zr68  1  0.88573412  0.29687817  0.35760262  1
  Zr  Zr69  1  -0.02164767  0.60290782  -0.00579821  1
  Zr  Zr70  1  0.69471622  0.89491597  0.11538230  1
  Zr  Zr71  1  0.81108561  0.78972982  -0.00379802  1
  Zr  Zr72  1  0.89929974  0.10048854  0.59985464  1
  Zr  Zr73  1  0.00492497  0.40491773  0.48304788  1
  Zr  Zr74  1  0.00715996  0.19926721  0.76530124  1
  Zr  Zr75  1  0.38857982  0.79052196  0.50015229  1
  Zr  Zr76  1  0.60403109  0.19778611  0.01235855  1
  Zr  Zr77  1  0.90141940  0.29627114  0.61989919  1
  Zr  Zr78  1  0.50239132  0.10297620  0.62814144  1
  Zr  Zr79  1  0.49549090  0.90171846  0.62519542  1
  Ta  Ta80  1  0.70190997  0.69626893  0.40320480  1
  Ta  Ta81  1  0.70930746  0.69488253  0.87502266  1
  Ta  Ta82  1  0.70305292  0.69482591  0.10816253  1
  Ta  Ta83  1  0.80714702  0.19720228  0.01196479  1
  Ta  Ta84  1  0.00356209  0.60251020  0.26836614  1
  Ta  Ta85  1  0.50508336  0.10842749  0.36076995  1
  Ta  Ta86  1  0.09693603  0.69575009  0.11844867  1
  Ta  Ta87  1  0.09720266  0.70105060  0.62583550  1
  Ta  Ta88  1  0.49246936  0.90089369  0.36922429  1
  Ta  Ta89  1  0.30696014  0.51008811  0.62645428  1
  Ta  Ta90  1  0.80055083  -0.00022045  0.76371333  1
  Ta  Ta91  1  0.29505093  0.70158944  0.13824498  1
  Ta  Ta92  1  0.39800783  0.00258530  0.75857135  1
  Ta  Ta93  1  0.90325607  0.69616203  0.85106501  1
  Ta  Ta94  1  0.91024925  0.09815212  0.90044328  1
  Ta  Ta95  1  0.00657803  0.20560640  0.47070634  1
  Ta  Ta96  1  0.71258562  0.10721549  0.38268384  1
  Ta  Ta97  1  0.49561546  0.90603928  0.13953570  1
  Ta  Ta98  1  0.89997767  0.09874643  0.37105843  1
  Ta  Ta99  1  0.30546444  0.10753412  0.89413711  1
  Ta  Ta100  1  0.90729182  0.90157250  0.11805003  1
  Ta  Ta101  1  0.31173619  0.30393828  0.36028387  1
  Ta  Ta102  1  0.70455825  0.90071972  0.60701480  1
  Ta  Ta103  1  0.20717813  0.00048447  0.48716751  1
  Ta  Ta104  1  0.70923988  0.09865956  0.88932082  1
  Ta  Ta105  1  0.60850505  0.21233517  0.49123107  1
  Ta  Ta106  1  0.19777937  0.40149865  0.74371413  1
  Ta  Ta107  1  0.48537451  0.29159885  0.13782352  1
  Ta  Ta108  1  0.38879395  0.38585405  0.00300206  1
  Ta  Ta109  1  0.80832107  -0.00579708  0.24522854  1
  Ta  Ta110  1  0.41070803  -0.00432144  -0.00802519  1
  Ta  Ta111  1  0.29955386  0.90436669  0.62668450  1
  Ta  Ta112  1  0.20401445  0.79133094  0.00730994  1
  Ta  Ta113  1  0.09985638  0.50283760  0.62933858  1
  Ta  Ta114  1  0.39628353  0.59828196  0.76272802  1
  Ta  Ta115  1  0.80185732  -0.00141647  0.00574898  1
  Ta  Ta116  1  0.59422687  0.59630818  0.75834891  1
  Ta  Ta117  1  0.09420354  0.29203835  0.12451262  1
  Ta  Ta118  1  0.59574208  0.79477553  0.49589293  1
  Ta  Ta119  1  0.80768981  0.40194671  0.00477288  1
  Ti  Ti120  1  0.30210986  0.70333413  0.36500642  1
  Ti  Ti121  1  0.21893769  0.21251800  0.00979037  1
  Ti  Ti122  1  0.30970320  0.09377765  0.35649066  1
  Ti  Ti123  1  0.70781195  0.50114985  0.87920295  1
  Ti  Ti124  1  0.58203639  0.59073462  0.50224746  1
  Ti  Ti125  1  0.89218394  0.49516312  0.86759309  1
  Ti  Ti126  1  0.00384857  0.79755769  0.00891697  1
  Ti  Ti127  1  0.10143535  0.09406684  0.36677718  1
  Ti  Ti128  1  0.48127823  0.71434101  0.85879843  1
  Ti  Ti129  1  -0.00288131  0.59697241  0.74187640  1
  Ti  Ti130  1  0.89562046  0.69161932  0.13239186  1
  Ti  Ti131  1  0.59745415  0.41099059  0.76681193  1
  Ti  Ti132  1  0.10708466  0.10067278  0.90389492  1
  Ti  Ti133  1  0.00782632  0.59636931  0.49859278  1
  Ti  Ti134  1  -0.00338317  0.40005622  0.75130776  1
  Ti  Ti135  1  0.79027726  0.59781890  0.52531609  1
  Ti  Ti136  1  0.90694167  0.30432875  0.89071311  1
  Ti  Ti137  1  0.39698917  0.00181597  0.48921816  1
  Ti  Ti138  1  0.20155232  0.60019104  0.73906925  1
  Ti  Ti139  1  0.29912661  0.29845277  0.61995358  1
  Ti  Ti140  1  0.17863764  0.81309930  0.23507240  1
  Ti  Ti141  1  0.70092427  0.30280671  0.12572088  1
  Ti  Ti142  1  0.00852827  0.00221912  0.48825951  1
  Ti  Ti143  1  0.00969526  0.39922328  0.26809974  1
  Ti  Ti144  1  0.29960524  0.50953227  0.12841019  1
  Ti  Ti145  1  0.40261663  0.60680834  0.25322424  1
  Ti  Ti146  1  0.90633672  0.70118869  0.62252146  1
  Ti  Ti147  1  0.69838938  0.29615707  0.63222286  1
  Ti  Ti148  1  0.39287701  0.19598998  0.74613246  1
  Ti  Ti149  1  0.69851313  0.29693880  0.36127623  1
  Ti  Ti150  1  0.79118957  0.60874274  0.25801130  1
  Ti  Ti151  1  0.79822100  0.40316733  0.74124884  1
  Ti  Ti152  1  0.49653118  0.50169888  0.36959839  1
  Ti  Ti153  1  0.90831788  0.49592706  0.62210448  1
  Ti  Ti154  1  0.61105369  0.19534963  0.75663995  1
  Ti  Ti155  1  0.20359463  0.79448546  0.74107779  1
  Ti  Ti156  1  0.67130597  0.49229755  0.62171283  1
  Ti  Ti157  1  0.59999296  -0.00529059  -0.00655744  1
  Ti  Ti158  1  0.30338039  0.09563235  0.61908946  1
  Ti  Ti159  1  0.40570391  0.79554638  0.25216557  1
  Mo  Mo160  1  0.40536572  -0.00361230  0.26085174  1
  Mo  Mo161  1  0.30338282  0.30346158  0.14244286  1
  Mo  Mo162  1  0.68823757  0.69368080  0.61349759  1
  Mo  Mo163  1  0.10227516  0.29817797  0.36092925  1
  Mo  Mo164  1  0.09871833  0.90501836  0.39104489  1
  Mo  Mo165  1  0.00113670  0.19216046  0.25929146  1
  Mo  Mo166  1  0.39838773  0.40771253  0.23651818  1
  Mo  Mo167  1  0.29899441  0.29747326  0.87144284  1
  Mo  Mo168  1  0.79350635  0.79272086  0.51962645  1
  Mo  Mo169  1  -0.00289202  0.79170689  0.73681089  1
  Mo  Mo170  1  0.39525160  0.79938283  0.73892983  1
  Mo  Mo171  1  0.78982572  0.39756340  0.23349513  1
  Mo  Mo172  1  0.19475606  -0.00174736  0.26430979  1
  Mo  Mo173  1  0.10286335  0.89506695  0.10645308  1
  Mo  Mo174  1  0.60001270  0.39726411  0.50238114  1
  Mo  Mo175  1  -0.00072146  0.79718363  0.51870594  1
  Mo  Mo176  1  0.79796299  0.20443536  0.49202534  1
  Mo  Mo177  1  0.00251042  -0.00546746  0.00823375  1
  Mo  Mo178  1  0.40062652  0.20309685  0.00304270  1
  Mo  Mo179  1  0.70801994  0.90118464  0.88140148  1
  Mo  Mo180  1  0.00611636  0.19949542  -0.00353625  1
  Mo  Mo181  1  0.49763194  0.90249498  0.86319561  1
  Mo  Mo182  1  0.70142336  0.09436531  0.10775868  1
  Mo  Mo183  1  0.79895650  0.59729630  -0.01505487  1
  Mo  Mo184  1  0.40047022  0.59862734  0.49378655  1
  Mo  Mo185  1  0.60577803  0.20146029  0.24901569  1
  Mo  Mo186  1  0.10093049  0.50953859  0.38100540  1
  Mo  Mo187  1  0.49279063  0.69276477  0.38610512  1
  Mo  Mo188  1  0.70442305  0.89762591  0.39216574  1
  Mo  Mo189  1  0.49231034  0.49696454  0.86923632  1
  Mo  Mo190  1  0.39932081  0.20017630  0.26182781  1
  Mo  Mo191  1  0.20424278  0.80373932  0.51786186  1
  Mo  Mo192  1  0.20797827  -0.00237300  -0.01206500  1
  Mo  Mo193  1  0.50053283  0.50089546  0.64356323  1
  Mo  Mo194  1  0.90502680  0.09200335  0.11877918  1
  Mo  Mo195  1  0.80014410  -0.00069354  0.48575946  1
  Mo  Mo196  1  0.29230572  0.70004417  0.86023162  1
  Mo  Mo197  1  -0.00843502  0.39941838  -0.00646985  1
  Mo  Mo198  1  0.29782795  0.69942901  0.64303884  1
  Mo  Mo199  1  0.19985760  0.60813232  0.01401941  1
