# generated using pymatgen
data_HfZrTaTiMo
_symmetry_space_group_name_H-M   'P 1'
_cell_length_a   15.85099131
_cell_length_b   15.84032783
_cell_length_c   15.40630950
_cell_angle_alpha   90.05518465
_cell_angle_beta   90.03561352
_cell_angle_gamma   89.86105531
_symmetry_Int_Tables_number   1
_chemical_formula_structural   HfZrTaTiMo
_chemical_formula_sum   'Hf40 Zr40 Ta40 Ti40 Mo40'
_cell_volume   3868.27775295
_cell_formula_units_Z   40
loop_
 _symmetry_equiv_pos_site_id
 _symmetry_equiv_pos_as_xyz
  1  'x, y, z'
loop_
 _atom_site_type_symbol
 _atom_site_label
 _atom_site_symmetry_multiplicity
 _atom_site_fract_x
 _atom_site_fract_y
 _atom_site_fract_z
 _atom_site_occupancy
  Hf  Hf0  1  0.89943018  0.51817806  0.11632499  1
  Hf  Hf1  1  0.20984928  0.60961317  0.50208123  1
  Hf  Hf2  1  0.59540762  0.79911262  0.50356221  1
  Hf  Hf3  1  0.39840934  0.19332463  0.49529141  1
  Hf  Hf4  1  0.80778690  0.60710559  0.25907453  1
  Hf  Hf5  1  0.70329681  0.49168578  0.35507081  1
  Hf  Hf6  1  0.41451365  0.20083756  0.75867680  1
  Hf  Hf7  1  0.20785569  0.79727525  0.49557796  1
  Hf  Hf8  1  0.79387836  0.21533980  0.49444463  1
  Hf  Hf9  1  0.80482420  0.19193153  -0.00407245  1
  Hf  Hf10  1  0.19489891  0.20046973  0.48446072  1
  Hf  Hf11  1  0.40866801  0.60424031  0.00750214  1
  Hf  Hf12  1  0.78515028  0.58786056  0.50901068  1
  Hf  Hf13  1  0.09993160  0.10435977  0.62180559  1
  Hf  Hf14  1  0.30622867  0.29796171  0.35207921  1
  Hf  Hf15  1  0.90233517  0.10965590  0.61899151  1
  Hf  Hf16  1  0.80007625  -0.00961411  0.24737392  1
  Hf  Hf17  1  0.18856607  0.79374980  0.74443746  1
  Hf  Hf18  1  0.40378385  0.39682137  0.76318859  1
  Hf  Hf19  1  0.69538726  0.29732504  0.11857783  1
  Hf  Hf20  1  0.59947959  0.19208603  0.48528766  1
  Hf  Hf21  1  0.01091244  0.60966431  0.74554208  1
  Hf  Hf22  1  0.62327010  0.39537019  0.50045467  1
  Hf  Hf23  1  0.69812499  0.88992084  0.86265275  1
  Hf  Hf24  1  0.29682646  0.09935191  0.63159537  1
  Hf  Hf25  1  0.50088337  0.89440616  0.64189103  1
  Hf  Hf26  1  0.30555042  0.10002038  0.89050437  1
  Hf  Hf27  1  0.70150486  0.69991420  0.13056651  1
  Hf  Hf28  1  0.49558674  0.08076475  0.36072713  1
  Hf  Hf29  1  0.20221257  0.60183923  0.75034435  1
  Hf  Hf30  1  0.00129376  0.19511320  0.77825508  1
  Hf  Hf31  1  0.88956430  0.51880645  0.87417646  1
  Hf  Hf32  1  0.19366633  0.19857466  0.01588646  1
  Hf  Hf33  1  0.49798075  0.49463517  0.37304580  1
  Hf  Hf34  1  0.39664660  0.79803821  0.00586090  1
  Hf  Hf35  1  0.50798543  0.49634107  0.62521630  1
  Hf  Hf36  1  0.31380389  0.50310225  0.62419998  1
  Hf  Hf37  1  0.29304474  0.49339785  0.89293407  1
  Hf  Hf38  1  0.90583869  0.09749637  0.13811953  1
  Hf  Hf39  1  0.69915400  0.50041263  0.12801829  1
  Zr  Zr40  1  0.19857053  -0.00553643  0.03252470  1
  Zr  Zr41  1  0.40165914  0.79083253  0.50881336  1
  Zr  Zr42  1  0.80303807  -0.00930571  0.01057336  1
  Zr  Zr43  1  0.09805905  0.90492870  0.60846050  1
  Zr  Zr44  1  0.01078890  0.40844814  0.75633683  1
  Zr  Zr45  1  0.50487723  0.89676096  0.87523268  1
  Zr  Zr46  1  0.90895886  0.69194708  0.39778953  1
  Zr  Zr47  1  0.32363913  0.90069731  0.36056633  1
  Zr  Zr48  1  0.19159023  0.18926721  0.23432690  1
  Zr  Zr49  1  0.00938691  -0.00174576  0.76137457  1
  Zr  Zr50  1  0.28367762  0.90170411  0.87041024  1
  Zr  Zr51  1  0.30307941  0.49774587  0.36580799  1
  Zr  Zr52  1  0.20622991  0.00390677  0.46942272  1
  Zr  Zr53  1  0.18975652  0.81993415  0.24987996  1
  Zr  Zr54  1  0.89614912  0.30190807  0.35491425  1
  Zr  Zr55  1  0.89565406  0.30052580  0.63885753  1
  Zr  Zr56  1  0.50905289  0.29186644  0.62499378  1
  Zr  Zr57  1  0.20319235  0.39955756  0.74462908  1
  Zr  Zr58  1  0.60143872  0.60762257  0.49566474  1
  Zr  Zr59  1  0.89876931  0.90402230  0.61817894  1
  Zr  Zr60  1  0.29742463  0.90257582  0.63604377  1
  Zr  Zr61  1  0.09376365  0.50522306  0.37911074  1
  Zr  Zr62  1  0.89887601  0.90015418  0.38663488  1
  Zr  Zr63  1  0.09928460  0.50757585  0.11038925  1
  Zr  Zr64  1  0.89270090  0.49891173  0.62892588  1
  Zr  Zr65  1  0.20306860  0.20155352  0.76456922  1
  Zr  Zr66  1  0.70294608  0.30076858  0.34142505  1
  Zr  Zr67  1  0.80478168  0.79113909  0.00944275  1
  Zr  Zr68  1  0.79176281  0.40988333  -0.00592933  1
  Zr  Zr69  1  0.11306371  0.31966094  0.89846887  1
  Zr  Zr70  1  0.78577713  0.01021107  0.49843529  1
  Zr  Zr71  1  0.89741013  0.30953749  0.87820860  1
  Zr  Zr72  1  0.08805546  0.70828513  0.12147894  1
  Zr  Zr73  1  0.78046756  0.79282025  0.50293080  1
  Zr  Zr74  1  -0.00416380  0.38724843  0.50063911  1
  Zr  Zr75  1  0.89531269  0.90068240  0.86609722  1
  Zr  Zr76  1  0.69150275  0.09507040  0.88018050  1
  Zr  Zr77  1  0.40503619  0.00704047  0.75717690  1
  Zr  Zr78  1  0.20628854  0.39293001  0.50009270  1
  Zr  Zr79  1  0.58458700  0.19534180  0.23676561  1
  Ta  Ta80  1  0.59711845  -0.00156058  0.51156146  1
  Ta  Ta81  1  0.79542793  0.19945057  0.76556382  1
  Ta  Ta82  1  -0.00419312  0.80193730  0.26127934  1
  Ta  Ta83  1  0.00424744  0.01308125  0.47983680  1
  Ta  Ta84  1  0.10019402  0.50484009  0.61048764  1
  Ta  Ta85  1  0.69304515  0.11613916  0.63544788  1
  Ta  Ta86  1  0.59097205  -0.01766653  0.22769280  1
  Ta  Ta87  1  0.41842447  0.80320420  0.22733244  1
  Ta  Ta88  1  0.59816592  0.01383744  0.73996537  1
  Ta  Ta89  1  0.20503359  0.61423666  0.00348343  1
  Ta  Ta90  1  0.40560303  0.59782864  0.23450508  1
  Ta  Ta91  1  0.79899379  0.01006504  0.74652467  1
  Ta  Ta92  1  0.89716599  0.49155398  0.37919624  1
  Ta  Ta93  1  0.30000159  0.30302557  0.12064195  1
  Ta  Ta94  1  0.31096207  0.30186764  0.90318432  1
  Ta  Ta95  1  0.30799995  0.69911794  0.35190559  1
  Ta  Ta96  1  0.69788945  0.09452157  0.35553672  1
  Ta  Ta97  1  0.89098060  0.70783312  0.85221331  1
  Ta  Ta98  1  0.29679250  0.70185487  0.13525742  1
  Ta  Ta99  1  0.59200227  0.60525873  0.24583245  1
  Ta  Ta100  1  0.89997107  0.70298451  0.62459028  1
  Ta  Ta101  1  0.00351007  0.79852489  0.74370477  1
  Ta  Ta102  1  0.40362614  0.39922859  0.22726649  1
  Ta  Ta103  1  0.00074385  0.40543433  0.23891244  1
  Ta  Ta104  1  0.60766700  0.59852907  -0.00405530  1
  Ta  Ta105  1  0.39853391  -0.00354344  0.21819399  1
  Ta  Ta106  1  0.90075893  0.10935403  0.36358390  1
  Ta  Ta107  1  0.49865244  0.70913834  0.36067535  1
  Ta  Ta108  1  0.89698786  0.30126509  0.12916824  1
  Ta  Ta109  1  0.40318786  0.60671533  0.49405924  1
  Ta  Ta110  1  0.02467364  -0.00553591  0.25920524  1
  Ta  Ta111  1  0.00110265  0.19289281  0.00189392  1
  Ta  Ta112  1  0.68598495  0.29876755  0.88130331  1
  Ta  Ta113  1  0.68041798  0.89983380  0.36529050  1
  Ta  Ta114  1  0.79912552  0.79839128  0.25674112  1
  Ta  Ta115  1  0.50466628  0.29361220  0.89987055  1
  Ta  Ta116  1  0.60438537  -0.00998512  0.01679295  1
  Ta  Ta117  1  0.19262725  0.39895254  0.23335078  1
  Ta  Ta118  1  0.19742725  0.60348440  0.24800150  1
  Ta  Ta119  1  0.41028913  -0.00138649  0.50613751  1
  Ti  Ti120  1  0.50994380  0.69726969  0.87291537  1
  Ti  Ti121  1  -0.01485276  0.62403122  -0.00779781  1
  Ti  Ti122  1  0.59748729  0.39500416  0.76330206  1
  Ti  Ti123  1  0.39538132  0.78278912  0.75368886  1
  Ti  Ti124  1  0.00193606  0.60571805  0.25324771  1
  Ti  Ti125  1  0.50764580  0.10227351  0.89655006  1
  Ti  Ti126  1  0.40472377  0.39317643  0.49848723  1
  Ti  Ti127  1  0.40426494  0.59683213  0.76646087  1
  Ti  Ti128  1  0.70194284  0.30374966  0.64440449  1
  Ti  Ti129  1  0.60601505  0.78502050  0.74391207  1
  Ti  Ti130  1  0.69982187  0.90127383  0.63972183  1
  Ti  Ti131  1  0.49590949  0.68665654  0.63826413  1
  Ti  Ti132  1  0.10956178  0.08274539  0.88647496  1
  Ti  Ti133  1  0.70964749  0.69074270  0.86758855  1
  Ti  Ti134  1  0.09881784  0.71037279  0.88537134  1
  Ti  Ti135  1  0.49989817  0.09801108  0.11399089  1
  Ti  Ti136  1  0.49392426  0.29911068  0.36393095  1
  Ti  Ti137  1  0.58208393  0.40248860  0.22896743  1
  Ti  Ti138  1  0.91095898  0.89177446  0.13349803  1
  Ti  Ti139  1  0.09870532  0.51172718  0.89779016  1
  Ti  Ti140  1  0.09557438  0.29307230  0.62425988  1
  Ti  Ti141  1  0.09509866  0.30015524  0.36454802  1
  Ti  Ti142  1  0.29750453  0.50431729  0.12330885  1
  Ti  Ti143  1  0.29814398  0.69926241  0.87758564  1
  Ti  Ti144  1  0.60852338  0.59048016  0.75597731  1
  Ti  Ti145  1  0.40025208  -0.00805995  0.01304511  1
  Ti  Ti146  1  0.40868567  0.40469959  0.01675891  1
  Ti  Ti147  1  -0.00379025  0.80922815  -0.00700357  1
  Ti  Ti148  1  -0.00339760  0.39929104  0.00893093  1
  Ti  Ti149  1  0.30411974  0.29668499  0.62543595  1
  Ti  Ti150  1  0.40182857  0.19722263  0.01826074  1
  Ti  Ti151  1  0.00680564  0.20306665  0.23947410  1
  Ti  Ti152  1  0.09802982  0.70370531  0.38346218  1
  Ti  Ti153  1  0.50880036  0.49438508  0.88707598  1
  Ti  Ti154  1  0.70075141  0.09797322  0.13101398  1
  Ti  Ti155  1  0.78355041  0.41059661  0.76322183  1
  Ti  Ti156  1  -0.00012163  -0.00035802  -0.00042265  1
  Ti  Ti157  1  0.19668481  0.80453948  0.00855755  1
  Ti  Ti158  1  0.30656164  0.09943398  0.34771991  1
  Ti  Ti159  1  0.60079500  0.79519568  0.00676564  1
  Mo  Mo160  1  0.50545288  0.69692715  0.12278669  1
  Mo  Mo161  1  0.09824139  0.69959611  0.61111154  1
  Mo  Mo162  1  0.60055117  0.79910796  0.24866153  1
  Mo  Mo163  1  0.39906323  0.19808093  0.23108470  1
  Mo  Mo164  1  0.59921233  0.20239374  0.76195108  1
  Mo  Mo165  1  0.80913196  0.40619888  0.22838963  1
  Mo  Mo166  1  0.00476912  0.79941880  0.50609375  1
  Mo  Mo167  1  0.00102888  0.19863883  0.48628857  1
  Mo  Mo168  1  0.50305958  0.90188462  0.37424917  1
  Mo  Mo169  1  0.08918475  0.09671622  0.12246355  1
  Mo  Mo170  1  0.69384117  0.49171086  0.64594729  1
  Mo  Mo171  1  0.69426880  0.70250282  0.35890194  1
  Mo  Mo172  1  0.69536932  0.69457752  0.64152323  1
  Mo  Mo173  1  0.79234376  0.39868469  0.50648288  1
  Mo  Mo174  1  0.30818549  0.69175124  0.64114285  1
  Mo  Mo175  1  0.30647334  0.10068862  0.12541483  1
  Mo  Mo176  1  0.20087011  0.00076496  0.24746316  1
  Mo  Mo177  1  0.19730434  0.00064664  0.76147410  1
  Mo  Mo178  1  0.08928370  0.30386018  0.12083033  1
  Mo  Mo179  1  0.69097242  0.50460029  0.86899062  1
  Mo  Mo180  1  0.50266617  0.89421110  0.10321033  1
  Mo  Mo181  1  0.79413704  0.60473221  0.73881621  1
  Mo  Mo182  1  0.09792207  0.89750265  0.38750206  1
  Mo  Mo183  1  0.90126171  0.09994454  0.88034291  1
  Mo  Mo184  1  0.29899660  0.89304628  0.13075456  1
  Mo  Mo185  1  0.79738821  0.61163402  -0.00712647  1
  Mo  Mo186  1  0.59498747  0.40252127  -0.00167881  1
  Mo  Mo187  1  0.09612599  0.89306174  0.89088381  1
  Mo  Mo188  1  0.20635910  0.40752763  0.01920436  1
  Mo  Mo189  1  0.70049731  0.89360051  0.13392358  1
  Mo  Mo190  1  0.00165909  0.60026565  0.51284503  1
  Mo  Mo191  1  0.79934443  0.19307222  0.23845136  1
  Mo  Mo192  1  0.59906158  0.19177082  0.01154857  1
  Mo  Mo193  1  0.90516292  0.70692291  0.13624129  1
  Mo  Mo194  1  0.09376834  0.10995402  0.36990389  1
  Mo  Mo195  1  0.50297649  0.50233036  0.11678796  1
  Mo  Mo196  1  0.50337783  0.09808296  0.61715178  1
  Mo  Mo197  1  0.49626490  0.30019843  0.10947818  1
  Mo  Mo198  1  0.79651788  0.80000388  0.73433205  1
  Mo  Mo199  1  0.08441062  0.89993054  0.11671166  1
