# generated using pymatgen
data_HfZrTaTiMo
_symmetry_space_group_name_H-M   'P 1'
_cell_length_a   15.83252546
_cell_length_b   15.83318806
_cell_length_c   15.40145952
_cell_angle_alpha   90.01563535
_cell_angle_beta   90.00353822
_cell_angle_gamma   89.88177370
_symmetry_Int_Tables_number   1
_chemical_formula_structural   HfZrTaTiMo
_chemical_formula_sum   'Hf40 Zr40 Ta40 Ti40 Mo40'
_cell_volume   3860.81953703
_cell_formula_units_Z   40
loop_
 _symmetry_equiv_pos_site_id
 _symmetry_equiv_pos_as_xyz
  1  'x, y, z'
loop_
 _atom_site_type_symbol
 _atom_site_label
 _atom_site_symmetry_multiplicity
 _atom_site_fract_x
 _atom_site_fract_y
 _atom_site_fract_z
 _atom_site_occupancy
  Hf  Hf0  1  0.49815338  0.50431507  0.11264240  1
  Hf  Hf1  1  0.79896950  0.79294680  0.00770942  1
  Hf  Hf2  1  -0.00556544  0.00842655  0.49816542  1
  Hf  Hf3  1  0.29610776  0.50503033  0.63765716  1
  Hf  Hf4  1  0.49489763  0.11148333  0.39060966  1
  Hf  Hf5  1  0.10217406  0.90206444  0.61998920  1
  Hf  Hf6  1  0.08600069  0.12135620  0.87430860  1
  Hf  Hf7  1  0.20462747  0.00694022  0.75914815  1
  Hf  Hf8  1  0.10187211  0.10552450  0.37668272  1
  Hf  Hf9  1  0.80285003  0.58583421  0.25841236  1
  Hf  Hf10  1  0.89505496  0.69330257  0.61246591  1
  Hf  Hf11  1  -0.00171033  0.80515695  0.01072546  1
  Hf  Hf12  1  0.39359342  0.20111480  0.73712573  1
  Hf  Hf13  1  0.79980419  0.80055708  0.75195469  1
  Hf  Hf14  1  0.20645090  0.78111291  0.49887022  1
  Hf  Hf15  1  0.80562110  0.40542141  0.76176709  1
  Hf  Hf16  1  0.29902980  0.09404660  0.39488055  1
  Hf  Hf17  1  0.41932820  0.19849016  0.22411998  1
  Hf  Hf18  1  0.48279004  0.70830898  0.86309510  1
  Hf  Hf19  1  0.80826830  0.20243692  0.23853253  1
  Hf  Hf20  1  0.30782803  0.50631449  0.87175091  1
  Hf  Hf21  1  0.00625626  0.80638127  0.24436340  1
  Hf  Hf22  1  0.79896858  0.40084246  -0.02154623  1
  Hf  Hf23  1  0.90423874  0.30547468  0.37645742  1
  Hf  Hf24  1  0.49739320  0.10471548  0.88332901  1
  Hf  Hf25  1  0.68998023  0.70298885  0.62101406  1
  Hf  Hf26  1  0.59323463  0.79450990  0.01356329  1
  Hf  Hf27  1  0.29663801  0.09739837  0.60934364  1
  Hf  Hf28  1  0.39491154  0.00459558  0.24233515  1
  Hf  Hf29  1  0.19540977  -0.01003384  0.23444725  1
  Hf  Hf30  1  0.08852054  0.09380194  0.11793059  1
  Hf  Hf31  1  0.29945462  0.49830762  0.38127885  1
  Hf  Hf32  1  0.60654398  0.41626036  0.51376244  1
  Hf  Hf33  1  0.30501658  0.89961421  0.61014632  1
  Hf  Hf34  1  0.09790405  0.67688411  0.36694162  1
  Hf  Hf35  1  -0.01275509  0.59918525  0.76382173  1
  Hf  Hf36  1  0.59995045  0.39687787  0.74521258  1
  Hf  Hf37  1  0.40475528  -0.01041344  0.75283725  1
  Hf  Hf38  1  0.49913083  0.50474057  0.87537125  1
  Hf  Hf39  1  0.20253722  0.38845883  0.75596662  1
  Zr  Zr40  1  0.60134398  0.20295374  0.01373332  1
  Zr  Zr41  1  0.49663858  0.68495741  0.36508523  1
  Zr  Zr42  1  0.69975497  0.90332975  0.13855858  1
  Zr  Zr43  1  0.09679441  0.49866493  0.10995270  1
  Zr  Zr44  1  0.10269605  0.90152553  0.88429755  1
  Zr  Zr45  1  0.19999220  0.19678304  0.00218517  1
  Zr  Zr46  1  0.10870843  0.30673870  0.37243012  1
  Zr  Zr47  1  0.31026378  0.29278128  0.38773546  1
  Zr  Zr48  1  -0.00064947  0.41389282  0.25192025  1
  Zr  Zr49  1  0.70667470  0.31543627  0.36123593  1
  Zr  Zr50  1  0.79862013  0.00769333  -0.00142890  1
  Zr  Zr51  1  0.80854947  0.20230819  0.50905341  1
  Zr  Zr52  1  -0.00151382  0.39954085  0.76253153  1
  Zr  Zr53  1  0.59505781  0.00952429  0.25327175  1
  Zr  Zr54  1  0.30871751  0.89170960  0.38127958  1
  Zr  Zr55  1  0.78482169  0.59221077  0.48939779  1
  Zr  Zr56  1  0.90366317  0.69932491  0.37651576  1
  Zr  Zr57  1  0.31150150  0.88453292  0.88513933  1
  Zr  Zr58  1  0.80801489  0.19890291  0.00346253  1
  Zr  Zr59  1  0.49697178  0.08823390  0.60451282  1
  Zr  Zr60  1  0.68147820  0.70788047  0.36637881  1
  Zr  Zr61  1  0.69976923  0.11078884  0.36847646  1
  Zr  Zr62  1  0.89277062  0.89685483  0.61489145  1
  Zr  Zr63  1  0.10068908  0.69352618  0.63311662  1
  Zr  Zr64  1  0.10077663  0.30379535  0.11951419  1
  Zr  Zr65  1  0.79902355  0.20288697  0.74687480  1
  Zr  Zr66  1  0.09554508  0.68947756  0.12913979  1
  Zr  Zr67  1  0.60659798  0.60250134  0.00247007  1
  Zr  Zr68  1  0.68874222  0.90262951  0.87827321  1
  Zr  Zr69  1  0.21460651  0.19411735  0.23777191  1
  Zr  Zr70  1  0.10500912  0.89907116  0.38504092  1
  Zr  Zr71  1  0.39931751  0.40183227  0.24415133  1
  Zr  Zr72  1  0.30821687  0.29235622  0.88239163  1
  Zr  Zr73  1  0.50791341  0.88037399  0.37255399  1
  Zr  Zr74  1  0.59826459  -0.00224916  0.74555530  1
  Zr  Zr75  1  0.68902895  0.70174991  0.86271367  1
  Zr  Zr76  1  0.61626975  0.21257534  0.52206593  1
  Zr  Zr77  1  -0.00708653  -0.00064179  0.75495165  1
  Zr  Zr78  1  0.50661070  0.30819459  0.38355300  1
  Zr  Zr79  1  0.10604036  0.70221557  0.87476349  1
  Ta  Ta80  1  0.20910837  0.59971726  0.00042009  1
  Ta  Ta81  1  0.69538551  0.10459597  0.86796156  1
  Ta  Ta82  1  -0.00754651  0.79801716  0.75579207  1
  Ta  Ta83  1  0.20488448  0.79325202  0.24042578  1
  Ta  Ta84  1  0.80001108  0.60002214  -0.00982477  1
  Ta  Ta85  1  -0.00082906  0.20100264  0.23936606  1
  Ta  Ta86  1  0.80072277  0.40028339  0.51556384  1
  Ta  Ta87  1  0.70387561  0.31364842  0.13265939  1
  Ta  Ta88  1  -0.00151624  0.39368834  -0.01770099  1
  Ta  Ta89  1  0.89676330  0.89809369  0.87966947  1
  Ta  Ta90  1  0.89666339  0.90401085  0.36946562  1
  Ta  Ta91  1  0.89753857  0.50133347  0.11115495  1
  Ta  Ta92  1  0.90059745  0.91111061  0.13578772  1
  Ta  Ta93  1  0.19814170  0.59119677  0.50051425  1
  Ta  Ta94  1  0.89508048  0.69181747  0.13401768  1
  Ta  Ta95  1  0.79671620  0.00228396  0.48746486  1
  Ta  Ta96  1  0.30812591  0.30516104  0.10882182  1
  Ta  Ta97  1  0.21054769  0.78818214  0.01630899  1
  Ta  Ta98  1  0.91309264  0.50209148  0.39058043  1
  Ta  Ta99  1  0.49608521  0.89694182  0.12860370  1
  Ta  Ta100  1  0.59461711  0.40920883  0.24062869  1
  Ta  Ta101  1  0.30428949  0.69658185  0.64605140  1
  Ta  Ta102  1  0.70665073  0.50894825  0.64017245  1
  Ta  Ta103  1  0.80078156  0.80354426  0.25159625  1
  Ta  Ta104  1  0.49928886  0.88818074  0.59881337  1
  Ta  Ta105  1  0.60671722  0.40124251  -0.00544223  1
  Ta  Ta106  1  0.19813818  0.40154655  0.51401432  1
  Ta  Ta107  1  0.39687921  0.60743858  0.50802032  1
  Ta  Ta108  1  0.69536360  0.90085943  0.61189662  1
  Ta  Ta109  1  0.40524414  0.39636142  0.74206025  1
  Ta  Ta110  1  0.20128132  -0.00529581  0.00599875  1
  Ta  Ta111  1  0.10059383  0.10535514  0.62932775  1
  Ta  Ta112  1  0.90118934  0.09996854  0.63074377  1
  Ta  Ta113  1  0.30192403  0.69357759  0.36001873  1
  Ta  Ta114  1  0.00791809  0.40477353  0.50852654  1
  Ta  Ta115  1  0.30453554  0.89095408  0.12141390  1
  Ta  Ta116  1  0.10256929  0.29682797  0.63416390  1
  Ta  Ta117  1  0.30024147  0.69733883  0.85857368  1
  Ta  Ta118  1  0.40036885  0.00350560  0.01178661  1
  Ta  Ta119  1  0.59687812  0.20115886  0.73949060  1
  Ti  Ti120  1  0.38940176  0.61859817  0.01143471  1
  Ti  Ti121  1  0.90236771  0.10472076  0.36806279  1
  Ti  Ti122  1  0.20243283  0.40237184  -0.00942424  1
  Ti  Ti123  1  0.49301962  0.30257433  0.61754433  1
  Ti  Ti124  1  0.49427013  0.70231464  0.14346318  1
  Ti  Ti125  1  0.40619748  0.39757644  0.00014197  1
  Ti  Ti126  1  0.59603109  0.59979662  0.74660274  1
  Ti  Ti127  1  0.92153222  0.27185608  0.87525236  1
  Ti  Ti128  1  0.70644237  0.49884130  0.12872739  1
  Ti  Ti129  1  0.49806421  0.51306013  0.62811004  1
  Ti  Ti130  1  0.60947319  -0.00946604  0.48594472  1
  Ti  Ti131  1  0.09725027  0.50203356  0.63525204  1
  Ti  Ti132  1  0.58436353  0.80826169  0.73823442  1
  Ti  Ti133  1  0.20144112  0.80437870  0.74742363  1
  Ti  Ti134  1  0.10403260  0.50238200  0.87907649  1
  Ti  Ti135  1  0.39336715  0.58910785  0.24165669  1
  Ti  Ti136  1  0.90101912  0.31129320  0.12242005  1
  Ti  Ti137  1  0.79775918  -0.00122556  0.75516505  1
  Ti  Ti138  1  0.59883483  0.00443100  0.00929127  1
  Ti  Ti139  1  0.30304140  0.09971650  0.88348280  1
  Ti  Ti140  1  0.20112347  0.58335812  0.24173921  1
  Ti  Ti141  1  -0.00937208  0.60401385  -0.01225899  1
  Ti  Ti142  1  0.67712957  0.50599317  0.36671648  1
  Ti  Ti143  1  0.49989633  0.29727737  0.87720178  1
  Ti  Ti144  1  0.78803207  0.80801664  0.48453397  1
  Ti  Ti145  1  0.90248374  0.50458299  0.61697590  1
  Ti  Ti146  1  -0.01368426  0.01016203  -0.00360220  1
  Ti  Ti147  1  0.00311153  0.20649252  0.50826146  1
  Ti  Ti148  1  0.39992789  0.40845280  0.51153135  1
  Ti  Ti149  1  0.20924832  0.40285096  0.24142539  1
  Ti  Ti150  1  0.49648900  0.89726156  0.89219845  1
  Ti  Ti151  1  0.00021763  0.79496851  0.49631463  1
  Ti  Ti152  1  0.69079408  0.29410703  0.86906397  1
  Ti  Ti153  1  0.69783028  0.69153665  0.14343262  1
  Ti  Ti154  1  0.80199601  0.59863984  0.76953856  1
  Ti  Ti155  1  -0.00382648  0.00359873  0.25188062  1
  Ti  Ti156  1  0.90670151  0.30398804  0.62813992  1
  Ti  Ti157  1  0.70561554  0.09132759  0.62647285  1
  Ti  Ti158  1  0.19640537  0.20792795  0.51073289  1
  Ti  Ti159  1  0.70079965  0.10180821  0.13768660  1
  Mo  Mo160  1  0.39882148  0.20898578  0.51407176  1
  Mo  Mo161  1  0.10126679  0.30149300  0.87619821  1
  Mo  Mo162  1  0.60033178  0.79709877  0.23199873  1
  Mo  Mo163  1  0.40403282  0.59729503  0.74145844  1
  Mo  Mo164  1  0.39885824  0.78329104  0.50856678  1
  Mo  Mo165  1  0.19955220  0.19670156  0.74655113  1
  Mo  Mo166  1  0.70465830  0.30886906  0.63760931  1
  Mo  Mo167  1  0.60324993  0.21171669  0.23096839  1
  Mo  Mo168  1  0.90118365  0.50491640  0.89096413  1
  Mo  Mo169  1  0.09944541  0.89965071  0.11224848  1
  Mo  Mo170  1  0.49700341  0.50337928  0.38614260  1
  Mo  Mo171  1  -0.00515943  0.59525192  0.24443727  1
  Mo  Mo172  1  0.70291285  0.90029527  0.37416305  1
  Mo  Mo173  1  0.59640926  0.59178139  0.23344398  1
  Mo  Mo174  1  0.80170538  0.40700758  0.24577331  1
  Mo  Mo175  1  0.49629817  0.69912833  0.63294942  1
  Mo  Mo176  1  0.30068669  0.30322454  0.61747758  1
  Mo  Mo177  1  0.89477068  0.09534700  0.86008538  1
  Mo  Mo178  1  -0.00049220  0.20302386  0.73309067  1
  Mo  Mo179  1  0.00600803  0.59106628  0.51250739  1
  Mo  Mo180  1  0.89812529  0.70665019  0.88212103  1
  Mo  Mo181  1  0.29844337  0.49620596  0.10863368  1
  Mo  Mo182  1  0.19233622  0.00152546  0.50634919  1
  Mo  Mo183  1  0.50816538  0.30912901  0.11434372  1
  Mo  Mo184  1  0.40345910  0.20022481  0.00963951  1
  Mo  Mo185  1  0.30121501  0.68984350  0.14225282  1
  Mo  Mo186  1  0.40016129  0.79363042  0.01661068  1
  Mo  Mo187  1  0.10772638  0.49622020  0.37984244  1
  Mo  Mo188  1  0.40262026  0.80387303  0.73490710  1
  Mo  Mo189  1  0.80575509  0.00174710  0.26486823  1
  Mo  Mo190  1  -0.01025475  0.20046744  0.01528618  1
  Mo  Mo191  1  0.69787257  0.50135945  0.86028782  1
  Mo  Mo192  1  0.58994727  0.59453718  0.51234786  1
  Mo  Mo193  1  0.89965643  0.09510968  0.13889594  1
  Mo  Mo194  1  0.39592648  0.79467806  0.23711822  1
  Mo  Mo195  1  0.19485410  0.59549810  0.76449863  1
  Mo  Mo196  1  0.30049426  0.09651579  0.11245001  1
  Mo  Mo197  1  0.50502485  0.09660501  0.11239970  1
  Mo  Mo198  1  0.60136866  0.79414831  0.50641749  1
  Mo  Mo199  1  0.40493900  -0.00676365  0.48656005  1
