# generated using pymatgen
data_HfZrTaTiMo
_symmetry_space_group_name_H-M   'P 1'
_cell_length_a   15.82121088
_cell_length_b   15.83792552
_cell_length_c   15.40341564
_cell_angle_alpha   89.96255271
_cell_angle_beta   90.05017881
_cell_angle_gamma   90.03314929
_symmetry_Int_Tables_number   1
_chemical_formula_structural   HfZrTaTiMo
_chemical_formula_sum   'Hf40 Zr40 Ta40 Ti40 Mo40'
_cell_volume   3859.71038258
_cell_formula_units_Z   40
loop_
 _symmetry_equiv_pos_site_id
 _symmetry_equiv_pos_as_xyz
  1  'x, y, z'
loop_
 _atom_site_type_symbol
 _atom_site_label
 _atom_site_symmetry_multiplicity
 _atom_site_fract_x
 _atom_site_fract_y
 _atom_site_fract_z
 _atom_site_occupancy
  Hf  Hf0  1  0.91281216  0.69779551  0.12755291  1
  Hf  Hf1  1  0.39433412  0.38938792  0.76080386  1
  Hf  Hf2  1  0.69685250  0.31118227  0.62009347  1
  Hf  Hf3  1  0.69545841  0.50230658  0.88396141  1
  Hf  Hf4  1  0.58541259  0.81430818  0.74265685  1
  Hf  Hf5  1  0.29873459  0.70680451  0.88171674  1
  Hf  Hf6  1  0.90518570  0.29338925  0.12202198  1
  Hf  Hf7  1  0.39272769  0.60576511  0.75093169  1
  Hf  Hf8  1  0.59372672  0.18463135  0.00054355  1
  Hf  Hf9  1  0.78810803  0.59747165  0.24242076  1
  Hf  Hf10  1  0.70297351  0.90899241  0.86946901  1
  Hf  Hf11  1  0.40461636  0.80443297  0.01119428  1
  Hf  Hf12  1  0.91048917  0.69155141  0.36230388  1
  Hf  Hf13  1  0.80616605  0.80184607  0.74658887  1
  Hf  Hf14  1  0.39038960  0.41914013  0.25561014  1
  Hf  Hf15  1  0.38982407  0.60731025  0.50388935  1
  Hf  Hf16  1  -0.01784063  0.38722798  0.75867673  1
  Hf  Hf17  1  0.79177895  0.39745395  0.24913090  1
  Hf  Hf18  1  -0.00683722  0.39916246  0.49960741  1
  Hf  Hf19  1  0.79885336  0.59865477  0.00972069  1
  Hf  Hf20  1  0.50902059  0.92840027  0.13904926  1
  Hf  Hf21  1  0.19671644  0.59335150  0.00114415  1
  Hf  Hf22  1  -0.00899662  0.59285755  0.50564588  1
  Hf  Hf23  1  0.60569862  0.81343642  0.01646919  1
  Hf  Hf24  1  0.31295878  0.09947888  0.13751332  1
  Hf  Hf25  1  0.50148608  0.48909896  0.60847740  1
  Hf  Hf26  1  0.50451339  0.10163056  0.63338894  1
  Hf  Hf27  1  0.21169250  0.20144309  0.00116468  1
  Hf  Hf28  1  0.19556697  0.39617313  0.77151378  1
  Hf  Hf29  1  0.00063747  0.19889952  0.74205498  1
  Hf  Hf30  1  0.22085945  0.59875595  0.22612218  1
  Hf  Hf31  1  0.69841527  0.10585615  0.63724223  1
  Hf  Hf32  1  0.00150190  0.20062253  0.49691540  1
  Hf  Hf33  1  0.69954525  0.50091046  0.61456278  1
  Hf  Hf34  1  0.00005191  0.59189268  -0.00838184  1
  Hf  Hf35  1  0.89030984  0.11265263  0.88999408  1
  Hf  Hf36  1  0.21357911  0.20360149  0.74690490  1
  Hf  Hf37  1  -0.00592887  -0.01186054  -0.01709410  1
  Hf  Hf38  1  0.79900111  0.80428055  0.24212342  1
  Hf  Hf39  1  0.50251487  0.50485232  0.38734833  1
  Zr  Zr40  1  0.20138227  0.79752785  0.73343628  1
  Zr  Zr41  1  0.20117858  0.19259872  0.49843125  1
  Zr  Zr42  1  -0.00199833  0.79696300  0.75018211  1
  Zr  Zr43  1  0.19848453  0.20084938  0.24966259  1
  Zr  Zr44  1  0.39946058  0.78511990  0.24243448  1
  Zr  Zr45  1  0.81454258  0.22161116  0.73683702  1
  Zr  Zr46  1  0.00288533  0.18691334  0.25400634  1
  Zr  Zr47  1  0.69715661  0.69744416  0.61119318  1
  Zr  Zr48  1  0.02429359  0.78824923  0.51150180  1
  Zr  Zr49  1  0.59751951  0.00790575  0.48529753  1
  Zr  Zr50  1  0.59728906  0.79802197  0.24874457  1
  Zr  Zr51  1  0.90790214  0.90865046  0.60564877  1
  Zr  Zr52  1  0.09424621  0.08902841  0.11505479  1
  Zr  Zr53  1  0.48337438  0.71890198  0.61643245  1
  Zr  Zr54  1  0.20136163  0.79444950  0.23116269  1
  Zr  Zr55  1  0.50275241  0.31075193  0.13760915  1
  Zr  Zr56  1  0.59607953  0.39621560  0.75943496  1
  Zr  Zr57  1  0.21653014  -0.01437008  0.50447133  1
  Zr  Zr58  1  0.39450750  0.21622816  0.25711037  1
  Zr  Zr59  1  0.00223324  -0.01185373  0.75985681  1
  Zr  Zr60  1  0.09694881  0.50381941  0.35568450  1
  Zr  Zr61  1  0.78362599  0.00486733  0.01707043  1
  Zr  Zr62  1  0.69756811  0.70665131  0.88409910  1
  Zr  Zr63  1  0.58898593  0.38919423  -0.01147178  1
  Zr  Zr64  1  0.10613687  0.10067128  0.87250627  1
  Zr  Zr65  1  0.08705224  0.49593170  0.64128997  1
  Zr  Zr66  1  0.59441074  0.60666791  0.74667987  1
  Zr  Zr67  1  0.80700867  0.79555304  0.49309988  1
  Zr  Zr68  1  0.29580865  0.49177280  0.62492242  1
  Zr  Zr69  1  0.69764245  0.28914815  0.12943069  1
  Zr  Zr70  1  0.21285150  -0.00333366  -0.01832131  1
  Zr  Zr71  1  0.79708204  0.20493314  0.48972785  1
  Zr  Zr72  1  0.01118435  0.80740637  0.24954515  1
  Zr  Zr73  1  0.41507669  0.02180690  -0.01049410  1
  Zr  Zr74  1  0.18420891  0.61346453  0.51932255  1
  Zr  Zr75  1  0.10148682  0.08823331  0.62591342  1
  Zr  Zr76  1  0.47962912  0.51405983  0.10943236  1
  Zr  Zr77  1  0.69882360  0.91016814  0.62066624  1
  Zr  Zr78  1  0.68915784  0.68733490  0.38160920  1
  Zr  Zr79  1  0.29948310  0.90980212  0.12449398  1
  Ta  Ta80  1  0.90382272  0.30268811  0.36195604  1
  Ta  Ta81  1  0.30666452  0.29937277  0.61106702  1
  Ta  Ta82  1  0.68144438  0.49426272  0.12260947  1
  Ta  Ta83  1  -0.00855641  0.59535940  0.76852591  1
  Ta  Ta84  1  0.80290520  0.59712721  0.75737133  1
  Ta  Ta85  1  0.19292498  0.59816202  0.76036318  1
  Ta  Ta86  1  0.40329025  0.19350670  0.49972155  1
  Ta  Ta87  1  0.71033658  0.29232098  0.88138701  1
  Ta  Ta88  1  0.90347704  0.49280552  0.13515874  1
  Ta  Ta89  1  0.81240157  0.00415575  0.75354271  1
  Ta  Ta90  1  0.41093844  -0.00820456  0.74897563  1
  Ta  Ta91  1  0.19913391  0.39894295  0.00226116  1
  Ta  Ta92  1  0.89798058  0.09560255  0.60991041  1
  Ta  Ta93  1  0.09367879  0.49477278  0.13300860  1
  Ta  Ta94  1  0.59776350  0.20482045  0.48585614  1
  Ta  Ta95  1  0.39874877  -0.00561429  0.27247091  1
  Ta  Ta96  1  0.80280666  0.40224709  0.48049631  1
  Ta  Ta97  1  0.80665656  0.00193469  0.25221337  1
  Ta  Ta98  1  0.79886300  0.40018516  0.00914799  1
  Ta  Ta99  1  0.32525670  0.88863064  0.62912846  1
  Ta  Ta100  1  0.09843237  0.69991478  0.87772156  1
  Ta  Ta101  1  0.28940986  0.70419611  0.38225804  1
  Ta  Ta102  1  0.30225752  0.09963775  0.37530545  1
  Ta  Ta103  1  0.21702667  -0.00404560  0.74230669  1
  Ta  Ta104  1  0.19316135  0.40029525  0.49667514  1
  Ta  Ta105  1  0.70163383  0.90443386  0.36732919  1
  Ta  Ta106  1  0.90710758  0.90845976  0.12674248  1
  Ta  Ta107  1  0.79878961  0.19089514  0.25828408  1
  Ta  Ta108  1  0.29301270  0.50516538  0.38482478  1
  Ta  Ta109  1  0.19395467  -0.00288212  0.26768132  1
  Ta  Ta110  1  0.09216144  0.29508526  0.89071653  1
  Ta  Ta111  1  0.69835777  0.10811933  0.85855693  1
  Ta  Ta112  1  0.20676926  0.39418163  0.23580986  1
  Ta  Ta113  1  0.10396528  0.30306556  0.62393448  1
  Ta  Ta114  1  0.10156689  0.30486638  0.36905959  1
  Ta  Ta115  1  0.50189464  0.10875632  0.36313492  1
  Ta  Ta116  1  0.49297147  0.50885864  0.88593049  1
  Ta  Ta117  1  0.90314444  0.49795283  0.35155912  1
  Ta  Ta118  1  0.90286588  0.09274109  0.38038221  1
  Ta  Ta119  1  0.58767219  0.81088501  0.48853343  1
  Ti  Ti120  1  0.80486543  0.80985035  0.01541961  1
  Ti  Ti121  1  0.48935736  0.28157333  0.86823680  1
  Ti  Ti122  1  0.11321092  0.88812512  0.87653547  1
  Ti  Ti123  1  0.67857061  0.09315056  0.15233228  1
  Ti  Ti124  1  0.68848300  0.69351755  0.12016539  1
  Ti  Ti125  1  0.09748979  0.29977443  0.11789452  1
  Ti  Ti126  1  0.50013995  0.70366851  0.88604298  1
  Ti  Ti127  1  0.60104951  0.00715677  -0.00365922  1
  Ti  Ti128  1  0.00263824  0.79940651  -0.00204026  1
  Ti  Ti129  1  0.89782061  0.10167796  0.12020327  1
  Ti  Ti130  1  0.50312795  0.90506051  0.87875809  1
  Ti  Ti131  1  0.11883560  0.88412781  0.38550074  1
  Ti  Ti132  1  0.58078106  0.59858605  0.24143996  1
  Ti  Ti133  1  0.31155149  0.89756632  0.86730184  1
  Ti  Ti134  1  0.39150243  0.81375136  0.48028853  1
  Ti  Ti135  1  0.50016717  0.29946926  0.61492975  1
  Ti  Ti136  1  0.40546962  -0.00205176  0.49091809  1
  Ti  Ti137  1  0.09818937  0.90279689  0.11802286  1
  Ti  Ti138  1  0.68942725  0.30353025  0.36676073  1
  Ti  Ti139  1  0.68856567  0.49785410  0.37919762  1
  Ti  Ti140  1  0.51120003  0.10333624  0.84702199  1
  Ti  Ti141  1  0.80601610  0.58941153  0.49073695  1
  Ti  Ti142  1  0.00633061  -0.00444457  0.26328671  1
  Ti  Ti143  1  0.32377408  0.11344273  0.85855140  1
  Ti  Ti144  1  0.50030808  0.31158778  0.38007172  1
  Ti  Ti145  1  0.01530677  -0.00259210  0.48547978  1
  Ti  Ti146  1  0.88286394  0.48705763  0.63689971  1
  Ti  Ti147  1  0.89859971  0.68463235  0.63016839  1
  Ti  Ti148  1  0.29900569  0.30821992  0.38999154  1
  Ti  Ti149  1  0.00228202  0.40255133  -0.00216508  1
  Ti  Ti150  1  0.79671594  0.00451672  0.48585991  1
  Ti  Ti151  1  0.10595196  0.69178111  0.36403253  1
  Ti  Ti152  1  0.30255520  0.49770287  0.88632515  1
  Ti  Ti153  1  0.49388520  0.69713169  0.38121364  1
  Ti  Ti154  1  0.89543560  0.29510439  0.90294726  1
  Ti  Ti155  1  0.88942453  0.48915056  0.87922474  1
  Ti  Ti156  1  0.19796510  0.79510144  0.01170456  1
  Ti  Ti157  1  0.89393592  0.70716855  0.88541437  1
  Ti  Ti158  1  0.90492315  0.89910313  0.37773428  1
  Ti  Ti159  1  0.40471847  0.21105195  0.01243589  1
  Mo  Mo160  1  0.30148068  0.30826924  0.11212365  1
  Mo  Mo161  1  0.29780986  0.70130659  0.62674659  1
  Mo  Mo162  1  0.29956998  0.89437697  0.37049697  1
  Mo  Mo163  1  0.60428887  0.00098421  0.75694301  1
  Mo  Mo164  1  0.31221493  0.68916476  0.10282297  1
  Mo  Mo165  1  0.49832667  0.89952366  0.37122791  1
  Mo  Mo166  1  0.59596887  0.60690525  0.00539721  1
  Mo  Mo167  1  0.78950787  0.19787545  0.01510453  1
  Mo  Mo168  1  0.21093332  0.79489820  0.51621426  1
  Mo  Mo169  1  0.60102178  0.20951845  0.75454917  1
  Mo  Mo170  1  0.39296140  0.39311671  -0.01785466  1
  Mo  Mo171  1  0.10159083  0.69839440  0.10460124  1
  Mo  Mo172  1  0.10226599  0.09267475  0.38002485  1
  Mo  Mo173  1  0.89867709  0.30688971  0.60996580  1
  Mo  Mo174  1  0.60308130  0.00421107  0.26926677  1
  Mo  Mo175  1  0.70309577  0.10333889  0.36592817  1
  Mo  Mo176  1  0.00763141  0.60025810  0.23559285  1
  Mo  Mo177  1  0.39633993  0.60593441  0.26699482  1
  Mo  Mo178  1  0.59986205  0.20665309  0.26791956  1
  Mo  Mo179  1  0.50335023  0.69674673  0.11516502  1
  Mo  Mo180  1  0.50444255  0.10924966  0.14939536  1
  Mo  Mo181  1  0.49718012  0.90664186  0.61046038  1
  Mo  Mo182  1  0.79885750  0.40624760  0.76562469  1
  Mo  Mo183  1  0.30236463  0.29396730  0.88731170  1
  Mo  Mo184  1  0.00100683  0.19901113  0.00645475  1
  Mo  Mo185  1  0.29868909  0.49302259  0.10972944  1
  Mo  Mo186  1  0.09068986  0.69149397  0.65148314  1
  Mo  Mo187  1  0.59825267  0.41102938  0.26110697  1
  Mo  Mo188  1  0.09376315  0.49365304  0.87154387  1
  Mo  Mo189  1  0.39474535  0.39424631  0.49179142  1
  Mo  Mo190  1  0.39517031  0.60396198  -0.01746894  1
  Mo  Mo191  1  0.40174867  0.20056396  0.73106107  1
  Mo  Mo192  1  0.59684465  0.60560115  0.50477653  1
  Mo  Mo193  1  0.88886563  0.89210557  0.89233417  1
  Mo  Mo194  1  0.40468769  0.80455378  0.76657029  1
  Mo  Mo195  1  0.70455186  0.90746210  0.14271821  1
  Mo  Mo196  1  0.11072122  0.89840173  0.61616366  1
  Mo  Mo197  1  0.00378490  0.39223141  0.24379930  1
  Mo  Mo198  1  0.31302892  0.09467163  0.63069929  1
  Mo  Mo199  1  0.60322754  0.39306680  0.48734270  1
