# generated using pymatgen
data_HfZrTaTiMo
_symmetry_space_group_name_H-M   'P 1'
_cell_length_a   15.82882498
_cell_length_b   15.83252235
_cell_length_c   15.40872402
_cell_angle_alpha   89.96545721
_cell_angle_beta   89.93868801
_cell_angle_gamma   90.04909404
_symmetry_Int_Tables_number   1
_chemical_formula_structural   HfZrTaTiMo
_chemical_formula_sum   'Hf40 Zr40 Ta40 Ti40 Mo40'
_cell_volume   3861.57946337
_cell_formula_units_Z   40
loop_
 _symmetry_equiv_pos_site_id
 _symmetry_equiv_pos_as_xyz
  1  'x, y, z'
loop_
 _atom_site_type_symbol
 _atom_site_label
 _atom_site_symmetry_multiplicity
 _atom_site_fract_x
 _atom_site_fract_y
 _atom_site_fract_z
 _atom_site_occupancy
  Hf  Hf0  1  0.60126528  0.20731029  0.50103098  1
  Hf  Hf1  1  0.20292182  -0.00239569  0.00328668  1
  Hf  Hf2  1  0.49676194  0.50845335  0.86626869  1
  Hf  Hf3  1  0.59541078  0.61499713  0.74697609  1
  Hf  Hf4  1  0.79845865  0.37722163  0.26414359  1
  Hf  Hf5  1  0.69599577  0.69410950  0.37802286  1
  Hf  Hf6  1  -0.00590991  0.21013813  0.25755801  1
  Hf  Hf7  1  0.29607348  0.49656557  0.38072830  1
  Hf  Hf8  1  0.60678608  0.40836058  0.73369093  1
  Hf  Hf9  1  0.19961585  0.19919938  -0.01460657  1
  Hf  Hf10  1  0.40071678  0.21080529  0.26537231  1
  Hf  Hf11  1  0.70407967  0.89832446  0.37381253  1
  Hf  Hf12  1  0.69813499  0.90080949  0.88669423  1
  Hf  Hf13  1  0.59639714  0.00447033  0.48394378  1
  Hf  Hf14  1  0.40873469  0.00326843  0.00029004  1
  Hf  Hf15  1  0.50324856  0.52139927  0.61379141  1
  Hf  Hf16  1  0.90557381  0.90773991  0.61988773  1
  Hf  Hf17  1  0.79682834  0.79485206  0.23028405  1
  Hf  Hf18  1  0.92144085  0.68512037  0.13188669  1
  Hf  Hf19  1  0.01200696  0.59060655  0.76668736  1
  Hf  Hf20  1  0.60359397  0.00577543  0.01328700  1
  Hf  Hf21  1  0.20018471  0.40080312  0.74508600  1
  Hf  Hf22  1  0.49761067  0.09576855  0.62419598  1
  Hf  Hf23  1  0.50397604  0.10407726  0.86155781  1
  Hf  Hf24  1  0.81752709  0.00228875  0.75988786  1
  Hf  Hf25  1  0.59864615  0.80453167  0.24650256  1
  Hf  Hf26  1  0.80724237  0.58914821  0.01085849  1
  Hf  Hf27  1  0.09481622  0.89964804  0.36550038  1
  Hf  Hf28  1  0.39690227  0.21703425  0.73184303  1
  Hf  Hf29  1  0.90377972  0.70200953  0.63168928  1
  Hf  Hf30  1  0.20086092  -0.00823616  0.75876904  1
  Hf  Hf31  1  0.79109757  0.58916821  0.74627282  1
  Hf  Hf32  1  0.39988021  0.59057586  0.00802273  1
  Hf  Hf33  1  0.09423799  0.10896308  0.12662874  1
  Hf  Hf34  1  0.90255137  0.30222069  0.11129406  1
  Hf  Hf35  1  -0.02378306  0.19115061  0.76609744  1
  Hf  Hf36  1  0.39863381  0.39896550  0.51326968  1
  Hf  Hf37  1  0.80067680  0.19783257  0.47857323  1
  Hf  Hf38  1  0.09379969  0.31123031  0.10961662  1
  Hf  Hf39  1  0.29144242  0.11125971  0.38443935  1
  Zr  Zr40  1  0.71863713  0.10129442  0.62840868  1
  Zr  Zr41  1  0.30654644  0.10611131  0.12925442  1
  Zr  Zr42  1  0.79955877  -0.00085115  0.22763693  1
  Zr  Zr43  1  0.29560121  0.50021443  0.12978808  1
  Zr  Zr44  1  0.10064505  0.89391463  0.62060380  1
  Zr  Zr45  1  0.08700936  0.09676815  0.63571845  1
  Zr  Zr46  1  0.10946208  0.69731827  0.61835935  1
  Zr  Zr47  1  0.09389046  0.50288103  0.10673808  1
  Zr  Zr48  1  0.79699842  0.59081666  0.50819387  1
  Zr  Zr49  1  -0.00430084  0.59398459  0.49466089  1
  Zr  Zr50  1  0.30991431  0.89126777  0.60903418  1
  Zr  Zr51  1  0.39992210  0.40663687  0.73363010  1
  Zr  Zr52  1  0.49745480  0.31715771  0.12406626  1
  Zr  Zr53  1  0.61058755  0.22162108  0.73637825  1
  Zr  Zr54  1  0.59044248  0.81111165  0.74804562  1
  Zr  Zr55  1  0.18135755  0.40777611  0.25936989  1
  Zr  Zr56  1  0.00195924  -0.00467455  -0.00753419  1
  Zr  Zr57  1  0.69488082  0.69817381  0.88702776  1
  Zr  Zr58  1  0.19590533  0.00132005  0.49686825  1
  Zr  Zr59  1  0.79414673  0.79959903  0.74804116  1
  Zr  Zr60  1  0.79614217  0.37482694  0.75961330  1
  Zr  Zr61  1  0.79881422  0.39386431  0.50061842  1
  Zr  Zr62  1  0.48124786  0.71073587  0.13220986  1
  Zr  Zr63  1  0.19947672  0.00183237  0.24332880  1
  Zr  Zr64  1  0.69595207  0.48254993  0.13458810  1
  Zr  Zr65  1  0.69982015  0.10514421  0.86802026  1
  Zr  Zr66  1  0.60152947  0.20703100  0.26714979  1
  Zr  Zr67  1  0.03877394  0.59782690  0.26802483  1
  Zr  Zr68  1  0.89842476  0.69918107  0.35969018  1
  Zr  Zr69  1  0.80058592  0.79749097  0.01764340  1
  Zr  Zr70  1  0.41216965  0.00563193  0.26745189  1
  Zr  Zr71  1  0.91086519  0.47858255  0.64142650  1
  Zr  Zr72  1  0.30350510  0.10362292  0.86268080  1
  Zr  Zr73  1  0.21072274  0.78948360  0.75634266  1
  Zr  Zr74  1  0.00246501  0.80201927  0.77107981  1
  Zr  Zr75  1  0.59942789  0.60084396  0.02157500  1
  Zr  Zr76  1  0.41035574  -0.01895166  0.75113104  1
  Zr  Zr77  1  0.29789741  0.30795251  0.12047129  1
  Zr  Zr78  1  0.69538782  0.29690441  0.11689341  1
  Zr  Zr79  1  0.19189832  0.78409375  0.24662206  1
  Ta  Ta80  1  0.20545775  0.59795906  0.76275381  1
  Ta  Ta81  1  0.89678861  0.69406412  0.87800670  1
  Ta  Ta82  1  0.80528735  0.80118008  0.50019020  1
  Ta  Ta83  1  0.19702315  0.60168704  0.48529265  1
  Ta  Ta84  1  0.40671322  0.20672578  -0.00595869  1
  Ta  Ta85  1  0.10300837  0.29720253  0.38918876  1
  Ta  Ta86  1  0.31125421  0.88642374  0.12640746  1
  Ta  Ta87  1  0.90064784  0.49411760  0.35894694  1
  Ta  Ta88  1  0.09499643  0.30269495  0.86675236  1
  Ta  Ta89  1  0.69360184  0.49658877  0.36889610  1
  Ta  Ta90  1  0.68531196  0.70351324  0.60457012  1
  Ta  Ta91  1  -0.00558814  0.39008658  0.48911955  1
  Ta  Ta92  1  -0.00158922  0.79951301  0.48678722  1
  Ta  Ta93  1  0.29809740  0.09875883  0.62342859  1
  Ta  Ta94  1  0.40493567  0.79271620  0.75483463  1
  Ta  Ta95  1  0.08209249  0.30498523  0.63217908  1
  Ta  Ta96  1  0.59174834  0.59628257  0.24752262  1
  Ta  Ta97  1  0.19264699  0.20565504  0.51812276  1
  Ta  Ta98  1  0.80003605  0.19654742  -0.00914852  1
  Ta  Ta99  1  -0.00444929  0.19446068  0.49704133  1
  Ta  Ta100  1  0.39626536  0.60395399  0.26004393  1
  Ta  Ta101  1  0.00424739  0.78962758  -0.00799556  1
  Ta  Ta102  1  0.29908311  0.70599141  0.37693293  1
  Ta  Ta103  1  0.31171247  0.88669535  0.89321835  1
  Ta  Ta104  1  0.90176397  0.89872430  0.36377892  1
  Ta  Ta105  1  0.69684619  0.49482120  0.88268918  1
  Ta  Ta106  1  0.49811305  0.90979262  0.13776576  1
  Ta  Ta107  1  0.70032732  0.89924186  0.60952524  1
  Ta  Ta108  1  0.49354016  0.71272900  0.89101123  1
  Ta  Ta109  1  0.00225359  -0.00479382  0.77946262  1
  Ta  Ta110  1  -0.00222298  0.19721416  -0.01685086  1
  Ta  Ta111  1  0.50047038  0.30845635  0.87709253  1
  Ta  Ta112  1  0.80476719  0.00188302  0.01291798  1
  Ta  Ta113  1  0.39961131  0.60699769  0.48769191  1
  Ta  Ta114  1  0.30328236  0.70144592  0.89229263  1
  Ta  Ta115  1  0.29130326  0.30341692  0.39162126  1
  Ta  Ta116  1  0.29158281  0.51679469  0.61725960  1
  Ta  Ta117  1  0.90320938  0.08923857  0.37026272  1
  Ta  Ta118  1  0.10290950  0.49548961  0.61821622  1
  Ta  Ta119  1  0.49417077  0.71297633  0.60183517  1
  Ti  Ti120  1  0.91275937  0.48639472  0.14117623  1
  Ti  Ti121  1  0.39851189  0.20433704  0.50796875  1
  Ti  Ti122  1  0.19691911  0.20984804  0.25274495  1
  Ti  Ti123  1  0.10086526  0.88770246  0.12417922  1
  Ti  Ti124  1  0.50087709  0.70572282  0.37631721  1
  Ti  Ti125  1  0.50100292  0.31143708  0.38737219  1
  Ti  Ti126  1  0.80604108  0.00024543  0.49412277  1
  Ti  Ti127  1  0.58832381  0.40744983  -0.00498336  1
  Ti  Ti128  1  0.30518047  0.70326554  0.60555610  1
  Ti  Ti129  1  0.59722677  0.20466929  -0.00515254  1
  Ti  Ti130  1  0.09680550  0.10323735  0.37093549  1
  Ti  Ti131  1  0.11529537  0.88469708  0.89024580  1
  Ti  Ti132  1  0.91614048  0.89304319  0.12633050  1
  Ti  Ti133  1  0.80502914  0.19271138  0.25048144  1
  Ti  Ti134  1  0.89122259  0.27705631  0.62649394  1
  Ti  Ti135  1  0.60634202  0.40521186  0.50800410  1
  Ti  Ti136  1  0.80566501  0.40037583  -0.01320420  1
  Ti  Ti137  1  0.20052315  0.40459339  -0.01866590  1
  Ti  Ti138  1  -0.00122098  0.58741859  -0.02275310  1
  Ti  Ti139  1  0.19625588  0.59768467  -0.01982864  1
  Ti  Ti140  1  0.50472303  0.11205325  0.13157433  1
  Ti  Ti141  1  0.69720365  0.10695954  0.12974543  1
  Ti  Ti142  1  0.50451424  0.50476504  0.38015226  1
  Ti  Ti143  1  0.79315777  0.59378803  0.23802569  1
  Ti  Ti144  1  0.29865882  0.89668403  0.36886150  1
  Ti  Ti145  1  0.39222171  0.61654506  0.74649516  1
  Ti  Ti146  1  0.30614481  0.30570988  0.87510488  1
  Ti  Ti147  1  0.10664973  0.69462568  0.10650951  1
  Ti  Ti148  1  0.30533590  0.49951424  0.87201484  1
  Ti  Ti149  1  0.40676293  0.81052994  0.47588905  1
  Ti  Ti150  1  0.59679245  0.80666020  0.01967868  1
  Ti  Ti151  1  0.70047483  0.09405016  0.36177360  1
  Ti  Ti152  1  0.50662210  0.89406759  0.60423213  1
  Ti  Ti153  1  0.29238980  0.69757139  0.12115686  1
  Ti  Ti154  1  0.40549172  0.40612488  0.26358736  1
  Ti  Ti155  1  -0.00394320  0.00145658  0.49137389  1
  Ti  Ti156  1  0.40385538  0.00438123  0.48545314  1
  Ti  Ti157  1  0.60578028  -0.00718672  0.74260011  1
  Ti  Ti158  1  0.19628838  0.20224696  0.74365569  1
  Ti  Ti159  1  -0.00421804  0.00386104  0.23855692  1
  Mo  Mo160  1  0.10671194  0.49334273  0.87834169  1
  Mo  Mo161  1  0.90052878  0.10548426  0.11654499  1
  Mo  Mo162  1  -0.00203933  0.39733389  0.26673498  1
  Mo  Mo163  1  0.10350730  0.70523495  0.39036655  1
  Mo  Mo164  1  0.50123527  0.90175067  0.36790534  1
  Mo  Mo165  1  0.90344400  0.09442849  0.61104306  1
  Mo  Mo166  1  0.59105094  0.40306189  0.27098815  1
  Mo  Mo167  1  0.59904913  0.80377655  0.48968281  1
  Mo  Mo168  1  0.40410856  0.80186722  0.00311553  1
  Mo  Mo169  1  0.09998018  0.49170746  0.39897998  1
  Mo  Mo170  1  0.50075973  0.30586315  0.60933829  1
  Mo  Mo171  1  0.20841167  0.60065220  0.26339789  1
  Mo  Mo172  1  0.69319214  0.90276634  0.11903706  1
  Mo  Mo173  1  0.70616936  0.30222260  0.61053326  1
  Mo  Mo174  1  0.60108692  0.00807954  0.24682165  1
  Mo  Mo175  1  0.39619043  0.80327660  0.26522620  1
  Mo  Mo176  1  0.49467466  0.10919171  0.39025457  1
  Mo  Mo177  1  0.68986542  0.30604941  0.89677475  1
  Mo  Mo178  1  0.89705447  0.09346483  0.89567260  1
  Mo  Mo179  1  0.39687597  0.40008699  -0.01509123  1
  Mo  Mo180  1  0.10279236  0.10059868  0.86580853  1
  Mo  Mo181  1  0.80080214  0.19827248  0.76544239  1
  Mo  Mo182  1  0.89651622  0.49738668  0.86869635  1
  Mo  Mo183  1  0.90281441  0.29178501  0.37600640  1
  Mo  Mo184  1  0.89633424  0.29899442  0.88948570  1
  Mo  Mo185  1  0.49095333  0.49824962  0.14517876  1
  Mo  Mo186  1  0.20257084  0.79886341  0.48804783  1
  Mo  Mo187  1  0.19354536  0.39873171  0.51586488  1
  Mo  Mo188  1  0.69779769  0.50593823  0.61814766  1
  Mo  Mo189  1  0.69589866  0.69302782  0.13257337  1
  Mo  Mo190  1  0.90034594  0.89225685  0.89166297  1
  Mo  Mo191  1  -0.00698510  0.40354624  -0.02254587  1
  Mo  Mo192  1  0.00127222  0.39333905  0.76196190  1
  Mo  Mo193  1  0.10539790  0.69580197  0.88832426  1
  Mo  Mo194  1  0.50467560  0.89711304  0.88728238  1
  Mo  Mo195  1  0.28858834  0.30027997  0.61479539  1
  Mo  Mo196  1  0.69447570  0.30431851  0.38171845  1
  Mo  Mo197  1  0.00148180  0.80285205  0.24562739  1
  Mo  Mo198  1  0.20293550  0.79631514  0.01518051  1
  Mo  Mo199  1  0.59569990  0.60063858  0.48359220  1
