# generated using pymatgen
data_HfZrTaTiMo
_symmetry_space_group_name_H-M   'P 1'
_cell_length_a   15.82477331
_cell_length_b   15.83045008
_cell_length_c   15.39976406
_cell_angle_alpha   89.94458477
_cell_angle_beta   90.01542030
_cell_angle_gamma   90.04037016
_symmetry_Int_Tables_number   1
_chemical_formula_structural   HfZrTaTiMo
_chemical_formula_sum   'Hf40 Zr40 Ta40 Ti40 Mo40'
_cell_volume   3857.84256532
_cell_formula_units_Z   40
loop_
 _symmetry_equiv_pos_site_id
 _symmetry_equiv_pos_as_xyz
  1  'x, y, z'
loop_
 _atom_site_type_symbol
 _atom_site_label
 _atom_site_symmetry_multiplicity
 _atom_site_fract_x
 _atom_site_fract_y
 _atom_site_fract_z
 _atom_site_occupancy
  Hf  Hf0  1  0.80457504  0.79769933  0.23574890  1
  Hf  Hf1  1  0.59873967  0.39177318  0.00527898  1
  Hf  Hf2  1  0.29165270  0.28565351  0.37721907  1
  Hf  Hf3  1  0.60307027  0.19211166  0.24555336  1
  Hf  Hf4  1  0.69338417  0.69655619  0.86501903  1
  Hf  Hf5  1  -0.01049241  -0.00917899  0.24350065  1
  Hf  Hf6  1  0.00478945  0.80071432  0.25912731  1
  Hf  Hf7  1  0.80343738  0.58431919  0.75611167  1
  Hf  Hf8  1  0.60200829  0.40396367  0.74232571  1
  Hf  Hf9  1  0.29337289  0.30325561  0.85218579  1
  Hf  Hf10  1  0.70858799  0.49949615  0.61431399  1
  Hf  Hf11  1  0.20236994  -0.00580101  0.25238495  1
  Hf  Hf12  1  0.80134804  0.00070673  -0.00063355  1
  Hf  Hf13  1  0.71295406  0.89710055  0.85298492  1
  Hf  Hf14  1  -0.00622612  0.19922626  -0.00668449  1
  Hf  Hf15  1  0.00047103  0.79890441  0.50619026  1
  Hf  Hf16  1  0.39737495  0.79637858  0.75651042  1
  Hf  Hf17  1  0.88936133  0.89422438  0.38875600  1
  Hf  Hf18  1  0.88922328  0.09621971  0.38628316  1
  Hf  Hf19  1  0.40463796  -0.00597812  0.25759872  1
  Hf  Hf20  1  -0.00895868  0.00224657  -0.00854992  1
  Hf  Hf21  1  0.30129545  0.70121798  0.38878139  1
  Hf  Hf22  1  0.50693740  0.09082914  0.11413911  1
  Hf  Hf23  1  0.20424010  0.59692465  0.00436438  1
  Hf  Hf24  1  0.41059805  0.60682781  0.75403611  1
  Hf  Hf25  1  0.19451898  -0.00329416  -0.01771227  1
  Hf  Hf26  1  0.30468566  0.49523955  0.37209756  1
  Hf  Hf27  1  0.89240887  0.70736917  0.87373161  1
  Hf  Hf28  1  0.91084073  0.70453069  0.10569770  1
  Hf  Hf29  1  0.19378877  -0.01025832  0.74593482  1
  Hf  Hf30  1  -0.00292112  0.39224127  -0.01121892  1
  Hf  Hf31  1  0.61231723  0.21139510  0.73792200  1
  Hf  Hf32  1  0.40066859  0.39324745  0.50345999  1
  Hf  Hf33  1  0.09155392  0.49658388  0.13419407  1
  Hf  Hf34  1  0.09716822  0.29591186  0.14757828  1
  Hf  Hf35  1  0.29647365  0.09507703  0.12085008  1
  Hf  Hf36  1  0.20016186  0.61010457  0.24252070  1
  Hf  Hf37  1  0.10041295  0.89317153  0.11677724  1
  Hf  Hf38  1  0.20554335  0.60527800  0.75348848  1
  Hf  Hf39  1  0.80211138  0.40152743  -0.01406488  1
  Zr  Zr40  1  0.40060991  -0.00033354  0.74098377  1
  Zr  Zr41  1  0.79539749  0.20615877  -0.01276403  1
  Zr  Zr42  1  -0.00620619  0.61449598  0.25302654  1
  Zr  Zr43  1  0.40002618  0.19774001  0.24474246  1
  Zr  Zr44  1  0.88735027  0.29093574  0.62951481  1
  Zr  Zr45  1  0.51301634  0.90849915  0.86187842  1
  Zr  Zr46  1  0.40210721  0.21116175  0.00379038  1
  Zr  Zr47  1  0.00695278  0.80503640  0.75094112  1
  Zr  Zr48  1  0.73303667  0.69796976  0.39417032  1
  Zr  Zr49  1  0.20357732  0.79935214  0.75042460  1
  Zr  Zr50  1  0.50649005  0.10010382  0.39770998  1
  Zr  Zr51  1  0.50543692  0.50136120  0.87939500  1
  Zr  Zr52  1  0.19165250  0.58857804  0.49889789  1
  Zr  Zr53  1  0.10576222  0.48861218  0.86766843  1
  Zr  Zr54  1  0.19208241  0.20124522  0.00157016  1
  Zr  Zr55  1  0.30281589  0.09705246  0.40155109  1
  Zr  Zr56  1  0.68598684  0.90519395  0.12642634  1
  Zr  Zr57  1  0.62032423  0.60230627  0.25151474  1
  Zr  Zr58  1  0.40466132  0.61586133  -0.00034523  1
  Zr  Zr59  1  0.69465205  0.30241482  0.37327855  1
  Zr  Zr60  1  0.50402356  0.10383925  0.60762745  1
  Zr  Zr61  1  0.21671105  0.79859237  -0.01901337  1
  Zr  Zr62  1  0.40758587  0.60002264  0.25033814  1
  Zr  Zr63  1  0.80993007  0.02314715  0.74238307  1
  Zr  Zr64  1  -0.00730676  0.19069191  0.25842775  1
  Zr  Zr65  1  0.59720541  0.79962960  -0.00734248  1
  Zr  Zr66  1  0.10728218  0.10149561  0.38478976  1
  Zr  Zr67  1  0.69994246  0.90971010  0.38426861  1
  Zr  Zr68  1  0.89499041  0.69026853  0.62081093  1
  Zr  Zr69  1  0.28771880  0.29297813  0.62551210  1
  Zr  Zr70  1  0.50545484  0.71319465  0.13344117  1
  Zr  Zr71  1  0.20630156  0.38825730  0.01310305  1
  Zr  Zr72  1  0.39966658  0.80893256  0.26453539  1
  Zr  Zr73  1  0.30780050  0.49010429  0.87567262  1
  Zr  Zr74  1  0.18142089  0.38976551  0.50015719  1
  Zr  Zr75  1  0.50533973  0.51551433  0.60694753  1
  Zr  Zr76  1  0.51094125  0.69499433  0.39370025  1
  Zr  Zr77  1  0.89158217  0.30752323  0.14453845  1
  Zr  Zr78  1  -0.00742885  0.40193422  0.48843432  1
  Zr  Zr79  1  0.30190301  0.10875709  0.86331283  1
  Ta  Ta80  1  0.79681333  0.60140620  0.00319484  1
  Ta  Ta81  1  0.19696311  0.80017060  0.51397732  1
  Ta  Ta82  1  0.30948910  0.69257918  0.61051156  1
  Ta  Ta83  1  0.09458719  0.49523274  0.35430344  1
  Ta  Ta84  1  0.69931081  0.29981559  0.13874500  1
  Ta  Ta85  1  0.88487650  0.51377065  0.36475211  1
  Ta  Ta86  1  0.89689247  0.50176181  0.13140732  1
  Ta  Ta87  1  0.70592788  0.49582569  0.12555082  1
  Ta  Ta88  1  0.09091561  0.49533083  0.63987155  1
  Ta  Ta89  1  0.29701169  0.50096678  0.62426826  1
  Ta  Ta90  1  0.09400792  0.10445790  0.85501900  1
  Ta  Ta91  1  0.69977431  0.89562649  0.63367277  1
  Ta  Ta92  1  0.79169225  0.38616081  0.76513156  1
  Ta  Ta93  1  0.60671470  0.60011121  0.01378889  1
  Ta  Ta94  1  0.10290227  0.70138256  0.38708781  1
  Ta  Ta95  1  0.09585393  0.69672411  0.88385204  1
  Ta  Ta96  1  0.40878489  0.20440289  0.73473236  1
  Ta  Ta97  1  0.40453402  0.40044980  0.73193475  1
  Ta  Ta98  1  0.09023022  0.10638409  0.63190216  1
  Ta  Ta99  1  0.30881705  0.49574116  0.13273747  1
  Ta  Ta100  1  0.69573567  0.69266576  0.62281769  1
  Ta  Ta101  1  0.10457944  0.90138038  0.38962026  1
  Ta  Ta102  1  0.69302881  0.10397522  0.87259065  1
  Ta  Ta103  1  0.29642558  0.90138690  0.39813507  1
  Ta  Ta104  1  0.39961036  -0.00727078  -0.01471772  1
  Ta  Ta105  1  0.00141893  0.20680698  0.49858587  1
  Ta  Ta106  1  0.41229580  0.39176872  0.24821504  1
  Ta  Ta107  1  0.49511871  0.30071463  0.86511169  1
  Ta  Ta108  1  0.00081901  0.59734374  0.76018009  1
  Ta  Ta109  1  0.89702657  0.89925462  0.63201772  1
  Ta  Ta110  1  0.50322268  0.90706050  0.40276485  1
  Ta  Ta111  1  0.09954272  0.68965655  0.62206331  1
  Ta  Ta112  1  0.60210512  0.80732420  0.26279672  1
  Ta  Ta113  1  0.80235279  0.80804004  0.00518735  1
  Ta  Ta114  1  0.78857879  0.01352939  0.23904355  1
  Ta  Ta115  1  0.50585157  0.70141085  0.60966080  1
  Ta  Ta116  1  0.79891255  0.00320038  0.52078400  1
  Ta  Ta117  1  0.09852875  0.29153903  0.84591965  1
  Ta  Ta118  1  0.51154714  0.48963557  0.37838235  1
  Ta  Ta119  1  0.19980222  0.80228777  0.25633460  1
  Ti  Ti120  1  0.10005277  0.29677484  0.36035647  1
  Ti  Ti121  1  0.50833981  0.49364526  0.13324421  1
  Ti  Ti122  1  0.60061523  0.20416276  0.00226774  1
  Ti  Ti123  1  0.10031005  0.70491469  0.10700032  1
  Ti  Ti124  1  0.20957610  0.39574058  0.24721216  1
  Ti  Ti125  1  0.88610356  0.10768680  0.13014685  1
  Ti  Ti126  1  0.40251674  0.80291048  0.50613683  1
  Ti  Ti127  1  0.40389329  0.39223137  0.02065028  1
  Ti  Ti128  1  0.69837888  0.50239508  0.38686338  1
  Ti  Ti129  1  0.80394860  0.39694067  0.49248340  1
  Ti  Ti130  1  0.69691885  0.10306709  0.39450969  1
  Ti  Ti131  1  0.08769869  0.29852127  0.64509615  1
  Ti  Ti132  1  0.50749284  0.89944992  0.61700118  1
  Ti  Ti133  1  0.29624246  0.10284889  0.61643220  1
  Ti  Ti134  1  0.89345788  0.30220395  0.36303251  1
  Ti  Ti135  1  0.59682403  -0.00109992  0.25455635  1
  Ti  Ti136  1  -0.00125902  0.00019408  0.51448427  1
  Ti  Ti137  1  0.60391226  0.00577275  -0.00913800  1
  Ti  Ti138  1  0.59203562  0.78720660  0.74175963  1
  Ti  Ti139  1  -0.00286256  0.59318471  0.49075436  1
  Ti  Ti140  1  0.09786238  0.09746334  0.13114128  1
  Ti  Ti141  1  -0.00570842  0.58825860  -0.01418799  1
  Ti  Ti142  1  0.61127420  0.80305187  0.50439193  1
  Ti  Ti143  1  -0.00186161  -0.00382131  0.75366191  1
  Ti  Ti144  1  0.50428823  0.10885258  0.87049516  1
  Ti  Ti145  1  0.30699513  0.89691569  0.11756958  1
  Ti  Ti146  1  0.19127059  -0.00339945  0.51985776  1
  Ti  Ti147  1  0.69403212  0.50259313  0.87826058  1
  Ti  Ti148  1  0.30278014  0.89844524  0.61510848  1
  Ti  Ti149  1  0.71551652  0.12487425  0.61014122  1
  Ti  Ti150  1  -0.00326674  0.81686106  -0.01956605  1
  Ti  Ti151  1  0.60072000  0.39074402  0.50922135  1
  Ti  Ti152  1  0.78956750  0.41249976  0.25636891  1
  Ti  Ti153  1  0.60725351  0.01236628  0.73403065  1
  Ti  Ti154  1  -0.02567394  0.18711804  0.75397011  1
  Ti  Ti155  1  0.50045156  0.29347142  0.38557813  1
  Ti  Ti156  1  -0.01795509  0.40377091  0.76261225  1
  Ti  Ti157  1  0.49339078  0.90036115  0.11719989  1
  Ti  Ti158  1  0.90399232  0.49279523  0.62480568  1
  Ti  Ti159  1  0.30482662  0.71267560  0.12655149  1
  Mo  Mo160  1  0.90497385  0.10406124  0.60789070  1
  Mo  Mo161  1  0.89555864  0.50333584  0.88016749  1
  Mo  Mo162  1  0.80008617  0.80319453  0.52336250  1
  Mo  Mo163  1  0.60571100  0.20957479  0.50948357  1
  Mo  Mo164  1  0.60259824  0.60454620  0.74621837  1
  Mo  Mo165  1  0.50703228  0.70091227  0.87588096  1
  Mo  Mo166  1  0.40143520  0.80980792  -0.01491801  1
  Mo  Mo167  1  0.69669749  0.10240617  0.11468264  1
  Mo  Mo168  1  0.61109130  0.00000673  0.52068702  1
  Mo  Mo169  1  0.80255931  0.60280832  0.23011692  1
  Mo  Mo170  1  0.79067989  0.19399316  0.26044010  1
  Mo  Mo171  1  0.19914916  0.19641676  0.24160103  1
  Mo  Mo172  1  0.68713392  0.30109968  0.87906750  1
  Mo  Mo173  1  0.59806897  0.40100828  0.24611835  1
  Mo  Mo174  1  0.19446751  0.40143433  0.73417480  1
  Mo  Mo175  1  0.19287875  0.19301033  0.73690437  1
  Mo  Mo176  1  0.39763340  -0.00936747  0.51575539  1
  Mo  Mo177  1  0.89825348  0.90453968  0.12882414  1
  Mo  Mo178  1  0.30141752  0.30117292  0.14406640  1
  Mo  Mo179  1  0.09719842  0.90255121  0.87843458  1
  Mo  Mo180  1  0.60924131  0.59787571  0.49004783  1
  Mo  Mo181  1  0.89819050  0.09833114  0.87573025  1
  Mo  Mo182  1  -0.00886798  0.40379738  0.26490809  1
  Mo  Mo183  1  0.40039244  0.59596601  0.49499136  1
  Mo  Mo184  1  0.79455976  0.20421621  0.76278614  1
  Mo  Mo185  1  0.79704429  0.79590552  0.73729938  1
  Mo  Mo186  1  0.89832516  0.89926863  0.85517006  1
  Mo  Mo187  1  0.50631804  0.30137563  0.12893786  1
  Mo  Mo188  1  0.81161101  0.58497703  0.51105817  1
  Mo  Mo189  1  0.70571755  0.70042664  0.11772824  1
  Mo  Mo190  1  0.49939444  0.30451405  0.62472515  1
  Mo  Mo191  1  0.89995126  0.29707783  0.85998036  1
  Mo  Mo192  1  0.09618901  0.90256058  0.61507768  1
  Mo  Mo193  1  0.18420340  0.19635362  0.51996345  1
  Mo  Mo194  1  0.39663718  0.20292974  0.51146340  1
  Mo  Mo195  1  0.90519119  0.69701200  0.38974731  1
  Mo  Mo196  1  0.80477532  0.20623858  0.48156543  1
  Mo  Mo197  1  0.70397760  0.30497195  0.60778993  1
  Mo  Mo198  1  0.30684848  0.90280580  0.87265820  1
  Mo  Mo199  1  0.30383881  0.69560747  0.87559355  1
