# generated using pymatgen
data_HfZrTaTiMo
_symmetry_space_group_name_H-M   'P 1'
_cell_length_a   15.83547564
_cell_length_b   15.83877098
_cell_length_c   15.40222439
_cell_angle_alpha   89.96594566
_cell_angle_beta   90.11090165
_cell_angle_gamma   89.98176406
_symmetry_Int_Tables_number   1
_chemical_formula_structural   HfZrTaTiMo
_chemical_formula_sum   'Hf40 Zr40 Ta40 Ti40 Mo40'
_cell_volume   3863.09266179
_cell_formula_units_Z   40
loop_
 _symmetry_equiv_pos_site_id
 _symmetry_equiv_pos_as_xyz
  1  'x, y, z'
loop_
 _atom_site_type_symbol
 _atom_site_label
 _atom_site_symmetry_multiplicity
 _atom_site_fract_x
 _atom_site_fract_y
 _atom_site_fract_z
 _atom_site_occupancy
  Hf  Hf0  1  0.20392871  0.80457869  0.23905103  1
  Hf  Hf1  1  0.80731691  0.79234673  0.74103801  1
  Hf  Hf2  1  -0.00332815  0.42003796  0.49053830  1
  Hf  Hf3  1  0.70663496  0.30178446  0.12089149  1
  Hf  Hf4  1  0.49933240  0.28033044  0.62738016  1
  Hf  Hf5  1  0.10534292  0.90162601  0.37224020  1
  Hf  Hf6  1  0.89659634  0.48908630  0.14491569  1
  Hf  Hf7  1  0.80263561  0.18745833  0.49957827  1
  Hf  Hf8  1  0.49725746  0.89095342  0.12402851  1
  Hf  Hf9  1  0.29893677  0.30508761  0.88884308  1
  Hf  Hf10  1  0.29722085  0.70032147  0.88412687  1
  Hf  Hf11  1  0.39539366  -0.00417856  -0.02000478  1
  Hf  Hf12  1  0.92524436  0.68471226  0.38452854  1
  Hf  Hf13  1  -0.00099828  0.60880167  0.73534799  1
  Hf  Hf14  1  0.19777280  0.00132318  0.77534738  1
  Hf  Hf15  1  0.40891877  0.81808095  0.51189449  1
  Hf  Hf16  1  0.91089072  0.29470748  0.36760540  1
  Hf  Hf17  1  0.71565266  0.28773340  0.86775641  1
  Hf  Hf18  1  0.68566192  0.08589853  0.38988545  1
  Hf  Hf19  1  0.40844718  0.39681071  0.26572322  1
  Hf  Hf20  1  0.90923316  0.08642946  0.62291554  1
  Hf  Hf21  1  0.91014788  0.08546620  0.13208481  1
  Hf  Hf22  1  0.50716648  0.90695466  0.85024065  1
  Hf  Hf23  1  0.30187720  0.49706805  0.88121109  1
  Hf  Hf24  1  0.69748834  0.09085014  0.86736275  1
  Hf  Hf25  1  0.30190345  0.69859348  0.39436266  1
  Hf  Hf26  1  0.88264165  0.69603763  0.13222042  1
  Hf  Hf27  1  0.18627334  0.39855004  0.49594353  1
  Hf  Hf28  1  0.30979725  0.49989983  0.12518778  1
  Hf  Hf29  1  0.00532596  0.59688619  0.01793215  1
  Hf  Hf30  1  0.69031397  0.89611247  0.39118447  1
  Hf  Hf31  1  0.00151574  0.39987261  0.00373817  1
  Hf  Hf32  1  0.79625969  0.59539891  -0.01042077  1
  Hf  Hf33  1  0.00185235  0.19248013  0.76409682  1
  Hf  Hf34  1  0.09070961  0.92034136  0.11500457  1
  Hf  Hf35  1  0.60220465  0.39600070  0.50406353  1
  Hf  Hf36  1  0.40552827  0.80018093  0.25718988  1
  Hf  Hf37  1  0.49592058  0.30492518  0.86498257  1
  Hf  Hf38  1  0.70336116  0.88292212  0.13022928  1
  Hf  Hf39  1  0.31251253  0.70951869  0.10776936  1
  Zr  Zr40  1  0.79304706  0.78868279  0.26783358  1
  Zr  Zr41  1  0.60149940  -0.01333156  -0.00169638  1
  Zr  Zr42  1  0.90540995  0.90442687  0.87917235  1
  Zr  Zr43  1  0.60021602  0.19610083  -0.00504766  1
  Zr  Zr44  1  0.70791300  0.91761061  0.60312564  1
  Zr  Zr45  1  0.70535253  0.49270530  0.85567278  1
  Zr  Zr46  1  0.61498308  0.80254159  0.73387720  1
  Zr  Zr47  1  0.59234271  0.20607129  0.25490741  1
  Zr  Zr48  1  0.29625203  0.29417535  0.62160651  1
  Zr  Zr49  1  0.49530170  0.51786439  0.39482236  1
  Zr  Zr50  1  0.38880535  0.80748215  0.74362870  1
  Zr  Zr51  1  0.39176878  0.60347649  0.73871640  1
  Zr  Zr52  1  0.48424494  0.09804849  0.12711085  1
  Zr  Zr53  1  0.60733459  0.40884569  -0.01509093  1
  Zr  Zr54  1  0.28503280  0.91041568  0.62282121  1
  Zr  Zr55  1  0.79676491  0.18921166  0.26270054  1
  Zr  Zr56  1  0.78304906  0.39792952  0.28076730  1
  Zr  Zr57  1  0.28657354  0.50224195  0.36813586  1
  Zr  Zr58  1  0.50365061  0.50563670  0.12065580  1
  Zr  Zr59  1  0.10433884  0.29929944  0.88026062  1
  Zr  Zr60  1  0.70281049  0.09436770  0.12659006  1
  Zr  Zr61  1  0.90655552  0.29725043  0.62476531  1
  Zr  Zr62  1  0.80361570  -0.00442200  0.75131872  1
  Zr  Zr63  1  0.59995484  0.59955267  0.26049041  1
  Zr  Zr64  1  0.90607134  0.49434210  0.86441821  1
  Zr  Zr65  1  0.70140717  0.50042836  0.12508678  1
  Zr  Zr66  1  0.19662719  0.60935244  0.74067906  1
  Zr  Zr67  1  0.68587813  0.69077682  0.40289668  1
  Zr  Zr68  1  0.81761510  0.57875233  0.51223390  1
  Zr  Zr69  1  0.30796893  0.91393015  0.37493761  1
  Zr  Zr70  1  0.80754573  0.78710179  0.51106831  1
  Zr  Zr71  1  0.00499549  0.80531055  0.74890241  1
  Zr  Zr72  1  0.49579382  0.30805174  0.11163325  1
  Zr  Zr73  1  0.09670394  0.91215730  0.61167716  1
  Zr  Zr74  1  0.19198171  0.61506628  0.23825842  1
  Zr  Zr75  1  -0.01003154  0.80271179  0.00957673  1
  Zr  Zr76  1  0.00391623  0.79488446  0.23945838  1
  Zr  Zr77  1  0.39505994  0.39784802  0.49907253  1
  Zr  Zr78  1  0.30533464  0.29938109  0.11320429  1
  Zr  Zr79  1  0.01471692  0.20499274  0.49198321  1
  Ta  Ta80  1  0.19110232  0.41071542  0.01484083  1
  Ta  Ta81  1  0.50133294  0.69949732  0.62099251  1
  Ta  Ta82  1  0.49647732  0.49986748  0.85492154  1
  Ta  Ta83  1  0.59614498  -0.00912541  0.24862801  1
  Ta  Ta84  1  -0.01352290  0.20914374  0.00755759  1
  Ta  Ta85  1  0.80100396  0.39367218  0.49925336  1
  Ta  Ta86  1  0.00264296  0.01367601  0.47827712  1
  Ta  Ta87  1  0.60322149  0.60903955  -0.02279288  1
  Ta  Ta88  1  0.80281356  0.60501434  0.73136658  1
  Ta  Ta89  1  0.30031844  0.10471587  0.37018119  1
  Ta  Ta90  1  0.10727555  0.10310184  0.62597174  1
  Ta  Ta91  1  0.41110423  0.80262026  -0.01904086  1
  Ta  Ta92  1  0.29431062  0.29329449  0.37091984  1
  Ta  Ta93  1  0.59223953  0.79211004  0.25846181  1
  Ta  Ta94  1  0.19466273  0.60047077  0.01097015  1
  Ta  Ta95  1  0.20226174  0.40242364  0.74551259  1
  Ta  Ta96  1  0.10605916  0.50474225  0.87095096  1
  Ta  Ta97  1  0.90508954  0.89724427  0.38320423  1
  Ta  Ta98  1  0.38802047  0.19602721  0.75814363  1
  Ta  Ta99  1  0.48814701  0.08905014  0.36962904  1
  Ta  Ta100  1  0.79721447  0.59265866  0.27550852  1
  Ta  Ta101  1  0.29018610  0.11214891  0.89276109  1
  Ta  Ta102  1  0.60723787  0.60117474  0.74106697  1
  Ta  Ta103  1  0.20581357  0.20336514  0.23663735  1
  Ta  Ta104  1  0.19139132  0.80486481  0.76525288  1
  Ta  Ta105  1  0.10360469  0.71412823  0.60188449  1
  Ta  Ta106  1  0.10058409  0.10836565  0.34721298  1
  Ta  Ta107  1  0.80445575  -0.01241537  0.26088778  1
  Ta  Ta108  1  0.09854401  0.10855134  0.12228889  1
  Ta  Ta109  1  0.49566633  0.49307190  0.63605387  1
  Ta  Ta110  1  0.10688995  0.31177049  0.34776706  1
  Ta  Ta111  1  0.49896605  0.10262911  0.85555985  1
  Ta  Ta112  1  0.39969307  0.01671547  0.51675580  1
  Ta  Ta113  1  0.40539713  0.61377662  0.24888663  1
  Ta  Ta114  1  0.20841329  0.00962612  0.23547569  1
  Ta  Ta115  1  0.80362515  -0.01027454  0.00254442  1
  Ta  Ta116  1  0.78705503  0.79423964  -0.01460785  1
  Ta  Ta117  1  0.50468811  0.69884701  0.85816314  1
  Ta  Ta118  1  0.10298361  0.29749021  0.63399939  1
  Ta  Ta119  1  0.09840313  0.70189150  0.88940927  1
  Ti  Ti120  1  0.00956931  0.00522846  0.76841921  1
  Ti  Ti121  1  0.49221198  0.27742295  0.39570240  1
  Ti  Ti122  1  0.69089126  0.69364335  0.12478800  1
  Ti  Ti123  1  0.60511929  0.79214432  -0.02028741  1
  Ti  Ti124  1  0.19818297  0.19917518  0.49027890  1
  Ti  Ti125  1  0.81852630  0.37893397  -0.00770688  1
  Ti  Ti126  1  0.69854235  0.28877896  0.62296526  1
  Ti  Ti127  1  0.09492743  0.30427322  0.13818297  1
  Ti  Ti128  1  0.29451341  0.10574538  0.62733144  1
  Ti  Ti129  1  0.50321350  0.90732826  0.37647855  1
  Ti  Ti130  1  0.09935961  0.09870339  0.90997989  1
  Ti  Ti131  1  0.89039582  0.11186554  0.89086356  1
  Ti  Ti132  1  0.90090931  0.29491420  0.14402494  1
  Ti  Ti133  1  0.80386843  0.19440557  0.73921112  1
  Ti  Ti134  1  0.80904717  0.39295421  0.73882230  1
  Ti  Ti135  1  0.70481770  0.48897573  0.62988335  1
  Ti  Ti136  1  0.19812811  0.01699265  0.48787487  1
  Ti  Ti137  1  0.20307134  0.81619752  -0.00755443  1
  Ti  Ti138  1  0.50819534  0.70146058  0.11313954  1
  Ti  Ti139  1  0.10651441  0.69888928  0.39025757  1
  Ti  Ti140  1  0.18911171  0.58994967  0.50322202  1
  Ti  Ti141  1  0.00518226  0.39572064  0.75218956  1
  Ti  Ti142  1  0.30583919  0.90907003  0.11792915  1
  Ti  Ti143  1  0.60270515  0.59404561  0.52659345  1
  Ti  Ti144  1  0.29884329  0.49815630  0.62060552  1
  Ti  Ti145  1  0.49892217  0.70417810  0.40237684  1
  Ti  Ti146  1  0.68775651  0.28641314  0.39519894  1
  Ti  Ti147  1  0.39487632  0.19611083  0.25262916  1
  Ti  Ti148  1  0.29133591  0.70543158  0.60526763  1
  Ti  Ti149  1  0.60220266  0.39207053  0.74012988  1
  Ti  Ti150  1  0.68220962  0.10791551  0.62697620  1
  Ti  Ti151  1  0.09877636  0.49438538  0.14861868  1
  Ti  Ti152  1  0.91194671  0.90078499  0.60555553  1
  Ti  Ti153  1  0.57451334  0.00128801  0.51918144  1
  Ti  Ti154  1  0.90186811  0.69475394  0.87637862  1
  Ti  Ti155  1  0.41353424  0.60071886  -0.00911386  1
  Ti  Ti156  1  0.59625490  0.40019044  0.27411945  1
  Ti  Ti157  1  0.19517398  0.19723885  0.75466892  1
  Ti  Ti158  1  0.09841126  0.49562980  0.63352886  1
  Ti  Ti159  1  0.29551921  0.10430878  0.10341381  1
  Mo  Mo160  1  0.91207583  0.69955433  0.61395294  1
  Mo  Mo161  1  0.88810686  0.90099043  0.12588435  1
  Mo  Mo162  1  0.01202395  0.59735563  0.51719259  1
  Mo  Mo163  1  0.59178031  0.80443383  0.51470734  1
  Mo  Mo164  1  0.90481790  0.49115399  0.64266563  1
  Mo  Mo165  1  0.81374878  0.00194659  0.48587098  1
  Mo  Mo166  1  0.59883165  0.00459742  0.73426616  1
  Mo  Mo167  1  0.40160594  0.41113908  -0.01008125  1
  Mo  Mo168  1  0.70266565  0.89618849  0.87630723  1
  Mo  Mo169  1  0.00471220  0.20256653  0.23684701  1
  Mo  Mo170  1  0.29841344  0.90217254  0.87775992  1
  Mo  Mo171  1  0.20324391  0.40114979  0.24046681  1
  Mo  Mo172  1  0.90429742  0.09358429  0.36109669  1
  Mo  Mo173  1  0.69714686  0.49287544  0.39971002  1
  Mo  Mo174  1  0.10641754  0.70914575  0.10521464  1
  Mo  Mo175  1  0.60345792  0.20095245  0.75010970  1
  Mo  Mo176  1  0.70452120  0.69662964  0.86275096  1
  Mo  Mo177  1  0.39168716  0.18877821  0.49468324  1
  Mo  Mo178  1  0.00159045  -0.00123116  0.26181980  1
  Mo  Mo179  1  0.40066024  0.19836799  -0.01903174  1
  Mo  Mo180  1  0.08783864  0.51707965  0.35774793  1
  Mo  Mo181  1  0.59077491  0.18890300  0.50287578  1
  Mo  Mo182  1  0.00698677  0.80530677  0.49462791  1
  Mo  Mo183  1  0.39503400  0.39975337  0.74128134  1
  Mo  Mo184  1  0.19075266  0.20768356  0.01917189  1
  Mo  Mo185  1  0.49632187  0.90971332  0.63851453  1
  Mo  Mo186  1  -0.00667674  0.00895976  -0.00961178  1
  Mo  Mo187  1  0.10186941  0.90319712  0.89214488  1
  Mo  Mo188  1  0.00032292  0.40429539  0.25600031  1
  Mo  Mo189  1  0.00126920  0.60304827  0.23722462  1
  Mo  Mo190  1  0.80777583  0.19754166  0.00873677  1
  Mo  Mo191  1  0.39634757  0.00512369  0.24029224  1
  Mo  Mo192  1  0.70087308  0.69175820  0.62051973  1
  Mo  Mo193  1  0.39621517  0.60314878  0.52261725  1
  Mo  Mo194  1  0.19954004  0.00355372  0.00687692  1
  Mo  Mo195  1  0.38948968  0.01253406  0.75201921  1
  Mo  Mo196  1  0.49029308  0.09890562  0.64599024  1
  Mo  Mo197  1  0.89971009  0.29385050  0.86589517  1
  Mo  Mo198  1  0.20332062  0.80426849  0.48797801  1
  Mo  Mo199  1  0.90433565  0.49944118  0.36307536  1
