# generated using pymatgen
data_HfZrTaTiMo
_symmetry_space_group_name_H-M   'P 1'
_cell_length_a   15.82767447
_cell_length_b   15.83176335
_cell_length_c   15.41028242
_cell_angle_alpha   89.98868478
_cell_angle_beta   89.94248071
_cell_angle_gamma   90.05017011
_symmetry_Int_Tables_number   1
_chemical_formula_structural   HfZrTaTiMo
_chemical_formula_sum   'Hf40 Zr40 Ta40 Ti40 Mo40'
_cell_volume   3861.50501596
_cell_formula_units_Z   40
loop_
 _symmetry_equiv_pos_site_id
 _symmetry_equiv_pos_as_xyz
  1  'x, y, z'
loop_
 _atom_site_type_symbol
 _atom_site_label
 _atom_site_symmetry_multiplicity
 _atom_site_fract_x
 _atom_site_fract_y
 _atom_site_fract_z
 _atom_site_occupancy
  Hf  Hf0  1  0.58883114  0.61053298  0.25580323  1
  Hf  Hf1  1  0.60217403  0.20871757  0.50217708  1
  Hf  Hf2  1  0.50609469  0.31204498  0.37429574  1
  Hf  Hf3  1  0.41687764  -0.00993417  0.48463356  1
  Hf  Hf4  1  0.69383689  0.51549448  0.86123304  1
  Hf  Hf5  1  0.40055002  0.00020625  -0.00652212  1
  Hf  Hf6  1  0.80348371  0.20203783  0.48549874  1
  Hf  Hf7  1  0.19716685  0.59342457  0.25681231  1
  Hf  Hf8  1  0.09500455  0.49708524  0.12845831  1
  Hf  Hf9  1  0.81360437  -0.00200984  0.76180269  1
  Hf  Hf10  1  0.59331937  0.21626380  0.01363398  1
  Hf  Hf11  1  -0.01351134  0.60015606  0.73612194  1
  Hf  Hf12  1  0.80032182  0.60594450  0.49090210  1
  Hf  Hf13  1  0.30661816  0.88536176  0.36949612  1
  Hf  Hf14  1  0.59353387  0.61256396  0.49435164  1
  Hf  Hf15  1  0.49302387  0.50647138  0.62946856  1
  Hf  Hf16  1  0.10640814  0.09276246  0.89874491  1
  Hf  Hf17  1  0.09826960  0.90628433  0.11389903  1
  Hf  Hf18  1  0.09900413  0.88842768  0.88602555  1
  Hf  Hf19  1  0.29805628  0.89921823  0.11908241  1
  Hf  Hf20  1  0.50330664  0.30411527  0.86125781  1
  Hf  Hf21  1  0.91296653  0.12519602  0.87709820  1
  Hf  Hf22  1  0.29570700  0.30717710  0.13665256  1
  Hf  Hf23  1  0.18982697  0.18408497  0.74568398  1
  Hf  Hf24  1  0.88846316  0.49823731  0.14322856  1
  Hf  Hf25  1  0.60533914  0.00186716  0.75764052  1
  Hf  Hf26  1  0.09939312  0.90330165  0.61526008  1
  Hf  Hf27  1  0.30345204  0.68407402  0.87161325  1
  Hf  Hf28  1  0.71446882  0.09600680  0.62109205  1
  Hf  Hf29  1  0.40037710  0.79337616  -0.00490267  1
  Hf  Hf30  1  0.09998639  0.89368671  0.39125842  1
  Hf  Hf31  1  0.78192665  0.61374732  0.00724689  1
  Hf  Hf32  1  0.68477150  0.49556721  0.37409961  1
  Hf  Hf33  1  0.09838822  0.49045811  0.85228329  1
  Hf  Hf34  1  0.81554720  0.22080946  0.01442263  1
  Hf  Hf35  1  0.59315792  0.00225336  0.23999048  1
  Hf  Hf36  1  0.88691687  0.70922224  0.87069225  1
  Hf  Hf37  1  -0.01846181  0.79069238  0.50520178  1
  Hf  Hf38  1  0.08370600  0.28523895  0.86571238  1
  Hf  Hf39  1  0.09556369  0.69084168  0.87527713  1
  Zr  Zr40  1  0.10308911  0.69997579  0.39086947  1
  Zr  Zr41  1  0.20272244  0.58757851  0.50390639  1
  Zr  Zr42  1  -0.00357040  0.59569383  0.27041404  1
  Zr  Zr43  1  0.19352460  0.39821917  -0.00307492  1
  Zr  Zr44  1  0.38981406  0.41014191  0.50208601  1
  Zr  Zr45  1  -0.01510083  0.59131342  -0.00600834  1
  Zr  Zr46  1  0.39758531  0.20101033  0.24425087  1
  Zr  Zr47  1  0.29176091  0.29783304  0.86333526  1
  Zr  Zr48  1  0.00169326  0.00071506  0.26725157  1
  Zr  Zr49  1  0.81943579  0.21667702  0.74046942  1
  Zr  Zr50  1  0.19944431  0.00810444  0.25707180  1
  Zr  Zr51  1  0.49245243  0.51143574  0.86614807  1
  Zr  Zr52  1  0.71979191  0.88958471  0.88549452  1
  Zr  Zr53  1  0.60027378  0.79937567  0.23992184  1
  Zr  Zr54  1  0.60737911  0.00186613  0.49279550  1
  Zr  Zr55  1  0.29364752  0.29687980  0.62451118  1
  Zr  Zr56  1  0.39682370  0.40096528  -0.00279693  1
  Zr  Zr57  1  0.19822701  0.79644720  0.74614834  1
  Zr  Zr58  1  0.58170948  0.80778257  0.48503461  1
  Zr  Zr59  1  0.71321265  0.31748656  0.86764201  1
  Zr  Zr60  1  0.30847880  0.09589294  0.62506281  1
  Zr  Zr61  1  0.69997474  0.10546537  0.36028190  1
  Zr  Zr62  1  0.70996714  0.10323681  0.12708200  1
  Zr  Zr63  1  0.71021747  0.10906404  0.88988298  1
  Zr  Zr64  1  0.51408177  0.89038569  0.88377491  1
  Zr  Zr65  1  0.60332099  0.41370682  0.00686083  1
  Zr  Zr66  1  -0.01233128  0.39055342  -0.00260511  1
  Zr  Zr67  1  0.92200659  0.30993655  0.37730798  1
  Zr  Zr68  1  0.21195253  0.00081103  0.49275747  1
  Zr  Zr69  1  0.18920936  0.78860289  0.23507288  1
  Zr  Zr70  1  0.01195400  0.00051120  0.75703878  1
  Zr  Zr71  1  0.82374238  -0.00337832  0.47237049  1
  Zr  Zr72  1  0.40774326  0.79055388  0.23870663  1
  Zr  Zr73  1  0.60762259  -0.00238980  0.00940451  1
  Zr  Zr74  1  0.60579821  0.20147652  0.74279340  1
  Zr  Zr75  1  0.32192477  0.89570087  0.63435426  1
  Zr  Zr76  1  0.39203734  0.61609803  0.50371107  1
  Zr  Zr77  1  0.70682518  0.32279488  0.14305141  1
  Zr  Zr78  1  -0.02830497  -0.01280289  -0.00035088  1
  Zr  Zr79  1  0.79045060  0.79829986  0.48720545  1
  Ta  Ta80  1  0.39851010  0.20466372  0.00607695  1
  Ta  Ta81  1  0.19331178  0.39763565  0.49364925  1
  Ta  Ta82  1  0.80910979  0.20627214  0.25988847  1
  Ta  Ta83  1  0.19802034  0.20206423  0.01346102  1
  Ta  Ta84  1  0.70257000  0.90180249  0.62476465  1
  Ta  Ta85  1  0.30016120  0.09996722  0.88559594  1
  Ta  Ta86  1  0.80301836  0.40708170  0.27774128  1
  Ta  Ta87  1  0.09996883  0.30144558  0.14667136  1
  Ta  Ta88  1  0.40064973  0.00161642  0.24799834  1
  Ta  Ta89  1  0.59776360  0.21370839  0.24388357  1
  Ta  Ta90  1  0.70316535  0.90197689  0.35279674  1
  Ta  Ta91  1  0.80124228  0.79751149  0.73254701  1
  Ta  Ta92  1  0.60286436  0.80025821  0.74497935  1
  Ta  Ta93  1  0.09574580  0.48617910  0.62965101  1
  Ta  Ta94  1  0.89307328  0.49112025  0.61545363  1
  Ta  Ta95  1  0.51222925  0.69035144  0.88390585  1
  Ta  Ta96  1  0.49376819  0.49992346  0.13037129  1
  Ta  Ta97  1  0.91558332  0.09715475  0.61743431  1
  Ta  Ta98  1  0.79344023  0.40010849  0.49462111  1
  Ta  Ta99  1  0.49895539  0.09763128  0.62760328  1
  Ta  Ta100  1  0.29697492  0.29822027  0.37613842  1
  Ta  Ta101  1  0.39350054  0.59806916  0.25207904  1
  Ta  Ta102  1  -0.00517812  0.59122424  0.50249527  1
  Ta  Ta103  1  0.90231622  0.09811746  0.14048260  1
  Ta  Ta104  1  0.29183419  0.50109544  0.85297160  1
  Ta  Ta105  1  0.49613409  0.29873691  0.62865565  1
  Ta  Ta106  1  0.29653690  0.68488471  0.11232214  1
  Ta  Ta107  1  0.49832991  0.10817373  0.36770886  1
  Ta  Ta108  1  0.81295990  0.81325203  0.02977042  1
  Ta  Ta109  1  0.69217799  0.70562887  0.62233690  1
  Ta  Ta110  1  0.00530201  0.20038852  0.02874384  1
  Ta  Ta111  1  0.80489426  0.79513724  0.24989674  1
  Ta  Ta112  1  0.29273634  0.09609428  0.11348402  1
  Ta  Ta113  1  0.62206469  0.78141464  0.02029855  1
  Ta  Ta114  1  0.89907039  0.90577245  0.62452047  1
  Ta  Ta115  1  -0.01580739  0.38202547  0.73751329  1
  Ta  Ta116  1  0.80239200  0.41735198  0.00116751  1
  Ta  Ta117  1  0.39671618  0.40000823  0.74396601  1
  Ta  Ta118  1  0.22051665  0.78660587  0.51801574  1
  Ta  Ta119  1  0.10150358  0.09927300  0.60555307  1
  Ti  Ti120  1  0.01173370  0.19207117  0.25311246  1
  Ti  Ti121  1  -0.00083394  0.79500500  0.24609028  1
  Ti  Ti122  1  0.69470745  0.70234789  0.86259532  1
  Ti  Ti123  1  0.59546424  0.61124917  0.73220885  1
  Ti  Ti124  1  0.39637843  0.40646607  0.25623246  1
  Ti  Ti125  1  0.50575656  0.90406771  0.63653755  1
  Ti  Ti126  1  0.40174138  0.19245393  0.75266470  1
  Ti  Ti127  1  -0.00719131  0.79945476  0.73797941  1
  Ti  Ti128  1  0.10683126  0.29468272  0.37512309  1
  Ti  Ti129  1  0.90821749  0.29637669  0.60327125  1
  Ti  Ti130  1  -0.00492657  0.78734501  0.01658720  1
  Ti  Ti131  1  0.89815865  0.69121470  0.14023670  1
  Ti  Ti132  1  0.21094988  -0.00769456  0.76187931  1
  Ti  Ti133  1  0.09683607  0.29104561  0.61612087  1
  Ti  Ti134  1  0.50211294  0.10898093  0.88038697  1
  Ti  Ti135  1  0.00531368  0.18734660  0.48640905  1
  Ti  Ti136  1  0.19963218  0.79030822  0.00063884  1
  Ti  Ti137  1  0.19573151  0.40542698  0.26995230  1
  Ti  Ti138  1  0.40442931  -0.00091006  0.77087120  1
  Ti  Ti139  1  0.30213628  0.10852384  0.37818353  1
  Ti  Ti140  1  0.90906629  0.30959490  0.15207842  1
  Ti  Ti141  1  0.19658616  0.59250503  0.00057818  1
  Ti  Ti142  1  0.59923283  0.40408683  0.51334201  1
  Ti  Ti143  1  0.19597648  0.19196262  0.24866103  1
  Ti  Ti144  1  0.60619425  0.40890766  0.73253720  1
  Ti  Ti145  1  0.48853304  0.50540153  0.37476033  1
  Ti  Ti146  1  0.69737177  0.51339748  0.14528088  1
  Ti  Ti147  1  0.40409647  0.19930047  0.49804460  1
  Ti  Ti148  1  0.50112235  0.89769148  0.11553462  1
  Ti  Ti149  1  0.49299077  0.10569309  0.12362330  1
  Ti  Ti150  1  0.28761755  0.50360085  0.64889759  1
  Ti  Ti151  1  0.40599970  0.79773738  0.76860960  1
  Ti  Ti152  1  0.30257883  0.69883540  0.37075823  1
  Ti  Ti153  1  0.70782310  0.31222675  0.62535003  1
  Ti  Ti154  1  0.88293971  0.48979390  0.85302928  1
  Ti  Ti155  1  0.10092880  0.69152968  0.62412895  1
  Ti  Ti156  1  0.48660190  0.71719926  0.63225096  1
  Ti  Ti157  1  0.79059116  0.60022900  0.72610735  1
  Ti  Ti158  1  0.49726988  0.68369353  0.10542072  1
  Ti  Ti159  1  0.29883197  0.50001768  0.12851734  1
  Mo  Mo160  1  0.69765768  0.30567074  0.36856982  1
  Mo  Mo161  1  0.30384757  0.69717367  0.64653121  1
  Mo  Mo162  1  0.00462357  0.19582157  0.72924763  1
  Mo  Mo163  1  0.00481710  0.39505902  0.51496769  1
  Mo  Mo164  1  0.90407590  0.88064722  0.86586776  1
  Mo  Mo165  1  0.09723969  0.69400727  0.10771581  1
  Mo  Mo166  1  0.59035413  0.40854254  0.24529149  1
  Mo  Mo167  1  0.50002073  0.90855161  0.35620763  1
  Mo  Mo168  1  0.40067893  0.60617851  0.74052878  1
  Mo  Mo169  1  0.29835457  0.49498614  0.36636322  1
  Mo  Mo170  1  0.20327276  0.20407385  0.49295338  1
  Mo  Mo171  1  0.70863440  0.69437191  0.14118451  1
  Mo  Mo172  1  0.89542907  0.69714979  0.63023904  1
  Mo  Mo173  1  0.39355610  0.59202529  0.00727467  1
  Mo  Mo174  1  0.89974697  0.69995477  0.36342085  1
  Mo  Mo175  1  0.69352082  0.50445686  0.61591079  1
  Mo  Mo176  1  0.59934950  0.60062254  0.01032658  1
  Mo  Mo177  1  0.20433140  -0.00546070  -0.00527295  1
  Mo  Mo178  1  0.79929595  0.40954479  0.72774224  1
  Mo  Mo179  1  0.48551469  0.70527607  0.37265209  1
  Mo  Mo180  1  0.79595294  0.60341055  0.27006110  1
  Mo  Mo181  1  0.10876208  0.10962523  0.38951644  1
  Mo  Mo182  1  0.30142144  0.89748911  0.87185067  1
  Mo  Mo183  1  0.19143221  0.39217437  0.74005309  1
  Mo  Mo184  1  0.00706276  0.40024949  0.25559861  1
  Mo  Mo185  1  0.90748794  0.10719554  0.35948040  1
  Mo  Mo186  1  0.80351087  -0.00283693  0.24703322  1
  Mo  Mo187  1  0.09200788  0.48379772  0.38976950  1
  Mo  Mo188  1  0.00153863  -0.00173862  0.48997191  1
  Mo  Mo189  1  0.10115550  0.09979881  0.11812629  1
  Mo  Mo190  1  0.90157013  0.30950777  0.87619908  1
  Mo  Mo191  1  0.90222451  0.89717350  0.14765569  1
  Mo  Mo192  1  0.69656131  0.70206329  0.36284748  1
  Mo  Mo193  1  0.90311502  0.89099251  0.35947292  1
  Mo  Mo194  1  0.80609477  0.00271006  0.00830195  1
  Mo  Mo195  1  0.49553101  0.30914093  0.13751014  1
  Mo  Mo196  1  0.19135466  0.59822041  0.73838476  1
  Mo  Mo197  1  0.89890272  0.49900406  0.39437921  1
  Mo  Mo198  1  0.40006918  0.79989461  0.49612182  1
  Mo  Mo199  1  0.70820576  0.89974588  0.13217449  1
