# generated using pymatgen
data_HfZrTaTiMo
_symmetry_space_group_name_H-M   'P 1'
_cell_length_a   15.84315682
_cell_length_b   15.83347741
_cell_length_c   15.40045090
_cell_angle_alpha   89.97091875
_cell_angle_beta   89.98035901
_cell_angle_gamma   89.96888515
_symmetry_Int_Tables_number   1
_chemical_formula_structural   HfZrTaTiMo
_chemical_formula_sum   'Hf40 Zr40 Ta40 Ti40 Mo40'
_cell_volume   3863.23670665
_cell_formula_units_Z   40
loop_
 _symmetry_equiv_pos_site_id
 _symmetry_equiv_pos_as_xyz
  1  'x, y, z'
loop_
 _atom_site_type_symbol
 _atom_site_label
 _atom_site_symmetry_multiplicity
 _atom_site_fract_x
 _atom_site_fract_y
 _atom_site_fract_z
 _atom_site_occupancy
  Hf  Hf0  1  0.09291266  0.51315778  0.88663505  1
  Hf  Hf1  1  0.68970736  0.30082854  0.63177402  1
  Hf  Hf2  1  0.49723170  0.10051061  0.88344043  1
  Hf  Hf3  1  0.10588374  0.90301012  0.40259462  1
  Hf  Hf4  1  0.60368982  0.59583928  0.77070726  1
  Hf  Hf5  1  0.50078611  0.90415285  0.60819140  1
  Hf  Hf6  1  0.20567080  0.19561057  0.74839420  1
  Hf  Hf7  1  0.78994332  0.40710319  -0.01021123  1
  Hf  Hf8  1  0.10231852  0.49838995  0.10227091  1
  Hf  Hf9  1  0.00746511  0.39770383  0.24361284  1
  Hf  Hf10  1  0.60570776  0.59623862  0.00177331  1
  Hf  Hf11  1  0.60242942  0.79712664  0.75899403  1
  Hf  Hf12  1  0.50622119  0.68830260  0.61478830  1
  Hf  Hf13  1  0.00229849  -0.00303393  0.25596041  1
  Hf  Hf14  1  0.26372332  0.10389532  0.10956528  1
  Hf  Hf15  1  0.40044395  0.00597609  0.75119461  1
  Hf  Hf16  1  0.10759174  0.31222157  0.62269153  1
  Hf  Hf17  1  0.11303447  0.29081514  0.11057097  1
  Hf  Hf18  1  0.91412599  0.30105997  0.37998417  1
  Hf  Hf19  1  -0.00385449  0.59626603  0.24282543  1
  Hf  Hf20  1  0.39110658  -0.00447393  0.25186260  1
  Hf  Hf21  1  0.59078187  0.19553237  0.74482503  1
  Hf  Hf22  1  0.59759525  -0.00297300  0.26481953  1
  Hf  Hf23  1  0.30358919  0.09986416  0.60896909  1
  Hf  Hf24  1  0.47420960  0.29392788  0.36703391  1
  Hf  Hf25  1  0.89294378  0.30359065  0.63044551  1
  Hf  Hf26  1  0.39658266  0.19763526  0.00772754  1
  Hf  Hf27  1  0.01341792  0.79380836  0.25881031  1
  Hf  Hf28  1  0.49903253  0.10040494  0.13166688  1
  Hf  Hf29  1  0.39663681  0.79742412  0.73611594  1
  Hf  Hf30  1  0.19820863  0.01891696  0.26601935  1
  Hf  Hf31  1  0.90461695  0.67754070  0.38877783  1
  Hf  Hf32  1  0.89987316  0.89830257  0.61682241  1
  Hf  Hf33  1  0.60537808  -0.00241365  0.75356147  1
  Hf  Hf34  1  0.70354979  0.30325547  0.14178366  1
  Hf  Hf35  1  0.89976082  0.09127354  0.12532298  1
  Hf  Hf36  1  0.37975977  0.58730316  0.49234172  1
  Hf  Hf37  1  0.90043536  0.09252905  0.86688319  1
  Hf  Hf38  1  0.91138332  0.09704740  0.39010114  1
  Hf  Hf39  1  0.09436779  0.50762278  0.39336404  1
  Zr  Zr40  1  0.40297214  0.61350829  0.01824202  1
  Zr  Zr41  1  0.40786427  0.80939791  0.02576732  1
  Zr  Zr42  1  -0.01736590  0.39661513  -0.00103650  1
  Zr  Zr43  1  0.20572638  0.81048089  0.24690799  1
  Zr  Zr44  1  0.49471972  0.69875428  0.37250319  1
  Zr  Zr45  1  0.71164354  0.89992489  0.12893195  1
  Zr  Zr46  1  0.70157075  0.90113798  0.61085537  1
  Zr  Zr47  1  0.70268362  0.10103022  0.13199909  1
  Zr  Zr48  1  0.49454189  0.30975692  0.88824528  1
  Zr  Zr49  1  0.90285979  0.69958331  0.11279940  1
  Zr  Zr50  1  0.49962387  0.10294449  0.60606604  1
  Zr  Zr51  1  0.29181944  0.49703161  0.11717183  1
  Zr  Zr52  1  0.70214507  0.70032128  0.61049261  1
  Zr  Zr53  1  0.59298982  -0.01001765  0.00303293  1
  Zr  Zr54  1  0.80271150  0.59813200  0.76394542  1
  Zr  Zr55  1  0.10383970  0.11224229  0.39952185  1
  Zr  Zr56  1  0.59877591  0.60041032  0.24822930  1
  Zr  Zr57  1  0.71971693  0.50765205  0.36438880  1
  Zr  Zr58  1  0.80493728  0.80074764  0.76480020  1
  Zr  Zr59  1  0.69149760  0.29940758  0.86270976  1
  Zr  Zr60  1  0.79977585  0.39761368  0.49874431  1
  Zr  Zr61  1  0.30089957  0.50032706  0.88895750  1
  Zr  Zr62  1  0.21307419  0.80826127  0.01226524  1
  Zr  Zr63  1  0.10009565  0.30184540  0.87443490  1
  Zr  Zr64  1  0.10790765  0.70801915  0.87328308  1
  Zr  Zr65  1  0.50242345  0.30144371  0.13657229  1
  Zr  Zr66  1  0.40794160  0.59341433  0.75184505  1
  Zr  Zr67  1  0.22162513  0.40930720  0.49125884  1
  Zr  Zr68  1  0.20204498  0.60740712  0.73856896  1
  Zr  Zr69  1  0.01163421  0.78481356  0.51259039  1
  Zr  Zr70  1  0.39303218  0.79371407  0.49936473  1
  Zr  Zr71  1  0.60361057  0.20240172  0.48264945  1
  Zr  Zr72  1  0.69516410  0.50242598  0.62275856  1
  Zr  Zr73  1  0.00492552  0.19022831  0.73578244  1
  Zr  Zr74  1  0.81148862  0.79311316  0.25976722  1
  Zr  Zr75  1  0.18995937  0.60598363  0.24998320  1
  Zr  Zr76  1  0.89666477  0.29705011  0.85541520  1
  Zr  Zr77  1  0.79938646  0.20112453  -0.00271585  1
  Zr  Zr78  1  0.59525962  0.39694625  0.47884916  1
  Zr  Zr79  1  0.10408717  0.92141620  0.11461671  1
  Ta  Ta80  1  0.29168417  0.30529698  0.11090986  1
  Ta  Ta81  1  0.91381021  0.69388721  0.88064194  1
  Ta  Ta82  1  0.00256255  -0.00654722  0.74039521  1
  Ta  Ta83  1  0.60070699  0.79304024  0.01140905  1
  Ta  Ta84  1  0.59721269  0.59408294  0.48150172  1
  Ta  Ta85  1  0.79565079  0.19884568  0.49394178  1
  Ta  Ta86  1  -0.00149521  0.19248201  0.00301533  1
  Ta  Ta87  1  0.40064247  0.80265656  0.24326573  1
  Ta  Ta88  1  -0.00074916  0.60162600  0.73385616  1
  Ta  Ta89  1  -0.00085733  0.20456385  0.51907526  1
  Ta  Ta90  1  0.29783349  0.89954403  0.86533163  1
  Ta  Ta91  1  -0.00237160  0.81127882  -0.01076226  1
  Ta  Ta92  1  0.01203634  0.19554734  0.24110709  1
  Ta  Ta93  1  0.10251110  0.90255197  0.86438049  1
  Ta  Ta94  1  0.30411394  0.49033033  0.63332421  1
  Ta  Ta95  1  0.39927364  0.21112015  0.74249953  1
  Ta  Ta96  1  0.78956650  0.18192813  0.73845558  1
  Ta  Ta97  1  0.30476451  0.11511299  0.39310705  1
  Ta  Ta98  1  0.90349774  0.89871113  0.12237582  1
  Ta  Ta99  1  0.29308077  0.90721246  0.61766863  1
  Ta  Ta100  1  0.49641392  0.48893905  0.61191102  1
  Ta  Ta101  1  0.10152665  0.09401517  0.88190882  1
  Ta  Ta102  1  0.20193186  0.40549369  0.75517773  1
  Ta  Ta103  1  0.30380189  0.30469047  0.87936806  1
  Ta  Ta104  1  0.80550890  -0.00236310  0.26797666  1
  Ta  Ta105  1  0.37143124  0.19687651  0.23954314  1
  Ta  Ta106  1  0.50181795  0.49413250  0.13214344  1
  Ta  Ta107  1  0.39181043  0.60435702  0.24426848  1
  Ta  Ta108  1  0.30471392  0.70851559  0.87348566  1
  Ta  Ta109  1  0.80224582  0.79897266  -0.01303314  1
  Ta  Ta110  1  0.79782858  0.59524738  -0.01675172  1
  Ta  Ta111  1  0.80747810  0.19650956  0.26641921  1
  Ta  Ta112  1  0.89155294  0.09240287  0.61541867  1
  Ta  Ta113  1  0.70408358  0.89085448  0.37391592  1
  Ta  Ta114  1  0.59867320  -0.00126596  0.47336163  1
  Ta  Ta115  1  0.70876650  0.69483529  0.12337411  1
  Ta  Ta116  1  -0.00118921  0.41909428  0.73977758  1
  Ta  Ta117  1  0.59693487  0.80106754  0.24326811  1
  Ta  Ta118  1  0.49763700  0.70647078  0.88216328  1
  Ta  Ta119  1  0.38669207  -0.00720605  0.00920453  1
  Ti  Ti120  1  0.89566857  0.69183545  0.62071999  1
  Ti  Ti121  1  0.10550521  0.08571309  0.60885367  1
  Ti  Ti122  1  0.10105893  0.69739623  0.10317915  1
  Ti  Ti123  1  0.90766985  0.89719586  0.39063012  1
  Ti  Ti124  1  0.79844012  0.41310530  0.75485006  1
  Ti  Ti125  1  0.89890245  0.29390710  0.13193661  1
  Ti  Ti126  1  0.69896806  0.89796109  0.88326820  1
  Ti  Ti127  1  0.80140359  0.79356720  0.49027391  1
  Ti  Ti128  1  0.49370705  0.49438812  0.89228334  1
  Ti  Ti129  1  0.19742240  -0.00045080  0.74807587  1
  Ti  Ti130  1  0.00480715  0.79987233  0.74417675  1
  Ti  Ti131  1  0.70028024  0.09586776  0.88007354  1
  Ti  Ti132  1  0.49181599  0.89554916  0.87690138  1
  Ti  Ti133  1  0.89267135  0.50379802  0.11873185  1
  Ti  Ti134  1  0.80836522  -0.01138365  -0.01057087  1
  Ti  Ti135  1  0.19077307  0.61128923  0.51632511  1
  Ti  Ti136  1  0.10127366  0.30193926  0.38685705  1
  Ti  Ti137  1  0.79823696  -0.00510179  0.75134508  1
  Ti  Ti138  1  0.81494555  0.40259931  0.25300188  1
  Ti  Ti139  1  0.70632136  0.69514643  0.37142976  1
  Ti  Ti140  1  0.29765974  0.09887242  0.87919461  1
  Ti  Ti141  1  0.19983296  0.39315454  0.26078390  1
  Ti  Ti142  1  0.48315221  0.49455216  0.36726517  1
  Ti  Ti143  1  0.21182931  0.21577509  0.50723960  1
  Ti  Ti144  1  0.60145816  0.39861006  0.26351073  1
  Ti  Ti145  1  0.90939583  0.49623873  0.39390030  1
  Ti  Ti146  1  0.69901029  0.09275288  0.61107107  1
  Ti  Ti147  1  -0.00248841  -0.00294717  -0.01029445  1
  Ti  Ti148  1  0.60622944  0.19718606  0.27018016  1
  Ti  Ti149  1  0.79383115  -0.00084238  0.48496408  1
  Ti  Ti150  1  0.20227241  0.79035433  0.52130633  1
  Ti  Ti151  1  0.59969144  0.79978895  0.48028160  1
  Ti  Ti152  1  0.30215914  0.90551912  0.39291978  1
  Ti  Ti153  1  0.70739169  0.50072250  0.13758012  1
  Ti  Ti154  1  0.38564165  0.40139377  0.24529324  1
  Ti  Ti155  1  0.60268490  0.40377488  0.00796610  1
  Ti  Ti156  1  0.48406128  0.10268390  0.37734537  1
  Ti  Ti157  1  0.60501340  0.20223741  0.00333662  1
  Ti  Ti158  1  0.28490210  0.69973885  0.37271863  1
  Ti  Ti159  1  0.57986210  0.40379595  0.74952730  1
  Mo  Mo160  1  0.39777552  0.39717228  0.49840262  1
  Mo  Mo161  1  0.10686147  0.90229734  0.63304532  1
  Mo  Mo162  1  0.29730231  0.70364780  0.14029566  1
  Mo  Mo163  1  0.40439822  0.40097847  0.01956041  1
  Mo  Mo164  1  0.10457923  0.69762019  0.38958831  1
  Mo  Mo165  1  0.09962144  0.70420841  0.64135643  1
  Mo  Mo166  1  0.20496514  -0.00019692  0.49835459  1
  Mo  Mo167  1  -0.00413862  0.60540934  0.00539196  1
  Mo  Mo168  1  -0.00126053  -0.00164219  0.51881647  1
  Mo  Mo169  1  0.80685549  0.59344881  0.24010139  1
  Mo  Mo170  1  0.69077575  0.49239683  0.87178702  1
  Mo  Mo171  1  0.20366681  0.81026964  0.73880549  1
  Mo  Mo172  1  0.70671098  0.09663601  0.37418949  1
  Mo  Mo173  1  0.00480817  0.39913783  0.51441098  1
  Mo  Mo174  1  0.20111137  -0.00278176  -0.02415677  1
  Mo  Mo175  1  0.19298716  0.20976123  0.25869376  1
  Mo  Mo176  1  0.20359420  0.61413117  0.00014345  1
  Mo  Mo177  1  0.80021362  0.60322340  0.50587628  1
  Mo  Mo178  1  0.10330459  0.50091977  0.61858371  1
  Mo  Mo179  1  0.40205214  0.00034729  0.48359736  1
  Mo  Mo180  1  0.19966350  0.19964854  -0.02650379  1
  Mo  Mo181  1  0.40151045  0.39797540  0.74611677  1
  Mo  Mo182  1  0.90089995  0.50380712  0.86969885  1
  Mo  Mo183  1  0.50737806  0.69843038  0.13750437  1
  Mo  Mo184  1  0.09054390  0.10250716  0.10761774  1
  Mo  Mo185  1  0.30068496  0.91280993  0.13387450  1
  Mo  Mo186  1  0.90658375  0.89820374  0.86621268  1
  Mo  Mo187  1  0.30049596  0.50065700  0.35511788  1
  Mo  Mo188  1  0.20063217  0.39936337  -0.01869866  1
  Mo  Mo189  1  0.00183751  0.59284926  0.52572751  1
  Mo  Mo190  1  0.69808138  0.70402167  0.89338808  1
  Mo  Mo191  1  0.89948801  0.50228587  0.62023204  1
  Mo  Mo192  1  0.39590596  0.21420321  0.50917853  1
  Mo  Mo193  1  0.50319142  0.90268955  0.13634835  1
  Mo  Mo194  1  0.70842419  0.30056936  0.35426419  1
  Mo  Mo195  1  0.30256362  0.30556478  0.64202495  1
  Mo  Mo196  1  0.49917327  0.89538920  0.37380940  1
  Mo  Mo197  1  0.30122150  0.69758372  0.62874663  1
  Mo  Mo198  1  0.29212302  0.29735541  0.36110114  1
  Mo  Mo199  1  0.49161571  0.30742080  0.61698431  1
