# generated using pymatgen
data_HfZrTaTiMo
_symmetry_space_group_name_H-M   'P 1'
_cell_length_a   15.83800156
_cell_length_b   15.84954325
_cell_length_c   15.40701717
_cell_angle_alpha   89.98753332
_cell_angle_beta   89.98759903
_cell_angle_gamma   90.01679371
_symmetry_Int_Tables_number   1
_chemical_formula_structural   HfZrTaTiMo
_chemical_formula_sum   'Hf40 Zr40 Ta40 Ti40 Mo40'
_cell_volume   3867.54753179
_cell_formula_units_Z   40
loop_
 _symmetry_equiv_pos_site_id
 _symmetry_equiv_pos_as_xyz
  1  'x, y, z'
loop_
 _atom_site_type_symbol
 _atom_site_label
 _atom_site_symmetry_multiplicity
 _atom_site_fract_x
 _atom_site_fract_y
 _atom_site_fract_z
 _atom_site_occupancy
  Hf  Hf0  1  0.09459677  0.89263969  0.87587531  1
  Hf  Hf1  1  0.40874550  0.79951759  -0.02012326  1
  Hf  Hf2  1  0.58644764  0.80425849  0.76174593  1
  Hf  Hf3  1  0.30148778  0.48649275  0.64078798  1
  Hf  Hf4  1  0.81103281  0.39273597  0.76285357  1
  Hf  Hf5  1  0.70293974  0.70082254  0.86410776  1
  Hf  Hf6  1  0.01026784  0.41985060  0.48485915  1
  Hf  Hf7  1  0.29924587  0.48983770  0.11382647  1
  Hf  Hf8  1  0.69402948  0.30227963  0.11989291  1
  Hf  Hf9  1  0.48789732  0.30395348  0.12690593  1
  Hf  Hf10  1  0.00789150  0.40635066  0.00004486  1
  Hf  Hf11  1  0.90323715  0.10199354  0.87308973  1
  Hf  Hf12  1  0.19857264  0.59104550  0.51608985  1
  Hf  Hf13  1  0.89883362  0.69199197  0.35709589  1
  Hf  Hf14  1  0.89398927  0.30798490  0.12819157  1
  Hf  Hf15  1  0.00651352  0.20342506  0.00919999  1
  Hf  Hf16  1  -0.00179348  0.78596985  0.50377122  1
  Hf  Hf17  1  0.80451402  0.20024830  0.00259549  1
  Hf  Hf18  1  0.21645770  0.21329914  0.75731277  1
  Hf  Hf19  1  0.20881168  0.79965325  0.25346747  1
  Hf  Hf20  1  0.30211107  0.69995616  0.10714146  1
  Hf  Hf21  1  0.90188061  0.89535740  0.12167283  1
  Hf  Hf22  1  0.59267459  0.41204600  0.24465797  1
  Hf  Hf23  1  0.59810478  0.79541501  -0.00616544  1
  Hf  Hf24  1  0.10119486  0.10641862  0.87407831  1
  Hf  Hf25  1  0.58721913  0.19728502  -0.00752088  1
  Hf  Hf26  1  0.79714235  0.19597699  0.50603571  1
  Hf  Hf27  1  0.89982815  0.50738912  0.12565758  1
  Hf  Hf28  1  0.10840583  0.11001549  0.62373405  1
  Hf  Hf29  1  0.49079364  0.09826164  0.12511259  1
  Hf  Hf30  1  0.59591279  0.40482116  0.75688242  1
  Hf  Hf31  1  0.69946980  0.09711814  0.87309434  1
  Hf  Hf32  1  0.79828928  0.40616939  0.26061551  1
  Hf  Hf33  1  0.78928585  0.78406733  0.51998451  1
  Hf  Hf34  1  0.89375572  0.09912556  0.36315486  1
  Hf  Hf35  1  0.59178735  -0.00294381  0.24649741  1
  Hf  Hf36  1  0.11324004  0.09709527  0.13033625  1
  Hf  Hf37  1  0.58446741  0.00725329  0.75379226  1
  Hf  Hf38  1  0.50407835  0.30193611  0.37150130  1
  Hf  Hf39  1  0.79078093  -0.00630564  0.24468386  1
  Zr  Zr40  1  0.69920258  0.50968028  0.38317822  1
  Zr  Zr41  1  0.30238614  0.90407424  0.11668964  1
  Zr  Zr42  1  0.11050184  0.32137112  0.62259054  1
  Zr  Zr43  1  0.90311764  0.31036493  0.60852454  1
  Zr  Zr44  1  0.20845718  0.00225680  0.74929401  1
  Zr  Zr45  1  0.00200895  0.20414083  0.25477656  1
  Zr  Zr46  1  0.89037035  0.89047006  0.37370476  1
  Zr  Zr47  1  0.70385384  0.30104190  0.88002141  1
  Zr  Zr48  1  0.00927344  0.58845872  0.76841716  1
  Zr  Zr49  1  0.90263166  0.69634696  0.65118553  1
  Zr  Zr50  1  0.60182707  0.79314584  0.23024207  1
  Zr  Zr51  1  0.59105112  0.40115438  0.51098546  1
  Zr  Zr52  1  0.68046006  0.89064609  0.62124305  1
  Zr  Zr53  1  -0.00238669  0.00649419  0.50409789  1
  Zr  Zr54  1  0.00734714  0.79974237  0.25064715  1
  Zr  Zr55  1  0.80546317  0.19725980  0.73639450  1
  Zr  Zr56  1  0.39881122  -0.00079679  0.75328547  1
  Zr  Zr57  1  0.71332921  0.49134399  0.62205891  1
  Zr  Zr58  1  -0.00218665  0.60522629  -0.00996359  1
  Zr  Zr59  1  0.69437555  0.70204398  0.37249874  1
  Zr  Zr60  1  0.10973653  0.89783626  0.11129889  1
  Zr  Zr61  1  0.70138417  0.29561950  0.38106160  1
  Zr  Zr62  1  0.11007498  0.89102301  0.62193100  1
  Zr  Zr63  1  0.49959335  0.89106542  0.39047969  1
  Zr  Zr64  1  0.69095152  0.89557737  0.38713462  1
  Zr  Zr65  1  0.79745088  0.00389178  0.51400206  1
  Zr  Zr66  1  0.89672058  0.89147220  0.87405191  1
  Zr  Zr67  1  0.29936905  0.10365644  0.12263558  1
  Zr  Zr68  1  0.00727517  0.20249391  0.48575303  1
  Zr  Zr69  1  0.79409729  -0.00525664  0.73685318  1
  Zr  Zr70  1  0.31511874  0.49948621  0.88878440  1
  Zr  Zr71  1  0.39124404  0.00656209  0.50573451  1
  Zr  Zr72  1  0.30345369  0.68859268  0.37627658  1
  Zr  Zr73  1  -0.00359257  0.00584166  0.73592215  1
  Zr  Zr74  1  0.11207521  0.90435377  0.38958113  1
  Zr  Zr75  1  0.12008417  0.30863359  0.13452407  1
  Zr  Zr76  1  0.81631522  0.59368103  0.50818940  1
  Zr  Zr77  1  0.69548943  0.50212724  0.10790910  1
  Zr  Zr78  1  0.49635193  0.51630791  0.37888713  1
  Zr  Zr79  1  0.21235601  0.20259007  0.48546632  1
  Ta  Ta80  1  0.58987214  0.19495493  0.51224844  1
  Ta  Ta81  1  0.89645015  0.70148774  0.12560567  1
  Ta  Ta82  1  0.79861112  0.00082466  0.00489366  1
  Ta  Ta83  1  0.91758508  0.49236264  0.63692181  1
  Ta  Ta84  1  0.89911605  0.09661097  0.13226427  1
  Ta  Ta85  1  0.50128749  0.69893970  0.37955184  1
  Ta  Ta86  1  0.69575606  0.09732800  0.12040813  1
  Ta  Ta87  1  0.20597445  0.00386291  -0.01829319  1
  Ta  Ta88  1  0.38814035  0.40457056  0.26005883  1
  Ta  Ta89  1  0.38896155  0.40086163  0.49348776  1
  Ta  Ta90  1  0.10908909  0.31375363  0.36388851  1
  Ta  Ta91  1  0.40150298  0.20621813  0.48984463  1
  Ta  Ta92  1  0.09970884  0.70339830  0.11003382  1
  Ta  Ta93  1  0.30052392  0.70224196  0.64603237  1
  Ta  Ta94  1  0.40546703  0.79759472  0.24898134  1
  Ta  Ta95  1  0.40524617  0.19741508  0.76619630  1
  Ta  Ta96  1  0.19730501  0.40400267  0.76880525  1
  Ta  Ta97  1  0.19876518  0.59974588  0.23130806  1
  Ta  Ta98  1  0.11024407  0.51088677  0.35698963  1
  Ta  Ta99  1  0.79861865  0.58809024  0.76336796  1
  Ta  Ta100  1  0.69932128  0.89732746  0.11208602  1
  Ta  Ta101  1  0.39136505  -0.00468628  0.26363599  1
  Ta  Ta102  1  0.49323433  0.70000999  0.64233910  1
  Ta  Ta103  1  0.58751050  0.59983959  -0.02395091  1
  Ta  Ta104  1  0.40386248  0.00385490  -0.02218374  1
  Ta  Ta105  1  0.39728008  0.19881395  0.26606158  1
  Ta  Ta106  1  0.29903523  0.69967943  0.87079072  1
  Ta  Ta107  1  -0.00192577  0.00358482  0.00642812  1
  Ta  Ta108  1  0.39315696  0.20347946  -0.01982183  1
  Ta  Ta109  1  0.10080933  0.69045279  0.37339409  1
  Ta  Ta110  1  0.79745770  0.60031737  -0.01320038  1
  Ta  Ta111  1  0.19326253  0.59572098  -0.00584262  1
  Ta  Ta112  1  0.21074446  0.19905749  0.26789027  1
  Ta  Ta113  1  0.20156432  0.59612362  0.75918056  1
  Ta  Ta114  1  0.00908437  0.00046351  0.25078629  1
  Ta  Ta115  1  0.59842203  0.61433300  0.52592469  1
  Ta  Ta116  1  0.59595732  -0.00507421  -0.00544764  1
  Ta  Ta117  1  0.00667981  0.41226269  0.24885376  1
  Ta  Ta118  1  0.58776191  0.40498989  -0.01535531  1
  Ta  Ta119  1  0.39985395  0.59760119  0.51819204  1
  Ti  Ti120  1  0.49520469  0.69210011  0.11782473  1
  Ti  Ti121  1  0.01144297  0.59958786  0.51264457  1
  Ti  Ti122  1  0.40787193  0.59617202  0.75831575  1
  Ti  Ti123  1  0.79886184  0.79210967  0.00576177  1
  Ti  Ti124  1  0.90955169  0.51134327  0.36212036  1
  Ti  Ti125  1  0.48696239  0.50384251  0.10889874  1
  Ti  Ti126  1  0.90103343  0.88910109  0.63356791  1
  Ti  Ti127  1  0.48588806  0.89212263  0.62110011  1
  Ti  Ti128  1  0.59979027  0.19491245  0.24825121  1
  Ti  Ti129  1  0.90165771  0.71184004  0.86683184  1
  Ti  Ti130  1  0.20064128  0.39368097  -0.01120286  1
  Ti  Ti131  1  0.09676419  0.30193585  0.87493402  1
  Ti  Ti132  1  0.10640590  0.70063033  0.64395266  1
  Ti  Ti133  1  0.20975054  0.40650159  0.48594552  1
  Ti  Ti134  1  0.30254921  0.29690254  0.11940222  1
  Ti  Ti135  1  0.10332185  0.71069669  0.87658986  1
  Ti  Ti136  1  0.59444986  0.60416775  0.23448346  1
  Ti  Ti137  1  0.90121019  0.30849059  0.37550487  1
  Ti  Ti138  1  0.20545080  0.78649368  0.50163513  1
  Ti  Ti139  1  0.68683079  0.10441374  0.63002470  1
  Ti  Ti140  1  0.49250896  0.90111479  0.11936158  1
  Ti  Ti141  1  -0.00207223  0.21539611  0.74669146  1
  Ti  Ti142  1  0.30950012  0.11690434  0.62275252  1
  Ti  Ti143  1  0.39656513  0.38308493  0.76625566  1
  Ti  Ti144  1  0.79063617  0.19763881  0.24663941  1
  Ti  Ti145  1  0.50005551  0.09847465  0.37585965  1
  Ti  Ti146  1  0.78496364  0.61117688  0.23262409  1
  Ti  Ti147  1  0.29583076  0.88903000  0.62426035  1
  Ti  Ti148  1  0.69543448  0.30078210  0.62380340  1
  Ti  Ti149  1  0.49538035  0.49924427  0.63460453  1
  Ti  Ti150  1  0.39829858  0.59999874  0.24383993  1
  Ti  Ti151  1  0.68852580  0.09874037  0.37842946  1
  Ti  Ti152  1  0.70466028  0.89921059  0.87821791  1
  Ti  Ti153  1  0.58767446  0.20569799  0.74713826  1
  Ti  Ti154  1  0.30057333  0.89797515  0.38577056  1
  Ti  Ti155  1  0.48086680  0.29800520  0.62722639  1
  Ti  Ti156  1  0.58737388  0.00893348  0.51259338  1
  Ti  Ti157  1  0.89912873  0.48883050  0.88141438  1
  Ti  Ti158  1  0.39822702  0.78590607  0.50714207  1
  Ti  Ti159  1  0.29436694  0.89149757  0.87090691  1
  Mo  Mo160  1  0.69829841  0.69395359  0.10366989  1
  Mo  Mo161  1  0.30432484  0.09429104  0.37253120  1
  Mo  Mo162  1  0.20122770  0.79557817  -0.01748048  1
  Mo  Mo163  1  0.69582681  0.69066175  0.65168484  1
  Mo  Mo164  1  0.20179617  0.20448078  -0.00929680  1
  Mo  Mo165  1  0.20892910  0.40444864  0.25568410  1
  Mo  Mo166  1  0.29588002  0.30167285  0.88858608  1
  Mo  Mo167  1  0.20813627  -0.00068343  0.50525600  1
  Mo  Mo168  1  0.50279354  0.10278837  0.87708036  1
  Mo  Mo169  1  0.49420499  0.69330762  0.85874418  1
  Mo  Mo170  1  0.10712375  0.49849698  0.87654283  1
  Mo  Mo171  1  0.00360367  0.79739106  0.74545053  1
  Mo  Mo172  1  0.80104708  0.40316535  -0.01129101  1
  Mo  Mo173  1  0.40584835  0.39332948  -0.00362869  1
  Mo  Mo174  1  0.58442047  0.78853452  0.52021406  1
  Mo  Mo175  1  0.49535619  0.11128284  0.62462361  1
  Mo  Mo176  1  0.59868732  0.59577438  0.74635369  1
  Mo  Mo177  1  0.50068883  0.90146067  0.87923196  1
  Mo  Mo178  1  0.30423745  0.30465708  0.37214724  1
  Mo  Mo179  1  0.20186517  0.79412744  0.75762457  1
  Mo  Mo180  1  0.00385431  0.39297585  0.76808517  1
  Mo  Mo181  1  0.20452078  0.00171148  0.26859290  1
  Mo  Mo182  1  0.29795297  0.10088778  0.88065567  1
  Mo  Mo183  1  0.10593266  0.09853213  0.36390784  1
  Mo  Mo184  1  0.91211772  0.29924825  0.88230829  1
  Mo  Mo185  1  0.79371512  0.79357441  0.22757871  1
  Mo  Mo186  1  0.31032848  0.30389658  0.62321310  1
  Mo  Mo187  1  0.79439325  0.79575384  0.74600123  1
  Mo  Mo188  1  0.10401751  0.50528050  0.13147118  1
  Mo  Mo189  1  0.00683083  0.60345602  0.23522661  1
  Mo  Mo190  1  -0.00368684  0.79630099  0.00207463  1
  Mo  Mo191  1  0.10433106  0.50029630  0.63867327  1
  Mo  Mo192  1  0.50103926  0.50027316  0.86489061  1
  Mo  Mo193  1  0.40601186  0.60115780  -0.00346810  1
  Mo  Mo194  1  0.81211451  0.40381809  0.48016945  1
  Mo  Mo195  1  0.70268169  0.50049124  0.88107258  1
  Mo  Mo196  1  0.29885245  0.50556140  0.37074204  1
  Mo  Mo197  1  0.39395972  0.80191104  0.75489938  1
  Mo  Mo198  1  0.90372660  0.10518457  0.63155250  1
  Mo  Mo199  1  0.49662322  0.30214830  0.87126452  1
