# generated using pymatgen
data_HfZrTaTiMo
_symmetry_space_group_name_H-M   'P 1'
_cell_length_a   15.83709245
_cell_length_b   15.83903909
_cell_length_c   15.37150728
_cell_angle_alpha   90.00664140
_cell_angle_beta   90.01585525
_cell_angle_gamma   89.96514473
_symmetry_Int_Tables_number   1
_chemical_formula_structural   HfZrTaTiMo
_chemical_formula_sum   'Hf40 Zr40 Ta40 Ti40 Mo40'
_cell_volume   3855.85450213
_cell_formula_units_Z   40
loop_
 _symmetry_equiv_pos_site_id
 _symmetry_equiv_pos_as_xyz
  1  'x, y, z'
loop_
 _atom_site_type_symbol
 _atom_site_label
 _atom_site_symmetry_multiplicity
 _atom_site_fract_x
 _atom_site_fract_y
 _atom_site_fract_z
 _atom_site_occupancy
  Hf  Hf0  1  -0.00585003  0.20622642  0.50250418  1
  Hf  Hf1  1  0.00032844  -0.00106125  0.50352749  1
  Hf  Hf2  1  0.79976018  0.00124246  0.51156851  1
  Hf  Hf3  1  0.38975179  0.60667846  0.25225928  1
  Hf  Hf4  1  0.49102210  0.70446426  0.61736129  1
  Hf  Hf5  1  0.29653804  0.29153894  0.11730369  1
  Hf  Hf6  1  0.20410131  0.20003469  0.25697083  1
  Hf  Hf7  1  0.69499691  0.49324442  0.85729769  1
  Hf  Hf8  1  0.50058991  0.30068143  0.60664595  1
  Hf  Hf9  1  0.39827966  0.79692964  0.25429568  1
  Hf  Hf10  1  0.41733094  0.19760342  -0.01453302  1
  Hf  Hf11  1  0.50458563  0.29675390  0.14918282  1
  Hf  Hf12  1  0.89422642  0.89791740  0.36710485  1
  Hf  Hf13  1  0.39290045  -0.00146242  0.26514307  1
  Hf  Hf14  1  0.41359072  0.39962038  0.00699748  1
  Hf  Hf15  1  0.90959007  0.50231229  0.62398088  1
  Hf  Hf16  1  0.60070067  0.19565704  0.74892166  1
  Hf  Hf17  1  0.28454302  0.89551312  0.87013654  1
  Hf  Hf18  1  0.30589527  0.09813516  0.61738386  1
  Hf  Hf19  1  0.20615719  0.78754852  0.23612652  1
  Hf  Hf20  1  0.19375501  0.80292527  0.51461613  1
  Hf  Hf21  1  0.90478089  0.31095056  0.13197473  1
  Hf  Hf22  1  0.80379750  0.20069513  0.74872737  1
  Hf  Hf23  1  0.29092827  0.68369461  0.86636772  1
  Hf  Hf24  1  0.81345016  0.61346441  0.25880261  1
  Hf  Hf25  1  0.70739866  0.70343372  0.62865825  1
  Hf  Hf26  1  0.18292489  0.77867504  -0.00156690  1
  Hf  Hf27  1  0.79370870  0.00688193  0.23196814  1
  Hf  Hf28  1  0.10528664  0.30594106  0.87944685  1
  Hf  Hf29  1  0.71070130  0.28327156  0.38891261  1
  Hf  Hf30  1  0.61302018  0.40510342  0.01565627  1
  Hf  Hf31  1  0.00017052  0.79514864  0.76743482  1
  Hf  Hf32  1  0.61326310  -0.00661903  0.23522511  1
  Hf  Hf33  1  0.09351173  0.89468758  0.35865396  1
  Hf  Hf34  1  0.88626205  0.10784260  0.37732766  1
  Hf  Hf35  1  0.28841472  0.50074610  0.38918871  1
  Hf  Hf36  1  0.29562058  0.49839734  0.11896231  1
  Hf  Hf37  1  0.70797110  0.50458698  0.38466181  1
  Hf  Hf38  1  0.10425369  0.10412773  0.11065405  1
  Hf  Hf39  1  0.70688499  0.30190379  0.61750729  1
  Zr  Zr40  1  0.50586229  0.50277354  0.14444057  1
  Zr  Zr41  1  0.50142588  0.89001768  0.11792223  1
  Zr  Zr42  1  0.71290967  0.49832365  0.62044890  1
  Zr  Zr43  1  0.49511968  0.89316799  0.86858698  1
  Zr  Zr44  1  0.10657477  0.90405702  0.65452237  1
  Zr  Zr45  1  0.39792732  0.21055114  0.75792009  1
  Zr  Zr46  1  0.61576960  0.21152631  0.00517525  1
  Zr  Zr47  1  -0.01752085  0.77660586  0.23674197  1
  Zr  Zr48  1  0.89197255  0.69682414  0.88190274  1
  Zr  Zr49  1  0.30311147  0.49366048  0.87959911  1
  Zr  Zr50  1  0.51633411  0.32116321  0.85872326  1
  Zr  Zr51  1  0.20616827  -0.00851141  0.48570805  1
  Zr  Zr52  1  0.89826107  0.10490717  0.87851578  1
  Zr  Zr53  1  0.21291873  0.40359721  0.74019023  1
  Zr  Zr54  1  0.51198602  0.89581843  0.37533529  1
  Zr  Zr55  1  0.90007585  0.69321038  0.62854227  1
  Zr  Zr56  1  0.19149812  0.19648539  0.49269945  1
  Zr  Zr57  1  0.49216742  0.09853065  0.13059780  1
  Zr  Zr58  1  0.20890763  0.20460630  0.74909598  1
  Zr  Zr59  1  0.59225908  0.00489688  -0.00750018  1
  Zr  Zr60  1  0.68929532  0.69439622  0.86636235  1
  Zr  Zr61  1  0.39153223  0.81282813  0.50102718  1
  Zr  Zr62  1  0.89203607  0.89145626  0.11016379  1
  Zr  Zr63  1  0.01838137  0.60044570  0.00314762  1
  Zr  Zr64  1  0.38948953  0.39524872  0.26304971  1
  Zr  Zr65  1  0.80310032  0.39215093  -0.00462229  1
  Zr  Zr66  1  0.20547170  0.00396071  0.25551508  1
  Zr  Zr67  1  -0.00512418  0.80198760  0.50942654  1
  Zr  Zr68  1  0.10679235  0.09859578  0.88070444  1
  Zr  Zr69  1  0.50727748  0.29605570  0.38214866  1
  Zr  Zr70  1  0.09905158  0.09997669  0.64113476  1
  Zr  Zr71  1  0.50153670  0.09788273  0.61020341  1
  Zr  Zr72  1  0.60540209  0.61615239  0.26273227  1
  Zr  Zr73  1  0.77639754  0.80479667  0.24192182  1
  Zr  Zr74  1  0.30394674  0.90398970  0.09802140  1
  Zr  Zr75  1  0.29270763  0.69164003  0.39366057  1
  Zr  Zr76  1  0.09339634  0.68943205  0.38171629  1
  Zr  Zr77  1  0.09507027  0.90161345  0.12256122  1
  Zr  Zr78  1  0.79460910  0.19959964  0.23056389  1
  Zr  Zr79  1  0.50072670  0.51396004  0.86966415  1
  Ta  Ta80  1  0.40153505  0.01185768  0.76545690  1
  Ta  Ta81  1  0.79356039  0.59311955  0.00262506  1
  Ta  Ta82  1  0.90439620  0.30760238  0.63386357  1
  Ta  Ta83  1  0.70042805  0.71563034  0.39479169  1
  Ta  Ta84  1  0.89305649  0.90193672  0.64813336  1
  Ta  Ta85  1  0.09942935  0.30510757  0.12526231  1
  Ta  Ta86  1  0.09502534  0.30936608  0.62942584  1
  Ta  Ta87  1  0.29869274  0.09756479  0.10224969  1
  Ta  Ta88  1  0.90151808  0.09954410  0.63615496  1
  Ta  Ta89  1  0.70079456  0.10132955  0.87857164  1
  Ta  Ta90  1  0.39661632  0.59525877  0.73014132  1
  Ta  Ta91  1  0.60105386  0.60586610  0.50391902  1
  Ta  Ta92  1  -0.00427267  0.21294595  0.00014324  1
  Ta  Ta93  1  0.50165627  0.70228068  0.12481965  1
  Ta  Ta94  1  0.69731544  0.91046567  0.38785937  1
  Ta  Ta95  1  0.60383957  0.81043791  0.51656708  1
  Ta  Ta96  1  0.00242210  0.40523945  0.76013999  1
  Ta  Ta97  1  0.59770898  0.59942286  0.00651791  1
  Ta  Ta98  1  0.70999259  0.50390591  0.14072254  1
  Ta  Ta99  1  0.39305662  0.18906443  0.26827432  1
  Ta  Ta100  1  0.00118162  0.20037137  0.24473771  1
  Ta  Ta101  1  0.18836813  0.59585637  0.23101459  1
  Ta  Ta102  1  -0.00208399  0.59005652  0.24880651  1
  Ta  Ta103  1  0.69761545  0.90335443  0.64252449  1
  Ta  Ta104  1  0.49549219  0.50642002  0.38984741  1
  Ta  Ta105  1  0.70248505  0.89586206  0.87051374  1
  Ta  Ta106  1  0.69613458  0.70502799  0.11141691  1
  Ta  Ta107  1  0.30450444  0.90549840  0.64961220  1
  Ta  Ta108  1  0.09575163  0.30534850  0.36623786  1
  Ta  Ta109  1  0.30656727  0.30320224  0.59969906  1
  Ta  Ta110  1  0.30469406  0.50114954  0.60066904  1
  Ta  Ta111  1  0.29894729  0.09658254  0.89358287  1
  Ta  Ta112  1  0.09674346  0.68526158  0.63890616  1
  Ta  Ta113  1  0.49684631  0.90671074  0.63706598  1
  Ta  Ta114  1  -0.00284855  -0.00710472  -0.01114929  1
  Ta  Ta115  1  0.90588001  0.30241350  0.36747098  1
  Ta  Ta116  1  0.58878102  0.59335478  0.72633880  1
  Ta  Ta117  1  0.79239024  0.00058732  0.00085689  1
  Ta  Ta118  1  0.90144731  0.50328451  0.12246702  1
  Ta  Ta119  1  0.51823957  0.09677157  0.38516441  1
  Ti  Ti120  1  0.29668247  0.30291519  0.89285384  1
  Ti  Ti121  1  0.39624597  0.79143443  0.75241231  1
  Ti  Ti122  1  0.69957439  0.10038728  0.61815624  1
  Ti  Ti123  1  0.61459653  0.39870519  0.26198633  1
  Ti  Ti124  1  0.29056874  0.69681641  0.62790884  1
  Ti  Ti125  1  0.00219981  0.40813953  0.25626239  1
  Ti  Ti126  1  0.70936909  0.30738546  0.85573322  1
  Ti  Ti127  1  0.00005526  0.20887189  0.75648318  1
  Ti  Ti128  1  0.88820943  0.89666775  0.87844854  1
  Ti  Ti129  1  0.00052560  0.40532219  -0.00874956  1
  Ti  Ti130  1  0.29718976  0.30007448  0.39018920  1
  Ti  Ti131  1  0.18604961  0.41198881  0.00462353  1
  Ti  Ti132  1  0.00250965  0.40219123  0.49475782  1
  Ti  Ti133  1  0.39948381  -0.00270884  0.48700790  1
  Ti  Ti134  1  0.40418509  0.60669293  0.00570718  1
  Ti  Ti135  1  0.80203945  0.80750536  0.50728888  1
  Ti  Ti136  1  0.18837288  0.39714831  0.50407702  1
  Ti  Ti137  1  0.50308366  0.70222296  0.38866853  1
  Ti  Ti138  1  0.89952823  0.49734834  0.87217702  1
  Ti  Ti139  1  0.80501948  0.59704515  0.75638921  1
  Ti  Ti140  1  0.80807983  0.40771153  0.26023152  1
  Ti  Ti141  1  0.11432480  0.51719576  0.86302384  1
  Ti  Ti142  1  -0.00826961  0.00801226  0.24145973  1
  Ti  Ti143  1  0.08839927  0.10138722  0.36757883  1
  Ti  Ti144  1  0.80049743  0.20662696  0.00233847  1
  Ti  Ti145  1  0.09917351  0.50174276  0.38212362  1
  Ti  Ti146  1  -0.00338294  -0.00241871  0.76939135  1
  Ti  Ti147  1  0.60152813  0.40711960  0.50045342  1
  Ti  Ti148  1  0.59375625  0.79570112  0.74745536  1
  Ti  Ti149  1  0.61326789  0.18613594  0.24974903  1
  Ti  Ti150  1  0.59368831  0.78920913  -0.01436892  1
  Ti  Ti151  1  0.90505507  0.10217184  0.10897387  1
  Ti  Ti152  1  0.09803355  0.50527314  0.62514785  1
  Ti  Ti153  1  0.59896296  0.00467833  0.75709050  1
  Ti  Ti154  1  0.40071929  0.78488726  -0.01162506  1
  Ti  Ti155  1  0.79459628  0.00237260  0.75614877  1
  Ti  Ti156  1  0.81870581  0.39833585  0.49027086  1
  Ti  Ti157  1  -0.00310816  0.79340833  -0.00577695  1
  Ti  Ti158  1  0.41111900  0.40954376  0.72767442  1
  Ti  Ti159  1  0.19246861  0.40266835  0.25075056  1
  Mo  Mo160  1  0.61005406  0.19401919  0.50149478  1
  Mo  Mo161  1  0.20616182  0.00207946  0.76458445  1
  Mo  Mo162  1  0.60126702  0.40235068  0.72712716  1
  Mo  Mo163  1  0.80985095  0.39982995  0.75558538  1
  Mo  Mo164  1  0.30703212  0.10294405  0.38754780  1
  Mo  Mo165  1  0.18985970  0.59559246  0.51783145  1
  Mo  Mo166  1  0.30324802  0.69395384  0.10899738  1
  Mo  Mo167  1  0.20058896  0.20875173  0.00252853  1
  Mo  Mo168  1  0.40150127  0.19717015  0.48167423  1
  Mo  Mo169  1  0.40011032  0.60326525  0.50495923  1
  Mo  Mo170  1  0.39712988  -0.00359682  -0.01726771  1
  Mo  Mo171  1  0.19225290  -0.00506814  -0.00865118  1
  Mo  Mo172  1  0.90937767  0.49821940  0.38178301  1
  Mo  Mo173  1  0.70199434  0.10283339  0.10327487  1
  Mo  Mo174  1  0.79669014  0.80578388  0.75438320  1
  Mo  Mo175  1  -0.00040057  0.59161075  0.49010427  1
  Mo  Mo176  1  0.78926424  0.79844930  -0.00481189  1
  Mo  Mo177  1  0.70214677  0.31115318  0.14669011  1
  Mo  Mo178  1  0.69188287  0.89314095  0.09580097  1
  Mo  Mo179  1  0.50040051  0.50039949  0.60567110  1
  Mo  Mo180  1  0.89220252  0.69778781  0.39196732  1
  Mo  Mo181  1  0.90590045  0.30488348  0.86662448  1
  Mo  Mo182  1  0.10490948  0.69259566  0.85479156  1
  Mo  Mo183  1  0.49307721  0.69387414  0.86091039  1
  Mo  Mo184  1  0.60336759  -0.00571504  0.51406412  1
  Mo  Mo185  1  0.69643064  0.09657697  0.38833854  1
  Mo  Mo186  1  0.09275150  0.48710603  0.13212982  1
  Mo  Mo187  1  0.50330105  0.10301979  0.86874477  1
  Mo  Mo188  1  0.60110285  0.79627843  0.25212180  1
  Mo  Mo189  1  0.29638430  0.89586168  0.37359459  1
  Mo  Mo190  1  0.89150490  0.68909629  0.10409791  1
  Mo  Mo191  1  0.20178867  0.79288101  0.74538652  1
  Mo  Mo192  1  0.39774884  0.39923584  0.48956379  1
  Mo  Mo193  1  0.80473067  0.60546537  0.48766607  1
  Mo  Mo194  1  0.09187348  0.89583374  0.87715368  1
  Mo  Mo195  1  0.09309235  0.69265999  0.13267291  1
  Mo  Mo196  1  0.20191499  0.59548661  0.01393040  1
  Mo  Mo197  1  0.00360396  0.59158207  0.76558301  1
  Mo  Mo198  1  0.20545665  0.59282272  0.72881308  1
  Mo  Mo199  1  0.81040936  0.20009457  0.51901286  1
