# generated using pymatgen
data_HfZrTaTiMo
_symmetry_space_group_name_H-M   'P 1'
_cell_length_a   15.84430620
_cell_length_b   15.83073919
_cell_length_c   15.41002045
_cell_angle_alpha   90.00815379
_cell_angle_beta   89.98134540
_cell_angle_gamma   90.10338758
_symmetry_Int_Tables_number   1
_chemical_formula_structural   HfZrTaTiMo
_chemical_formula_sum   'Hf40 Zr40 Ta40 Ti40 Mo40'
_cell_volume   3865.24388241
_cell_formula_units_Z   40
loop_
 _symmetry_equiv_pos_site_id
 _symmetry_equiv_pos_as_xyz
  1  'x, y, z'
loop_
 _atom_site_type_symbol
 _atom_site_label
 _atom_site_symmetry_multiplicity
 _atom_site_fract_x
 _atom_site_fract_y
 _atom_site_fract_z
 _atom_site_occupancy
  Hf  Hf0  1  0.18116734  0.80473204  0.49354054  1
  Hf  Hf1  1  0.09836375  0.69684506  0.63432960  1
  Hf  Hf2  1  0.78838406  0.19871506  0.00498753  1
  Hf  Hf3  1  -0.01925899  0.01050575  0.74712463  1
  Hf  Hf4  1  0.21173902  0.40501649  0.01755019  1
  Hf  Hf5  1  -0.00293823  0.79696607  0.24033617  1
  Hf  Hf6  1  0.00655894  -0.00879445  0.49787727  1
  Hf  Hf7  1  0.69927766  0.48304439  0.36195174  1
  Hf  Hf8  1  0.39060550  0.81567468  0.00057856  1
  Hf  Hf9  1  0.49529184  0.50417001  0.13213917  1
  Hf  Hf10  1  0.40285371  0.21224727  0.26587017  1
  Hf  Hf11  1  0.29135406  0.09748668  0.87440525  1
  Hf  Hf12  1  0.30704932  0.70884486  0.13761025  1
  Hf  Hf13  1  0.69646883  0.70616876  0.62510395  1
  Hf  Hf14  1  0.90352192  0.29223906  0.62105529  1
  Hf  Hf15  1  0.49109038  0.08747780  0.61399555  1
  Hf  Hf16  1  0.39342928  0.00883296  0.00642447  1
  Hf  Hf17  1  0.79548861  0.80330573  0.76551404  1
  Hf  Hf18  1  -0.00296426  0.20509300  0.25847259  1
  Hf  Hf19  1  0.49833926  0.10725814  0.86882026  1
  Hf  Hf20  1  0.60120800  0.38862103  0.00399713  1
  Hf  Hf21  1  0.59981462  0.38994457  0.50786554  1
  Hf  Hf22  1  0.09452758  0.30018251  0.12127694  1
  Hf  Hf23  1  0.10430183  0.69337518  0.87969063  1
  Hf  Hf24  1  0.70659360  0.68079039  0.37987294  1
  Hf  Hf25  1  0.71137189  0.28774690  0.63955414  1
  Hf  Hf26  1  0.31503949  0.90883841  0.59524326  1
  Hf  Hf27  1  0.61201902  0.59979953  0.23406165  1
  Hf  Hf28  1  0.00100489  0.40795155  0.48580587  1
  Hf  Hf29  1  0.10886767  0.51005043  0.35279118  1
  Hf  Hf30  1  0.81105264  0.60834205  0.76529001  1
  Hf  Hf31  1  0.31533951  0.09988161  0.14512534  1
  Hf  Hf32  1  0.50492031  0.10355860  0.37058558  1
  Hf  Hf33  1  0.00740980  0.79630044  0.00674960  1
  Hf  Hf34  1  0.79755141  0.39517365  0.00045126  1
  Hf  Hf35  1  0.29485109  0.70360647  0.36633296  1
  Hf  Hf36  1  0.70320249  0.50041168  0.87626450  1
  Hf  Hf37  1  0.20468488  0.20766708  0.25611350  1
  Hf  Hf38  1  0.89800673  0.90500293  0.88651641  1
  Hf  Hf39  1  0.11417484  0.90599997  0.86936747  1
  Zr  Zr40  1  0.21023310  0.80530768  0.74119729  1
  Zr  Zr41  1  0.81102393  0.38466837  0.77937516  1
  Zr  Zr42  1  0.10927819  0.30294732  0.88535857  1
  Zr  Zr43  1  0.91015881  0.49643555  0.62870124  1
  Zr  Zr44  1  0.00348171  0.39953615  0.76649884  1
  Zr  Zr45  1  0.89400775  0.50738062  0.36359116  1
  Zr  Zr46  1  0.40479338  0.40953861  -0.00184104  1
  Zr  Zr47  1  0.50401902  0.88494457  0.62480525  1
  Zr  Zr48  1  0.81096545  0.17133666  0.77604738  1
  Zr  Zr49  1  0.39424374  0.40369840  0.74848377  1
  Zr  Zr50  1  0.38868664  0.19815401  0.73487080  1
  Zr  Zr51  1  0.70569379  0.48846157  0.64479805  1
  Zr  Zr52  1  0.09985906  0.30674142  0.62579326  1
  Zr  Zr53  1  0.88946243  0.10428768  0.60276806  1
  Zr  Zr54  1  0.59019882  0.00435646  0.01506788  1
  Zr  Zr55  1  0.79305511  -0.00887698  0.24837356  1
  Zr  Zr56  1  0.79673796  0.78406453  0.24708829  1
  Zr  Zr57  1  0.90076101  0.09481266  0.37413614  1
  Zr  Zr58  1  0.61018636  0.19504373  0.50271115  1
  Zr  Zr59  1  0.79160194  0.01236536  0.00425878  1
  Zr  Zr60  1  0.49404456  0.90224522  0.87135365  1
  Zr  Zr61  1  0.80351171  0.59010754  0.50836127  1
  Zr  Zr62  1  0.29475172  0.70476263  0.88627339  1
  Zr  Zr63  1  0.58979441  0.58377769  0.51333048  1
  Zr  Zr64  1  0.30842737  0.50861834  0.36104293  1
  Zr  Zr65  1  0.59425584  0.59057200  -0.00537911  1
  Zr  Zr66  1  0.01616749  0.00654567  0.00886179  1
  Zr  Zr67  1  0.20031560  0.00715170  0.72468861  1
  Zr  Zr68  1  0.30665688  0.70674119  0.60972214  1
  Zr  Zr69  1  0.60520526  -0.01625450  0.48375624  1
  Zr  Zr70  1  0.40184844  0.60813223  0.74785810  1
  Zr  Zr71  1  0.20469530  0.18601855  0.01873946  1
  Zr  Zr72  1  0.61432459  -0.00502880  0.74857711  1
  Zr  Zr73  1  0.89787951  0.89864614  0.12066629  1
  Zr  Zr74  1  0.59356260  0.79321958  0.26272398  1
  Zr  Zr75  1  0.88871358  0.89982595  0.61842993  1
  Zr  Zr76  1  0.08894544  0.11558897  0.86188155  1
  Zr  Zr77  1  0.40698590  0.41400292  0.51159850  1
  Zr  Zr78  1  0.78893420  0.19962908  0.24417726  1
  Zr  Zr79  1  0.90689202  0.70727874  0.61685744  1
  Ta  Ta80  1  0.09957076  0.90344140  0.35629060  1
  Ta  Ta81  1  0.59718240  0.78557095  0.76955256  1
  Ta  Ta82  1  0.59182516  0.39693645  0.75958527  1
  Ta  Ta83  1  0.50296218  0.29695531  0.63553206  1
  Ta  Ta84  1  0.91540769  0.51107772  0.90272718  1
  Ta  Ta85  1  0.49594122  0.29231234  0.87439584  1
  Ta  Ta86  1  0.48413006  0.90167274  0.14545236  1
  Ta  Ta87  1  0.30355748  0.29500259  0.88525919  1
  Ta  Ta88  1  0.79228381  0.40137242  0.22456359  1
  Ta  Ta89  1  0.10764199  0.50598555  0.88927964  1
  Ta  Ta90  1  -0.00762457  0.79430812  0.76872287  1
  Ta  Ta91  1  0.29474822  0.50912095  0.87756247  1
  Ta  Ta92  1  0.90703977  0.49937842  0.10991385  1
  Ta  Ta93  1  0.09113182  0.11388011  0.61510341  1
  Ta  Ta94  1  0.59484695  0.19213298  0.01741174  1
  Ta  Ta95  1  0.29587564  0.10757311  0.59662726  1
  Ta  Ta96  1  0.90227721  0.30138530  0.11905920  1
  Ta  Ta97  1  0.69538779  0.89589736  0.89269191  1
  Ta  Ta98  1  0.30070011  0.90398641  0.36917857  1
  Ta  Ta99  1  0.90584282  0.89157065  0.37241484  1
  Ta  Ta100  1  0.79662972  0.80176191  0.48219226  1
  Ta  Ta101  1  0.60123011  -0.00158891  0.25004502  1
  Ta  Ta102  1  0.29930000  0.09860214  0.38499311  1
  Ta  Ta103  1  0.50142502  0.71033643  0.10942987  1
  Ta  Ta104  1  0.20810185  0.39938215  0.23596680  1
  Ta  Ta105  1  0.01086510  0.60948563  0.48654869  1
  Ta  Ta106  1  0.80395745  0.59795233  0.22117954  1
  Ta  Ta107  1  0.19456017  0.20834861  0.48879611  1
  Ta  Ta108  1  0.29967865  0.31225221  0.38454863  1
  Ta  Ta109  1  0.19797126  0.60055136  0.49721344  1
  Ta  Ta110  1  0.00301087  0.20927713  0.47741436  1
  Ta  Ta111  1  0.10453487  0.50770021  0.62941624  1
  Ta  Ta112  1  -0.00712282  0.60737092  0.23460740  1
  Ta  Ta113  1  0.50769254  0.48989191  0.35658555  1
  Ta  Ta114  1  0.59502956  0.59964313  0.75907506  1
  Ta  Ta115  1  0.10476810  0.09678809  0.37204291  1
  Ta  Ta116  1  0.40517574  0.21246302  0.49299386  1
  Ta  Ta117  1  -0.00416699  0.40505691  0.24234472  1
  Ta  Ta118  1  0.68507925  0.88517247  0.11347812  1
  Ta  Ta119  1  0.19966040  0.41148735  0.49853137  1
  Ti  Ti120  1  0.20478175  0.40617119  0.75279513  1
  Ti  Ti121  1  0.49269417  0.69522194  0.89036436  1
  Ti  Ti122  1  0.29507996  0.30466520  0.61057336  1
  Ti  Ti123  1  0.20615050  0.60403105  0.01691465  1
  Ti  Ti124  1  0.00166568  0.60040879  0.76199462  1
  Ti  Ti125  1  0.38836913  -0.00487069  0.74835642  1
  Ti  Ti126  1  0.40565716  0.60042575  0.49846558  1
  Ti  Ti127  1  0.88827416  0.31252333  0.36473707  1
  Ti  Ti128  1  0.90560734  0.10360495  0.12862864  1
  Ti  Ti129  1  0.09930541  0.50556298  0.12505264  1
  Ti  Ti130  1  0.19941901  0.81653501  0.01966858  1
  Ti  Ti131  1  0.70227187  0.89274372  0.62197448  1
  Ti  Ti132  1  0.70301177  0.70117007  0.09825581  1
  Ti  Ti133  1  0.92494566  0.27954224  0.90076043  1
  Ti  Ti134  1  0.50282546  0.70260088  0.62176577  1
  Ti  Ti135  1  0.41679858  0.80053577  0.47261611  1
  Ti  Ti136  1  0.09691024  0.09225047  0.14885640  1
  Ti  Ti137  1  0.49054888  0.29021190  0.12256776  1
  Ti  Ti138  1  0.60084559  0.79321599  0.48155657  1
  Ti  Ti139  1  0.39821921  0.80440490  0.75761863  1
  Ti  Ti140  1  0.10928695  0.69979751  0.13331724  1
  Ti  Ti141  1  0.08458627  0.89302864  0.63268290  1
  Ti  Ti142  1  0.29117252  0.51182429  0.62935443  1
  Ti  Ti143  1  0.70270853  0.70211465  0.89422135  1
  Ti  Ti144  1  0.20720076  -0.01003042  0.02201053  1
  Ti  Ti145  1  0.79120928  0.20400597  0.47429687  1
  Ti  Ti146  1  0.10406321  0.31275923  0.36718174  1
  Ti  Ti147  1  0.71149519  0.08613226  0.62446355  1
  Ti  Ti148  1  0.30576193  0.51512394  0.13922731  1
  Ti  Ti149  1  0.68408623  0.28140797  0.87095842  1
  Ti  Ti150  1  0.19245144  0.00253514  0.49778717  1
  Ti  Ti151  1  0.67447701  0.29660644  0.35082317  1
  Ti  Ti152  1  0.41956790  0.61942518  0.25738294  1
  Ti  Ti153  1  0.20150061  0.20770005  0.73680360  1
  Ti  Ti154  1  0.60021838  0.19080155  0.74153429  1
  Ti  Ti155  1  0.39929086  0.39495480  0.24422575  1
  Ti  Ti156  1  0.78675363  -0.00518492  0.47622410  1
  Ti  Ti157  1  0.09934173  0.70187535  0.35871408  1
  Ti  Ti158  1  0.20401067  -0.00312420  0.24905518  1
  Ti  Ti159  1  0.79482124  0.38964322  0.49708420  1
  Mo  Mo160  1  0.59115022  0.79943344  -0.00510560  1
  Mo  Mo161  1  0.10840738  0.90176294  0.14192542  1
  Mo  Mo162  1  0.40587188  0.20375895  0.00200566  1
  Mo  Mo163  1  0.39312630  0.60300790  0.00141151  1
  Mo  Mo164  1  0.90313863  0.69751417  0.89196875  1
  Mo  Mo165  1  0.01414057  0.60249634  0.01687757  1
  Mo  Mo166  1  0.19765414  0.60247725  0.23577410  1
  Mo  Mo167  1  0.49702261  0.49936647  0.86641696  1
  Mo  Mo168  1  0.19821439  0.80502410  0.25175758  1
  Mo  Mo169  1  0.80384490  0.60203848  0.00252296  1
  Mo  Mo170  1  0.29305873  0.90974918  0.87668571  1
  Mo  Mo171  1  0.90686001  0.69699887  0.37825320  1
  Mo  Mo172  1  0.79277073  -0.00969468  0.75983842  1
  Mo  Mo173  1  0.30057557  0.90203687  0.14972672  1
  Mo  Mo174  1  0.90254301  0.09893646  0.89465027  1
  Mo  Mo175  1  0.49767869  0.89547842  0.36384520  1
  Mo  Mo176  1  0.50147346  0.68549692  0.38661006  1
  Mo  Mo177  1  0.49899720  0.31148962  0.37221457  1
  Mo  Mo178  1  0.40364930  0.80017308  0.26105610  1
  Mo  Mo179  1  0.59406683  0.39320268  0.23140543  1
  Mo  Mo180  1  0.69301882  0.09625372  0.14034708  1
  Mo  Mo181  1  0.70187769  0.49882590  0.11719751  1
  Mo  Mo182  1  0.30553451  0.30329523  0.12270175  1
  Mo  Mo183  1  0.68837846  0.09940444  0.87577731  1
  Mo  Mo184  1  0.69682019  0.09923237  0.36143714  1
  Mo  Mo185  1  0.70214402  0.89238084  0.37040226  1
  Mo  Mo186  1  0.49941534  0.50132546  0.64410673  1
  Mo  Mo187  1  0.59476761  0.19982835  0.23470628  1
  Mo  Mo188  1  0.79690071  0.79820036  -0.00380928  1
  Mo  Mo189  1  0.00605646  0.40226992  0.00436512  1
  Mo  Mo190  1  0.49857231  0.10089935  0.14371496  1
  Mo  Mo191  1  0.00031796  0.19995815  0.74542582  1
  Mo  Mo192  1  -0.00168116  0.19400966  0.02410894  1
  Mo  Mo193  1  0.40061494  0.00041977  0.26705673  1
  Mo  Mo194  1  0.00215382  0.00097301  0.25093054  1
  Mo  Mo195  1  0.19742413  0.59022859  0.75030098  1
  Mo  Mo196  1  0.69231584  0.29867777  0.12894171  1
  Mo  Mo197  1  0.39907232  0.00285910  0.48234627  1
  Mo  Mo198  1  0.89996684  0.69452545  0.10451535  1
  Mo  Mo199  1  0.00046451  0.79597761  0.47973915  1
