# generated using pymatgen
data_HfZrTaTiMo
_symmetry_space_group_name_H-M   'P 1'
_cell_length_a   15.83605117
_cell_length_b   15.84178973
_cell_length_c   15.39900788
_cell_angle_alpha   89.99475171
_cell_angle_beta   89.93937729
_cell_angle_gamma   90.00086750
_symmetry_Int_Tables_number   1
_chemical_formula_structural   HfZrTaTiMo
_chemical_formula_sum   'Hf40 Zr40 Ta40 Ti40 Mo40'
_cell_volume   3863.16837412
_cell_formula_units_Z   40
loop_
 _symmetry_equiv_pos_site_id
 _symmetry_equiv_pos_as_xyz
  1  'x, y, z'
loop_
 _atom_site_type_symbol
 _atom_site_label
 _atom_site_symmetry_multiplicity
 _atom_site_fract_x
 _atom_site_fract_y
 _atom_site_fract_z
 _atom_site_occupancy
  Hf  Hf0  1  0.20248590  0.58869923  0.47766352  1
  Hf  Hf1  1  0.59253348  0.20442243  0.24215656  1
  Hf  Hf2  1  0.39968998  0.40275827  0.74625488  1
  Hf  Hf3  1  0.18296180  0.39033257  0.76911231  1
  Hf  Hf4  1  0.19942935  0.20043840  0.50605874  1
  Hf  Hf5  1  0.79967975  0.39127302  0.00571087  1
  Hf  Hf6  1  0.08916710  0.29059319  0.37159894  1
  Hf  Hf7  1  0.51349269  0.50906176  0.62983692  1
  Hf  Hf8  1  0.38976037  0.21081540  0.51652373  1
  Hf  Hf9  1  0.81443944  0.60949677  0.24159805  1
  Hf  Hf10  1  0.00667897  0.59497891  0.48448740  1
  Hf  Hf11  1  0.51133619  0.68587975  0.88013732  1
  Hf  Hf12  1  0.90375776  0.30634976  0.62109195  1
  Hf  Hf13  1  0.10374356  0.88849897  0.60874570  1
  Hf  Hf14  1  0.19479530  -0.01542802  0.26555372  1
  Hf  Hf15  1  0.60358248  0.39594022  0.23785474  1
  Hf  Hf16  1  0.19896340  0.40143829  0.48959075  1
  Hf  Hf17  1  0.91257508  0.11073847  0.87453024  1
  Hf  Hf18  1  0.49480742  0.31437394  0.38244969  1
  Hf  Hf19  1  0.29486823  0.70150826  0.62314238  1
  Hf  Hf20  1  -0.01749031  0.20031932  0.23979211  1
  Hf  Hf21  1  0.49296128  0.90429663  0.61769928  1
  Hf  Hf22  1  0.78971190  0.78493835  0.76324781  1
  Hf  Hf23  1  0.50769133  0.70620150  0.12119037  1
  Hf  Hf24  1  0.01335867  0.61772363  0.24721121  1
  Hf  Hf25  1  0.70814470  0.90234140  0.14107987  1
  Hf  Hf26  1  0.49431952  0.10038860  0.12104094  1
  Hf  Hf27  1  0.51075169  0.90244192  0.84774534  1
  Hf  Hf28  1  0.20551414  0.60379917  0.25491219  1
  Hf  Hf29  1  0.29036003  0.89520455  0.86099391  1
  Hf  Hf30  1  -0.00561949  0.00374395  0.73346943  1
  Hf  Hf31  1  0.29804206  0.10024118  0.13564221  1
  Hf  Hf32  1  0.70107405  0.29091413  0.38599805  1
  Hf  Hf33  1  0.78943460  0.01150989  0.74698883  1
  Hf  Hf34  1  0.80733139  0.60160799  0.48164233  1
  Hf  Hf35  1  0.80010515  0.19761732  0.00728168  1
  Hf  Hf36  1  0.89020902  0.09771843  0.38343185  1
  Hf  Hf37  1  0.60237221  0.20003817  0.00026709  1
  Hf  Hf38  1  0.60216220  0.40905172  0.76419436  1
  Hf  Hf39  1  0.50897796  0.10207233  0.62425594  1
  Zr  Zr40  1  0.10411985  0.49438283  0.12051974  1
  Zr  Zr41  1  0.59925836  0.39600563  0.00768389  1
  Zr  Zr42  1  0.19719944  0.20393629  0.01125066  1
  Zr  Zr43  1  0.29517801  0.12432917  0.87203395  1
  Zr  Zr44  1  0.62114263  0.80453979  -0.01685804  1
  Zr  Zr45  1  0.51540840  0.70534768  0.61844836  1
  Zr  Zr46  1  0.10649003  0.68724111  0.62631398  1
  Zr  Zr47  1  0.18802446  0.79454029  0.25759346  1
  Zr  Zr48  1  0.90307379  0.50338269  0.62651992  1
  Zr  Zr49  1  0.39952812  0.80336372  -0.00742582  1
  Zr  Zr50  1  0.70779258  0.49504738  0.35775469  1
  Zr  Zr51  1  0.71617292  0.71557460  0.35535200  1
  Zr  Zr52  1  0.60681177  0.00178349  0.27955235  1
  Zr  Zr53  1  0.79389231  -0.00617263  -0.01600932  1
  Zr  Zr54  1  0.29134120  0.90000730  0.61381596  1
  Zr  Zr55  1  0.69967719  0.30591165  0.62929014  1
  Zr  Zr56  1  0.90500886  0.89681630  0.87177734  1
  Zr  Zr57  1  0.19778032  0.39860988  0.25690577  1
  Zr  Zr58  1  0.09014497  0.09041791  0.37820091  1
  Zr  Zr59  1  0.78979495  0.19362355  0.23967451  1
  Zr  Zr60  1  0.91033959  0.49030875  0.12631407  1
  Zr  Zr61  1  0.39759666  0.00323434  -0.01357659  1
  Zr  Zr62  1  0.48950725  0.11707689  0.38615418  1
  Zr  Zr63  1  0.18816526  0.01402238  0.74833304  1
  Zr  Zr64  1  0.39586639  0.80404441  0.25740933  1
  Zr  Zr65  1  0.30481536  0.49531813  0.88114845  1
  Zr  Zr66  1  0.39712038  -0.00291612  0.26405938  1
  Zr  Zr67  1  0.40131257  0.79232304  0.74707812  1
  Zr  Zr68  1  -0.00402263  0.79330909  0.74245563  1
  Zr  Zr69  1  0.47747539  0.29827588  0.88542803  1
  Zr  Zr70  1  0.40781098  0.59621702  0.49226619  1
  Zr  Zr71  1  0.10357105  0.70236689  0.87570171  1
  Zr  Zr72  1  0.67570700  0.89283482  0.64663474  1
  Zr  Zr73  1  0.50791014  0.90648839  0.12200000  1
  Zr  Zr74  1  0.78697391  -0.00550346  0.51462460  1
  Zr  Zr75  1  0.90000410  0.50350326  0.89255747  1
  Zr  Zr76  1  0.39317291  0.40854920  0.51099904  1
  Zr  Zr77  1  0.09809771  0.09439058  0.13962749  1
  Zr  Zr78  1  0.01781025  0.20131579  0.72932683  1
  Zr  Zr79  1  0.61140066  0.80862014  0.47749933  1
  Ta  Ta80  1  0.30100067  0.70185529  0.12105038  1
  Ta  Ta81  1  0.70555100  0.68980188  0.61758160  1
  Ta  Ta82  1  0.90304113  0.69289993  0.89071154  1
  Ta  Ta83  1  0.50731740  0.30413722  0.62451477  1
  Ta  Ta84  1  0.00017698  0.59090731  0.75824158  1
  Ta  Ta85  1  0.70645164  0.50613863  0.62090664  1
  Ta  Ta86  1  0.28178072  0.30724429  0.64035067  1
  Ta  Ta87  1  0.39380400  0.20440671  0.73356872  1
  Ta  Ta88  1  0.80742055  0.79628231  0.00506543  1
  Ta  Ta89  1  0.60193190  0.41219488  0.49683783  1
  Ta  Ta90  1  0.60682366  0.00553226  -0.02462304  1
  Ta  Ta91  1  0.00953119  0.38026824  -0.01305351  1
  Ta  Ta92  1  0.39472216  0.01213403  0.74259785  1
  Ta  Ta93  1  -0.01470782  -0.02257132  0.24808486  1
  Ta  Ta94  1  0.00495133  0.00131633  0.00308728  1
  Ta  Ta95  1  0.60481761  0.00922507  0.48790271  1
  Ta  Ta96  1  0.28422727  0.50905004  0.64246619  1
  Ta  Ta97  1  -0.00111848  0.39876308  0.76570274  1
  Ta  Ta98  1  0.40414767  0.60191213  0.24542495  1
  Ta  Ta99  1  0.09419497  0.29960161  0.13130118  1
  Ta  Ta100  1  0.70656161  0.29742113  0.86691829  1
  Ta  Ta101  1  0.20587915  0.60180902  0.00517495  1
  Ta  Ta102  1  0.39964725  0.60039773  0.00793264  1
  Ta  Ta103  1  0.59740624  0.60349722  0.24767756  1
  Ta  Ta104  1  0.69714967  0.51221754  0.89452221  1
  Ta  Ta105  1  -0.01195099  -0.00319078  0.51215042  1
  Ta  Ta106  1  0.49736056  0.10719485  0.86569478  1
  Ta  Ta107  1  0.69311499  0.08780880  0.12167971  1
  Ta  Ta108  1  0.09822283  0.90090373  0.87702460  1
  Ta  Ta109  1  0.00192764  0.80146034  0.01511344  1
  Ta  Ta110  1  0.19570934  -0.00201091  -0.00477103  1
  Ta  Ta111  1  0.91050281  0.48685640  0.35752557  1
  Ta  Ta112  1  0.30563617  0.49710111  0.12419387  1
  Ta  Ta113  1  0.80095444  0.40804240  0.76234486  1
  Ta  Ta114  1  0.89830672  0.89582306  0.38668085  1
  Ta  Ta115  1  0.49953180  0.50333223  0.12293653  1
  Ta  Ta116  1  0.70189822  0.50623494  0.12613409  1
  Ta  Ta117  1  0.31834619  0.49126650  0.35560121  1
  Ta  Ta118  1  0.80303216  0.40497283  0.49502402  1
  Ta  Ta119  1  0.29640629  0.69304430  0.86949582  1
  Ti  Ti120  1  0.08154738  0.88290510  0.39324028  1
  Ti  Ti121  1  0.80215825  0.59708669  0.75889862  1
  Ti  Ti122  1  0.49872439  0.70058324  0.37431737  1
  Ti  Ti123  1  0.90206326  0.29510577  0.87134282  1
  Ti  Ti124  1  0.79493327  0.19349885  0.51567582  1
  Ti  Ti125  1  0.09811204  0.26909650  0.88113366  1
  Ti  Ti126  1  0.10129162  0.89755716  0.12212157  1
  Ti  Ti127  1  0.00411199  0.40193007  0.49231956  1
  Ti  Ti128  1  0.37929832  0.01757235  0.50548125  1
  Ti  Ti129  1  0.30262544  0.29790481  0.13353633  1
  Ti  Ti130  1  0.83640892  0.81309417  0.23344013  1
  Ti  Ti131  1  0.80133390  0.79857916  0.50260980  1
  Ti  Ti132  1  0.10131585  0.09539723  0.60175710  1
  Ti  Ti133  1  0.59436146  0.80917598  0.26451953  1
  Ti  Ti134  1  0.79743853  0.60935407  0.01615542  1
  Ti  Ti135  1  0.89798235  0.69356669  0.62328449  1
  Ti  Ti136  1  0.19979760  0.80033925  0.00290677  1
  Ti  Ti137  1  0.80204206  0.19891657  0.74182169  1
  Ti  Ti138  1  0.29087316  0.89706184  0.40145503  1
  Ti  Ti139  1  0.60857965  0.59771873  0.47749823  1
  Ti  Ti140  1  0.29755219  0.90082985  0.12099615  1
  Ti  Ti141  1  0.80893337  0.38119549  0.23538026  1
  Ti  Ti142  1  0.91934573  0.71931984  0.37463024  1
  Ti  Ti143  1  0.20437198  0.39194632  -0.00464503  1
  Ti  Ti144  1  0.40444737  0.59698639  0.75254234  1
  Ti  Ti145  1  0.30566760  0.70684990  0.38355094  1
  Ti  Ti146  1  0.89305282  0.08341588  0.12287886  1
  Ti  Ti147  1  0.60525777  0.19832854  0.75534611  1
  Ti  Ti148  1  0.00702638  0.60664267  0.01237144  1
  Ti  Ti149  1  0.50015364  0.50242158  0.89523451  1
  Ti  Ti150  1  0.09997508  0.49108716  0.63424471  1
  Ti  Ti151  1  0.09972078  0.50521560  0.88664014  1
  Ti  Ti152  1  0.30576689  0.29087336  0.35756345  1
  Ti  Ti153  1  0.89682236  0.29710887  0.38808826  1
  Ti  Ti154  1  0.89207479  0.89028346  0.62479501  1
  Ti  Ti155  1  0.40996954  0.39598568  0.23545302  1
  Ti  Ti156  1  0.48011111  0.90096643  0.39936705  1
  Ti  Ti157  1  0.29051895  0.11073168  0.36397787  1
  Ti  Ti158  1  0.61942370  0.60623041  0.75630011  1
  Ti  Ti159  1  0.70209041  0.70773404  0.13524535  1
  Mo  Mo160  1  -0.00607140  0.39038807  0.25537031  1
  Mo  Mo161  1  0.70056093  0.11078508  0.86972631  1
  Mo  Mo162  1  0.19754809  0.20050149  0.24899722  1
  Mo  Mo163  1  0.19713918  0.59238975  0.76152203  1
  Mo  Mo164  1  0.70020751  0.29680848  0.12551191  1
  Mo  Mo165  1  0.19316706  0.00001084  0.48366179  1
  Mo  Mo166  1  0.19406539  0.20040106  0.73342684  1
  Mo  Mo167  1  0.29272854  0.29895230  0.86412352  1
  Mo  Mo168  1  0.70039292  0.89886449  0.86122813  1
  Mo  Mo169  1  0.50324696  0.50367344  0.35472423  1
  Mo  Mo170  1  0.19648073  0.79779022  0.75979543  1
  Mo  Mo171  1  0.19430380  0.79017631  0.48357516  1
  Mo  Mo172  1  0.48865810  0.30018814  0.11494133  1
  Mo  Mo173  1  0.39116761  0.40012208  0.01505233  1
  Mo  Mo174  1  0.09539105  0.31163202  0.61045815  1
  Mo  Mo175  1  0.71249418  0.68892502  0.88771691  1
  Mo  Mo176  1  0.80521699  0.00051809  0.25315708  1
  Mo  Mo177  1  0.39810610  0.79706452  0.49518785  1
  Mo  Mo178  1  0.60461482  0.60095823  0.02162445  1
  Mo  Mo179  1  0.11054939  0.70359559  0.10897249  1
  Mo  Mo180  1  0.09750174  0.49518030  0.36125709  1
  Mo  Mo181  1  -0.00446598  0.19617013  0.01424880  1
  Mo  Mo182  1  0.59844192  0.01702862  0.76029731  1
  Mo  Mo183  1  0.39651890  0.20900706  0.24238460  1
  Mo  Mo184  1  0.60504222  0.78225102  0.75790382  1
  Mo  Mo185  1  0.90704290  0.29427170  0.11385240  1
  Mo  Mo186  1  0.69989473  0.10590404  0.39109714  1
  Mo  Mo187  1  -0.01442096  0.79450953  0.51590296  1
  Mo  Mo188  1  0.00487590  0.80401763  0.23637732  1
  Mo  Mo189  1  0.90432288  0.90471669  0.11101283  1
  Mo  Mo190  1  0.90550766  0.70034144  0.11158686  1
  Mo  Mo191  1  0.60074546  0.20783651  0.50581848  1
  Mo  Mo192  1  0.09631717  0.09376208  0.88465159  1
  Mo  Mo193  1  0.69338899  0.10885649  0.62037725  1
  Mo  Mo194  1  0.29631758  0.10224972  0.62764355  1
  Mo  Mo195  1  0.09830837  0.70360920  0.38716727  1
  Mo  Mo196  1  0.72201317  0.90377913  0.35968535  1
  Mo  Mo197  1  0.39729242  0.20600985  0.01330764  1
  Mo  Mo198  1  0.89747487  0.10453093  0.61680606  1
  Mo  Mo199  1  -0.00771387  0.19953509  0.50897845  1
