# generated using pymatgen
data_HfZrTaTiMo
_symmetry_space_group_name_H-M   'P 1'
_cell_length_a   15.83508099
_cell_length_b   15.82812543
_cell_length_c   15.39428048
_cell_angle_alpha   90.07580568
_cell_angle_beta   89.96585459
_cell_angle_gamma   89.96505970
_symmetry_Int_Tables_number   1
_chemical_formula_structural   HfZrTaTiMo
_chemical_formula_sum   'Hf40 Zr40 Ta40 Ti40 Mo40'
_cell_volume   3858.41226004
_cell_formula_units_Z   40
loop_
 _symmetry_equiv_pos_site_id
 _symmetry_equiv_pos_as_xyz
  1  'x, y, z'
loop_
 _atom_site_type_symbol
 _atom_site_label
 _atom_site_symmetry_multiplicity
 _atom_site_fract_x
 _atom_site_fract_y
 _atom_site_fract_z
 _atom_site_occupancy
  Hf  Hf0  1  0.19856680  0.59996915  -0.00875599  1
  Hf  Hf1  1  0.00786141  0.39904402  0.49003494  1
  Hf  Hf2  1  0.90502404  0.89462643  0.86758365  1
  Hf  Hf3  1  -0.01935767  0.20267336  0.26801757  1
  Hf  Hf4  1  0.80214169  0.60469204  0.25328165  1
  Hf  Hf5  1  0.08725294  0.29586933  0.88423193  1
  Hf  Hf6  1  0.39291621  0.79913864  0.75823023  1
  Hf  Hf7  1  0.69960683  0.29667895  0.38100704  1
  Hf  Hf8  1  0.89784605  0.29926040  0.10889721  1
  Hf  Hf9  1  0.60748282  0.80342237  0.73957691  1
  Hf  Hf10  1  0.20567486  -0.01996507  0.49795687  1
  Hf  Hf11  1  0.08722510  0.50027764  0.87522421  1
  Hf  Hf12  1  0.91498797  0.09276334  0.61997583  1
  Hf  Hf13  1  0.11375085  0.69692014  0.36295064  1
  Hf  Hf14  1  0.30505847  0.10211936  0.37923338  1
  Hf  Hf15  1  0.20535069  0.40153454  0.50277762  1
  Hf  Hf16  1  0.39224570  0.18634996  0.75789019  1
  Hf  Hf17  1  0.68649938  0.50524114  0.36934955  1
  Hf  Hf18  1  0.29846731  0.70246800  0.11345303  1
  Hf  Hf19  1  0.49938837  0.90497342  0.62941726  1
  Hf  Hf20  1  0.40141631  0.59958986  0.50880363  1
  Hf  Hf21  1  0.29847308  0.30042817  0.36953619  1
  Hf  Hf22  1  0.89717396  0.10973523  0.11759761  1
  Hf  Hf23  1  0.00033494  0.60767735  0.49568665  1
  Hf  Hf24  1  0.70363327  0.48896417  0.12439156  1
  Hf  Hf25  1  0.80160640  -0.00096882  -0.00079537  1
  Hf  Hf26  1  0.00522481  -0.00264447  0.25796638  1
  Hf  Hf27  1  0.51205733  0.69744184  0.87451480  1
  Hf  Hf28  1  0.69530854  0.89505309  0.36707334  1
  Hf  Hf29  1  0.90070868  0.69954379  0.88171524  1
  Hf  Hf30  1  0.19693309  0.19844605  0.23553031  1
  Hf  Hf31  1  0.39821614  0.40556403  0.50408107  1
  Hf  Hf32  1  0.80041016  0.20095522  0.76165356  1
  Hf  Hf33  1  0.80035752  -0.00707177  0.74179993  1
  Hf  Hf34  1  0.70728839  0.70357762  0.87704057  1
  Hf  Hf35  1  0.40009612  0.40213268  0.24823129  1
  Hf  Hf36  1  0.19922234  0.80565075  0.75176031  1
  Hf  Hf37  1  0.79502742  0.40418319  0.49956226  1
  Hf  Hf38  1  0.19529358  0.19087567  0.75813579  1
  Hf  Hf39  1  0.30618040  0.71137738  0.37705025  1
  Zr  Zr40  1  0.80403958  -0.00922352  0.49841777  1
  Zr  Zr41  1  0.40376290  -0.00489247  0.25185113  1
  Zr  Zr42  1  0.59998880  0.19342402  0.25223649  1
  Zr  Zr43  1  0.80762526  0.39797711  0.76391295  1
  Zr  Zr44  1  0.00491145  0.80783998  0.48848913  1
  Zr  Zr45  1  0.69423044  0.10338087  0.62396885  1
  Zr  Zr46  1  0.80338669  0.01806310  0.26035336  1
  Zr  Zr47  1  0.50390878  0.30203754  0.64672951  1
  Zr  Zr48  1  0.58206813  0.79746538  0.24529781  1
  Zr  Zr49  1  0.10655024  0.10126902  0.38249359  1
  Zr  Zr50  1  0.39987791  0.20589028  0.51768238  1
  Zr  Zr51  1  0.39694131  0.00869797  0.51581851  1
  Zr  Zr52  1  0.80706854  0.38146365  0.25439050  1
  Zr  Zr53  1  0.50516170  0.07645888  0.09766035  1
  Zr  Zr54  1  0.69221137  0.91299478  0.13045498  1
  Zr  Zr55  1  0.20337652  0.61260164  0.76283250  1
  Zr  Zr56  1  0.00814882  -0.00540914  0.00842586  1
  Zr  Zr57  1  0.59143017  0.39604152  0.24431884  1
  Zr  Zr58  1  0.90345958  0.50234830  0.37263492  1
  Zr  Zr59  1  0.89372754  0.50009012  0.62200193  1
  Zr  Zr60  1  0.80680131  0.79745393  0.49343564  1
  Zr  Zr61  1  0.10119713  0.49337942  0.63994525  1
  Zr  Zr62  1  0.29903053  0.30584043  0.11073687  1
  Zr  Zr63  1  0.60614348  0.78866445  0.50879895  1
  Zr  Zr64  1  0.50423622  0.29687875  0.87706166  1
  Zr  Zr65  1  0.09149587  0.91602822  0.62990797  1
  Zr  Zr66  1  0.19622948  0.81026222  -0.01682554  1
  Zr  Zr67  1  0.00832540  0.39810476  0.25413294  1
  Zr  Zr68  1  0.31401928  0.90562201  0.10233089  1
  Zr  Zr69  1  0.00037431  0.79959071  0.73781342  1
  Zr  Zr70  1  0.70356848  0.70569633  0.12881605  1
  Zr  Zr71  1  0.20083642  0.59882519  0.50987900  1
  Zr  Zr72  1  0.48810191  0.89211763  0.39313220  1
  Zr  Zr73  1  0.40464860  0.60786166  0.24023649  1
  Zr  Zr74  1  0.70307473  0.89441031  0.87873142  1
  Zr  Zr75  1  0.69825973  0.30023815  0.62731502  1
  Zr  Zr76  1  -0.00114641  0.60378195  0.74023821  1
  Zr  Zr77  1  0.40356185  0.19090406  0.23438264  1
  Zr  Zr78  1  0.59821008  0.59778009  0.01286471  1
  Zr  Zr79  1  0.50613231  0.29583402  0.09901277  1
  Ta  Ta80  1  0.79856930  0.60250579  0.75462837  1
  Ta  Ta81  1  0.29619360  0.30653845  0.64742001  1
  Ta  Ta82  1  0.59627638  0.00319984  0.75816663  1
  Ta  Ta83  1  0.69504204  0.50981488  0.87157081  1
  Ta  Ta84  1  0.29107430  0.51063990  0.36071183  1
  Ta  Ta85  1  0.39661043  0.58881131  -0.01992112  1
  Ta  Ta86  1  0.70329319  0.29070951  0.10631845  1
  Ta  Ta87  1  0.49522312  0.50349928  0.37765328  1
  Ta  Ta88  1  0.40120392  0.60061403  0.76320850  1
  Ta  Ta89  1  0.20678969  -0.00294504  0.24534001  1
  Ta  Ta90  1  -0.00100589  0.80080140  0.01402979  1
  Ta  Ta91  1  0.59032466  0.40331914  0.50368496  1
  Ta  Ta92  1  -0.00319918  0.20045502  0.75267306  1
  Ta  Ta93  1  0.49809875  0.90145476  0.88373058  1
  Ta  Ta94  1  0.78956915  0.61226376  0.48669057  1
  Ta  Ta95  1  0.20411397  0.20166583  0.51946332  1
  Ta  Ta96  1  0.29833427  0.29865704  0.88196496  1
  Ta  Ta97  1  0.50342957  0.50124040  0.64496673  1
  Ta  Ta98  1  0.90504436  0.50295542  0.12002910  1
  Ta  Ta99  1  0.91123777  0.09835589  0.87604130  1
  Ta  Ta100  1  0.30680653  0.49641280  0.64896894  1
  Ta  Ta101  1  0.10220818  0.50358019  0.12294976  1
  Ta  Ta102  1  0.59000322  0.60027004  0.23863174  1
  Ta  Ta103  1  0.19848633  0.39707147  0.76704447  1
  Ta  Ta104  1  0.81026630  0.80077398  0.01766275  1
  Ta  Ta105  1  0.60023157  0.59415880  0.51314293  1
  Ta  Ta106  1  0.09642763  0.29806209  0.63377900  1
  Ta  Ta107  1  0.80531427  0.59731424  0.00180050  1
  Ta  Ta108  1  0.90687915  0.29576535  0.61957474  1
  Ta  Ta109  1  0.59127409  0.19712315  0.49379205  1
  Ta  Ta110  1  0.09510579  0.29844486  0.11075755  1
  Ta  Ta111  1  0.80095799  0.20445249  -0.02364703  1
  Ta  Ta112  1  0.20033653  0.40365167  -0.00711480  1
  Ta  Ta113  1  0.39155751  0.18760971  -0.00782754  1
  Ta  Ta114  1  0.19414002  0.18901464  -0.00466921  1
  Ta  Ta115  1  0.10948341  0.29826020  0.37874206  1
  Ta  Ta116  1  0.10033432  0.70048573  0.12956339  1
  Ta  Ta117  1  0.69838724  0.10986477  0.11196638  1
  Ta  Ta118  1  0.79852889  0.40346845  -0.01461589  1
  Ta  Ta119  1  0.59126945  0.00515247  0.26090558  1
  Ti  Ti120  1  0.09996145  0.10011247  0.12184531  1
  Ti  Ti121  1  0.20623879  0.00575160  0.75529969  1
  Ti  Ti122  1  0.90269050  0.50427766  0.88152976  1
  Ti  Ti123  1  0.50701415  0.69153783  0.38195745  1
  Ti  Ti124  1  0.00168272  0.80064073  0.25614926  1
  Ti  Ti125  1  0.80755189  0.19714429  0.49458918  1
  Ti  Ti126  1  0.09666292  0.91497271  0.86899107  1
  Ti  Ti127  1  -0.00341342  0.40562800  0.00276430  1
  Ti  Ti128  1  0.50603547  0.10365343  0.63946343  1
  Ti  Ti129  1  0.29621301  0.70154641  0.62707120  1
  Ti  Ti130  1  0.50129073  0.09407995  0.87943108  1
  Ti  Ti131  1  0.39002959  -0.00078273  0.75766537  1
  Ti  Ti132  1  0.19690115  0.40548099  0.24402901  1
  Ti  Ti133  1  0.90902953  0.69705095  0.12791970  1
  Ti  Ti134  1  0.69614528  0.50406355  0.63353641  1
  Ti  Ti135  1  0.81010270  0.79562729  0.26176418  1
  Ti  Ti136  1  0.20745295  0.80815949  0.24494860  1
  Ti  Ti137  1  0.69304866  0.10041852  0.87858396  1
  Ti  Ti138  1  0.08528342  0.70455539  0.88823066  1
  Ti  Ti139  1  0.59884719  0.00265266  0.49958525  1
  Ti  Ti140  1  0.49670785  0.29817551  0.37808460  1
  Ti  Ti141  1  0.48897065  0.49318114  0.11001976  1
  Ti  Ti142  1  0.60214496  0.40412145  -0.01419678  1
  Ti  Ti143  1  0.70696383  0.69436599  0.63384673  1
  Ti  Ti144  1  0.60658118  0.40340134  0.76269479  1
  Ti  Ti145  1  0.10132013  0.10087398  0.62152069  1
  Ti  Ti146  1  0.10653610  0.89825824  0.13041713  1
  Ti  Ti147  1  0.49728969  0.69462206  0.63302660  1
  Ti  Ti148  1  0.90032521  0.89694124  0.13852358  1
  Ti  Ti149  1  -0.00333088  -0.00822881  0.47510119  1
  Ti  Ti150  1  0.48640707  0.71087929  0.10457490  1
  Ti  Ti151  1  0.39877782  0.80670985  0.24560594  1
  Ti  Ti152  1  0.89513999  0.70252419  0.62352122  1
  Ti  Ti153  1  0.29906063  0.50179293  0.12019689  1
  Ti  Ti154  1  0.69754239  0.10228905  0.38255965  1
  Ti  Ti155  1  0.39941681  0.40671190  0.77279751  1
  Ti  Ti156  1  0.00636947  0.59979752  0.24987882  1
  Ti  Ti157  1  0.37788145  0.81108316  0.51856490  1
  Ti  Ti158  1  0.00420296  0.20158304  0.49596159  1
  Ti  Ti159  1  0.60065794  0.80778545  0.00745629  1
  Mo  Mo160  1  0.11183382  0.49892225  0.35606251  1
  Mo  Mo161  1  0.09616874  0.09466825  0.87344608  1
  Mo  Mo162  1  0.50665546  0.09993143  0.38400369  1
  Mo  Mo163  1  0.50530916  0.50054312  0.86411726  1
  Mo  Mo164  1  0.90417449  0.89743722  0.35531816  1
  Mo  Mo165  1  0.19717073  0.00429415  0.00196263  1
  Mo  Mo166  1  0.20166033  0.60004285  0.23468595  1
  Mo  Mo167  1  0.90331373  0.29379604  0.39815910  1
  Mo  Mo168  1  0.29452675  0.09427423  0.88571563  1
  Mo  Mo169  1  0.69385619  0.90132830  0.62477983  1
  Mo  Mo170  1  0.00623142  0.01091311  0.75612855  1
  Mo  Mo171  1  -0.00300749  0.39014009  0.74936507  1
  Mo  Mo172  1  0.60075108  0.19011078  0.76818876  1
  Mo  Mo173  1  0.69225282  0.69410613  0.36482805  1
  Mo  Mo174  1  0.69828775  0.30374786  0.88280772  1
  Mo  Mo175  1  0.30260865  0.70078299  0.88397105  1
  Mo  Mo176  1  0.29601942  0.89437463  0.36823419  1
  Mo  Mo177  1  0.60448824  0.19576741  -0.01376071  1
  Mo  Mo178  1  0.39575973  -0.00274813  -0.02393307  1
  Mo  Mo179  1  0.89686035  0.89859550  0.63368631  1
  Mo  Mo180  1  0.39516404  0.40526613  -0.01284047  1
  Mo  Mo181  1  0.29187863  0.09846156  0.62998523  1
  Mo  Mo182  1  0.60453517  0.60001173  0.73625456  1
  Mo  Mo183  1  0.20267370  0.79712915  0.51535121  1
  Mo  Mo184  1  0.29786479  0.90375706  0.64710521  1
  Mo  Mo185  1  -0.00191493  0.60258926  0.01369894  1
  Mo  Mo186  1  0.29188680  0.09540208  0.10745012  1
  Mo  Mo187  1  0.79352279  0.19913171  0.25627829  1
  Mo  Mo188  1  0.10575312  0.70552721  0.60993391  1
  Mo  Mo189  1  0.11168229  0.89305189  0.35829184  1
  Mo  Mo190  1  0.40165746  0.79298475  -0.02044593  1
  Mo  Mo191  1  0.29888208  0.90643477  0.87146122  1
  Mo  Mo192  1  0.89896330  0.10032734  0.39254867  1
  Mo  Mo193  1  0.00024529  0.19744527  -0.00335368  1
  Mo  Mo194  1  0.80295422  0.79674217  0.72998493  1
  Mo  Mo195  1  0.60287647  -0.00212387  -0.01864329  1
  Mo  Mo196  1  0.49935193  0.89261085  0.10455103  1
  Mo  Mo197  1  0.90421858  0.30312732  0.88434388  1
  Mo  Mo198  1  0.90469324  0.69934956  0.36229546  1
  Mo  Mo199  1  0.29830520  0.49645097  0.86910572  1
