# generated using pymatgen
data_HfZrTaTiMo
_symmetry_space_group_name_H-M   'P 1'
_cell_length_a   15.84263083
_cell_length_b   15.84278782
_cell_length_c   15.40123201
_cell_angle_alpha   90.01216844
_cell_angle_beta   89.99665769
_cell_angle_gamma   89.78144632
_symmetry_Int_Tables_number   1
_chemical_formula_structural   HfZrTaTiMo
_chemical_formula_sum   'Hf40 Zr40 Ta40 Ti40 Mo40'
_cell_volume   3865.54916433
_cell_formula_units_Z   40
loop_
 _symmetry_equiv_pos_site_id
 _symmetry_equiv_pos_as_xyz
  1  'x, y, z'
loop_
 _atom_site_type_symbol
 _atom_site_label
 _atom_site_symmetry_multiplicity
 _atom_site_fract_x
 _atom_site_fract_y
 _atom_site_fract_z
 _atom_site_occupancy
  Hf  Hf0  1  0.30310134  0.50883868  0.38863160  1
  Hf  Hf1  1  0.70390979  0.29630754  0.62622964  1
  Hf  Hf2  1  0.00580761  0.57549498  0.74642824  1
  Hf  Hf3  1  0.40298593  0.80614362  0.50915067  1
  Hf  Hf4  1  0.50335761  0.29371130  0.37686508  1
  Hf  Hf5  1  0.91471062  0.47540919  0.61148541  1
  Hf  Hf6  1  0.49547717  0.08386559  0.11458911  1
  Hf  Hf7  1  0.79510251  0.18899543  0.02167061  1
  Hf  Hf8  1  0.20284355  0.59964577  0.73887968  1
  Hf  Hf9  1  0.09458771  0.89954588  0.62657939  1
  Hf  Hf10  1  0.39839189  0.80579851  0.74380272  1
  Hf  Hf11  1  0.40012172  -0.00357979  0.27557434  1
  Hf  Hf12  1  0.89871962  0.69969550  0.86571155  1
  Hf  Hf13  1  0.87725855  0.90037839  0.13050749  1
  Hf  Hf14  1  0.09165994  0.10288016  0.61340845  1
  Hf  Hf15  1  0.69657007  0.70872054  0.37325196  1
  Hf  Hf16  1  0.20937372  -0.01270976  -0.02167445  1
  Hf  Hf17  1  0.17979365  0.40519494  0.74397333  1
  Hf  Hf18  1  0.88637081  0.10174813  0.86520324  1
  Hf  Hf19  1  0.30114338  0.29129155  0.87249358  1
  Hf  Hf20  1  -0.00999297  -0.00616564  -0.00934960  1
  Hf  Hf21  1  0.89405507  0.50757519  0.37045125  1
  Hf  Hf22  1  0.00222901  0.60547097  0.00424036  1
  Hf  Hf23  1  0.81104392  0.40187020  0.75500089  1
  Hf  Hf24  1  0.39963610  0.19731306  0.24927675  1
  Hf  Hf25  1  0.61190726  0.60309176  0.74489265  1
  Hf  Hf26  1  0.20266607  0.39566201  0.24698334  1
  Hf  Hf27  1  0.30285728  0.49476054  0.87295762  1
  Hf  Hf28  1  -0.00168410  0.19824870  0.00937300  1
  Hf  Hf29  1  0.89241353  0.50312746  0.12479960  1
  Hf  Hf30  1  0.00484055  0.19457920  0.25547783  1
  Hf  Hf31  1  0.88581856  0.29344947  0.35481691  1
  Hf  Hf32  1  0.59932146  0.41000733  0.01127957  1
  Hf  Hf33  1  0.70202810  0.49749136  0.61171801  1
  Hf  Hf34  1  0.19748801  0.19416427  0.25837444  1
  Hf  Hf35  1  0.09643028  0.69870235  0.86608090  1
  Hf  Hf36  1  0.19745992  0.79975193  -0.00705368  1
  Hf  Hf37  1  0.88842266  0.89192448  0.86052247  1
  Hf  Hf38  1  0.51154266  0.70793599  0.12225281  1
  Hf  Hf39  1  0.09620288  0.10519032  0.86577248  1
  Zr  Zr40  1  0.19758531  0.39917222  0.00114279  1
  Zr  Zr41  1  0.30014163  0.10325860  0.39851078  1
  Zr  Zr42  1  0.19849717  0.20529437  0.73217163  1
  Zr  Zr43  1  0.29628561  0.30486333  0.39204364  1
  Zr  Zr44  1  0.60264538  0.40809768  0.76198328  1
  Zr  Zr45  1  0.69938686  0.29286570  0.87623314  1
  Zr  Zr46  1  0.30417102  0.69886605  0.87563106  1
  Zr  Zr47  1  0.60473065  0.00240986  0.50098937  1
  Zr  Zr48  1  0.60436350  -0.00368594  0.26286591  1
  Zr  Zr49  1  0.61857064  0.82165156  0.00089434  1
  Zr  Zr50  1  0.40102448  0.40804480  0.24478795  1
  Zr  Zr51  1  0.30228653  0.70174051  0.37420489  1
  Zr  Zr52  1  -0.01713443  -0.00926480  0.49169617  1
  Zr  Zr53  1  0.87937308  0.09866470  0.62415524  1
  Zr  Zr54  1  0.41116998  0.59656982  0.74174424  1
  Zr  Zr55  1  0.69131777  0.08861539  0.87213133  1
  Zr  Zr56  1  0.30163485  0.70935443  0.12920522  1
  Zr  Zr57  1  0.10631360  0.49592907  0.38545774  1
  Zr  Zr58  1  0.29829818  0.09304408  0.11650028  1
  Zr  Zr59  1  0.50999111  0.68731274  0.37770282  1
  Zr  Zr60  1  0.80651271  0.80778656  0.51369493  1
  Zr  Zr61  1  0.49582515  0.10453456  0.87691891  1
  Zr  Zr62  1  0.40194746  0.82444925  -0.01064759  1
  Zr  Zr63  1  0.10341815  0.89912831  0.12581118  1
  Zr  Zr64  1  0.09429119  0.49747347  0.13286534  1
  Zr  Zr65  1  -0.00111110  0.60454783  0.50587445  1
  Zr  Zr66  1  0.11149516  0.69314177  0.36913606  1
  Zr  Zr67  1  0.21243696  0.00268385  0.74005618  1
  Zr  Zr68  1  -0.00135774  0.80392477  0.26171953  1
  Zr  Zr69  1  0.51773111  0.70418397  0.87813997  1
  Zr  Zr70  1  0.89612773  0.30442647  0.13539964  1
  Zr  Zr71  1  0.60218302  0.20017031  0.01967121  1
  Zr  Zr72  1  0.89619113  0.29870099  0.88572326  1
  Zr  Zr73  1  0.29931390  0.49364021  0.61211244  1
  Zr  Zr74  1  -0.00344494  0.79787364  0.49834724  1
  Zr  Zr75  1  0.40969155  0.38999447  0.74223787  1
  Zr  Zr76  1  0.79690003  0.39367379  0.48165405  1
  Zr  Zr77  1  0.00386296  -0.00450620  0.27051551  1
  Zr  Zr78  1  0.40446456  0.59230424  0.01345743  1
  Zr  Zr79  1  0.10250112  0.09186826  0.11999270  1
  Ta  Ta80  1  -0.00561394  0.00199405  0.74630629  1
  Ta  Ta81  1  0.80163164  0.61354680  0.51432022  1
  Ta  Ta82  1  0.58831547  0.20582133  0.74156981  1
  Ta  Ta83  1  0.20408636  -0.00439848  0.27134524  1
  Ta  Ta84  1  0.51135488  0.49733147  0.60572935  1
  Ta  Ta85  1  0.70450090  0.90837179  0.64501990  1
  Ta  Ta86  1  0.77815698  0.41754810  0.25420965  1
  Ta  Ta87  1  0.69080228  0.29122483  0.35988064  1
  Ta  Ta88  1  0.88912333  0.70060244  0.36339198  1
  Ta  Ta89  1  0.49627543  0.29970439  0.88365735  1
  Ta  Ta90  1  0.09251966  0.30108841  0.87159168  1
  Ta  Ta91  1  0.89382690  0.08625124  0.13776379  1
  Ta  Ta92  1  0.79204617  0.60683899  0.23926072  1
  Ta  Ta93  1  0.80651267  0.59757605  0.73617940  1
  Ta  Ta94  1  0.71636423  0.70854212  0.87339351  1
  Ta  Ta95  1  0.30792798  0.90768528  0.13578842  1
  Ta  Ta96  1  0.60946516  0.80217771  0.52043170  1
  Ta  Ta97  1  0.89722444  0.50365061  0.88797275  1
  Ta  Ta98  1  0.07585888  0.31933558  0.60954575  1
  Ta  Ta99  1  0.29673228  0.29523354  0.11921924  1
  Ta  Ta100  1  0.41112986  0.59344576  0.24184250  1
  Ta  Ta101  1  0.09224561  0.89216469  0.85544429  1
  Ta  Ta102  1  0.88449015  0.09896790  0.36957347  1
  Ta  Ta103  1  0.60558473  0.59072129  0.23195306  1
  Ta  Ta104  1  0.19871992  0.59716771  0.00685008  1
  Ta  Ta105  1  0.51246009  0.88468331  0.38098233  1
  Ta  Ta106  1  0.59442690  0.41055484  0.25262257  1
  Ta  Ta107  1  0.50695188  0.91852393  0.85310205  1
  Ta  Ta108  1  0.50708622  0.90734642  0.63534554  1
  Ta  Ta109  1  0.20500995  0.80011176  0.73846686  1
  Ta  Ta110  1  0.40723346  0.60577448  0.51143076  1
  Ta  Ta111  1  0.40726691  0.80401443  0.25695596  1
  Ta  Ta112  1  0.69716974  0.89726068  0.84977133  1
  Ta  Ta113  1  0.40098056  0.39652696  0.00960104  1
  Ta  Ta114  1  0.31004356  0.09683907  0.87449228  1
  Ta  Ta115  1  0.20962210  0.79537646  0.51937972  1
  Ta  Ta116  1  -0.01237602  0.21468390  0.73510685  1
  Ta  Ta117  1  -0.01719571  0.20580068  0.49517011  1
  Ta  Ta118  1  0.59962499  0.19629246  0.23502904  1
  Ta  Ta119  1  0.10065043  0.70169356  0.13345853  1
  Ti  Ti120  1  0.11942532  0.89521629  0.39173406  1
  Ti  Ti121  1  0.09675085  0.29921086  0.38898037  1
  Ti  Ti122  1  0.50007656  0.10128756  0.62414248  1
  Ti  Ti123  1  0.78839854  0.19684019  0.49502823  1
  Ti  Ti124  1  0.89713511  0.70699307  0.12988449  1
  Ti  Ti125  1  0.51039856  0.30120137  0.61180536  1
  Ti  Ti126  1  0.39769004  0.19594113  0.73555081  1
  Ti  Ti127  1  0.39645108  0.20148814  0.00529505  1
  Ti  Ti128  1  0.79088552  -0.00787686  0.48726476  1
  Ti  Ti129  1  0.70865454  0.52297798  0.89399570  1
  Ti  Ti130  1  0.21382730  0.59298792  0.23410348  1
  Ti  Ti131  1  0.79419141  0.40533429  0.00513051  1
  Ti  Ti132  1  0.50573925  0.50410878  0.88643361  1
  Ti  Ti133  1  0.19386058  0.20681148  0.51211753  1
  Ti  Ti134  1  0.09941069  0.09922863  0.39713623  1
  Ti  Ti135  1  -0.00333645  0.80077859  0.00405809  1
  Ti  Ti136  1  0.50685586  0.10743676  0.38728633  1
  Ti  Ti137  1  0.21543494  -0.00956696  0.50959422  1
  Ti  Ti138  1  0.70348379  0.06018561  0.11688409  1
  Ti  Ti139  1  0.40271737  -0.00444240  0.50425477  1
  Ti  Ti140  1  0.20762186  0.80977254  0.25419498  1
  Ti  Ti141  1  0.40686042  0.19906212  0.51211861  1
  Ti  Ti142  1  0.00064064  0.39892441  0.25852533  1
  Ti  Ti143  1  0.51071486  0.70162700  0.62585916  1
  Ti  Ti144  1  0.09795922  0.69773209  0.62992125  1
  Ti  Ti145  1  0.70968627  0.70750033  0.11693421  1
  Ti  Ti146  1  0.00297867  0.40298267  -0.00565768  1
  Ti  Ti147  1  0.69461722  0.10761043  0.37653106  1
  Ti  Ti148  1  0.30098436  0.30100029  0.61527145  1
  Ti  Ti149  1  0.09979621  0.29703473  0.12475853  1
  Ti  Ti150  1  0.49710284  0.30218769  0.12796942  1
  Ti  Ti151  1  0.60114050  0.39968473  0.48152342  1
  Ti  Ti152  1  0.50558291  0.90217335  0.13361689  1
  Ti  Ti153  1  0.69795472  0.31244442  0.13927668  1
  Ti  Ti154  1  0.69354859  0.10321864  0.63479239  1
  Ti  Ti155  1  0.40942394  0.40120697  0.49742350  1
  Ti  Ti156  1  0.78359250  0.18452947  0.23617114  1
  Ti  Ti157  1  0.19774386  0.19839260  -0.00520765  1
  Ti  Ti158  1  -0.00183824  0.60352554  0.24825954  1
  Ti  Ti159  1  0.68789964  0.51833752  0.38449351  1
  Mo  Mo160  1  0.59911404  0.79464017  0.24180337  1
  Mo  Mo161  1  0.40071975  -0.00656754  -0.00731927  1
  Mo  Mo162  1  0.30685298  0.10637588  0.60789053  1
  Mo  Mo163  1  0.89762825  0.90147772  0.64380559  1
  Mo  Mo164  1  0.50350751  0.50113849  0.11986871  1
  Mo  Mo165  1  0.79706795  0.00138208  0.75059221  1
  Mo  Mo166  1  0.60153281  0.80178023  0.74209319  1
  Mo  Mo167  1  -0.00498353  0.39218371  0.47217618  1
  Mo  Mo168  1  0.09776939  0.49812206  0.88943032  1
  Mo  Mo169  1  0.80772575  0.79997081  0.00059990  1
  Mo  Mo170  1  0.30420554  0.69998684  0.62300923  1
  Mo  Mo171  1  0.40121786  0.01216799  0.73313833  1
  Mo  Mo172  1  0.69672564  0.89345330  0.37282850  1
  Mo  Mo173  1  0.70281146  0.70294432  0.63309408  1
  Mo  Mo174  1  0.69567692  0.88995752  0.14187280  1
  Mo  Mo175  1  0.20395403  0.60743062  0.51947746  1
  Mo  Mo176  1  0.61080622  0.60604247  0.00275490  1
  Mo  Mo177  1  0.70141604  0.50781854  0.11506186  1
  Mo  Mo178  1  0.78443220  -0.01786769  -0.00985128  1
  Mo  Mo179  1  0.30097819  0.90543779  0.85164957  1
  Mo  Mo180  1  0.00207643  0.79570632  0.73594851  1
  Mo  Mo181  1  0.60145467  0.20178213  0.50908408  1
  Mo  Mo182  1  0.30088641  0.49888834  0.12578207  1
  Mo  Mo183  1  0.79380119  -0.00025818  0.26769479  1
  Mo  Mo184  1  0.79236325  0.79763474  0.25069466  1
  Mo  Mo185  1  0.80148094  0.79400867  0.73276721  1
  Mo  Mo186  1  0.89449900  0.29331123  0.61723381  1
  Mo  Mo187  1  0.90536616  0.69549546  0.64142893  1
  Mo  Mo188  1  0.19732583  0.39578231  0.50883664  1
  Mo  Mo189  1  0.59580867  0.01121229  0.73494218  1
  Mo  Mo190  1  0.80230417  0.61013375  0.01113723  1
  Mo  Mo191  1  -0.00143429  0.39602171  0.76315489  1
  Mo  Mo192  1  0.30357878  0.89624953  0.38118232  1
  Mo  Mo193  1  0.10129914  0.49768158  0.60434119  1
  Mo  Mo194  1  0.50504280  0.50153923  0.38868638  1
  Mo  Mo195  1  0.88094042  0.89602766  0.36281895  1
  Mo  Mo196  1  0.79187774  0.20268784  0.74417789  1
  Mo  Mo197  1  0.59544606  -0.00970859  0.00122597  1
  Mo  Mo198  1  0.30450139  0.90453906  0.62699206  1
  Mo  Mo199  1  0.60631696  0.60589135  0.51392106  1
