# generated using pymatgen
data_HfZrTaTiMo
_symmetry_space_group_name_H-M   'P 1'
_cell_length_a   15.82948700
_cell_length_b   15.83545847
_cell_length_c   15.44314325
_cell_angle_alpha   89.96925619
_cell_angle_beta   89.94654164
_cell_angle_gamma   90.17969468
_symmetry_Int_Tables_number   1
_chemical_formula_structural   HfZrTaTiMo
_chemical_formula_sum   'Hf40 Zr40 Ta40 Ti40 Mo40'
_cell_volume   3871.06794373
_cell_formula_units_Z   40
loop_
 _symmetry_equiv_pos_site_id
 _symmetry_equiv_pos_as_xyz
  1  'x, y, z'
loop_
 _atom_site_type_symbol
 _atom_site_label
 _atom_site_symmetry_multiplicity
 _atom_site_fract_x
 _atom_site_fract_y
 _atom_site_fract_z
 _atom_site_occupancy
  Hf  Hf0  1  0.40069297  0.59837269  -0.00632046  1
  Hf  Hf1  1  0.48991525  0.68700878  0.37275526  1
  Hf  Hf2  1  0.20162574  0.00524344  0.74861978  1
  Hf  Hf3  1  0.28769082  0.70837334  0.62122226  1
  Hf  Hf4  1  0.80125489  0.38638907  0.75556249  1
  Hf  Hf5  1  0.80969038  0.40580992  0.49546739  1
  Hf  Hf6  1  0.90224893  0.28730750  0.89186680  1
  Hf  Hf7  1  0.41560030  0.42494108  0.23111963  1
  Hf  Hf8  1  0.79256222  0.39780318  -0.00237439  1
  Hf  Hf9  1  0.50253461  0.11438126  0.13364594  1
  Hf  Hf10  1  0.20152787  0.20420345  0.25315171  1
  Hf  Hf11  1  0.70632466  0.70592352  0.37276879  1
  Hf  Hf12  1  0.89983274  0.89406509  0.61831219  1
  Hf  Hf13  1  0.91022261  0.50105899  0.63046941  1
  Hf  Hf14  1  0.09840276  0.50088756  0.12240004  1
  Hf  Hf15  1  0.68881833  0.27880539  0.88406005  1
  Hf  Hf16  1  0.49177192  0.90158055  0.63331721  1
  Hf  Hf17  1  0.40645635  0.41839710  0.51324457  1
  Hf  Hf18  1  0.80054416  0.59270994  0.00001292  1
  Hf  Hf19  1  0.89970999  0.08956426  0.12687778  1
  Hf  Hf20  1  0.30544993  0.31386109  0.37079475  1
  Hf  Hf21  1  0.38953664  0.79671195  0.24731510  1
  Hf  Hf22  1  0.49107663  0.90288347  0.12649853  1
  Hf  Hf23  1  -0.01222708  0.78893814  0.48298198  1
  Hf  Hf24  1  0.08667002  0.70608022  0.12373389  1
  Hf  Hf25  1  0.59416573  0.59389338  0.50695874  1
  Hf  Hf26  1  0.21502590  0.19309103  -0.00080533  1
  Hf  Hf27  1  0.00048360  0.19509262  0.74859590  1
  Hf  Hf28  1  0.71077768  0.29513840  0.38439076  1
  Hf  Hf29  1  0.31605325  0.51899190  0.36985074  1
  Hf  Hf30  1  0.19367885  0.81445501  -0.00650466  1
  Hf  Hf31  1  0.61344684  0.00492331  0.74497186  1
  Hf  Hf32  1  0.31378390  0.29984016  0.12081313  1
  Hf  Hf33  1  0.59771329  0.00065476  0.50064446  1
  Hf  Hf34  1  0.90210805  0.29260252  0.11232597  1
  Hf  Hf35  1  0.40039126  0.01154878  -0.00654531  1
  Hf  Hf36  1  0.59589360  0.19259172  0.49651319  1
  Hf  Hf37  1  0.69378909  0.27536518  0.11894506  1
  Hf  Hf38  1  0.89674659  0.70581153  0.11629498  1
  Hf  Hf39  1  0.49697668  0.29969406  0.63077629  1
  Zr  Zr40  1  0.00415823  0.59442616  0.49353165  1
  Zr  Zr41  1  0.39390210  0.21051313  0.75517942  1
  Zr  Zr42  1  -0.01045018  -0.00137739  0.75465226  1
  Zr  Zr43  1  0.60960686  -0.00195210  0.25354228  1
  Zr  Zr44  1  0.59875230  0.40249495  0.51437567  1
  Zr  Zr45  1  0.29017227  0.90093638  0.38204467  1
  Zr  Zr46  1  0.18911051  0.60727743  -0.01180447  1
  Zr  Zr47  1  0.09469374  0.09972665  0.61187265  1
  Zr  Zr48  1  0.80434109  0.38324035  0.24836874  1
  Zr  Zr49  1  0.10417402  0.30458189  0.61285350  1
  Zr  Zr50  1  0.69068048  0.69784648  0.88693340  1
  Zr  Zr51  1  0.79365573  0.60479505  0.24027746  1
  Zr  Zr52  1  0.20263867  0.41520428  0.50037740  1
  Zr  Zr53  1  0.80257525  0.18078759  0.73964854  1
  Zr  Zr54  1  0.09850535  0.88944165  0.61587516  1
  Zr  Zr55  1  0.61213732  0.80857053  0.50280878  1
  Zr  Zr56  1  0.10243709  0.08953437  0.13844001  1
  Zr  Zr57  1  0.20081337  -0.00129618  -0.00446827  1
  Zr  Zr58  1  0.68885546  0.49640288  0.36401716  1
  Zr  Zr59  1  0.80585241  0.60114701  0.76677686  1
  Zr  Zr60  1  0.10212079  0.30379678  0.11454362  1
  Zr  Zr61  1  0.50492620  0.49744948  0.87194827  1
  Zr  Zr62  1  0.70548164  0.50678869  0.63574146  1
  Zr  Zr63  1  0.80700991  0.80089142  0.76198752  1
  Zr  Zr64  1  0.39685481  0.61119054  0.75857383  1
  Zr  Zr65  1  0.49974399  0.70150511  0.63032644  1
  Zr  Zr66  1  0.60264873  0.19754772  0.27177969  1
  Zr  Zr67  1  0.39790871  0.20276991  0.49218731  1
  Zr  Zr68  1  0.18915719  0.81467795  0.24333403  1
  Zr  Zr69  1  0.50685215  0.70619811  0.11290352  1
  Zr  Zr70  1  0.49538575  0.73223896  0.88354098  1
  Zr  Zr71  1  0.30351826  0.71594955  0.10364393  1
  Zr  Zr72  1  0.09725196  0.50383723  0.86630988  1
  Zr  Zr73  1  0.60245172  0.01137460  0.00133554  1
  Zr  Zr74  1  -0.00835574  0.20281102  0.26384290  1
  Zr  Zr75  1  0.21605167  0.60719209  0.23806144  1
  Zr  Zr76  1  0.00027716  0.39059903  0.75316431  1
  Zr  Zr77  1  0.19690955  0.79717818  0.75821504  1
  Zr  Zr78  1  0.49464965  0.89845187  0.36976823  1
  Zr  Zr79  1  0.79718631  -0.00516163  0.00501628  1
  Ta  Ta80  1  0.71013230  0.70337980  0.62642516  1
  Ta  Ta81  1  -0.00491514  -0.01283503  0.26960459  1
  Ta  Ta82  1  0.89626911  0.08832469  0.38725968  1
  Ta  Ta83  1  0.10782784  0.50447509  0.36236395  1
  Ta  Ta84  1  -0.00093494  0.20053428  0.48544162  1
  Ta  Ta85  1  0.10683630  0.51145789  0.64401346  1
  Ta  Ta86  1  0.19851874  0.20534143  0.75876527  1
  Ta  Ta87  1  -0.00080995  0.60377651  0.25606437  1
  Ta  Ta88  1  0.58049632  0.58625614  0.23677376  1
  Ta  Ta89  1  0.49513564  0.10033803  0.63259868  1
  Ta  Ta90  1  0.90481860  0.49706778  0.12982674  1
  Ta  Ta91  1  0.89602408  0.09515153  0.88930917  1
  Ta  Ta92  1  0.69109412  0.89540391  0.88111616  1
  Ta  Ta93  1  0.69117412  0.48825372  0.12608906  1
  Ta  Ta94  1  0.30567074  0.10441394  0.86775564  1
  Ta  Ta95  1  0.78910735  -0.02177923  0.49795984  1
  Ta  Ta96  1  0.60951689  0.19736575  0.73464153  1
  Ta  Ta97  1  0.90133031  0.50090466  0.36401689  1
  Ta  Ta98  1  0.10287334  0.09316667  0.37881856  1
  Ta  Ta99  1  0.42377511  0.21506360  -0.01102543  1
  Ta  Ta100  1  0.60217127  0.39438442  0.74540212  1
  Ta  Ta101  1  0.31900535  0.89684982  0.86676972  1
  Ta  Ta102  1  0.29230185  0.50708098  0.64670267  1
  Ta  Ta103  1  0.39829341  0.00966937  0.50145168  1
  Ta  Ta104  1  0.51329002  0.11264360  0.86462653  1
  Ta  Ta105  1  0.30029177  0.09399598  0.36417354  1
  Ta  Ta106  1  0.20489885  0.40527987  0.24621961  1
  Ta  Ta107  1  0.10697693  0.70279401  0.37056765  1
  Ta  Ta108  1  -0.01770567  0.80064506  0.26649442  1
  Ta  Ta109  1  0.29555633  0.49416839  0.87392202  1
  Ta  Ta110  1  0.00358412  0.39957026  0.25845095  1
  Ta  Ta111  1  0.20479692  0.00437510  0.50327369  1
  Ta  Ta112  1  0.70975344  0.29175486  0.61539522  1
  Ta  Ta113  1  0.10480803  0.30561778  0.37766422  1
  Ta  Ta114  1  0.50606641  0.32368268  0.36674380  1
  Ta  Ta115  1  0.60416006  0.80486374  0.74542582  1
  Ta  Ta116  1  0.29560563  0.70513601  0.39071136  1
  Ta  Ta117  1  0.90207803  0.29218048  0.60674602  1
  Ta  Ta118  1  0.57848051  0.38043601  0.00819747  1
  Ta  Ta119  1  0.10673478  0.29809357  0.88927631  1
  Ti  Ti120  1  0.60786366  0.79596448  0.24867032  1
  Ti  Ti121  1  0.60238714  0.58913030  0.00718991  1
  Ti  Ti122  1  0.39653698  0.80380549  0.50189370  1
  Ti  Ti123  1  0.80440546  -0.01833690  0.25754957  1
  Ti  Ti124  1  0.90125059  0.89141463  0.12283972  1
  Ti  Ti125  1  0.09262700  0.89873484  0.86541629  1
  Ti  Ti126  1  0.29900663  0.70902734  0.87821899  1
  Ti  Ti127  1  0.39867951  0.40398597  0.74816828  1
  Ti  Ti128  1  0.40324005  0.00479289  0.75378089  1
  Ti  Ti129  1  0.00699005  0.18432747  0.00126987  1
  Ti  Ti130  1  0.20519756  0.19871703  0.49045920  1
  Ti  Ti131  1  0.69729210  0.70505391  0.11484265  1
  Ti  Ti132  1  0.90499573  0.69860994  0.63172296  1
  Ti  Ti133  1  0.09735902  0.90212384  0.38773544  1
  Ti  Ti134  1  0.79747361  -0.00208165  0.74875541  1
  Ti  Ti135  1  0.29386322  0.30317905  0.62276083  1
  Ti  Ti136  1  0.89474695  0.09254688  0.59944570  1
  Ti  Ti137  1  0.90739920  0.50442974  0.87633115  1
  Ti  Ti138  1  0.80046243  0.18236798  0.25534211  1
  Ti  Ti139  1  0.08593355  0.90391154  0.12865666  1
  Ti  Ti140  1  0.69146156  0.49320548  0.87185975  1
  Ti  Ti141  1  0.40557291  0.20265799  0.26407768  1
  Ti  Ti142  1  0.00288004  0.40252546  0.48633491  1
  Ti  Ti143  1  0.19645880  0.60451974  0.50264127  1
  Ti  Ti144  1  0.39756535  0.59896552  0.51845928  1
  Ti  Ti145  1  0.80992349  0.60921557  0.49336329  1
  Ti  Ti146  1  0.70983239  0.08894647  0.38332338  1
  Ti  Ti147  1  0.10001096  0.10054027  0.87563801  1
  Ti  Ti148  1  -0.00005280  0.40820251  -0.00379917  1
  Ti  Ti149  1  0.70288775  0.88895457  0.12165504  1
  Ti  Ti150  1  0.29824001  0.49472137  0.10250550  1
  Ti  Ti151  1  0.09134474  0.69638291  0.63873314  1
  Ti  Ti152  1  0.30019041  0.10570038  0.62859914  1
  Ti  Ti153  1  0.30746023  0.09213740  0.14275746  1
  Ti  Ti154  1  -0.00260612  0.79731503  -0.01580311  1
  Ti  Ti155  1  0.20420386  0.39263390  0.75597086  1
  Ti  Ti156  1  0.00327655  -0.00768633  -0.00659946  1
  Ti  Ti157  1  0.89708812  0.89438185  0.88245972  1
  Ti  Ti158  1  0.29902254  0.90311784  0.62298462  1
  Ti  Ti159  1  0.30495783  0.31109847  0.88747593  1
  Mo  Mo160  1  -0.00520543  0.79398026  0.76472065  1
  Mo  Mo161  1  0.40071897  0.60728530  0.23162603  1
  Mo  Mo162  1  0.60303332  0.81480327  0.00529291  1
  Mo  Mo163  1  -0.00159431  0.60771987  0.74941360  1
  Mo  Mo164  1  0.20253543  0.39887257  -0.00700041  1
  Mo  Mo165  1  0.19179346  0.00146696  0.25508054  1
  Mo  Mo166  1  0.50014486  0.50504237  0.37346700  1
  Mo  Mo167  1  0.70876878  0.09186031  0.14519406  1
  Mo  Mo168  1  -0.00749901  0.59564508  0.00321229  1
  Mo  Mo169  1  0.08720725  0.70486342  0.86987919  1
  Mo  Mo170  1  0.70454083  0.89371088  0.36372660  1
  Mo  Mo171  1  0.39483949  0.81931680  0.00301319  1
  Mo  Mo172  1  0.70772218  0.09680429  0.87171243  1
  Mo  Mo173  1  0.70406356  0.89684513  0.63841873  1
  Mo  Mo174  1  0.49005442  0.09829833  0.36982608  1
  Mo  Mo175  1  0.70495349  0.09406536  0.60834913  1
  Mo  Mo176  1  0.88645726  0.89272619  0.38037798  1
  Mo  Mo177  1  0.60331447  0.60120675  0.74367702  1
  Mo  Mo178  1  0.90493215  0.69569508  0.89538365  1
  Mo  Mo179  1  0.39508002  0.00444487  0.25139386  1
  Mo  Mo180  1  0.80070130  0.18818131  0.50288472  1
  Mo  Mo181  1  0.49740710  0.50490703  0.65181998  1
  Mo  Mo182  1  0.59800928  0.19267236  -0.00011998  1
  Mo  Mo183  1  0.29574167  0.91739070  0.13031284  1
  Mo  Mo184  1  0.90519136  0.29783670  0.38671282  1
  Mo  Mo185  1  0.79860397  0.80134852  -0.00116122  1
  Mo  Mo186  1  0.19986452  0.60350581  0.76085782  1
  Mo  Mo187  1  0.39724071  0.81163521  0.74260984  1
  Mo  Mo188  1  0.50077885  0.29852344  0.14070321  1
  Mo  Mo189  1  0.50274863  0.30193820  0.85743570  1
  Mo  Mo190  1  0.79893131  0.18555538  0.00460337  1
  Mo  Mo191  1  0.89642739  0.69389607  0.36583613  1
  Mo  Mo192  1  -0.00211679  -0.00375612  0.48477575  1
  Mo  Mo193  1  0.50220907  0.91212689  0.86434551  1
  Mo  Mo194  1  0.60039181  0.39736917  0.23419133  1
  Mo  Mo195  1  0.39890740  0.39797690  0.00009548  1
  Mo  Mo196  1  0.19175717  0.79721515  0.50457957  1
  Mo  Mo197  1  0.79405365  0.80406956  0.23492288  1
  Mo  Mo198  1  0.80056683  0.78985490  0.51177034  1
  Mo  Mo199  1  0.50059516  0.49999233  0.10008241  1
