# generated using pymatgen
data_HfZrTaTiMo
_symmetry_space_group_name_H-M   'P 1'
_cell_length_a   15.83793427
_cell_length_b   15.83588092
_cell_length_c   15.41135046
_cell_angle_alpha   89.95438147
_cell_angle_beta   89.97651349
_cell_angle_gamma   90.03841822
_symmetry_Int_Tables_number   1
_chemical_formula_structural   HfZrTaTiMo
_chemical_formula_sum   'Hf40 Zr40 Ta40 Ti40 Mo40'
_cell_volume   3865.28203696
_cell_formula_units_Z   40
loop_
 _symmetry_equiv_pos_site_id
 _symmetry_equiv_pos_as_xyz
  1  'x, y, z'
loop_
 _atom_site_type_symbol
 _atom_site_label
 _atom_site_symmetry_multiplicity
 _atom_site_fract_x
 _atom_site_fract_y
 _atom_site_fract_z
 _atom_site_occupancy
  Hf  Hf0  1  -0.01075373  0.19809787  0.49250012  1
  Hf  Hf1  1  -0.00316069  0.79775016  0.01149389  1
  Hf  Hf2  1  0.09453530  0.88839459  0.62346085  1
  Hf  Hf3  1  0.30038090  0.30366701  0.38236531  1
  Hf  Hf4  1  0.60362465  0.20059276  0.51441205  1
  Hf  Hf5  1  0.50171186  0.10217508  0.87318896  1
  Hf  Hf6  1  -0.00516376  0.00176010  0.49156331  1
  Hf  Hf7  1  0.49506798  0.50390449  0.37435828  1
  Hf  Hf8  1  0.59935054  0.20270492  0.00686593  1
  Hf  Hf9  1  0.00226074  0.79590841  0.25600274  1
  Hf  Hf10  1  0.60654240  0.60204530  0.48961801  1
  Hf  Hf11  1  0.20569681  0.78949788  -0.01146175  1
  Hf  Hf12  1  0.19486991  0.60618904  0.73796098  1
  Hf  Hf13  1  0.39443651  0.79612488  0.75762135  1
  Hf  Hf14  1  0.10552983  0.49885838  0.87776431  1
  Hf  Hf15  1  -0.00367981  0.59794401  0.47852040  1
  Hf  Hf16  1  0.10820249  0.30341629  0.38922798  1
  Hf  Hf17  1  0.50231015  0.50499670  0.61095566  1
  Hf  Hf18  1  0.69756269  0.89362419  0.61445618  1
  Hf  Hf19  1  0.71359164  0.10111404  0.88499247  1
  Hf  Hf20  1  0.68060852  0.50182347  0.86599167  1
  Hf  Hf21  1  0.29616769  0.30584006  0.88830412  1
  Hf  Hf22  1  0.89933667  0.90129723  0.37086155  1
  Hf  Hf23  1  0.20683128  -0.00133404  0.49402369  1
  Hf  Hf24  1  0.50052600  0.30246569  0.63981226  1
  Hf  Hf25  1  0.79073179  0.80315465  0.01191086  1
  Hf  Hf26  1  0.29847191  0.09933963  0.36292885  1
  Hf  Hf27  1  0.29873870  0.09215233  0.12092395  1
  Hf  Hf28  1  0.30831808  0.90325223  0.61806213  1
  Hf  Hf29  1  0.71011016  0.30866639  0.11957026  1
  Hf  Hf30  1  0.89539546  0.49252943  0.14088214  1
  Hf  Hf31  1  0.69059155  0.11485812  0.36271104  1
  Hf  Hf32  1  0.68521090  0.71882783  0.86147438  1
  Hf  Hf33  1  0.89714290  0.29330233  0.88267346  1
  Hf  Hf34  1  0.60121175  -0.01318564  0.00845081  1
  Hf  Hf35  1  0.79721243  0.01282595  0.49870846  1
  Hf  Hf36  1  0.40807877  0.39256368  0.49810563  1
  Hf  Hf37  1  0.80554785  0.01180441  0.25232901  1
  Hf  Hf38  1  0.40267868  0.20630608  0.00716441  1
  Hf  Hf39  1  0.90043234  0.30924749  0.63339969  1
  Zr  Zr40  1  0.40413501  0.18767939  0.49993437  1
  Zr  Zr41  1  0.70161881  0.50858302  0.12999536  1
  Zr  Zr42  1  0.20414836  0.00400936  0.75776219  1
  Zr  Zr43  1  0.59108969  0.00128338  0.49541881  1
  Zr  Zr44  1  -0.00050236  0.60028087  0.00036372  1
  Zr  Zr45  1  0.21073238  0.40004337  0.73564354  1
  Zr  Zr46  1  0.88925141  0.69076909  0.14065876  1
  Zr  Zr47  1  0.20673347  0.59307291  0.01796949  1
  Zr  Zr48  1  0.20266857  0.78790750  0.75174847  1
  Zr  Zr49  1  0.09950350  0.09724456  0.62150875  1
  Zr  Zr50  1  0.10679763  0.69931062  0.14404548  1
  Zr  Zr51  1  0.61364422  0.19714332  0.74088166  1
  Zr  Zr52  1  0.60484609  -0.00845636  0.74878108  1
  Zr  Zr53  1  0.29904987  0.89285971  0.13896066  1
  Zr  Zr54  1  0.79332482  0.21000274  0.50397784  1
  Zr  Zr55  1  0.79511909  0.60560514  -0.01025695  1
  Zr  Zr56  1  0.61339372  0.40110896  0.26428371  1
  Zr  Zr57  1  0.39998352  -0.01241563  -0.01157724  1
  Zr  Zr58  1  0.08782900  0.88636190  0.86259592  1
  Zr  Zr59  1  0.89658432  0.50752411  0.63798772  1
  Zr  Zr60  1  0.80018699  0.40927275  0.48443477  1
  Zr  Zr61  1  0.39939411  0.20914789  0.24037516  1
  Zr  Zr62  1  -0.00131739  -0.00774891  -0.00789070  1
  Zr  Zr63  1  -0.00512704  0.19525248  0.25355691  1
  Zr  Zr64  1  0.31308574  0.50409588  0.88160325  1
  Zr  Zr65  1  0.00854142  0.39525371  0.75656622  1
  Zr  Zr66  1  0.49951137  0.32321113  0.86770099  1
  Zr  Zr67  1  0.19519363  0.20677426  0.23598604  1
  Zr  Zr68  1  0.90934153  0.70608780  0.62820718  1
  Zr  Zr69  1  0.10608183  0.29036518  0.89257530  1
  Zr  Zr70  1  0.20001082  0.40367803  0.23326986  1
  Zr  Zr71  1  0.48328503  0.08599589  0.63788992  1
  Zr  Zr72  1  0.09483417  0.50180810  0.61434952  1
  Zr  Zr73  1  0.49573213  0.67869872  0.86632912  1
  Zr  Zr74  1  0.59065011  0.61409143  0.01215900  1
  Zr  Zr75  1  0.40802684  0.78667428  0.00115980  1
  Zr  Zr76  1  0.38839818  0.60051034  0.73110914  1
  Zr  Zr77  1  0.09567294  0.09519517  0.11165681  1
  Zr  Zr78  1  0.90751546  0.70970299  0.85772274  1
  Zr  Zr79  1  0.70244267  0.30871951  0.87406346  1
  Ta  Ta80  1  0.88695768  0.90339554  0.86501266  1
  Ta  Ta81  1  0.89968325  0.10203693  0.88139375  1
  Ta  Ta82  1  0.39297768  -0.00836131  0.77172149  1
  Ta  Ta83  1  0.50030800  0.09207559  0.13404537  1
  Ta  Ta84  1  0.19569473  0.59492275  0.26504371  1
  Ta  Ta85  1  0.69711694  0.89869113  0.37119446  1
  Ta  Ta86  1  0.30514140  0.69683014  0.37182070  1
  Ta  Ta87  1  0.79988420  -0.00399519  0.01155066  1
  Ta  Ta88  1  0.79941124  0.21033678  0.24579239  1
  Ta  Ta89  1  0.59922078  -0.00129154  0.25057804  1
  Ta  Ta90  1  0.69868029  0.89825590  0.14125612  1
  Ta  Ta91  1  0.79240224  0.60441368  0.75240030  1
  Ta  Ta92  1  0.29996529  0.50020353  0.37915879  1
  Ta  Ta93  1  0.50117542  0.70793098  0.61306056  1
  Ta  Ta94  1  0.30945444  0.69924618  0.15611696  1
  Ta  Ta95  1  -0.00898962  0.00219898  0.75266578  1
  Ta  Ta96  1  0.10135676  0.29860150  0.61087068  1
  Ta  Ta97  1  0.90333895  0.90669669  0.14020934  1
  Ta  Ta98  1  0.00730639  0.39588709  0.24738326  1
  Ta  Ta99  1  0.79633408  0.79882599  0.25480555  1
  Ta  Ta100  1  0.89703511  0.10641912  0.11361998  1
  Ta  Ta101  1  0.10351368  0.89952378  0.36955685  1
  Ta  Ta102  1  0.50051953  0.88752746  0.14732905  1
  Ta  Ta103  1  0.80037445  0.00539219  0.74079534  1
  Ta  Ta104  1  0.40034079  0.41233611  0.02578564  1
  Ta  Ta105  1  0.51701475  0.87989042  0.87027233  1
  Ta  Ta106  1  0.89769315  0.50016156  0.86106826  1
  Ta  Ta107  1  -0.00036514  0.40537662  0.00706422  1
  Ta  Ta108  1  0.70061990  0.69837574  0.62176272  1
  Ta  Ta109  1  0.40300960  -0.00901970  0.48013426  1
  Ta  Ta110  1  0.20003479  0.20068226  0.74162808  1
  Ta  Ta111  1  0.19511742  0.60188554  0.48649565  1
  Ta  Ta112  1  0.50700513  0.30747031  0.13370965  1
  Ta  Ta113  1  0.40208643  0.59681887  0.02730682  1
  Ta  Ta114  1  0.61124915  0.39062679  0.49731943  1
  Ta  Ta115  1  0.79173086  0.59271801  0.27582552  1
  Ta  Ta116  1  0.00420731  0.19362817  0.75179109  1
  Ta  Ta117  1  0.80031747  0.60390960  0.48900516  1
  Ta  Ta118  1  0.40676472  0.80308445  0.48245624  1
  Ta  Ta119  1  0.19401357  -0.00150327  0.25418095  1
  Ti  Ti120  1  0.89588084  0.70013235  0.36999329  1
  Ti  Ti121  1  0.00742827  0.58705700  0.26749604  1
  Ti  Ti122  1  0.30317977  0.89495082  0.36113171  1
  Ti  Ti123  1  0.51386323  0.28754077  0.36471873  1
  Ti  Ti124  1  0.49765952  0.09883286  0.35472926  1
  Ti  Ti125  1  0.79657623  0.80791167  0.74121808  1
  Ti  Ti126  1  0.20600161  0.19365636  0.51132189  1
  Ti  Ti127  1  0.50295243  0.51293170  0.15211284  1
  Ti  Ti128  1  0.80273126  0.19902515  0.74111125  1
  Ti  Ti129  1  0.10286428  0.89965901  0.13849215  1
  Ti  Ti130  1  0.70248566  0.90066680  0.87405774  1
  Ti  Ti131  1  0.68123204  0.70543984  0.15004954  1
  Ti  Ti132  1  0.39598967  0.40217049  0.24358803  1
  Ti  Ti133  1  0.80041915  0.79647142  0.49332655  1
  Ti  Ti134  1  0.19871132  0.79674431  0.48543500  1
  Ti  Ti135  1  0.90255199  0.29794678  0.11515587  1
  Ti  Ti136  1  0.09873038  0.09871595  0.37251593  1
  Ti  Ti137  1  0.19989185  -0.01311237  -0.01006764  1
  Ti  Ti138  1  0.30039054  0.50343546  0.59617863  1
  Ti  Ti139  1  0.80428646  0.41012502  -0.00779367  1
  Ti  Ti140  1  0.09866230  0.10426804  0.88230316  1
  Ti  Ti141  1  0.59428699  0.80178704  0.48755791  1
  Ti  Ti142  1  0.90025220  0.90024877  0.62333302  1
  Ti  Ti143  1  0.30034097  0.29480204  0.61982351  1
  Ti  Ti144  1  0.70342504  0.49591321  0.62984729  1
  Ti  Ti145  1  0.28884991  0.10723912  0.88813849  1
  Ti  Ti146  1  0.39815383  0.41031450  0.73957693  1
  Ti  Ti147  1  0.59595279  0.59994330  0.73461218  1
  Ti  Ti148  1  0.00459893  0.79378766  0.48918857  1
  Ti  Ti149  1  0.09942051  0.29844396  0.10374442  1
  Ti  Ti150  1  0.30272604  0.70196304  0.59627973  1
  Ti  Ti151  1  0.69984371  0.10347468  0.12718995  1
  Ti  Ti152  1  0.89636977  0.30345538  0.36551271  1
  Ti  Ti153  1  -0.00267747  0.40471802  0.48677983  1
  Ti  Ti154  1  0.49632811  0.89197595  0.62927849  1
  Ti  Ti155  1  0.49831114  0.70092258  0.35900183  1
  Ti  Ti156  1  0.89959580  0.10109029  0.63206890  1
  Ti  Ti157  1  0.38302203  0.19282357  0.75362121  1
  Ti  Ti158  1  0.69739605  0.70590323  0.37246629  1
  Ti  Ti159  1  0.58745371  0.41503098  0.00962825  1
  Mo  Mo160  1  0.50063642  0.90030423  0.36424151  1
  Mo  Mo161  1  0.49924627  0.70173402  0.14943264  1
  Mo  Mo162  1  0.80971763  0.39527491  0.25919089  1
  Mo  Mo163  1  0.70446881  0.31318043  0.64022687  1
  Mo  Mo164  1  0.10389337  0.70350607  0.59695947  1
  Mo  Mo165  1  0.79674238  0.40329481  0.75846547  1
  Mo  Mo166  1  0.29772983  0.69193444  0.88235970  1
  Mo  Mo167  1  0.00685752  0.60815273  0.75891116  1
  Mo  Mo168  1  0.49603804  0.49269932  0.87444792  1
  Mo  Mo169  1  0.09700233  0.69022205  0.87299888  1
  Mo  Mo170  1  -0.00283384  0.80522415  0.73683741  1
  Mo  Mo171  1  0.60068847  0.41007943  0.73050961  1
  Mo  Mo172  1  0.30245989  0.50487166  0.14272339  1
  Mo  Mo173  1  0.30219913  0.09820694  0.62825763  1
  Mo  Mo174  1  0.30347520  0.89751193  0.87999177  1
  Mo  Mo175  1  0.20524607  0.39869848  0.51003658  1
  Mo  Mo176  1  0.60105959  0.80443717  0.01693598  1
  Mo  Mo177  1  -0.00357929  0.20106306  -0.00244196  1
  Mo  Mo178  1  0.39923280  0.60845039  0.49527614  1
  Mo  Mo179  1  0.10175536  0.70115792  0.37720128  1
  Mo  Mo180  1  0.90431815  0.49492371  0.35979979  1
  Mo  Mo181  1  0.10358278  0.49155738  0.37991659  1
  Mo  Mo182  1  0.20209451  0.40071413  0.01977964  1
  Mo  Mo183  1  0.69990935  0.29831514  0.36540978  1
  Mo  Mo184  1  0.60194705  0.60545068  0.26624742  1
  Mo  Mo185  1  0.30197131  0.30423622  0.10993679  1
  Mo  Mo186  1  0.20134761  0.79877715  0.26801764  1
  Mo  Mo187  1  0.70776326  0.10044492  0.62962577  1
  Mo  Mo188  1  0.09272899  0.49661605  0.12813591  1
  Mo  Mo189  1  0.40168911  -0.00132311  0.25897831  1
  Mo  Mo190  1  0.20262228  0.19303366  0.00554787  1
  Mo  Mo191  1  0.59829416  0.79455947  0.73185403  1
  Mo  Mo192  1  0.39775024  0.59507314  0.25199473  1
  Mo  Mo193  1  0.00398370  0.00008495  0.25447763  1
  Mo  Mo194  1  0.80044948  0.19900794  0.01423829  1
  Mo  Mo195  1  0.69972482  0.50258442  0.38175297  1
  Mo  Mo196  1  0.89780659  0.10649329  0.36568298  1
  Mo  Mo197  1  0.60270590  0.80117631  0.26302494  1
  Mo  Mo198  1  0.40234790  0.79909698  0.26616023  1
  Mo  Mo199  1  0.60141369  0.19735334  0.23128135  1
