# generated using pymatgen
data_HfZrTaTiMo
_symmetry_space_group_name_H-M   'P 1'
_cell_length_a   15.84387379
_cell_length_b   15.82986275
_cell_length_c   15.40754691
_cell_angle_alpha   89.93318499
_cell_angle_beta   90.02365376
_cell_angle_gamma   90.07602454
_symmetry_Int_Tables_number   1
_chemical_formula_structural   HfZrTaTiMo
_chemical_formula_sum   'Hf40 Zr40 Ta40 Ti40 Mo40'
_cell_volume   3864.30420733
_cell_formula_units_Z   40
loop_
 _symmetry_equiv_pos_site_id
 _symmetry_equiv_pos_as_xyz
  1  'x, y, z'
loop_
 _atom_site_type_symbol
 _atom_site_label
 _atom_site_symmetry_multiplicity
 _atom_site_fract_x
 _atom_site_fract_y
 _atom_site_fract_z
 _atom_site_occupancy
  Hf  Hf0  1  0.00229043  0.39668547  -0.02990908  1
  Hf  Hf1  1  0.00746833  0.39193369  0.49976463  1
  Hf  Hf2  1  0.49269742  0.10355871  0.87733203  1
  Hf  Hf3  1  0.00303138  0.00409499  0.77612047  1
  Hf  Hf4  1  0.88928292  0.09844810  0.36290774  1
  Hf  Hf5  1  0.51351724  0.11000760  0.61275696  1
  Hf  Hf6  1  0.30234210  0.29715634  0.86265215  1
  Hf  Hf7  1  0.60632340  0.80672942  0.75270292  1
  Hf  Hf8  1  0.70364662  0.30260523  0.38423293  1
  Hf  Hf9  1  -0.00552867  0.79697060  0.49871245  1
  Hf  Hf10  1  0.90781818  0.30421194  0.09980236  1
  Hf  Hf11  1  0.20937014  0.38970362  0.49477824  1
  Hf  Hf12  1  -0.00373684  0.39338328  0.76135543  1
  Hf  Hf13  1  0.60559166  0.00808210  0.75636185  1
  Hf  Hf14  1  0.40058595  -0.00108729  0.73524970  1
  Hf  Hf15  1  0.80367645  0.40993715  0.23798573  1
  Hf  Hf16  1  0.50234920  0.31020783  0.87374499  1
  Hf  Hf17  1  0.10726752  0.48821514  0.63330373  1
  Hf  Hf18  1  -0.00147617  0.58047949  0.77037472  1
  Hf  Hf19  1  0.00992317  0.80442821  0.76560278  1
  Hf  Hf20  1  0.59804408  0.60177113  0.25981575  1
  Hf  Hf21  1  0.20375598  0.00692990  0.23494301  1
  Hf  Hf22  1  0.58720831  0.20614758  0.24841487  1
  Hf  Hf23  1  0.79608316  0.19870002  0.75116427  1
  Hf  Hf24  1  0.79250062  0.58941788  0.02382776  1
  Hf  Hf25  1  0.81095659  0.40191520  0.51331374  1
  Hf  Hf26  1  0.67597900  0.29956648  0.60984434  1
  Hf  Hf27  1  0.40342925  0.60150231  -0.00338623  1
  Hf  Hf28  1  0.50552364  0.70014146  0.87221215  1
  Hf  Hf29  1  0.50831445  0.69262525  0.62514883  1
  Hf  Hf30  1  0.88763292  0.89847283  0.87827234  1
  Hf  Hf31  1  0.49780480  0.49913895  0.13953203  1
  Hf  Hf32  1  -0.00553839  0.59571297  -0.00111423  1
  Hf  Hf33  1  0.89307842  0.89442450  0.12907065  1
  Hf  Hf34  1  0.79985540  0.39885206  0.72901127  1
  Hf  Hf35  1  0.10001557  0.88840482  0.36419636  1
  Hf  Hf36  1  0.60447630  0.80861060  0.01075078  1
  Hf  Hf37  1  0.20854197  0.00914532  0.49369422  1
  Hf  Hf38  1  0.60458311  0.60756662  0.01471169  1
  Hf  Hf39  1  0.59049662  0.81593878  0.25531332  1
  Zr  Zr40  1  0.69216193  0.10369255  0.37187265  1
  Zr  Zr41  1  0.29195281  0.69509185  0.35657160  1
  Zr  Zr42  1  0.28311496  0.09783099  0.86641943  1
  Zr  Zr43  1  0.38691998  0.20202426  0.50990099  1
  Zr  Zr44  1  0.30689817  0.49647357  0.13442665  1
  Zr  Zr45  1  0.00233267  -0.00031836  0.23654053  1
  Zr  Zr46  1  0.88649722  0.69433038  0.86806087  1
  Zr  Zr47  1  0.00332141  0.79771709  0.00288069  1
  Zr  Zr48  1  0.80107016  0.80262662  0.49582953  1
  Zr  Zr49  1  0.29945689  0.89679291  0.88320075  1
  Zr  Zr50  1  0.11739625  0.69901004  0.88373724  1
  Zr  Zr51  1  0.79676901  0.20608051  0.23186553  1
  Zr  Zr52  1  0.89832832  0.70244368  0.63989363  1
  Zr  Zr53  1  0.78605357  0.58626699  0.73632286  1
  Zr  Zr54  1  0.09617220  0.10507076  0.63554721  1
  Zr  Zr55  1  0.60166063  0.19646196  0.00624685  1
  Zr  Zr56  1  0.19912020  0.20158311  0.51154310  1
  Zr  Zr57  1  0.90147311  0.69347318  0.35766710  1
  Zr  Zr58  1  0.30046515  0.49626658  0.36375981  1
  Zr  Zr59  1  0.09400829  0.90301541  0.62229047  1
  Zr  Zr60  1  0.78132370  -0.00036910  0.00669489  1
  Zr  Zr61  1  0.71071821  0.31693921  0.88447273  1
  Zr  Zr62  1  0.10110168  0.51190746  0.37741609  1
  Zr  Zr63  1  0.20208607  0.78810078  0.50834744  1
  Zr  Zr64  1  0.30242427  0.89808380  0.36728115  1
  Zr  Zr65  1  0.40108498  0.79504323  0.50323980  1
  Zr  Zr66  1  -0.00420397  -0.00233743  0.48387220  1
  Zr  Zr67  1  0.49317272  0.90244126  0.88598309  1
  Zr  Zr68  1  0.10425597  0.48698319  0.10663606  1
  Zr  Zr69  1  0.10300080  0.68973887  0.63597353  1
  Zr  Zr70  1  -0.00015587  0.20099029  0.48438637  1
  Zr  Zr71  1  0.78930231  0.79233970  0.00865926  1
  Zr  Zr72  1  0.79543518  0.19147090  0.01032425  1
  Zr  Zr73  1  0.89760666  0.09179703  0.63134367  1
  Zr  Zr74  1  0.00233491  0.19614695  0.23770971  1
  Zr  Zr75  1  0.30715221  0.49716256  0.63387336  1
  Zr  Zr76  1  0.50086818  0.48949059  0.60514941  1
  Zr  Zr77  1  -0.00282392  0.39778124  0.25360330  1
  Zr  Zr78  1  0.39552972  0.20023142  0.00882150  1
  Zr  Zr79  1  0.71014082  0.50902065  0.37944740  1
  Ta  Ta80  1  0.40119741  0.79817729  0.73606077  1
  Ta  Ta81  1  0.19669295  0.39437732  0.24611544  1
  Ta  Ta82  1  0.40265903  0.79747263  0.01897917  1
  Ta  Ta83  1  0.80414063  0.19948249  0.50513305  1
  Ta  Ta84  1  0.18558636  0.60449212  0.22971755  1
  Ta  Ta85  1  0.40381821  0.19958962  0.73759269  1
  Ta  Ta86  1  0.79849680  -0.00380906  0.49689954  1
  Ta  Ta87  1  0.30242597  0.29893904  0.13519626  1
  Ta  Ta88  1  0.59813333  0.39845007  0.26280922  1
  Ta  Ta89  1  0.10851620  0.29505762  0.35981372  1
  Ta  Ta90  1  0.90300599  0.50382568  0.38264280  1
  Ta  Ta91  1  0.70742453  0.70801874  0.36454520  1
  Ta  Ta92  1  -0.00143828  0.01042098  0.00477913  1
  Ta  Ta93  1  0.30002728  0.28158550  0.35467086  1
  Ta  Ta94  1  0.21079015  0.80165672  0.74519224  1
  Ta  Ta95  1  0.59899607  -0.00303346  0.48504568  1
  Ta  Ta96  1  0.70092505  0.90596126  0.62186406  1
  Ta  Ta97  1  0.39465124  0.60165509  0.49450773  1
  Ta  Ta98  1  0.70456796  0.90745532  0.36179843  1
  Ta  Ta99  1  0.49524078  0.31094616  0.12218769  1
  Ta  Ta100  1  0.11458665  0.28277845  0.87514263  1
  Ta  Ta101  1  0.30158073  0.90082067  0.62018369  1
  Ta  Ta102  1  0.70679661  0.70642353  0.15467567  1
  Ta  Ta103  1  0.40225009  0.40483323  -0.00542325  1
  Ta  Ta104  1  0.19446011  0.79647662  0.22603926  1
  Ta  Ta105  1  0.20160764  0.18710744  0.01630173  1
  Ta  Ta106  1  -0.00585072  0.59440713  0.22427760  1
  Ta  Ta107  1  -0.00177599  0.20045843  0.77355500  1
  Ta  Ta108  1  0.30548738  0.49738772  0.86763429  1
  Ta  Ta109  1  0.29568838  0.30879781  0.64840201  1
  Ta  Ta110  1  0.41336854  0.59279060  0.75627820  1
  Ta  Ta111  1  0.60229261  0.20721881  0.75586004  1
  Ta  Ta112  1  0.31009019  0.70187492  0.86889247  1
  Ta  Ta113  1  0.49561314  0.49800193  0.38231958  1
  Ta  Ta114  1  0.89086020  0.90199802  0.64232002  1
  Ta  Ta115  1  0.50811004  0.90236965  0.61225428  1
  Ta  Ta116  1  0.60057134  0.61362026  0.48435965  1
  Ta  Ta117  1  0.39949261  0.00334852  0.49842542  1
  Ta  Ta118  1  0.60335353  0.80497779  0.48589046  1
  Ta  Ta119  1  0.60114022  0.42071677  0.75664939  1
  Ti  Ti120  1  0.49495563  0.70147918  0.13830367  1
  Ti  Ti121  1  0.86401399  0.48147765  0.88782990  1
  Ti  Ti122  1  0.20623722  0.60137063  0.50904915  1
  Ti  Ti123  1  0.10410693  0.29332476  0.11377770  1
  Ti  Ti124  1  0.00850812  0.78538034  0.22924662  1
  Ti  Ti125  1  0.19806261  -0.00434959  0.74323961  1
  Ti  Ti126  1  0.50153126  0.91571359  0.12399898  1
  Ti  Ti127  1  0.21046605  0.39131994  -0.00647167  1
  Ti  Ti128  1  0.20832408  0.59886047  0.75736158  1
  Ti  Ti129  1  0.68367792  0.50636941  0.60550326  1
  Ti  Ti130  1  0.78842251  0.00047524  0.76268634  1
  Ti  Ti131  1  0.89456353  0.10650501  0.88599891  1
  Ti  Ti132  1  -0.00376499  0.59642013  0.51073522  1
  Ti  Ti133  1  0.30721941  0.69399658  0.13364434  1
  Ti  Ti134  1  0.49333835  0.31119463  0.62319555  1
  Ti  Ti135  1  0.49620691  0.09760113  0.13200282  1
  Ti  Ti136  1  0.21336520  0.79325360  0.01474859  1
  Ti  Ti137  1  0.09700817  0.69494867  0.36967820  1
  Ti  Ti138  1  0.10570765  0.90068891  0.11154790  1
  Ti  Ti139  1  0.49867003  0.30039642  0.39499487  1
  Ti  Ti140  1  0.60453280  0.42062146  -0.00057993  1
  Ti  Ti141  1  0.40747344  0.38739636  0.26266401  1
  Ti  Ti142  1  0.38905163  0.00658660  0.01258070  1
  Ti  Ti143  1  0.91494427  0.28916795  0.62682530  1
  Ti  Ti144  1  0.78703742  0.00481352  0.23003438  1
  Ti  Ti145  1  0.89491009  0.89675962  0.35313728  1
  Ti  Ti146  1  0.30766818  0.90329929  0.12601946  1
  Ti  Ti147  1  0.69938670  0.09964335  0.61350368  1
  Ti  Ti148  1  0.40706541  0.00433019  0.25928258  1
  Ti  Ti149  1  0.11622652  0.10712068  0.36283693  1
  Ti  Ti150  1  0.48850066  0.10739733  0.37840883  1
  Ti  Ti151  1  0.69665409  0.70631648  0.62297588  1
  Ti  Ti152  1  0.68741506  0.31561257  0.12105216  1
  Ti  Ti153  1  0.80471885  0.60449566  0.51107564  1
  Ti  Ti154  1  0.69977321  0.69375355  0.86596845  1
  Ti  Ti155  1  0.60513963  0.00460631  -0.00190292  1
  Ti  Ti156  1  0.11694142  0.91105280  0.89489678  1
  Ti  Ti157  1  0.40021997  0.80598469  0.24381915  1
  Ti  Ti158  1  0.49164976  0.70294485  0.37018733  1
  Ti  Ti159  1  0.21049889  0.59595534  0.00039774  1
  Mo  Mo160  1  0.90115000  0.69789715  0.13495715  1
  Mo  Mo161  1  0.67983626  0.09365272  0.14186340  1
  Mo  Mo162  1  0.30182413  0.09678874  0.63880835  1
  Mo  Mo163  1  0.79130057  0.80599732  0.74800250  1
  Mo  Mo164  1  0.58649922  0.00533106  0.26317456  1
  Mo  Mo165  1  0.49732333  0.90472682  0.38610485  1
  Mo  Mo166  1  0.80108248  0.80714353  0.25167705  1
  Mo  Mo167  1  0.00517506  0.19582372  -0.01225010  1
  Mo  Mo168  1  0.40066580  0.60402902  0.26059963  1
  Mo  Mo169  1  0.40400011  0.20050187  0.24585713  1
  Mo  Mo170  1  0.89732654  0.29505498  0.88092780  1
  Mo  Mo171  1  0.30867879  0.09900547  0.13828214  1
  Mo  Mo172  1  0.90703991  0.50030920  0.61188940  1
  Mo  Mo173  1  0.20466253  -0.00404731  0.01890840  1
  Mo  Mo174  1  0.19788134  0.40015431  0.76417512  1
  Mo  Mo175  1  0.30656045  0.69374565  0.64439319  1
  Mo  Mo176  1  0.90156377  0.49411478  0.11093650  1
  Mo  Mo177  1  0.89720888  0.09774256  0.11853173  1
  Mo  Mo178  1  0.19999388  0.20025345  0.22936649  1
  Mo  Mo179  1  0.10268886  0.09645672  0.88784629  1
  Mo  Mo180  1  0.69302870  0.50941227  0.87474374  1
  Mo  Mo181  1  0.59742852  0.40406669  0.48285124  1
  Mo  Mo182  1  0.12362740  0.49335711  0.88020989  1
  Mo  Mo183  1  0.68710785  0.90639595  0.14365653  1
  Mo  Mo184  1  0.69476189  0.10374166  0.86797314  1
  Mo  Mo185  1  0.19715277  0.19678304  0.74044378  1
  Mo  Mo186  1  0.59671162  0.19833731  0.49279862  1
  Mo  Mo187  1  0.79007011  0.40266151  0.01698070  1
  Mo  Mo188  1  0.30461144  0.10252847  0.35625725  1
  Mo  Mo189  1  0.60097158  0.60051719  0.74190106  1
  Mo  Mo190  1  0.69845823  0.89856368  0.86829738  1
  Mo  Mo191  1  0.40811466  0.40027648  0.76163738  1
  Mo  Mo192  1  0.50500313  0.50376542  0.88178397  1
  Mo  Mo193  1  0.89990018  0.29975248  0.38228830  1
  Mo  Mo194  1  0.69067800  0.50001055  0.14626735  1
  Mo  Mo195  1  0.10755449  0.69608312  0.10738211  1
  Mo  Mo196  1  0.09981932  0.09856911  0.10846708  1
  Mo  Mo197  1  0.39427636  0.39291906  0.48596564  1
  Mo  Mo198  1  0.80724660  0.59892781  0.23978731  1
  Mo  Mo199  1  0.10029596  0.29760170  0.65002927  1
