# generated using pymatgen
data_HfZrTaTiMo
_symmetry_space_group_name_H-M   'P 1'
_cell_length_a   15.84124858
_cell_length_b   15.84092562
_cell_length_c   15.41070627
_cell_angle_alpha   90.01514867
_cell_angle_beta   89.98092556
_cell_angle_gamma   89.90043174
_symmetry_Int_Tables_number   1
_chemical_formula_structural   HfZrTaTiMo
_chemical_formula_sum   'Hf40 Zr40 Ta40 Ti40 Mo40'
_cell_volume   3867.15706385
_cell_formula_units_Z   40
loop_
 _symmetry_equiv_pos_site_id
 _symmetry_equiv_pos_as_xyz
  1  'x, y, z'
loop_
 _atom_site_type_symbol
 _atom_site_label
 _atom_site_symmetry_multiplicity
 _atom_site_fract_x
 _atom_site_fract_y
 _atom_site_fract_z
 _atom_site_occupancy
  Hf  Hf0  1  -0.00241602  0.81552329  0.51689713  1
  Hf  Hf1  1  0.50775358  0.29599792  0.63074599  1
  Hf  Hf2  1  0.40108012  0.80090804  0.24218689  1
  Hf  Hf3  1  0.30611170  0.49433191  0.36731466  1
  Hf  Hf4  1  0.00020143  0.41099213  -0.00275802  1
  Hf  Hf5  1  0.80595623  0.20800493  0.48972732  1
  Hf  Hf6  1  0.29292882  0.70135789  0.36551945  1
  Hf  Hf7  1  0.40509773  0.40502192  0.76691850  1
  Hf  Hf8  1  0.30988412  0.50360763  0.63329932  1
  Hf  Hf9  1  0.79599772  0.00289498  0.24790133  1
  Hf  Hf10  1  0.88100875  0.11761101  0.86914820  1
  Hf  Hf11  1  0.18662329  0.79115487  0.50800323  1
  Hf  Hf12  1  0.89768832  0.30038029  0.64142548  1
  Hf  Hf13  1  0.10392954  0.89385653  0.12393670  1
  Hf  Hf14  1  0.49750204  0.88560468  0.87152029  1
  Hf  Hf15  1  0.19896271  0.20152575  0.74470638  1
  Hf  Hf16  1  0.49846557  0.09438289  0.12279402  1
  Hf  Hf17  1  0.51791195  0.28303641  0.86439851  1
  Hf  Hf18  1  0.68984830  0.71304183  0.11182941  1
  Hf  Hf19  1  0.80093401  0.20273521  0.25904376  1
  Hf  Hf20  1  0.70932389  0.89132214  0.63112161  1
  Hf  Hf21  1  0.00647335  0.40942394  0.50947329  1
  Hf  Hf22  1  0.59381506  0.76867808  0.74117855  1
  Hf  Hf23  1  0.59919831  -0.00712370  0.24893637  1
  Hf  Hf24  1  0.19654452  0.40184577  0.24277477  1
  Hf  Hf25  1  0.29844930  0.89798555  0.64090769  1
  Hf  Hf26  1  0.30727062  0.89329581  0.86062389  1
  Hf  Hf27  1  0.59377305  0.40521493  0.48903714  1
  Hf  Hf28  1  0.60361080  0.38076185  0.00092995  1
  Hf  Hf29  1  0.19656993  0.59752665  0.49892587  1
  Hf  Hf30  1  0.10816051  0.29456724  0.88174030  1
  Hf  Hf31  1  0.00135408  0.61529861  0.51589551  1
  Hf  Hf32  1  0.69531226  0.89900984  0.38577518  1
  Hf  Hf33  1  0.80282209  0.78873130  0.50051851  1
  Hf  Hf34  1  0.19918660  0.39903127  0.49875352  1
  Hf  Hf35  1  0.77707023  0.60106058  0.76761419  1
  Hf  Hf36  1  0.39460378  0.79184638  0.50406217  1
  Hf  Hf37  1  0.00710083  0.20444550  0.25065920  1
  Hf  Hf38  1  0.70060511  0.10318147  0.61506145  1
  Hf  Hf39  1  0.19425819  0.00820910  0.75889128  1
  Zr  Zr40  1  0.30785419  0.09595505  0.38493301  1
  Zr  Zr41  1  0.29885672  0.69657973  0.64355236  1
  Zr  Zr42  1  0.00288803  0.60593362  0.76502927  1
  Zr  Zr43  1  0.60687563  0.19113346  0.26162235  1
  Zr  Zr44  1  0.00681009  0.21171125  0.49569882  1
  Zr  Zr45  1  0.88468567  0.71214754  0.64838343  1
  Zr  Zr46  1  0.40097124  0.59535118  0.23772867  1
  Zr  Zr47  1  0.89188183  0.71632772  0.88257336  1
  Zr  Zr48  1  0.79801803  0.60362998  0.24422174  1
  Zr  Zr49  1  0.89252749  0.70244422  0.09910394  1
  Zr  Zr50  1  0.60385382  0.40847408  0.25561042  1
  Zr  Zr51  1  0.70546607  0.30881486  0.62869161  1
  Zr  Zr52  1  0.31032939  0.29863023  0.13841708  1
  Zr  Zr53  1  0.30263892  0.09669185  0.60721329  1
  Zr  Zr54  1  0.78015006  0.01698724  0.00332154  1
  Zr  Zr55  1  -0.00841283  0.21117481  -0.00063668  1
  Zr  Zr56  1  0.50825450  0.08613158  0.88512255  1
  Zr  Zr57  1  0.19068791  -0.01527159  0.49623764  1
  Zr  Zr58  1  0.90638776  0.89781915  0.36679746  1
  Zr  Zr59  1  0.30448014  0.30233871  0.62008184  1
  Zr  Zr60  1  0.00429736  0.40777896  0.76400180  1
  Zr  Zr61  1  0.38237317  0.59598812  0.00121536  1
  Zr  Zr62  1  0.41090625  0.20598701  0.00434422  1
  Zr  Zr63  1  0.80954584  0.40814307  0.24554363  1
  Zr  Zr64  1  0.19726629  0.78970563  -0.01295477  1
  Zr  Zr65  1  0.61562191  0.41385480  0.76208775  1
  Zr  Zr66  1  0.80137750  0.39038475  -0.00914842  1
  Zr  Zr67  1  0.21473393  0.40833860  -0.00256065  1
  Zr  Zr68  1  0.40473113  0.18159998  0.74828027  1
  Zr  Zr69  1  0.70013028  0.50600995  0.11152825  1
  Zr  Zr70  1  0.88859067  0.50228698  0.63076352  1
  Zr  Zr71  1  0.00306292  -0.00054351  -0.00761913  1
  Zr  Zr72  1  0.08752895  0.70209459  0.35981528  1
  Zr  Zr73  1  0.30059342  0.09887063  0.89109900  1
  Zr  Zr74  1  0.59282405  0.79286653  0.51174011  1
  Zr  Zr75  1  -0.00784665  0.59014297  0.22600549  1
  Zr  Zr76  1  0.89237875  0.90286386  0.87224039  1
  Zr  Zr77  1  0.90081586  0.10596969  0.12319210  1
  Zr  Zr78  1  0.20911067  0.00244805  0.24810146  1
  Zr  Zr79  1  0.59385508  0.00024649  0.74112669  1
  Ta  Ta80  1  0.79375909  0.80436665  0.24253359  1
  Ta  Ta81  1  0.70773601  0.51014326  0.38445128  1
  Ta  Ta82  1  0.20469278  0.40590311  0.76227253  1
  Ta  Ta83  1  -0.00192072  0.00924456  0.75433163  1
  Ta  Ta84  1  0.90851238  0.09340152  0.38320451  1
  Ta  Ta85  1  0.11065273  0.10431265  0.11445741  1
  Ta  Ta86  1  0.62527248  0.18803081  0.01326485  1
  Ta  Ta87  1  0.09256245  0.50050222  0.36822715  1
  Ta  Ta88  1  0.59711858  0.60357189  0.49141950  1
  Ta  Ta89  1  0.90502824  0.09517406  0.61841574  1
  Ta  Ta90  1  0.70042639  0.51174175  0.61304268  1
  Ta  Ta91  1  0.11142932  0.50898665  0.64110092  1
  Ta  Ta92  1  0.59444292  0.60400405  0.25279435  1
  Ta  Ta93  1  0.40758198  0.39971479  -0.00735000  1
  Ta  Ta94  1  0.09494065  0.09371734  0.38007845  1
  Ta  Ta95  1  0.50648530  0.50863110  0.62892051  1
  Ta  Ta96  1  0.19410395  0.59744648  0.23923855  1
  Ta  Ta97  1  0.00378167  0.00363517  0.24034663  1
  Ta  Ta98  1  0.30318013  0.29749106  0.36796967  1
  Ta  Ta99  1  0.00888868  0.60621291  -0.01110327  1
  Ta  Ta100  1  0.71281649  0.26969906  0.85459091  1
  Ta  Ta101  1  0.49989297  0.09234059  0.60029630  1
  Ta  Ta102  1  0.90533577  0.50956022  0.38529739  1
  Ta  Ta103  1  0.19567526  0.60127725  -0.01440772  1
  Ta  Ta104  1  0.69870196  0.70125637  0.37099045  1
  Ta  Ta105  1  0.59755998  0.20385027  0.48539359  1
  Ta  Ta106  1  0.09489095  0.09820507  0.61354479  1
  Ta  Ta107  1  0.50742870  0.29869627  0.14012510  1
  Ta  Ta108  1  0.49317646  0.90288409  0.38368981  1
  Ta  Ta109  1  0.50601464  0.88888137  0.11686118  1
  Ta  Ta110  1  0.20465939  0.60121642  0.77720163  1
  Ta  Ta111  1  0.41705105  0.61087218  0.76821837  1
  Ta  Ta112  1  -0.00586752  0.79751270  0.22903149  1
  Ta  Ta113  1  0.69597765  0.89458066  0.86984599  1
  Ta  Ta114  1  0.48973749  0.30369556  0.36195988  1
  Ta  Ta115  1  0.89377842  0.89892709  0.11476299  1
  Ta  Ta116  1  0.09831127  0.89578624  0.35591014  1
  Ta  Ta117  1  0.49446724  0.49085502  0.12056348  1
  Ta  Ta118  1  0.09492458  0.90040972  0.64689150  1
  Ta  Ta119  1  0.40037986  0.78679771  0.00829951  1
  Ti  Ti120  1  0.49890022  0.70076915  0.37039382  1
  Ti  Ti121  1  0.10333615  0.30610721  0.36824083  1
  Ti  Ti122  1  0.00160063  0.40533672  0.23395387  1
  Ti  Ti123  1  0.40622029  0.40357832  0.49500511  1
  Ti  Ti124  1  0.89424973  0.30266731  0.85748989  1
  Ti  Ti125  1  0.40244176  -0.00581300  0.24638877  1
  Ti  Ti126  1  0.19691768  0.20558714  0.49446445  1
  Ti  Ti127  1  0.19921937  0.19522570  0.25179937  1
  Ti  Ti128  1  0.89720990  0.69962322  0.36780436  1
  Ti  Ti129  1  0.10220343  0.10596749  0.88935106  1
  Ti  Ti130  1  0.10234609  0.30511902  0.63341499  1
  Ti  Ti131  1  0.10691035  0.50701204  0.11336538  1
  Ti  Ti132  1  0.09073153  0.88892562  0.86772621  1
  Ti  Ti133  1  0.60519914  -0.01012631  0.00730746  1
  Ti  Ti134  1  0.58082766  0.60937476  0.01017367  1
  Ti  Ti135  1  0.28288056  0.70188545  0.13172286  1
  Ti  Ti136  1  0.49126602  0.89890463  0.62675725  1
  Ti  Ti137  1  0.20169294  -0.00630416  -0.00449293  1
  Ti  Ti138  1  0.70097755  0.08893132  0.39601037  1
  Ti  Ti139  1  0.40902374  0.59550645  0.49284978  1
  Ti  Ti140  1  0.69563539  0.50899768  0.89651931  1
  Ti  Ti141  1  0.40644442  0.20881037  0.49090760  1
  Ti  Ti142  1  0.68718986  0.70658412  0.89566853  1
  Ti  Ti143  1  0.00554699  0.19363251  0.74907891  1
  Ti  Ti144  1  0.59656714  0.79896876  0.25031810  1
  Ti  Ti145  1  0.70276407  0.30874221  0.37606469  1
  Ti  Ti146  1  0.39890270  -0.01506303  0.00931650  1
  Ti  Ti147  1  0.81557254  -0.01026291  0.50582905  1
  Ti  Ti148  1  0.29793112  0.09919281  0.11632733  1
  Ti  Ti149  1  0.50059521  0.08764441  0.39101822  1
  Ti  Ti150  1  0.40218048  0.18774772  0.25555659  1
  Ti  Ti151  1  0.29903126  0.89609632  0.12295131  1
  Ti  Ti152  1  0.80492064  0.40659650  0.49165127  1
  Ti  Ti153  1  0.79764334  0.00573300  0.74817781  1
  Ti  Ti154  1  0.91147944  0.31562860  0.37039765  1
  Ti  Ti155  1  0.89556173  0.30512076  0.12644154  1
  Ti  Ti156  1  0.50768231  0.50686103  0.88617972  1
  Ti  Ti157  1  0.30403311  0.29388285  0.87862283  1
  Ti  Ti158  1  0.29970955  0.89492598  0.37206127  1
  Ti  Ti159  1  0.10628412  0.29505524  0.11701016  1
  Mo  Mo160  1  0.70298450  0.29566732  0.13694307  1
  Mo  Mo161  1  0.00012073  0.80375787  0.01037316  1
  Mo  Mo162  1  -0.00605505  0.81035025  0.74283469  1
  Mo  Mo163  1  0.69651715  0.09821395  0.13767997  1
  Mo  Mo164  1  0.40406371  0.79338698  0.74273913  1
  Mo  Mo165  1  0.30805944  0.49870940  0.86669834  1
  Mo  Mo166  1  0.29780369  0.49987097  0.13040990  1
  Mo  Mo167  1  0.78396675  0.80295172  0.75800614  1
  Mo  Mo168  1  0.69541133  0.68581143  0.61740523  1
  Mo  Mo169  1  0.69424811  0.09832595  0.85991967  1
  Mo  Mo170  1  0.89860912  0.91092912  0.64317994  1
  Mo  Mo171  1  0.59952416  -0.00332953  0.50265683  1
  Mo  Mo172  1  0.50057347  0.69729095  0.89205769  1
  Mo  Mo173  1  0.09623107  0.70918044  0.86804921  1
  Mo  Mo174  1  0.49799523  0.69902370  0.12555122  1
  Mo  Mo175  1  0.60442921  0.19121988  0.73110048  1
  Mo  Mo176  1  0.49239248  0.68366061  0.61560803  1
  Mo  Mo177  1  0.80017543  0.40813136  0.77099793  1
  Mo  Mo178  1  0.10150252  0.70352467  0.64981245  1
  Mo  Mo179  1  0.10421896  0.50250589  0.87918732  1
  Mo  Mo180  1  0.20385606  0.19913854  0.01067224  1
  Mo  Mo181  1  0.89182329  0.50706459  0.88463470  1
  Mo  Mo182  1  0.20012390  0.79860108  0.24517243  1
  Mo  Mo183  1  0.79618025  0.60162378  -0.01204412  1
  Mo  Mo184  1  0.00061263  -0.00159735  0.50403739  1
  Mo  Mo185  1  0.69677775  0.89821305  0.12638943  1
  Mo  Mo186  1  0.10071956  0.69715086  0.12409183  1
  Mo  Mo187  1  0.19095555  0.79675729  0.75995689  1
  Mo  Mo188  1  0.30641270  0.70470833  0.86537655  1
  Mo  Mo189  1  0.50163670  0.50581124  0.37850251  1
  Mo  Mo190  1  0.80044578  0.60381938  0.49076882  1
  Mo  Mo191  1  0.59267349  0.80442708  -0.00547522  1
  Mo  Mo192  1  0.40100567  -0.01447801  0.50144273  1
  Mo  Mo193  1  0.40398273  0.39694423  0.24917297  1
  Mo  Mo194  1  0.59765493  0.59407194  0.75898579  1
  Mo  Mo195  1  0.80690536  0.19354861  0.73171156  1
  Mo  Mo196  1  0.40210614  -0.00394421  0.73358839  1
  Mo  Mo197  1  0.90446237  0.50221800  0.10139169  1
  Mo  Mo198  1  0.78638912  0.81475238  0.00171599  1
  Mo  Mo199  1  0.79101190  0.21095310  0.01224349  1
