# generated using pymatgen
data_HfZrTaTiMo
_symmetry_space_group_name_H-M   'P 1'
_cell_length_a   15.82967397
_cell_length_b   15.83616505
_cell_length_c   15.40438404
_cell_angle_alpha   89.97347669
_cell_angle_beta   90.03252696
_cell_angle_gamma   90.13640502
_symmetry_Int_Tables_number   1
_chemical_formula_structural   HfZrTaTiMo
_chemical_formula_sum   'Hf40 Zr40 Ta40 Ti40 Mo40'
_cell_volume   3861.57949540
_cell_formula_units_Z   40
loop_
 _symmetry_equiv_pos_site_id
 _symmetry_equiv_pos_as_xyz
  1  'x, y, z'
loop_
 _atom_site_type_symbol
 _atom_site_label
 _atom_site_symmetry_multiplicity
 _atom_site_fract_x
 _atom_site_fract_y
 _atom_site_fract_z
 _atom_site_occupancy
  Hf  Hf0  1  0.30195308  0.70125582  0.13899271  1
  Hf  Hf1  1  0.88449557  0.31108432  0.87278596  1
  Hf  Hf2  1  0.29749054  0.28012309  0.64592412  1
  Hf  Hf3  1  -0.00256783  0.02431581  0.50488118  1
  Hf  Hf4  1  0.89970625  0.70016986  0.38075460  1
  Hf  Hf5  1  0.89984713  0.90924106  0.37977675  1
  Hf  Hf6  1  0.39437579  0.79893386  0.00607884  1
  Hf  Hf7  1  0.50933227  0.69549244  0.62380557  1
  Hf  Hf8  1  0.30286166  0.89009480  0.87202536  1
  Hf  Hf9  1  0.28957112  0.29150581  0.35793681  1
  Hf  Hf10  1  0.20473889  0.59240126  0.51262188  1
  Hf  Hf11  1  0.59873114  0.81078973  -0.00709458  1
  Hf  Hf12  1  0.80643150  0.39756138  0.25088017  1
  Hf  Hf13  1  0.69724934  0.89833143  0.62782152  1
  Hf  Hf14  1  0.58151419  -0.00674835  0.50605146  1
  Hf  Hf15  1  0.90230386  0.70244427  0.13068617  1
  Hf  Hf16  1  0.90449546  0.49874240  0.85359298  1
  Hf  Hf17  1  0.30159543  0.48939282  0.35846144  1
  Hf  Hf18  1  0.69989850  0.10086799  0.61438708  1
  Hf  Hf19  1  0.00005187  0.80039597  0.50822760  1
  Hf  Hf20  1  0.30939312  0.90782048  0.37300408  1
  Hf  Hf21  1  0.59989074  0.20552666  0.74569562  1
  Hf  Hf22  1  0.20663583  -0.00363048  -0.00450453  1
  Hf  Hf23  1  0.19234039  0.39368039  0.51571225  1
  Hf  Hf24  1  0.41364479  0.00234587  -0.00104515  1
  Hf  Hf25  1  0.60261482  0.59260253  0.00646782  1
  Hf  Hf26  1  0.00220387  0.80219345  -0.01887623  1
  Hf  Hf27  1  0.70210098  0.09977507  0.37305256  1
  Hf  Hf28  1  0.60441437  0.78535175  0.48946261  1
  Hf  Hf29  1  0.89960633  0.49899746  0.38962653  1
  Hf  Hf30  1  0.79665771  0.80279993  0.25060440  1
  Hf  Hf31  1  0.80415952  0.59102705  -0.00179576  1
  Hf  Hf32  1  0.50443090  0.69924640  0.13157380  1
  Hf  Hf33  1  0.09256968  0.29151642  0.10287792  1
  Hf  Hf34  1  0.90821046  0.92136043  0.86390665  1
  Hf  Hf35  1  -0.00001830  0.59988755  0.24755762  1
  Hf  Hf36  1  0.80846229  0.20609607  0.49480999  1
  Hf  Hf37  1  0.70949801  0.90608422  0.38579173  1
  Hf  Hf38  1  0.09416813  0.10126427  0.11609593  1
  Hf  Hf39  1  0.89902346  0.10188011  0.35565165  1
  Zr  Zr40  1  0.59150465  0.58109400  0.75156393  1
  Zr  Zr41  1  0.80225387  0.79575231  -0.01068488  1
  Zr  Zr42  1  0.10582487  0.11431442  0.64103570  1
  Zr  Zr43  1  0.09071414  0.48723995  0.38530772  1
  Zr  Zr44  1  0.70362403  0.91739201  0.86268733  1
  Zr  Zr45  1  0.41360390  0.40750319  0.73582845  1
  Zr  Zr46  1  -0.00206484  0.60214437  -0.00407570  1
  Zr  Zr47  1  0.32287493  0.50426771  0.87399562  1
  Zr  Zr48  1  0.79009303  0.39737419  0.72124163  1
  Zr  Zr49  1  0.78334066  0.00054447  0.01430881  1
  Zr  Zr50  1  0.90211418  0.90899171  0.12860640  1
  Zr  Zr51  1  0.90421989  0.11777013  0.13081552  1
  Zr  Zr52  1  0.78702869  0.60298849  0.50505442  1
  Zr  Zr53  1  0.49276045  0.89435530  0.35966676  1
  Zr  Zr54  1  0.10668366  0.90618422  0.38688616  1
  Zr  Zr55  1  0.78398730  0.21324790  0.00173249  1
  Zr  Zr56  1  0.19579218  0.80522635  0.25007276  1
  Zr  Zr57  1  0.19211776  0.59530378  0.24871721  1
  Zr  Zr58  1  0.11072506  0.11204033  0.35878759  1
  Zr  Zr59  1  0.10672102  0.91211734  0.62143662  1
  Zr  Zr60  1  0.48765774  0.69426358  0.36047497  1
  Zr  Zr61  1  0.20836636  0.59450952  0.74195012  1
  Zr  Zr62  1  0.20971566  0.79368274  0.74531468  1
  Zr  Zr63  1  0.69746397  0.68599892  0.86941997  1
  Zr  Zr64  1  0.89346170  0.91449105  0.63077794  1
  Zr  Zr65  1  0.31215545  0.91730725  0.63524471  1
  Zr  Zr66  1  0.88942879  0.10367466  0.87524196  1
  Zr  Zr67  1  0.40539943  0.20517893  -0.00019886  1
  Zr  Zr68  1  0.19801793  0.39226416  0.76267624  1
  Zr  Zr69  1  0.49014709  0.09391561  0.36209817  1
  Zr  Zr70  1  0.30434435  0.70404928  0.37239710  1
  Zr  Zr71  1  0.21062900  0.40014645  -0.00833296  1
  Zr  Zr72  1  0.22110949  0.02341698  0.50092705  1
  Zr  Zr73  1  0.70379554  0.10151856  0.15368802  1
  Zr  Zr74  1  0.58842115  0.80194477  0.76209754  1
  Zr  Zr75  1  0.21013152  0.60606530  -0.00450209  1
  Zr  Zr76  1  0.20530907  0.20112760  -0.02416448  1
  Zr  Zr77  1  0.00756503  0.80536761  0.75312031  1
  Zr  Zr78  1  0.40057697  0.59018363  0.51226905  1
  Zr  Zr79  1  0.39010098  0.39060101  0.50784502  1
  Ta  Ta80  1  -0.01866455  0.40686336  0.01375316  1
  Ta  Ta81  1  0.79831175  0.59394971  0.74051031  1
  Ta  Ta82  1  0.49163439  0.29900492  0.36827949  1
  Ta  Ta83  1  0.41041105  0.39845934  0.02206914  1
  Ta  Ta84  1  0.51001525  0.49014755  0.89189862  1
  Ta  Ta85  1  0.40331462  0.20356489  0.23344299  1
  Ta  Ta86  1  0.60803398  0.79585751  0.25046243  1
  Ta  Ta87  1  0.50005207  0.28797156  0.61252499  1
  Ta  Ta88  1  0.00835349  0.79936237  0.25631651  1
  Ta  Ta89  1  0.59665973  0.39784989  0.49563194  1
  Ta  Ta90  1  0.70007743  0.47293226  0.87653700  1
  Ta  Ta91  1  0.18489769  0.39023630  0.23792543  1
  Ta  Ta92  1  0.59017835  0.00784159  0.74667943  1
  Ta  Ta93  1  0.39498134  -0.00216223  0.22011946  1
  Ta  Ta94  1  -0.00309885  0.40505300  0.23162288  1
  Ta  Ta95  1  0.69787401  0.49829188  0.13899495  1
  Ta  Ta96  1  0.60180662  0.39083812  0.72884268  1
  Ta  Ta97  1  0.80413047  0.79438006  0.75486485  1
  Ta  Ta98  1  0.59281638  0.20311319  0.48867316  1
  Ta  Ta99  1  0.60475814  0.59498430  0.25612722  1
  Ta  Ta100  1  -0.00359676  0.20837363  0.76420768  1
  Ta  Ta101  1  0.48367334  0.09780995  0.62400548  1
  Ta  Ta102  1  0.69388091  0.29164511  0.15511812  1
  Ta  Ta103  1  0.20407808  -0.00042831  0.23044659  1
  Ta  Ta104  1  0.00546969  0.22558325  0.25614303  1
  Ta  Ta105  1  0.38809032  0.18610635  0.49636995  1
  Ta  Ta106  1  0.10107646  0.89643859  0.10934712  1
  Ta  Ta107  1  0.20168469  0.20751543  0.50035392  1
  Ta  Ta108  1  0.90196552  0.69477600  0.63510658  1
  Ta  Ta109  1  0.79536445  0.40158450  0.02258342  1
  Ta  Ta110  1  0.51444485  0.10429048  0.13228328  1
  Ta  Ta111  1  0.10170268  0.49924243  0.11489464  1
  Ta  Ta112  1  0.40575148  0.80807691  0.51705762  1
  Ta  Ta113  1  0.51231279  0.30900957  0.87955939  1
  Ta  Ta114  1  0.09968515  0.69574392  0.62354199  1
  Ta  Ta115  1  0.09846691  0.69752926  0.39376430  1
  Ta  Ta116  1  0.60655570  0.38513686  0.02023645  1
  Ta  Ta117  1  0.10580869  0.69687792  0.86746450  1
  Ta  Ta118  1  0.79042035  0.20806474  0.74243530  1
  Ta  Ta119  1  0.47948170  0.68664871  0.87938011  1
  Ti  Ti120  1  0.49389554  0.48952372  0.37023602  1
  Ti  Ti121  1  0.09280804  0.29848815  0.63932802  1
  Ti  Ti122  1  -0.00225430  0.59512096  0.51728075  1
  Ti  Ti123  1  0.21132555  0.79662865  0.51077892  1
  Ti  Ti124  1  0.79480824  0.60063142  0.25395041  1
  Ti  Ti125  1  0.68739692  0.50250880  0.61257015  1
  Ti  Ti126  1  0.90092995  0.10880856  0.64156205  1
  Ti  Ti127  1  0.79970007  0.79508688  0.50890564  1
  Ti  Ti128  1  0.07733841  0.31084273  0.88292031  1
  Ti  Ti129  1  0.30183815  0.10279977  0.35052197  1
  Ti  Ti130  1  0.39718583  0.60158250  0.73313679  1
  Ti  Ti131  1  0.18759826  -0.00008815  0.77092224  1
  Ti  Ti132  1  0.29651533  0.30160801  0.13280250  1
  Ti  Ti133  1  0.41795094  -0.00500358  0.76904983  1
  Ti  Ti134  1  0.90760792  0.30033347  0.62500159  1
  Ti  Ti135  1  0.91263293  0.31312820  0.38245092  1
  Ti  Ti136  1  0.59933180  0.19596057  -0.00131824  1
  Ti  Ti137  1  0.08421247  0.49445150  0.63822111  1
  Ti  Ti138  1  0.70028934  0.69875961  0.63620983  1
  Ti  Ti139  1  0.30212548  0.10106248  0.65300869  1
  Ti  Ti140  1  0.79456263  0.39805641  0.50479658  1
  Ti  Ti141  1  0.40826080  0.57375181  0.22955141  1
  Ti  Ti142  1  0.10159893  0.70630459  0.11418970  1
  Ti  Ti143  1  0.29671978  0.10856717  0.12363832  1
  Ti  Ti144  1  0.40217787  0.79224552  0.74534406  1
  Ti  Ti145  1  0.00997260  -0.00631063  0.24664472  1
  Ti  Ti146  1  0.09178902  0.49922288  0.87180414  1
  Ti  Ti147  1  0.70164095  0.70027580  0.12639124  1
  Ti  Ti148  1  0.19421060  0.19992968  0.78222120  1
  Ti  Ti149  1  0.31062100  0.09768319  0.86594807  1
  Ti  Ti150  1  0.58794865  0.39752119  0.25036325  1
  Ti  Ti151  1  0.40179290  0.58936562  0.01821160  1
  Ti  Ti152  1  0.69755326  0.49194263  0.36878163  1
  Ti  Ti153  1  0.60686354  -0.01183696  0.24900530  1
  Ti  Ti154  1  0.69414476  0.10487736  0.86806709  1
  Ti  Ti155  1  0.01221831  0.21658142  0.49245001  1
  Ti  Ti156  1  0.41372639  0.19807296  0.76967090  1
  Ti  Ti157  1  0.51082850  0.90273089  0.12626768  1
  Ti  Ti158  1  0.07741453  0.08699180  0.88452566  1
  Ti  Ti159  1  0.59914374  0.59325636  0.48048048  1
  Mo  Mo160  1  0.51242197  0.09937636  0.87896168  1
  Mo  Mo161  1  0.39898503  0.39474672  0.23536154  1
  Mo  Mo162  1  0.90340364  0.69355556  0.84893049  1
  Mo  Mo163  1  -0.00149848  0.39671256  0.74020954  1
  Mo  Mo164  1  0.80476581  0.21427099  0.27234402  1
  Mo  Mo165  1  0.29604039  0.49300909  0.63572179  1
  Mo  Mo166  1  -0.00719978  0.20621718  -0.01948977  1
  Mo  Mo167  1  0.30462564  0.70339528  0.61511902  1
  Mo  Mo168  1  0.50731738  0.29332274  0.13487459  1
  Mo  Mo169  1  0.00103302  0.00175610  0.00775585  1
  Mo  Mo170  1  0.69146119  0.89470377  0.12997775  1
  Mo  Mo171  1  0.10394483  0.90340878  0.88336090  1
  Mo  Mo172  1  -0.00789653  0.39704607  0.52265551  1
  Mo  Mo173  1  0.80157756  -0.00247463  0.24344254  1
  Mo  Mo174  1  0.39773974  0.00566473  0.50349026  1
  Mo  Mo175  1  0.30864271  0.69541217  0.87531440  1
  Mo  Mo176  1  0.09708083  0.30475925  0.37698691  1
  Mo  Mo177  1  0.69748505  0.30616330  0.37662477  1
  Mo  Mo178  1  0.70002629  0.69568244  0.36504329  1
  Mo  Mo179  1  0.40288177  0.81263022  0.22615225  1
  Mo  Mo180  1  0.49943958  0.89671742  0.87529917  1
  Mo  Mo181  1  0.29849496  0.49123457  0.13386647  1
  Mo  Mo182  1  0.50859543  0.49528564  0.12124733  1
  Mo  Mo183  1  0.29756013  0.90184259  0.11727965  1
  Mo  Mo184  1  0.80355261  0.00644160  0.51506713  1
  Mo  Mo185  1  0.59780815  0.20570875  0.27300881  1
  Mo  Mo186  1  0.00361624  0.60091195  0.74359976  1
  Mo  Mo187  1  0.89907480  0.50036960  0.61978457  1
  Mo  Mo188  1  0.69216023  0.30350708  0.87630491  1
  Mo  Mo189  1  0.69760563  0.29643168  0.59625142  1
  Mo  Mo190  1  0.49914420  0.90069299  0.63320696  1
  Mo  Mo191  1  0.31955547  0.29705513  0.86483069  1
  Mo  Mo192  1  0.19772218  0.79585634  -0.00788754  1
  Mo  Mo193  1  0.59644230  0.01087418  0.00153154  1
  Mo  Mo194  1  0.89647443  0.30010883  0.12545932  1
  Mo  Mo195  1  0.89578963  0.50539093  0.13218255  1
  Mo  Mo196  1  0.79334767  0.01401537  0.73757985  1
  Mo  Mo197  1  0.00418030  0.01490786  0.74353525  1
  Mo  Mo198  1  0.19964186  0.20069445  0.23506267  1
  Mo  Mo199  1  0.50587065  0.49478436  0.60888735  1
