# generated using pymatgen
data_HfZrTaTiMo
_symmetry_space_group_name_H-M   'P 1'
_cell_length_a   15.83507337
_cell_length_b   15.85120812
_cell_length_c   15.41584620
_cell_angle_alpha   90.00216995
_cell_angle_beta   90.03165061
_cell_angle_gamma   90.03559377
_symmetry_Int_Tables_number   1
_chemical_formula_structural   HfZrTaTiMo
_chemical_formula_sum   'Hf40 Zr40 Ta40 Ti40 Mo40'
_cell_volume   3869.45380560
_cell_formula_units_Z   40
loop_
 _symmetry_equiv_pos_site_id
 _symmetry_equiv_pos_as_xyz
  1  'x, y, z'
loop_
 _atom_site_type_symbol
 _atom_site_label
 _atom_site_symmetry_multiplicity
 _atom_site_fract_x
 _atom_site_fract_y
 _atom_site_fract_z
 _atom_site_occupancy
  Hf  Hf0  1  0.90549806  0.90284585  0.63108753  1
  Hf  Hf1  1  0.40594470  0.19898731  0.73560248  1
  Hf  Hf2  1  -0.00509180  0.39876207  0.26741598  1
  Hf  Hf3  1  0.69412706  0.50097791  0.63043407  1
  Hf  Hf4  1  0.89873059  0.90483242  0.11504111  1
  Hf  Hf5  1  0.51350497  0.71399989  0.61729744  1
  Hf  Hf6  1  0.89703085  0.68524968  0.88673313  1
  Hf  Hf7  1  0.89657806  0.50080433  0.38400896  1
  Hf  Hf8  1  0.00126920  0.20324573  0.25871684  1
  Hf  Hf9  1  0.19123908  0.79971431  0.48221084  1
  Hf  Hf10  1  0.68625189  0.89077522  0.37537834  1
  Hf  Hf11  1  0.89870340  0.49011969  0.62431483  1
  Hf  Hf12  1  0.19816187  0.39720652  0.74682969  1
  Hf  Hf13  1  0.09867203  0.29926129  0.12521158  1
  Hf  Hf14  1  -0.00536585  0.60189353  0.74283745  1
  Hf  Hf15  1  0.40607119  0.80606101  -0.00556691  1
  Hf  Hf16  1  0.39071965  0.01790169  0.00367992  1
  Hf  Hf17  1  0.40315770  0.61283019  0.24643349  1
  Hf  Hf18  1  0.79258788  0.38779587  0.49862445  1
  Hf  Hf19  1  0.72780516  0.30314094  0.87405307  1
  Hf  Hf20  1  0.78958204  0.00396557  0.51994208  1
  Hf  Hf21  1  0.10827827  0.08569899  0.13684965  1
  Hf  Hf22  1  0.28423704  0.91143237  0.11996480  1
  Hf  Hf23  1  0.41001270  -0.00074656  0.23707433  1
  Hf  Hf24  1  0.21459189  0.18541698  0.01435674  1
  Hf  Hf25  1  0.59451874  0.79929163  0.22755502  1
  Hf  Hf26  1  0.09258883  0.89846107  0.11163290  1
  Hf  Hf27  1  0.19587873  0.59295225  0.00887095  1
  Hf  Hf28  1  0.41306406  0.19454082  0.23051932  1
  Hf  Hf29  1  0.70515464  0.28877890  0.36765545  1
  Hf  Hf30  1  0.39612463  0.18888707  0.50975658  1
  Hf  Hf31  1  0.50649722  0.09638794  0.38187439  1
  Hf  Hf32  1  0.60216585  0.40349717  0.75373095  1
  Hf  Hf33  1  0.29848694  0.28571127  0.36323254  1
  Hf  Hf34  1  0.70338938  0.49389234  0.13221034  1
  Hf  Hf35  1  0.68973884  0.68296457  0.88903481  1
  Hf  Hf36  1  0.70341253  0.09084082  0.37397788  1
  Hf  Hf37  1  -0.00647613  0.79822561  0.25386522  1
  Hf  Hf38  1  0.60618434  0.61158269  0.48527784  1
  Hf  Hf39  1  0.10226587  0.28005269  0.86983982  1
  Zr  Zr40  1  0.60917051  0.40202419  0.00086495  1
  Zr  Zr41  1  0.28950638  0.08751179  0.63959597  1
  Zr  Zr42  1  0.50053310  0.10913298  0.88399043  1
  Zr  Zr43  1  0.88687428  0.90791221  0.37673248  1
  Zr  Zr44  1  0.50547432  0.51535238  0.88553329  1
  Zr  Zr45  1  0.60471027  0.19027590  0.22635326  1
  Zr  Zr46  1  0.39879040  0.40170995  0.49932350  1
  Zr  Zr47  1  0.79884479  0.60328582  0.24611003  1
  Zr  Zr48  1  0.62064619  0.19634122  0.52104442  1
  Zr  Zr49  1  0.10016803  0.49435977  0.62104934  1
  Zr  Zr50  1  0.08412108  0.49612379  0.87448059  1
  Zr  Zr51  1  0.30556639  0.49997648  0.87781925  1
  Zr  Zr52  1  0.19464321  0.38554417  0.49725350  1
  Zr  Zr53  1  0.29993064  0.49826043  0.13851935  1
  Zr  Zr54  1  0.79138501  0.60420183  0.50359340  1
  Zr  Zr55  1  0.50474497  0.30159506  0.88268696  1
  Zr  Zr56  1  0.00521707  0.80956683  0.75887095  1
  Zr  Zr57  1  0.78916074  0.81237483  -0.01831091  1
  Zr  Zr58  1  0.28836213  0.89456747  0.63834480  1
  Zr  Zr59  1  0.81203057  0.19171909  0.23606199  1
  Zr  Zr60  1  0.59203689  0.80699404  0.78590051  1
  Zr  Zr61  1  0.16019115  -0.00052299  0.76407824  1
  Zr  Zr62  1  0.19845064  0.39345535  -0.00019745  1
  Zr  Zr63  1  0.61249271  0.19657164  0.74223777  1
  Zr  Zr64  1  0.50351331  0.29854825  0.37443883  1
  Zr  Zr65  1  0.10101794  0.51518009  0.39309989  1
  Zr  Zr66  1  0.31021244  0.29382207  0.87342236  1
  Zr  Zr67  1  0.39375312  0.80805192  0.50077610  1
  Zr  Zr68  1  0.50274757  0.71945845  0.37610569  1
  Zr  Zr69  1  0.00993528  0.17945540  0.72766112  1
  Zr  Zr70  1  0.11226571  0.70793310  0.62771082  1
  Zr  Zr71  1  0.40071505  0.60935274  0.74763159  1
  Zr  Zr72  1  0.18703191  0.60666120  0.24466465  1
  Zr  Zr73  1  0.78842555  0.78944105  0.51692830  1
  Zr  Zr74  1  0.50732954  0.30912670  0.61786767  1
  Zr  Zr75  1  0.19396372  0.79973922  0.25623837  1
  Zr  Zr76  1  0.09384752  0.69833417  0.89452136  1
  Zr  Zr77  1  0.18984274  0.39731347  0.26161256  1
  Zr  Zr78  1  0.39844646  0.79896725  0.76721208  1
  Zr  Zr79  1  -0.00588855  0.61946867  0.51097002  1
  Ta  Ta80  1  0.29341257  0.71053689  0.11289092  1
  Ta  Ta81  1  0.79270247  0.79844775  0.23850722  1
  Ta  Ta82  1  0.89200384  0.70491405  0.36974564  1
  Ta  Ta83  1  0.70195860  0.90516835  0.11727571  1
  Ta  Ta84  1  0.49546470  0.90824686  0.63437779  1
  Ta  Ta85  1  0.39697321  -0.00079195  0.50017649  1
  Ta  Ta86  1  0.28945975  0.90791847  0.88371219  1
  Ta  Ta87  1  0.70957574  0.29686673  0.11481922  1
  Ta  Ta88  1  0.20474768  -0.00228016  0.48428701  1
  Ta  Ta89  1  0.89794022  0.10825384  0.39238086  1
  Ta  Ta90  1  0.50824200  0.90620047  0.10435920  1
  Ta  Ta91  1  0.81540447  0.20019788  0.00070843  1
  Ta  Ta92  1  0.20004916  0.79654111  0.77355129  1
  Ta  Ta93  1  0.49962966  0.51080918  0.61857079  1
  Ta  Ta94  1  0.28749057  0.10476701  0.86061577  1
  Ta  Ta95  1  0.30624794  0.50284714  0.37322695  1
  Ta  Ta96  1  0.29868193  0.69806287  0.89481710  1
  Ta  Ta97  1  0.29581193  0.69499933  0.37555091  1
  Ta  Ta98  1  0.40444865  0.39746036  0.02070238  1
  Ta  Ta99  1  0.40125951  0.40752904  0.73673378  1
  Ta  Ta100  1  0.89870249  0.70062991  0.10780658  1
  Ta  Ta101  1  0.08646520  0.70525728  0.10580828  1
  Ta  Ta102  1  0.40066392  0.60210716  0.49529513  1
  Ta  Ta103  1  0.61130174  -0.00803517  -0.02032760  1
  Ta  Ta104  1  0.79702540  0.79589692  0.75544679  1
  Ta  Ta105  1  0.50374075  0.49901184  0.13633410  1
  Ta  Ta106  1  -0.00383680  0.60537707  0.24307685  1
  Ta  Ta107  1  0.30289582  0.30045523  0.14078448  1
  Ta  Ta108  1  0.68820308  0.89428272  0.64432397  1
  Ta  Ta109  1  0.00145082  0.19537708  0.00437724  1
  Ta  Ta110  1  0.29781037  0.50862587  0.61810779  1
  Ta  Ta111  1  0.59554642  -0.00241180  0.52013110  1
  Ta  Ta112  1  0.00794862  0.20501228  0.50195793  1
  Ta  Ta113  1  0.70832976  0.09180001  0.10210401  1
  Ta  Ta114  1  0.60338254  0.40997868  0.49229419  1
  Ta  Ta115  1  0.10693315  0.10379787  0.37363240  1
  Ta  Ta116  1  -0.00569723  0.80519871  0.49340827  1
  Ta  Ta117  1  0.60117226  0.60844443  0.24617907  1
  Ta  Ta118  1  0.80477070  0.01023846  0.74820708  1
  Ta  Ta119  1  0.80364602  0.39037701  0.25380163  1
  Ti  Ti120  1  0.19567890  0.19142870  0.51134523  1
  Ti  Ti121  1  0.90743087  0.11351106  0.86890816  1
  Ti  Ti122  1  0.09445938  0.90842805  0.37017192  1
  Ti  Ti123  1  -0.01276675  0.39141543  -0.01150951  1
  Ti  Ti124  1  0.59697903  0.60749181  0.74979353  1
  Ti  Ti125  1  0.40613690  -0.00275014  0.76508731  1
  Ti  Ti126  1  0.40629226  0.60199376  0.01680942  1
  Ti  Ti127  1  0.81161210  0.20473861  0.73054232  1
  Ti  Ti128  1  0.29922414  0.09459921  0.36015870  1
  Ti  Ti129  1  0.70977148  0.10717648  0.87377606  1
  Ti  Ti130  1  0.90680329  0.09170975  0.11643466  1
  Ti  Ti131  1  0.20287214  0.60375982  0.75833626  1
  Ti  Ti132  1  0.08247205  0.49703441  0.11943124  1
  Ti  Ti133  1  0.09915194  0.90607408  0.61454651  1
  Ti  Ti134  1  0.88683665  0.48110598  0.86846800  1
  Ti  Ti135  1  0.79872481  -0.00051448  0.24380499  1
  Ti  Ti136  1  0.50133905  0.90626804  0.37802615  1
  Ti  Ti137  1  0.00382153  0.00576299  -0.02003057  1
  Ti  Ti138  1  0.30751132  0.90127855  0.36173779  1
  Ti  Ti139  1  0.90163563  0.30603388  0.11743953  1
  Ti  Ti140  1  0.69833392  0.70087540  0.10688339  1
  Ti  Ti141  1  0.49876670  0.49892596  0.36163979  1
  Ti  Ti142  1  0.80661392  0.00691434  -0.01966562  1
  Ti  Ti143  1  0.90141365  0.49309198  0.12479087  1
  Ti  Ti144  1  0.29300111  0.29918233  0.62927623  1
  Ti  Ti145  1  -0.00976054  0.38085866  0.75165258  1
  Ti  Ti146  1  0.00282344  0.00531710  0.49569413  1
  Ti  Ti147  1  0.60198666  0.00023402  0.23330570  1
  Ti  Ti148  1  0.29663176  0.69773864  0.61992473  1
  Ti  Ti149  1  0.59746715  0.39220943  0.24515002  1
  Ti  Ti150  1  0.90339819  0.90804539  0.86797549  1
  Ti  Ti151  1  0.80003939  0.58094858  0.00461709  1
  Ti  Ti152  1  -0.00875267  0.00536955  0.26049299  1
  Ti  Ti153  1  0.59920166  0.00437735  0.75645408  1
  Ti  Ti154  1  0.40086908  0.80292449  0.23268912  1
  Ti  Ti155  1  0.79706837  0.60223022  0.74537290  1
  Ti  Ti156  1  0.69451861  0.49708249  0.36160717  1
  Ti  Ti157  1  0.90508653  0.29790325  0.61161578  1
  Ti  Ti158  1  0.70947593  0.49814750  0.87140843  1
  Ti  Ti159  1  0.40970511  0.20483074  0.02372081  1
  Mo  Mo160  1  0.09924249  0.08694917  0.59889409  1
  Mo  Mo161  1  -0.01033527  0.80497267  -0.00762114  1
  Mo  Mo162  1  0.19575895  0.00512990  -0.01298990  1
  Mo  Mo163  1  0.70264592  0.09334196  0.64276567  1
  Mo  Mo164  1  0.49854424  0.69522993  0.90133257  1
  Mo  Mo165  1  0.51556934  0.09546807  0.10180812  1
  Mo  Mo166  1  0.80678594  0.39612909  0.73694297  1
  Mo  Mo167  1  0.80721153  0.19575447  0.51606115  1
  Mo  Mo168  1  0.49627216  0.91224638  0.88402894  1
  Mo  Mo169  1  0.59967469  0.60063032  0.02455989  1
  Mo  Mo170  1  0.69578418  0.70094169  0.65086849  1
  Mo  Mo171  1  0.49872174  0.70104406  0.11686935  1
  Mo  Mo172  1  0.81040599  0.39884722  0.00854928  1
  Mo  Mo173  1  0.60153845  0.81369290  0.50834693  1
  Mo  Mo174  1  0.19961769  -0.00448028  0.27087317  1
  Mo  Mo175  1  0.19941278  0.19848673  0.73405311  1
  Mo  Mo176  1  -0.00302580  0.38890087  0.49031813  1
  Mo  Mo177  1  0.71187782  0.30509637  0.63636546  1
  Mo  Mo178  1  0.90912022  0.29563615  0.87261946  1
  Mo  Mo179  1  0.40759556  0.40148619  0.24651754  1
  Mo  Mo180  1  0.30011893  0.10078749  0.14183688  1
  Mo  Mo181  1  0.49766699  0.08725620  0.62679735  1
  Mo  Mo182  1  0.10119604  0.28959071  0.38169560  1
  Mo  Mo183  1  0.90159468  0.29578435  0.38929871  1
  Mo  Mo184  1  0.09477225  0.89803782  0.89677708  1
  Mo  Mo185  1  0.21152084  0.60294523  0.49625957  1
  Mo  Mo186  1  0.08866241  0.70603135  0.37824436  1
  Mo  Mo187  1  0.61650330  0.19527479  0.00279396  1
  Mo  Mo188  1  0.90194067  0.09841417  0.61070116  1
  Mo  Mo189  1  0.19914494  0.80130014  -0.00546111  1
  Mo  Mo190  1  0.20325008  0.19387096  0.24324338  1
  Mo  Mo191  1  0.60056402  0.80359672  0.00079164  1
  Mo  Mo192  1  0.70132925  0.70545747  0.35912877  1
  Mo  Mo193  1  0.09832252  0.10281171  0.88830765  1
  Mo  Mo194  1  0.89655077  0.70371974  0.64383778  1
  Mo  Mo195  1  0.10121358  0.29334338  0.62865445  1
  Mo  Mo196  1  -0.01191337  0.58666831  0.01424917  1
  Mo  Mo197  1  0.70654808  0.91544349  0.85894006  1
  Mo  Mo198  1  0.50872174  0.30428386  0.11694926  1
  Mo  Mo199  1  -0.01146357  0.00058050  0.75778471  1
