# generated using pymatgen
data_HfZrTaTiMo
_symmetry_space_group_name_H-M   'P 1'
_cell_length_a   15.82739434
_cell_length_b   15.83147050
_cell_length_c   15.40305190
_cell_angle_alpha   89.97236285
_cell_angle_beta   89.97307187
_cell_angle_gamma   90.03138292
_symmetry_Int_Tables_number   1
_chemical_formula_structural   HfZrTaTiMo
_chemical_formula_sum   'Hf40 Zr40 Ta40 Ti40 Mo40'
_cell_volume   3859.55552916
_cell_formula_units_Z   40
loop_
 _symmetry_equiv_pos_site_id
 _symmetry_equiv_pos_as_xyz
  1  'x, y, z'
loop_
 _atom_site_type_symbol
 _atom_site_label
 _atom_site_symmetry_multiplicity
 _atom_site_fract_x
 _atom_site_fract_y
 _atom_site_fract_z
 _atom_site_occupancy
  Hf  Hf0  1  0.89532485  0.90546733  0.87341186  1
  Hf  Hf1  1  0.70703502  0.90336861  0.62249678  1
  Hf  Hf2  1  0.90184081  0.10077389  0.12879230  1
  Hf  Hf3  1  0.19256379  0.79795477  -0.00797326  1
  Hf  Hf4  1  0.70612190  0.90728817  0.10930313  1
  Hf  Hf5  1  0.69845371  0.70537879  0.12327429  1
  Hf  Hf6  1  0.80014473  0.60227873  0.49662627  1
  Hf  Hf7  1  0.51130064  0.88909811  0.86780747  1
  Hf  Hf8  1  0.79071529  0.19686702  0.26447558  1
  Hf  Hf9  1  0.10600404  0.10814981  0.87177389  1
  Hf  Hf10  1  0.29533749  0.49295779  0.13023233  1
  Hf  Hf11  1  0.00534819  0.78817282  0.76185229  1
  Hf  Hf12  1  0.39711879  0.20122413  0.51232051  1
  Hf  Hf13  1  0.19926254  0.79728776  0.50293341  1
  Hf  Hf14  1  0.70294243  0.70779765  0.62419060  1
  Hf  Hf15  1  0.38836201  0.39276540  0.75454612  1
  Hf  Hf16  1  0.50708078  0.31168801  0.61440298  1
  Hf  Hf17  1  0.80569569  -0.00032149  0.26704736  1
  Hf  Hf18  1  0.09241962  0.28998113  0.37351209  1
  Hf  Hf19  1  0.10071300  0.29771482  0.15262845  1
  Hf  Hf20  1  0.90308042  0.70562390  0.12624765  1
  Hf  Hf21  1  -0.00308220  0.60611370  0.49843772  1
  Hf  Hf22  1  0.30508772  0.70419040  0.86665501  1
  Hf  Hf23  1  0.59394359  0.60992307  0.74304664  1
  Hf  Hf24  1  0.20245432  0.21470386  0.73605336  1
  Hf  Hf25  1  0.69479995  0.50627705  0.87800780  1
  Hf  Hf26  1  0.39951745  0.58583513  0.76218496  1
  Hf  Hf27  1  0.40926717  0.79450891  0.01165858  1
  Hf  Hf28  1  0.40641416  0.00618009  -0.00139944  1
  Hf  Hf29  1  0.30159650  0.89184311  0.63595529  1
  Hf  Hf30  1  0.59066120  0.40579499  0.76164780  1
  Hf  Hf31  1  0.80320812  0.17941981  0.74887864  1
  Hf  Hf32  1  0.50920874  0.10095893  0.62460216  1
  Hf  Hf33  1  0.19838156  0.58896666  -0.01631734  1
  Hf  Hf34  1  0.81832420  0.80181222  0.48758288  1
  Hf  Hf35  1  0.39391207  0.00775541  0.25040991  1
  Hf  Hf36  1  0.00501236  0.21196392  0.00142220  1
  Hf  Hf37  1  0.90238082  0.90175889  0.63562256  1
  Hf  Hf38  1  0.80325922  0.00638829  0.48709128  1
  Hf  Hf39  1  0.80865167  0.20795196  -0.00737111  1
  Zr  Zr40  1  0.60105053  0.00545113  0.25868244  1
  Zr  Zr41  1  0.69958803  0.30244310  0.12975368  1
  Zr  Zr42  1  0.81011669  0.40375793  -0.00531930  1
  Zr  Zr43  1  0.20271685  0.60195201  0.26648050  1
  Zr  Zr44  1  0.49459745  0.11562711  0.38075710  1
  Zr  Zr45  1  0.50166264  0.70817608  0.37262851  1
  Zr  Zr46  1  0.40939672  -0.00168244  0.74725253  1
  Zr  Zr47  1  0.00443030  0.20089246  0.74282537  1
  Zr  Zr48  1  0.30113701  0.69414468  0.11706783  1
  Zr  Zr49  1  0.68525627  0.10350474  0.11185143  1
  Zr  Zr50  1  0.20476236  0.19325384  0.00781378  1
  Zr  Zr51  1  0.30196477  0.90270465  0.86629996  1
  Zr  Zr52  1  0.49554058  0.28180434  0.87392931  1
  Zr  Zr53  1  0.20708752  0.80295173  0.25766261  1
  Zr  Zr54  1  0.30465752  0.29324716  0.13708027  1
  Zr  Zr55  1  0.20024884  -0.00671102  0.25874092  1
  Zr  Zr56  1  0.90198306  0.29738043  0.62014144  1
  Zr  Zr57  1  0.69601853  0.71488484  0.88426414  1
  Zr  Zr58  1  0.39882762  0.60041226  0.25870375  1
  Zr  Zr59  1  0.10059694  0.90923976  0.87312477  1
  Zr  Zr60  1  0.78721903  0.39085548  0.49371316  1
  Zr  Zr61  1  0.69459286  0.49926001  0.36807972  1
  Zr  Zr62  1  0.29734463  0.09698190  0.62669180  1
  Zr  Zr63  1  0.30448195  0.68613176  0.62631045  1
  Zr  Zr64  1  0.80049802  0.81166086  0.25775969  1
  Zr  Zr65  1  0.90166069  0.49928319  0.63413527  1
  Zr  Zr66  1  0.80421250  0.59999192  -0.00112440  1
  Zr  Zr67  1  0.48558012  0.50846542  0.60113260  1
  Zr  Zr68  1  0.69193647  0.49145868  0.62335974  1
  Zr  Zr69  1  0.00138942  0.81436366  0.25453964  1
  Zr  Zr70  1  0.62180893  0.00437468  0.74887750  1
  Zr  Zr71  1  0.39659499  0.40479589  -0.00856088  1
  Zr  Zr72  1  -0.00055677  0.59669400  -0.01675239  1
  Zr  Zr73  1  0.18507264  0.39285829  -0.00830230  1
  Zr  Zr74  1  0.79797132  0.59974506  0.24696528  1
  Zr  Zr75  1  0.28573841  0.48486749  0.61004439  1
  Zr  Zr76  1  0.10769759  0.10423736  0.37963006  1
  Zr  Zr77  1  0.09592317  0.69670617  0.12928707  1
  Zr  Zr78  1  0.59396066  0.40206832  0.00297265  1
  Zr  Zr79  1  0.29705956  0.26732483  0.35802778  1
  Ta  Ta80  1  -0.00290214  0.40146194  0.00609939  1
  Ta  Ta81  1  0.79502473  0.19910047  0.49963266  1
  Ta  Ta82  1  0.09534986  0.70307646  0.37985673  1
  Ta  Ta83  1  0.20204556  0.59740816  0.48438464  1
  Ta  Ta84  1  0.59765422  0.60722731  0.49961557  1
  Ta  Ta85  1  -0.00633950  0.79534051  -0.01488198  1
  Ta  Ta86  1  0.29627349  0.28894944  0.87423639  1
  Ta  Ta87  1  0.50709054  0.90926782  0.12406668  1
  Ta  Ta88  1  0.10924728  0.31590880  0.60467942  1
  Ta  Ta89  1  0.69052090  0.89646560  0.38497167  1
  Ta  Ta90  1  0.38828070  0.39236370  0.47675347  1
  Ta  Ta91  1  0.89808840  0.29911783  0.37025599  1
  Ta  Ta92  1  -0.00345960  0.40171485  0.49114247  1
  Ta  Ta93  1  0.18887025  0.59445233  0.75866828  1
  Ta  Ta94  1  0.79350830  0.38911620  0.75712399  1
  Ta  Ta95  1  -0.00112177  -0.00334941  0.50361461  1
  Ta  Ta96  1  0.09509086  0.49843316  0.37445618  1
  Ta  Ta97  1  0.29791998  0.90368660  0.11692610  1
  Ta  Ta98  1  0.59452091  0.39300973  0.25869725  1
  Ta  Ta99  1  0.09298232  0.49760252  0.14300994  1
  Ta  Ta100  1  0.18841675  0.00581880  0.74004090  1
  Ta  Ta101  1  0.09394277  0.90644080  0.11102749  1
  Ta  Ta102  1  0.40724562  0.39343973  0.26447683  1
  Ta  Ta103  1  0.69392707  0.70523305  0.37337277  1
  Ta  Ta104  1  0.10025092  0.50125620  0.61696508  1
  Ta  Ta105  1  0.40497150  -0.01107126  0.50244775  1
  Ta  Ta106  1  0.09917191  0.09523955  0.13531379  1
  Ta  Ta107  1  0.50010720  0.50020680  0.38176674  1
  Ta  Ta108  1  0.80264949  0.60369795  0.75675242  1
  Ta  Ta109  1  0.69432396  0.10376804  0.88937196  1
  Ta  Ta110  1  0.90245361  0.70160174  0.63703458  1
  Ta  Ta111  1  0.40276002  0.80869956  0.24059253  1
  Ta  Ta112  1  0.40536595  0.79661147  0.50884007  1
  Ta  Ta113  1  0.59884847  -0.00017806  0.50228385  1
  Ta  Ta114  1  0.90032656  0.49777119  0.36667566  1
  Ta  Ta115  1  0.31008417  0.10841405  0.85993797  1
  Ta  Ta116  1  0.90171560  0.30486988  0.14629205  1
  Ta  Ta117  1  0.58368230  0.60364427  0.01280725  1
  Ta  Ta118  1  0.90358163  0.90461560  0.10662773  1
  Ta  Ta119  1  0.61191310  0.20422251  0.73750918  1
  Ti  Ti120  1  0.01003576  0.39610324  0.74324392  1
  Ti  Ti121  1  0.20592278  0.00597473  0.00098241  1
  Ti  Ti122  1  0.30917008  0.89516251  0.38455322  1
  Ti  Ti123  1  0.50803215  0.88644405  0.63551051  1
  Ti  Ti124  1  0.40525618  0.59386583  -0.00765945  1
  Ti  Ti125  1  0.90531591  0.49816028  0.14113570  1
  Ti  Ti126  1  0.59734822  0.80238821  0.50435764  1
  Ti  Ti127  1  0.59448077  0.60163815  0.24233627  1
  Ti  Ti128  1  0.68469002  0.11118746  0.38829503  1
  Ti  Ti129  1  0.69656723  0.49678674  0.13175022  1
  Ti  Ti130  1  0.09650968  0.89957318  0.62643586  1
  Ti  Ti131  1  0.00188520  0.01035338  -0.00501625  1
  Ti  Ti132  1  0.50287102  0.70220355  0.87117555  1
  Ti  Ti133  1  0.91120637  0.30447628  0.86458955  1
  Ti  Ti134  1  -0.01119176  0.01600001  0.74599832  1
  Ti  Ti135  1  0.50081267  0.90060971  0.37565538  1
  Ti  Ti136  1  0.90259980  0.49641128  0.85724742  1
  Ti  Ti137  1  0.20344718  0.20410473  0.51002585  1
  Ti  Ti138  1  0.19512211  0.79466473  0.74857947  1
  Ti  Ti139  1  0.69490767  0.29398065  0.87685125  1
  Ti  Ti140  1  0.90733043  0.70042137  0.36472522  1
  Ti  Ti141  1  0.59469350  0.80092337  0.01109627  1
  Ti  Ti142  1  0.08871526  0.49296909  0.86217623  1
  Ti  Ti143  1  0.50446856  0.28697293  0.13251308  1
  Ti  Ti144  1  0.49708696  0.49685224  0.13456290  1
  Ti  Ti145  1  0.09114711  0.10292122  0.61165697  1
  Ti  Ti146  1  -0.00267677  -0.00140156  0.25902295  1
  Ti  Ti147  1  0.20354921  -0.00366208  0.50295417  1
  Ti  Ti148  1  0.80572073  0.00893102  -0.01179821  1
  Ti  Ti149  1  0.50704040  0.10323682  0.86907818  1
  Ti  Ti150  1  0.40336559  0.19084818  0.01318141  1
  Ti  Ti151  1  0.79640760  0.80226352  0.75940378  1
  Ti  Ti152  1  0.19766411  0.40142565  0.75955625  1
  Ti  Ti153  1  0.59691415  0.80532236  0.24336669  1
  Ti  Ti154  1  0.09745524  0.69439440  0.62481288  1
  Ti  Ti155  1  0.20652208  0.40303550  0.26924174  1
  Ti  Ti156  1  -0.00338165  0.40196065  0.25924786  1
  Ti  Ti157  1  0.09121797  0.89697637  0.39227370  1
  Ti  Ti158  1  0.70109280  0.90469947  0.88571331  1
  Ti  Ti159  1  0.91782932  0.11283523  0.38250811  1
  Mo  Mo160  1  0.29815261  0.09151089  0.12123060  1
  Mo  Mo161  1  0.50327273  0.29999716  0.38053968  1
  Mo  Mo162  1  0.40412779  0.20211175  0.73954207  1
  Mo  Mo163  1  -0.00482743  0.19418740  0.24599879  1
  Mo  Mo164  1  0.30321349  0.70685449  0.38980586  1
  Mo  Mo165  1  0.29359557  0.49658044  0.87490461  1
  Mo  Mo166  1  0.00436252  0.79931720  0.50957592  1
  Mo  Mo167  1  0.59194750  0.19772193  -0.00223523  1
  Mo  Mo168  1  0.50450817  0.70229065  0.13709205  1
  Mo  Mo169  1  0.70016761  0.29957544  0.63511002  1
  Mo  Mo170  1  0.09586353  0.30849220  0.87062378  1
  Mo  Mo171  1  0.69182354  0.29310960  0.36580577  1
  Mo  Mo172  1  0.10107824  0.69564131  0.86800264  1
  Mo  Mo173  1  0.50075485  0.70381829  0.61694041  1
  Mo  Mo174  1  0.70571234  0.10291624  0.60994373  1
  Mo  Mo175  1  0.59630148  -0.00122286  -0.01147785  1
  Mo  Mo176  1  0.80515458  0.80603678  -0.00338885  1
  Mo  Mo177  1  0.90787909  0.90638311  0.38413388  1
  Mo  Mo178  1  0.20440419  0.18126512  0.23937708  1
  Mo  Mo179  1  0.61192878  0.20695686  0.51545899  1
  Mo  Mo180  1  0.60528724  0.80072805  0.74462174  1
  Mo  Mo181  1  0.29971530  0.49414809  0.37715103  1
  Mo  Mo182  1  0.30019961  0.08501260  0.39763555  1
  Mo  Mo183  1  0.80123449  0.39887680  0.25249010  1
  Mo  Mo184  1  0.90297623  0.09689333  0.60997720  1
  Mo  Mo185  1  0.59472916  0.39707444  0.48089296  1
  Mo  Mo186  1  0.89578074  0.69863508  0.86202122  1
  Mo  Mo187  1  0.49968551  0.50944592  0.88226590  1
  Mo  Mo188  1  0.49725830  0.10461867  0.12660834  1
  Mo  Mo189  1  0.41395939  0.78733785  0.73589718  1
  Mo  Mo190  1  0.29750674  0.30582010  0.62012055  1
  Mo  Mo191  1  0.90279848  0.10104527  0.88654974  1
  Mo  Mo192  1  0.00202044  0.59364489  0.74614850  1
  Mo  Mo193  1  0.59410695  0.20515509  0.25119460  1
  Mo  Mo194  1  0.40587916  0.19226027  0.23773989  1
  Mo  Mo195  1  0.00001519  0.59846048  0.26147889  1
  Mo  Mo196  1  0.39555497  0.60130011  0.48306286  1
  Mo  Mo197  1  0.19546331  0.39636087  0.47755213  1
  Mo  Mo198  1  -0.00193789  0.20031207  0.51062407  1
  Mo  Mo199  1  0.80511926  0.00323238  0.76359724  1
