# generated using pymatgen
data_HfZrTaTiMo
_symmetry_space_group_name_H-M   'P 1'
_cell_length_a   15.83809419
_cell_length_b   15.83107436
_cell_length_c   15.38529840
_cell_angle_alpha   90.00909003
_cell_angle_beta   90.03463500
_cell_angle_gamma   89.94378307
_symmetry_Int_Tables_number   1
_chemical_formula_structural   HfZrTaTiMo
_chemical_formula_sum   'Hf40 Zr40 Ta40 Ti40 Mo40'
_cell_volume   3857.61552220
_cell_formula_units_Z   40
loop_
 _symmetry_equiv_pos_site_id
 _symmetry_equiv_pos_as_xyz
  1  'x, y, z'
loop_
 _atom_site_type_symbol
 _atom_site_label
 _atom_site_symmetry_multiplicity
 _atom_site_fract_x
 _atom_site_fract_y
 _atom_site_fract_z
 _atom_site_occupancy
  Hf  Hf0  1  0.30103494  0.90380153  0.88825503  1
  Hf  Hf1  1  0.50031705  0.30943135  0.10193454  1
  Hf  Hf2  1  0.10114175  0.68856490  0.88256260  1
  Hf  Hf3  1  0.50264507  0.70611439  0.87865749  1
  Hf  Hf4  1  0.40454091  0.80345304  0.01899088  1
  Hf  Hf5  1  0.19092822  0.80913346  0.24922447  1
  Hf  Hf6  1  -0.01625407  0.59898220  0.26384615  1
  Hf  Hf7  1  0.59133059  0.40121204  0.25460707  1
  Hf  Hf8  1  0.07601873  0.69864294  0.11990559  1
  Hf  Hf9  1  0.39649696  0.79939710  0.75598130  1
  Hf  Hf10  1  0.80232433  -0.01505370  0.52522704  1
  Hf  Hf11  1  0.49467722  0.90639257  0.61649968  1
  Hf  Hf12  1  0.40094848  -0.00313850  0.22751454  1
  Hf  Hf13  1  0.20671216  0.19755522  0.23331094  1
  Hf  Hf14  1  0.18897988  0.01806343  0.73971933  1
  Hf  Hf15  1  0.80461672  0.19835907  -0.00433337  1
  Hf  Hf16  1  0.40269868  0.00673041  0.75660911  1
  Hf  Hf17  1  0.39305659  0.79413117  0.50019669  1
  Hf  Hf18  1  0.70917172  0.30386773  0.87383597  1
  Hf  Hf19  1  0.88486512  0.69688451  0.38930376  1
  Hf  Hf20  1  0.49901096  0.69250605  0.63460407  1
  Hf  Hf21  1  0.80346745  0.78729513  0.23179035  1
  Hf  Hf22  1  0.49543304  0.11026541  0.10419834  1
  Hf  Hf23  1  0.40971983  0.20514133  0.76417605  1
  Hf  Hf24  1  0.60362069  0.00617911  0.74823392  1
  Hf  Hf25  1  0.79701290  0.19438679  0.22826227  1
  Hf  Hf26  1  0.91400866  0.08832889  0.11804809  1
  Hf  Hf27  1  0.69507313  0.50493974  0.64692666  1
  Hf  Hf28  1  0.50535582  0.09767064  0.37875474  1
  Hf  Hf29  1  0.48984047  0.49558648  0.62644224  1
  Hf  Hf30  1  0.60092894  0.19766864  0.75448199  1
  Hf  Hf31  1  0.18869739  0.59605332  0.24164875  1
  Hf  Hf32  1  0.69871043  0.89629251  0.86894369  1
  Hf  Hf33  1  0.28506175  0.49668460  0.89069053  1
  Hf  Hf34  1  0.58789459  0.39639303  0.76378358  1
  Hf  Hf35  1  -0.00320108  0.79359504  0.75533592  1
  Hf  Hf36  1  0.61347733  0.00122836  0.50944995  1
  Hf  Hf37  1  0.38994603  0.39742398  0.77014416  1
  Hf  Hf38  1  0.51249745  0.68957132  0.12982339  1
  Hf  Hf39  1  0.29570166  0.50217481  0.37930483  1
  Zr  Zr40  1  0.91880761  0.08021071  0.64505223  1
  Zr  Zr41  1  0.60876432  0.39715813  0.49372171  1
  Zr  Zr42  1  0.71238441  0.09382937  0.37201631  1
  Zr  Zr43  1  0.30439041  0.09868152  0.36740957  1
  Zr  Zr44  1  0.00927898  -0.00678399  0.26155905  1
  Zr  Zr45  1  0.20044890  0.79642112  0.01303331  1
  Zr  Zr46  1  0.08537401  0.90706998  0.10860022  1
  Zr  Zr47  1  0.89840176  0.10137656  0.37272607  1
  Zr  Zr48  1  0.30138594  0.31603766  0.62523482  1
  Zr  Zr49  1  0.19717765  0.20161030  0.50916755  1
  Zr  Zr50  1  0.30215906  0.10049285  0.89513247  1
  Zr  Zr51  1  0.68895358  0.50943285  0.13172813  1
  Zr  Zr52  1  0.08391052  0.90142780  0.62400350  1
  Zr  Zr53  1  0.79606805  -0.00083729  -0.00428291  1
  Zr  Zr54  1  0.60608914  0.00613414  0.23303250  1
  Zr  Zr55  1  0.39691118  0.57952555  0.22668662  1
  Zr  Zr56  1  0.09964075  0.29712958  0.36558144  1
  Zr  Zr57  1  0.70975216  0.51252112  0.86499989  1
  Zr  Zr58  1  0.29747826  0.69879779  0.36682574  1
  Zr  Zr59  1  0.20110376  -0.00657669  0.49149995  1
  Zr  Zr60  1  0.19927058  0.20832668  0.01320760  1
  Zr  Zr61  1  0.80254493  0.61256504  0.00797352  1
  Zr  Zr62  1  0.90436213  0.49668541  0.12515431  1
  Zr  Zr63  1  0.29728784  0.90050048  0.62232826  1
  Zr  Zr64  1  0.02164736  0.20155486  0.74540335  1
  Zr  Zr65  1  0.10000299  0.90608080  0.88346667  1
  Zr  Zr66  1  0.20991944  0.20930334  0.74868439  1
  Zr  Zr67  1  0.79218576  0.59933176  0.51514154  1
  Zr  Zr68  1  0.49550898  0.70272269  0.36232344  1
  Zr  Zr69  1  0.09592293  0.48189068  0.63216691  1
  Zr  Zr70  1  0.40167060  0.20924251  0.48754954  1
  Zr  Zr71  1  0.49549830  0.50621391  0.38259234  1
  Zr  Zr72  1  0.61251977  0.80008311  0.50502734  1
  Zr  Zr73  1  0.80648385  0.19741338  0.52401009  1
  Zr  Zr74  1  0.60073397  0.60453826  0.49985933  1
  Zr  Zr75  1  0.20220408  0.79244087  0.74854532  1
  Zr  Zr76  1  0.80188624  0.39414522  0.25324912  1
  Zr  Zr77  1  0.19994314  0.59791785  0.74179092  1
  Zr  Zr78  1  0.59921313  0.21057192  0.24759130  1
  Zr  Zr79  1  0.08777582  0.31087188  0.13134343  1
  Ta  Ta80  1  0.60973886  0.20176734  0.50928671  1
  Ta  Ta81  1  -0.00132241  0.40086033  -0.01715256  1
  Ta  Ta82  1  0.19781318  0.59887969  0.50632664  1
  Ta  Ta83  1  0.69998553  0.30691719  0.10496188  1
  Ta  Ta84  1  0.88658775  0.89824443  0.37010245  1
  Ta  Ta85  1  0.39166808  0.60066512  0.75467830  1
  Ta  Ta86  1  0.09502500  0.69881723  0.38943992  1
  Ta  Ta87  1  -0.00456758  0.39392061  0.49252658  1
  Ta  Ta88  1  0.30236934  0.69204677  0.89353902  1
  Ta  Ta89  1  0.60293925  0.60621676  -0.00864000  1
  Ta  Ta90  1  0.50056281  0.90326014  0.37684760  1
  Ta  Ta91  1  0.39914428  0.38796678  0.25421947  1
  Ta  Ta92  1  0.20072459  0.00286069  0.23921159  1
  Ta  Ta93  1  0.79598063  0.79662846  0.00252347  1
  Ta  Ta94  1  -0.00255479  0.79688643  0.26577533  1
  Ta  Ta95  1  0.19569853  0.39847176  0.49139280  1
  Ta  Ta96  1  0.70606526  0.30591710  0.63748139  1
  Ta  Ta97  1  0.50293132  0.90589397  0.89242173  1
  Ta  Ta98  1  0.90610126  0.09699728  0.86658662  1
  Ta  Ta99  1  0.09237121  0.69662887  0.61067930  1
  Ta  Ta100  1  0.79916935  0.80258559  0.73399072  1
  Ta  Ta101  1  0.50314435  0.30128916  0.61823523  1
  Ta  Ta102  1  0.80590836  0.39956780  0.50342161  1
  Ta  Ta103  1  -0.00372632  0.58896226  0.49778922  1
  Ta  Ta104  1  0.89805160  0.29318289  0.37745233  1
  Ta  Ta105  1  0.69495926  0.69867431  0.35367859  1
  Ta  Ta106  1  0.90874722  0.29985355  0.86585323  1
  Ta  Ta107  1  0.10060358  0.10077824  0.37717459  1
  Ta  Ta108  1  0.09796178  0.09775145  0.89714242  1
  Ta  Ta109  1  0.59760324  0.80921704  0.23830100  1
  Ta  Ta110  1  0.49760291  0.10480330  0.61368464  1
  Ta  Ta111  1  -0.02446495  0.79262130  -0.01697878  1
  Ta  Ta112  1  0.90254755  0.89224900  0.12338300  1
  Ta  Ta113  1  0.70510423  0.89575342  0.36138119  1
  Ta  Ta114  1  0.80185626  0.19489446  0.74945264  1
  Ta  Ta115  1  0.71121536  0.50915021  0.36355281  1
  Ta  Ta116  1  -0.00061159  -0.00447664  0.48658745  1
  Ta  Ta117  1  0.90471469  0.69804129  0.62210354  1
  Ta  Ta118  1  0.49273938  0.50856882  0.88476827  1
  Ta  Ta119  1  0.19587943  0.59261016  0.01937024  1
  Ti  Ti120  1  0.59851346  0.80433949  0.74242252  1
  Ti  Ti121  1  0.29972644  0.50154086  0.61938430  1
  Ti  Ti122  1  0.40261156  0.21065379  0.25217355  1
  Ti  Ti123  1  0.60738368  0.00217462  0.00290977  1
  Ti  Ti124  1  0.88555589  0.68911951  0.85908096  1
  Ti  Ti125  1  0.79141413  0.80101179  0.51834157  1
  Ti  Ti126  1  0.00446404  0.19922236  0.51130037  1
  Ti  Ti127  1  -0.00973050  0.80535335  0.49378649  1
  Ti  Ti128  1  0.00019958  0.20309260  -0.00357769  1
  Ti  Ti129  1  0.80923474  0.40579768  -0.00760647  1
  Ti  Ti130  1  0.70763946  0.29472354  0.38115927  1
  Ti  Ti131  1  0.39703729  0.39611130  0.48610294  1
  Ti  Ti132  1  0.30984132  0.31036384  0.10959300  1
  Ti  Ti133  1  0.70559413  0.90421897  0.12662407  1
  Ti  Ti134  1  0.61106953  0.79996563  0.01226316  1
  Ti  Ti135  1  0.09768955  0.50040618  0.37804495  1
  Ti  Ti136  1  -0.00707754  0.40281656  0.26744412  1
  Ti  Ti137  1  0.40229389  0.81004822  0.23434435  1
  Ti  Ti138  1  0.09682907  0.49483078  0.87211602  1
  Ti  Ti139  1  0.69847657  0.70212274  0.85545384  1
  Ti  Ti140  1  0.90263817  0.30479871  0.11803649  1
  Ti  Ti141  1  0.39815812  0.59351805  0.01253729  1
  Ti  Ti142  1  0.19547979  0.79605830  0.49763520  1
  Ti  Ti143  1  0.81504626  0.40368938  0.75310201  1
  Ti  Ti144  1  0.30688796  0.90099528  0.36869300  1
  Ti  Ti145  1  0.90240112  0.49561293  0.63145602  1
  Ti  Ti146  1  0.11327814  0.30988905  0.87872930  1
  Ti  Ti147  1  -0.00860895  0.59288927  -0.00956682  1
  Ti  Ti148  1  -0.00671633  0.59254103  0.74988073  1
  Ti  Ti149  1  0.60098278  0.41092217  -0.01188722  1
  Ti  Ti150  1  0.29698239  0.69777804  0.12980023  1
  Ti  Ti151  1  0.31231794  0.09734987  0.61491275  1
  Ti  Ti152  1  0.50287469  0.09727124  0.89282001  1
  Ti  Ti153  1  0.00102839  0.19627034  0.24359995  1
  Ti  Ti154  1  0.09293622  0.49363919  0.12361039  1
  Ti  Ti155  1  0.20980887  0.40140773  0.24414520  1
  Ti  Ti156  1  0.91250471  0.30838853  0.63705697  1
  Ti  Ti157  1  0.89490128  0.90376943  0.86223667  1
  Ti  Ti158  1  0.20983542  0.00862104  0.03160856  1
  Ti  Ti159  1  0.61219451  0.19667614  -0.01313139  1
  Mo  Mo160  1  0.80310579  -0.01047468  0.23406766  1
  Mo  Mo161  1  0.30621089  0.10902045  0.12587128  1
  Mo  Mo162  1  0.50330519  0.29950085  0.38396327  1
  Mo  Mo163  1  0.69629405  0.70362044  0.13048545  1
  Mo  Mo164  1  0.38918617  0.59924799  0.51631160  1
  Mo  Mo165  1  0.90341576  0.70038761  0.11869459  1
  Mo  Mo166  1  0.09717951  0.10198901  0.11521543  1
  Mo  Mo167  1  0.69798884  0.90032446  0.64390673  1
  Mo  Mo168  1  0.59210211  0.60299494  0.76767971  1
  Mo  Mo169  1  0.40670980  -0.00197145  0.49288172  1
  Mo  Mo170  1  0.19092318  0.40534338  0.00967456  1
  Mo  Mo171  1  0.89706608  0.49316151  0.38569515  1
  Mo  Mo172  1  0.09562483  0.30384611  0.61580392  1
  Mo  Mo173  1  0.19522423  0.39629565  0.75863043  1
  Mo  Mo174  1  0.40274744  0.20729468  -0.01418660  1
  Mo  Mo175  1  0.80677743  0.60690549  0.73695510  1
  Mo  Mo176  1  0.80126556  -0.00249175  0.75155806  1
  Mo  Mo177  1  0.59898200  0.59987089  0.25436835  1
  Mo  Mo178  1  0.90586541  0.50221405  0.86822746  1
  Mo  Mo179  1  0.90318664  0.89019461  0.62927697  1
  Mo  Mo180  1  0.29896196  0.30741126  0.36429506  1
  Mo  Mo181  1  -0.00861779  -0.00265694  -0.01586995  1
  Mo  Mo182  1  0.69749700  0.70066868  0.64576118  1
  Mo  Mo183  1  0.49836227  0.49503964  0.10401967  1
  Mo  Mo184  1  0.10135111  0.09820927  0.60610327  1
  Mo  Mo185  1  0.29890670  0.90080169  0.13172010  1
  Mo  Mo186  1  0.79800842  0.59954232  0.24649559  1
  Mo  Mo187  1  0.70557258  0.09876250  0.86660462  1
  Mo  Mo188  1  0.40309507  -0.00003554  0.00948073  1
  Mo  Mo189  1  0.00081626  0.39993219  0.76607641  1
  Mo  Mo190  1  0.70275622  0.10622701  0.63749287  1
  Mo  Mo191  1  0.29669222  0.69262191  0.61694212  1
  Mo  Mo192  1  0.00576176  -0.00217978  0.76910582  1
  Mo  Mo193  1  0.70100692  0.10541196  0.11716114  1
  Mo  Mo194  1  0.50951469  0.90067963  0.10844843  1
  Mo  Mo195  1  0.50424777  0.30072977  0.89286344  1
  Mo  Mo196  1  0.39866514  0.40256750  -0.01119486  1
  Mo  Mo197  1  0.09709732  0.89217173  0.38350749  1
  Mo  Mo198  1  0.29863452  0.30451048  0.89203193  1
  Mo  Mo199  1  0.29497255  0.48841668  0.11665614  1
