# generated using pymatgen
data_HfZrTaTiMo
_symmetry_space_group_name_H-M   'P 1'
_cell_length_a   15.83130387
_cell_length_b   15.83842108
_cell_length_c   15.42183566
_cell_angle_alpha   90.01979555
_cell_angle_beta   89.93510904
_cell_angle_gamma   90.17083823
_symmetry_Int_Tables_number   1
_chemical_formula_structural   HfZrTaTiMo
_chemical_formula_sum   'Hf40 Zr40 Ta40 Ti40 Mo40'
_cell_volume   3866.89523995
_cell_formula_units_Z   40
loop_
 _symmetry_equiv_pos_site_id
 _symmetry_equiv_pos_as_xyz
  1  'x, y, z'
loop_
 _atom_site_type_symbol
 _atom_site_label
 _atom_site_symmetry_multiplicity
 _atom_site_fract_x
 _atom_site_fract_y
 _atom_site_fract_z
 _atom_site_occupancy
  Hf  Hf0  1  0.11098987  0.09709151  0.86166810  1
  Hf  Hf1  1  0.10006109  0.69795888  0.63760560  1
  Hf  Hf2  1  0.10201771  0.30293706  0.13562088  1
  Hf  Hf3  1  0.61006431  0.39741559  0.48792159  1
  Hf  Hf4  1  0.20443973  0.00169490  0.00065450  1
  Hf  Hf5  1  0.60905778  0.61280819  0.00725386  1
  Hf  Hf6  1  0.39100309  0.60941365  -0.00956307  1
  Hf  Hf7  1  0.60305714  0.41464947  0.25622178  1
  Hf  Hf8  1  0.89579060  0.88714918  0.88562039  1
  Hf  Hf9  1  0.40242645  0.59660140  0.75551104  1
  Hf  Hf10  1  0.08585803  0.29489800  0.62455034  1
  Hf  Hf11  1  0.59787337  0.79732457  0.49614989  1
  Hf  Hf12  1  -0.01646380  0.61032611  0.49756859  1
  Hf  Hf13  1  0.90332827  0.90676939  0.39768195  1
  Hf  Hf14  1  0.88881946  0.08868544  0.61119726  1
  Hf  Hf15  1  -0.00247721  0.01473780  0.25097276  1
  Hf  Hf16  1  0.50232114  0.71436487  0.12071519  1
  Hf  Hf17  1  0.89257061  0.70330276  0.36237592  1
  Hf  Hf18  1  0.40498501  0.40327619  0.73557479  1
  Hf  Hf19  1  0.51384989  0.51644447  0.61215859  1
  Hf  Hf20  1  0.19396117  0.18124987  0.51294929  1
  Hf  Hf21  1  0.40341257  0.79619794  0.26527214  1
  Hf  Hf22  1  0.80341080  0.59777461  0.01911972  1
  Hf  Hf23  1  0.00809347  0.40265022  -0.00846234  1
  Hf  Hf24  1  0.70631731  0.89850245  0.38050479  1
  Hf  Hf25  1  0.28566300  0.50668353  0.87574214  1
  Hf  Hf26  1  0.49269019  0.09777755  0.36933341  1
  Hf  Hf27  1  0.59044326  0.19789984  0.00902968  1
  Hf  Hf28  1  0.21107712  0.80024153  0.50790771  1
  Hf  Hf29  1  0.09940201  0.90711526  0.38195797  1
  Hf  Hf30  1  0.49251832  0.50755132  0.12133075  1
  Hf  Hf31  1  0.61058699  0.41541223  0.74116999  1
  Hf  Hf32  1  0.20329901  0.20386548  -0.00086079  1
  Hf  Hf33  1  0.00334035  -0.02572342  0.74585851  1
  Hf  Hf34  1  0.29868661  0.70328469  0.13387491  1
  Hf  Hf35  1  0.50490161  0.90322200  0.63271435  1
  Hf  Hf36  1  -0.01317080  0.18589092  0.75095464  1
  Hf  Hf37  1  0.70620406  0.70442921  0.86405584  1
  Hf  Hf38  1  0.20711360  0.60612759  0.49587217  1
  Hf  Hf39  1  0.78978242  0.20212980  0.48584260  1
  Zr  Zr40  1  0.31177288  0.10959178  0.12936508  1
  Zr  Zr41  1  0.10465572  0.89715156  0.12802793  1
  Zr  Zr42  1  0.29242941  0.49269859  0.11703250  1
  Zr  Zr43  1  0.90506298  0.29237120  0.12546664  1
  Zr  Zr44  1  0.80308469  0.78059595  0.51459015  1
  Zr  Zr45  1  0.59613419  0.39949977  0.01365656  1
  Zr  Zr46  1  0.49938793  0.10381059  0.86122295  1
  Zr  Zr47  1  0.30028440  0.90192484  0.37196933  1
  Zr  Zr48  1  0.69240024  0.29848985  0.87393785  1
  Zr  Zr49  1  0.50297799  0.09813008  0.13902359  1
  Zr  Zr50  1  0.50608021  0.71344500  0.86887751  1
  Zr  Zr51  1  0.09974573  0.67757077  0.86179076  1
  Zr  Zr52  1  0.50850842  0.10320776  0.63042861  1
  Zr  Zr53  1  0.20461466  0.79667964  -0.01417199  1
  Zr  Zr54  1  0.80336547  -0.00162297  0.76092057  1
  Zr  Zr55  1  0.10024471  0.69440694  0.14040712  1
  Zr  Zr56  1  0.90194301  0.69200314  0.86900915  1
  Zr  Zr57  1  0.30900641  0.91292737  0.86093215  1
  Zr  Zr58  1  0.89702404  0.90782118  0.11245270  1
  Zr  Zr59  1  0.00241358  0.78717004  0.00121327  1
  Zr  Zr60  1  0.20131377  0.00518268  0.24291755  1
  Zr  Zr61  1  -0.01628063  0.39732823  0.76108774  1
  Zr  Zr62  1  0.80529367  0.00683047  0.25662863  1
  Zr  Zr63  1  0.20925071  0.38968405  0.49652147  1
  Zr  Zr64  1  0.78330263  0.58986907  0.24237711  1
  Zr  Zr65  1  0.39613420  0.00362954  0.51054675  1
  Zr  Zr66  1  0.39379896  0.40004503  0.25994591  1
  Zr  Zr67  1  0.19883803  0.41091491  0.74170521  1
  Zr  Zr68  1  0.79835271  0.57660554  0.74665843  1
  Zr  Zr69  1  0.68876721  0.67660142  0.63628959  1
  Zr  Zr70  1  0.88254925  0.48134364  0.59997520  1
  Zr  Zr71  1  0.20990645  0.58988995  0.26508049  1
  Zr  Zr72  1  0.68703402  0.90569499  0.12048320  1
  Zr  Zr73  1  0.08936505  0.49067578  0.38082819  1
  Zr  Zr74  1  0.70966328  0.29612139  0.13221137  1
  Zr  Zr75  1  0.30305287  0.29631428  0.86857890  1
  Zr  Zr76  1  0.09749553  0.71270624  0.36509130  1
  Zr  Zr77  1  0.09270830  0.49673164  0.61217437  1
  Zr  Zr78  1  0.48977503  0.70851113  0.62753687  1
  Zr  Zr79  1  0.08890810  0.28075570  0.37878888  1
  Ta  Ta80  1  0.81199895  0.80483816  0.72794989  1
  Ta  Ta81  1  0.49488607  0.90351195  0.12566426  1
  Ta  Ta82  1  0.40723826  0.39877678  0.50395676  1
  Ta  Ta83  1  0.79702195  0.19892133  0.75150731  1
  Ta  Ta84  1  0.40983505  0.59976345  0.26850621  1
  Ta  Ta85  1  0.80248516  0.40037317  -0.00437053  1
  Ta  Ta86  1  0.79421134  0.80035488  0.23829773  1
  Ta  Ta87  1  0.71047648  0.91623105  0.61161802  1
  Ta  Ta88  1  0.59917021  0.20275415  0.48775124  1
  Ta  Ta89  1  0.69790657  0.10802011  0.62462444  1
  Ta  Ta90  1  0.19850254  0.20097945  0.25755988  1
  Ta  Ta91  1  0.40549596  0.00647687  -0.00110763  1
  Ta  Ta92  1  0.60755641  0.00811644  0.49357618  1
  Ta  Ta93  1  0.70797910  0.30347447  0.62635888  1
  Ta  Ta94  1  0.18603791  0.81396546  0.75225046  1
  Ta  Ta95  1  0.49715126  0.30107495  0.37654422  1
  Ta  Ta96  1  0.70008490  0.50257322  0.88805399  1
  Ta  Ta97  1  0.50377377  0.49833711  0.88043864  1
  Ta  Ta98  1  0.39608224  0.20741840  0.50393103  1
  Ta  Ta99  1  0.69953516  0.10437996  0.87730538  1
  Ta  Ta100  1  0.20112780  -0.00115394  0.52035862  1
  Ta  Ta101  1  0.00389759  0.19694765  -0.01546563  1
  Ta  Ta102  1  0.89695613  0.10761371  0.10729991  1
  Ta  Ta103  1  0.78350235  0.78898775  0.01699167  1
  Ta  Ta104  1  0.49822687  0.29871510  0.86213688  1
  Ta  Ta105  1  0.09013099  0.11148470  0.12247233  1
  Ta  Ta106  1  0.40005669  0.20404404  0.73130951  1
  Ta  Ta107  1  0.31151848  0.89872079  0.12907984  1
  Ta  Ta108  1  0.20214061  0.00422722  0.73032587  1
  Ta  Ta109  1  0.00553153  0.00326394  -0.01350533  1
  Ta  Ta110  1  0.60191174  0.20621966  0.25782807  1
  Ta  Ta111  1  0.29440514  0.10142107  0.37477920  1
  Ta  Ta112  1  0.60062261  0.79735802  0.26263860  1
  Ta  Ta113  1  0.31216387  0.89188016  0.63819238  1
  Ta  Ta114  1  0.80163676  0.39977682  0.26646240  1
  Ta  Ta115  1  0.10284977  0.29651752  0.86079864  1
  Ta  Ta116  1  0.70639774  0.10293897  0.12702364  1
  Ta  Ta117  1  0.61471488  0.81287480  0.74425915  1
  Ta  Ta118  1  0.60779429  0.60314137  0.47219263  1
  Ta  Ta119  1  -0.01273029  0.58836022  0.24803852  1
  Ti  Ti120  1  0.81229539  0.19858688  0.26312395  1
  Ti  Ti121  1  0.30662919  0.51188757  0.61595667  1
  Ti  Ti122  1  0.48678913  0.29522537  0.13537896  1
  Ti  Ti123  1  0.79641745  0.00730806  -0.00863598  1
  Ti  Ti124  1  0.90420765  0.30062786  0.38583491  1
  Ti  Ti125  1  0.92162308  0.10922634  0.39242445  1
  Ti  Ti126  1  0.69667217  0.89600065  0.88370763  1
  Ti  Ti127  1  0.59558601  0.60562437  0.26270779  1
  Ti  Ti128  1  0.49849259  0.90392135  0.38119496  1
  Ti  Ti129  1  0.30274453  0.30024785  0.12118796  1
  Ti  Ti130  1  0.29609169  0.70599714  0.85466548  1
  Ti  Ti131  1  0.90135914  0.48772256  0.12629186  1
  Ti  Ti132  1  0.31107193  0.49561871  0.38867683  1
  Ti  Ti133  1  0.51284090  0.29824067  0.62309984  1
  Ti  Ti134  1  0.89155242  0.28653152  0.88653121  1
  Ti  Ti135  1  -0.01000838  0.39660735  0.26059166  1
  Ti  Ti136  1  0.40288115  0.81186463  -0.00996817  1
  Ti  Ti137  1  0.17762195  0.59051642  0.00571751  1
  Ti  Ti138  1  -0.00098989  0.80422613  0.52590472  1
  Ti  Ti139  1  0.89329208  0.29364511  0.61006625  1
  Ti  Ti140  1  0.19317466  0.39918190  -0.00822451  1
  Ti  Ti141  1  0.50417544  0.90704285  0.86465112  1
  Ti  Ti142  1  0.90141342  0.69944834  0.13462923  1
  Ti  Ti143  1  0.30217565  0.70481443  0.64283429  1
  Ti  Ti144  1  0.30832441  0.10794731  0.86103481  1
  Ti  Ti145  1  0.69703381  0.10090470  0.36597405  1
  Ti  Ti146  1  0.09591960  0.49257174  0.13992040  1
  Ti  Ti147  1  0.61303797  0.00316364  0.75236863  1
  Ti  Ti148  1  0.40326124  0.61715766  0.48322060  1
  Ti  Ti149  1  0.40010404  0.39013077  -0.00531722  1
  Ti  Ti150  1  0.01980398  0.01115045  0.51693534  1
  Ti  Ti151  1  0.39051072  0.20794433  0.26718242  1
  Ti  Ti152  1  0.80267242  0.39349575  0.76220153  1
  Ti  Ti153  1  0.59588008  -0.00016156  -0.00538279  1
  Ti  Ti154  1  -0.00745152  0.81078879  0.24652200  1
  Ti  Ti155  1  0.29717021  0.29664016  0.62596591  1
  Ti  Ti156  1  0.90632737  0.50679016  0.88952864  1
  Ti  Ti157  1  -0.00593730  0.58632156  0.73876538  1
  Ti  Ti158  1  0.59823418  -0.00427281  0.25703856  1
  Ti  Ti159  1  0.20752967  0.38984910  0.26630878  1
  Mo  Mo160  1  0.10223705  0.89693152  0.87796380  1
  Mo  Mo161  1  -0.00561928  0.39210522  0.48933730  1
  Mo  Mo162  1  0.40561769  -0.00294850  0.24932514  1
  Mo  Mo163  1  0.79613971  0.00792162  0.48483353  1
  Mo  Mo164  1  0.60616426  0.20709882  0.74047200  1
  Mo  Mo165  1  0.30313289  0.10229108  0.63440878  1
  Mo  Mo166  1  0.29958300  0.69816337  0.36790483  1
  Mo  Mo167  1  0.90038073  0.90081490  0.61003212  1
  Mo  Mo168  1  0.40128095  0.80403870  0.76166029  1
  Mo  Mo169  1  0.40250575  0.00473515  0.74458721  1
  Mo  Mo170  1  0.79732820  0.19499944  -0.00776453  1
  Mo  Mo171  1  0.60044320  0.59575962  0.76511243  1
  Mo  Mo172  1  0.70087437  0.29478267  0.35797457  1
  Mo  Mo173  1  0.19945897  0.80220791  0.25551345  1
  Mo  Mo174  1  0.09666008  0.09810392  0.64371055  1
  Mo  Mo175  1  0.10247005  0.09414401  0.37539067  1
  Mo  Mo176  1  0.70148895  0.49427307  0.11503639  1
  Mo  Mo177  1  0.89658325  0.49706995  0.37819867  1
  Mo  Mo178  1  0.90182540  0.69240947  0.63842045  1
  Mo  Mo179  1  0.10498193  0.89697200  0.61542038  1
  Mo  Mo180  1  -0.00512318  0.79610096  0.74005314  1
  Mo  Mo181  1  0.30130356  0.29237175  0.38873424  1
  Mo  Mo182  1  0.20560669  0.60272319  0.73524869  1
  Mo  Mo183  1  0.20139759  0.19999089  0.73894226  1
  Mo  Mo184  1  0.59790228  0.81472563  -0.00869322  1
  Mo  Mo185  1  0.69182176  0.70385864  0.13928392  1
  Mo  Mo186  1  0.70382900  0.50091585  0.38137015  1
  Mo  Mo187  1  0.39918806  0.79856436  0.49137784  1
  Mo  Mo188  1  0.69964723  0.49282569  0.60283964  1
  Mo  Mo189  1  0.09442388  0.49783044  0.87243678  1
  Mo  Mo190  1  0.40424662  0.20741731  -0.00580300  1
  Mo  Mo191  1  0.49733556  0.50262735  0.38450452  1
  Mo  Mo192  1  0.79701898  0.39204821  0.47698912  1
  Mo  Mo193  1  -0.00568907  0.19580349  0.24939511  1
  Mo  Mo194  1  -0.00097714  0.58734104  0.02715343  1
  Mo  Mo195  1  -0.00492999  0.19470767  0.51600479  1
  Mo  Mo196  1  0.89791966  0.09728704  0.88670454  1
  Mo  Mo197  1  0.79226681  0.59427919  0.48688361  1
  Mo  Mo198  1  0.70109835  0.70264839  0.36138187  1
  Mo  Mo199  1  0.49968975  0.70640141  0.38019859  1
