# generated using pymatgen
data_HfZrTaTiMo
_symmetry_space_group_name_H-M   'P 1'
_cell_length_a   15.83486481
_cell_length_b   15.83504011
_cell_length_c   15.41237231
_cell_angle_alpha   89.96852007
_cell_angle_beta   89.96303418
_cell_angle_gamma   89.90590462
_symmetry_Int_Tables_number   1
_chemical_formula_structural   HfZrTaTiMo
_chemical_formula_sum   'Hf40 Zr40 Ta40 Ti40 Mo40'
_cell_volume   3864.57978590
_cell_formula_units_Z   40
loop_
 _symmetry_equiv_pos_site_id
 _symmetry_equiv_pos_as_xyz
  1  'x, y, z'
loop_
 _atom_site_type_symbol
 _atom_site_label
 _atom_site_symmetry_multiplicity
 _atom_site_fract_x
 _atom_site_fract_y
 _atom_site_fract_z
 _atom_site_occupancy
  Hf  Hf0  1  0.17902135  0.81197507  0.00076471  1
  Hf  Hf1  1  0.00264695  0.18771701  0.24210068  1
  Hf  Hf2  1  -0.01036752  0.60885968  0.24555158  1
  Hf  Hf3  1  0.20505629  0.39798613  0.76301390  1
  Hf  Hf4  1  0.89939167  0.89706109  0.37164527  1
  Hf  Hf5  1  0.60152688  0.20932985  0.24377936  1
  Hf  Hf6  1  0.40039663  0.39432614  -0.00267212  1
  Hf  Hf7  1  0.71869214  0.10882452  0.12445721  1
  Hf  Hf8  1  0.50231058  0.10764250  0.11276272  1
  Hf  Hf9  1  -0.01250567  0.40340108  0.24278431  1
  Hf  Hf10  1  0.19898248  0.00962101  0.25793453  1
  Hf  Hf11  1  0.30056902  0.29745861  0.13869856  1
  Hf  Hf12  1  0.19912619  0.59650903  -0.01273870  1
  Hf  Hf13  1  0.89745566  0.48999913  0.39418342  1
  Hf  Hf14  1  0.10668675  0.50586535  0.13657118  1
  Hf  Hf15  1  0.69886195  0.90152023  0.63673770  1
  Hf  Hf16  1  0.09519237  0.71750403  0.85880292  1
  Hf  Hf17  1  0.20216576  0.39670086  -0.01825177  1
  Hf  Hf18  1  0.30891210  0.71178191  0.88916245  1
  Hf  Hf19  1  0.70563859  0.11257661  0.38088537  1
  Hf  Hf20  1  0.59332162  -0.00244238  0.75719238  1
  Hf  Hf21  1  0.00556146  0.18941341  0.74540826  1
  Hf  Hf22  1  0.40408736  0.60020800  0.25041501  1
  Hf  Hf23  1  0.18708706  0.41370363  0.49187851  1
  Hf  Hf24  1  0.09706666  0.30919343  0.62821873  1
  Hf  Hf25  1  0.70981383  0.09798155  0.62765044  1
  Hf  Hf26  1  0.78910823  0.40032040  0.24476265  1
  Hf  Hf27  1  0.60703947  -0.00630216  0.49244625  1
  Hf  Hf28  1  0.60060979  0.80404475  0.01706151  1
  Hf  Hf29  1  0.29902104  0.29879968  0.61454545  1
  Hf  Hf30  1  0.29709045  0.49707096  0.13667508  1
  Hf  Hf31  1  0.69297569  0.50179297  0.86152473  1
  Hf  Hf32  1  0.69673252  0.70521601  0.63645476  1
  Hf  Hf33  1  0.11279228  0.70642461  0.62683172  1
  Hf  Hf34  1  0.20661111  0.60078359  0.75672117  1
  Hf  Hf35  1  0.58325055  0.60393445  0.73980036  1
  Hf  Hf36  1  0.40338035  0.80384338  0.24076016  1
  Hf  Hf37  1  0.91158828  0.09207388  0.88453097  1
  Hf  Hf38  1  0.60650096  0.79181603  0.23432845  1
  Hf  Hf39  1  0.60286951  0.21180181  -0.01420438  1
  Zr  Zr40  1  0.80436139  0.80873773  0.76176092  1
  Zr  Zr41  1  0.39836217  0.59579537  0.75672923  1
  Zr  Zr42  1  0.79084743  0.59923924  0.24491877  1
  Zr  Zr43  1  0.39599375  0.40005087  0.76165072  1
  Zr  Zr44  1  0.62171249  -0.00102814  -0.00959582  1
  Zr  Zr45  1  0.40692029  -0.00876999  0.00973738  1
  Zr  Zr46  1  0.79777723  0.80398933  0.50435730  1
  Zr  Zr47  1  0.39768370  -0.00046484  0.25610672  1
  Zr  Zr48  1  0.90702451  0.89974250  0.12752047  1
  Zr  Zr49  1  0.39553759  0.20006044  0.74901128  1
  Zr  Zr50  1  0.70266991  0.68930711  0.38298572  1
  Zr  Zr51  1  0.40845020  0.79109238  0.73666304  1
  Zr  Zr52  1  0.39785810  0.18926838  0.25395949  1
  Zr  Zr53  1  0.27828334  0.29420863  0.36159576  1
  Zr  Zr54  1  0.60383892  0.39770046  0.52398863  1
  Zr  Zr55  1  0.88587314  0.28443824  0.11591390  1
  Zr  Zr56  1  0.90723338  0.08565502  0.10547249  1
  Zr  Zr57  1  0.20058681  0.60265790  0.48811832  1
  Zr  Zr58  1  0.59922456  0.59400098  0.51942373  1
  Zr  Zr59  1  0.51120806  0.29392976  0.38806090  1
  Zr  Zr60  1  0.90429079  0.68972834  0.39550187  1
  Zr  Zr61  1  -0.00668283  0.00784667  0.49727433  1
  Zr  Zr62  1  0.71138309  0.30092424  0.38942560  1
  Zr  Zr63  1  0.78046312  0.39535800  -0.01626389  1
  Zr  Zr64  1  0.29490262  0.90067493  0.87406937  1
  Zr  Zr65  1  0.39351710  0.40526777  0.48429792  1
  Zr  Zr66  1  0.11243631  0.30086752  0.14386037  1
  Zr  Zr67  1  0.08158784  0.30074084  0.37961065  1
  Zr  Zr68  1  0.49967344  0.10373442  0.61033016  1
  Zr  Zr69  1  0.29005064  0.89323515  0.60717413  1
  Zr  Zr70  1  0.00509354  0.39429753  -0.00312929  1
  Zr  Zr71  1  0.59569670  0.00084157  0.24716846  1
  Zr  Zr72  1  0.19420874  0.00846129  0.74687388  1
  Zr  Zr73  1  0.89792594  0.50097459  0.85969657  1
  Zr  Zr74  1  0.88391548  0.50609068  0.10317656  1
  Zr  Zr75  1  0.79409212  0.81686890  -0.01357113  1
  Zr  Zr76  1  0.29228796  0.89769592  0.12330049  1
  Zr  Zr77  1  0.39592229  0.00052605  0.74195099  1
  Zr  Zr78  1  0.00672721  0.60428505  -0.00430224  1
  Zr  Zr79  1  0.50714167  0.69755444  0.37521633  1
  Ta  Ta80  1  0.39753784  0.59771555  0.49141722  1
  Ta  Ta81  1  0.40160227  0.59336813  0.00413008  1
  Ta  Ta82  1  0.59783488  0.20121943  0.75173885  1
  Ta  Ta83  1  0.29157686  0.69772287  0.12144320  1
  Ta  Ta84  1  0.69322910  0.69892657  0.87173789  1
  Ta  Ta85  1  0.10499841  0.10399925  0.60780900  1
  Ta  Ta86  1  0.00179891  0.79940559  0.51045482  1
  Ta  Ta87  1  0.90274991  0.29959072  0.86434838  1
  Ta  Ta88  1  0.00439329  0.81227818  0.73460679  1
  Ta  Ta89  1  0.81822375  0.38615407  0.53218101  1
  Ta  Ta90  1  0.61062274  0.59635458  0.01131644  1
  Ta  Ta91  1  0.50294387  0.89410025  0.38078240  1
  Ta  Ta92  1  0.80129792  0.19658568  0.75605872  1
  Ta  Ta93  1  0.29138377  0.50227442  0.62151307  1
  Ta  Ta94  1  -0.02209195  0.21101875  0.52148960  1
  Ta  Ta95  1  0.89864874  0.90799982  0.62485420  1
  Ta  Ta96  1  0.00710477  0.00406882  0.26654344  1
  Ta  Ta97  1  0.50447864  0.69853951  0.89372480  1
  Ta  Ta98  1  0.10469622  0.90413699  0.61032146  1
  Ta  Ta99  1  0.89742756  0.11802746  0.37707592  1
  Ta  Ta100  1  0.50191470  0.89111790  0.61034950  1
  Ta  Ta101  1  0.51237741  0.50080752  0.36875221  1
  Ta  Ta102  1  0.19926870  0.19839203  0.00411856  1
  Ta  Ta103  1  0.59131253  0.39417747  0.73988896  1
  Ta  Ta104  1  0.10043051  0.70914364  0.13339155  1
  Ta  Ta105  1  0.68792477  0.30859235  0.11859901  1
  Ta  Ta106  1  0.40933985  0.39843168  0.25593002  1
  Ta  Ta107  1  0.10366519  0.89838757  0.38535582  1
  Ta  Ta108  1  0.90393540  0.70127685  0.87347749  1
  Ta  Ta109  1  0.89669969  0.70613243  0.10396711  1
  Ta  Ta110  1  0.19762956  0.80029417  0.26126691  1
  Ta  Ta111  1  0.70424459  0.89802707  0.35959326  1
  Ta  Ta112  1  0.39650972  -0.00492191  0.48651175  1
  Ta  Ta113  1  0.71644145  0.90817059  0.13946346  1
  Ta  Ta114  1  0.79012621  0.19587779  -0.02987231  1
  Ta  Ta115  1  0.90630235  0.69835598  0.63198730  1
  Ta  Ta116  1  0.30027959  0.10333294  0.88942737  1
  Ta  Ta117  1  0.50646269  0.48898141  0.12261753  1
  Ta  Ta118  1  0.49565132  0.10032090  0.87999641  1
  Ta  Ta119  1  0.49826558  0.88584518  0.88028812  1
  Ti  Ti120  1  0.80479378  0.00491793  0.49575545  1
  Ti  Ti121  1  0.70308413  0.49433846  0.39081128  1
  Ti  Ti122  1  0.60225142  0.79883021  0.49652360  1
  Ti  Ti123  1  0.50457485  0.10194812  0.38678110  1
  Ti  Ti124  1  0.80307543  -0.00025879  0.77150227  1
  Ti  Ti125  1  0.70239923  0.29134991  0.63379345  1
  Ti  Ti126  1  0.10219810  0.09154721  0.88434206  1
  Ti  Ti127  1  0.81065758  0.01276754  0.25999536  1
  Ti  Ti128  1  0.19979122  0.60815156  0.26378905  1
  Ti  Ti129  1  0.40140186  0.79607796  0.49446770  1
  Ti  Ti130  1  0.39831177  0.20188412  0.49582626  1
  Ti  Ti131  1  0.60830997  0.59420624  0.22810505  1
  Ti  Ti132  1  0.08940568  0.50505456  0.36611997  1
  Ti  Ti133  1  0.71125346  0.49307659  0.64495115  1
  Ti  Ti134  1  0.28886481  0.10230416  0.39330328  1
  Ti  Ti135  1  0.01131006  0.19805569  0.00174233  1
  Ti  Ti136  1  0.30406186  0.69850426  0.61453677  1
  Ti  Ti137  1  0.00050900  0.00010730  0.73855568  1
  Ti  Ti138  1  0.08655108  0.50052250  0.85332072  1
  Ti  Ti139  1  0.00701487  0.58253448  0.52487859  1
  Ti  Ti140  1  0.09258656  0.90526899  0.13849120  1
  Ti  Ti141  1  0.89258960  0.29611388  0.37785524  1
  Ti  Ti142  1  0.09655792  0.29113363  0.86733166  1
  Ti  Ti143  1  0.49418277  0.69398870  0.11507047  1
  Ti  Ti144  1  0.80528575  0.60461131  0.74709977  1
  Ti  Ti145  1  0.09404380  0.70381541  0.38144604  1
  Ti  Ti146  1  0.30117712  0.70874953  0.37392666  1
  Ti  Ti147  1  0.39599563  0.20506211  -0.00016010  1
  Ti  Ti148  1  0.50106523  0.30132906  0.87229524  1
  Ti  Ti149  1  0.48169212  0.49528838  0.62189899  1
  Ti  Ti150  1  0.20483322  0.19570124  0.75446636  1
  Ti  Ti151  1  0.80456717  0.58767257  0.52436400  1
  Ti  Ti152  1  0.19466476  0.00602676  0.00730443  1
  Ti  Ti153  1  0.92653104  0.89851258  0.88338369  1
  Ti  Ti154  1  0.00164251  0.79877984  0.25463283  1
  Ti  Ti155  1  0.28970617  0.10037597  0.60173377  1
  Ti  Ti156  1  0.10333738  0.11452157  0.39312593  1
  Ti  Ti157  1  0.60116315  0.40472651  0.24814502  1
  Ti  Ti158  1  0.80425983  0.78872285  0.24557149  1
  Ti  Ti159  1  0.50483646  0.50065196  0.88646619  1
  Mo  Mo160  1  0.40184937  0.79269679  0.01571747  1
  Mo  Mo161  1  0.00061362  0.39857070  0.75055505  1
  Mo  Mo162  1  0.80335951  0.20286126  0.24606075  1
  Mo  Mo163  1  0.20047027  0.79766072  0.47977086  1
  Mo  Mo164  1  0.80487509  -0.00190384  -0.01980080  1
  Mo  Mo165  1  0.19266705  0.20468932  0.50724000  1
  Mo  Mo166  1  0.20077685  0.80535967  0.74738021  1
  Mo  Mo167  1  0.30450987  0.50777299  0.35861022  1
  Mo  Mo168  1  0.59182210  0.40164133  -0.00971337  1
  Mo  Mo169  1  0.69480384  0.30095624  0.85088132  1
  Mo  Mo170  1  0.00179364  0.79928882  0.00458048  1
  Mo  Mo171  1  0.71176159  0.69876573  0.11301060  1
  Mo  Mo172  1  0.89906698  0.29989803  0.65324641  1
  Mo  Mo173  1  0.68872838  0.89504767  0.85891700  1
  Mo  Mo174  1  0.09626028  0.90894000  0.86058963  1
  Mo  Mo175  1  0.50756201  0.89997648  0.12356805  1
  Mo  Mo176  1  0.19531809  0.17779324  0.23839574  1
  Mo  Mo177  1  0.30209732  0.89542180  0.37993819  1
  Mo  Mo178  1  0.02000919  -0.01467669  -0.00449002  1
  Mo  Mo179  1  0.50107147  0.29666970  0.61932937  1
  Mo  Mo180  1  0.70158815  0.09878307  0.86063762  1
  Mo  Mo181  1  0.89880202  0.09360557  0.63981047  1
  Mo  Mo182  1  0.30196183  0.50205807  0.88652813  1
  Mo  Mo183  1  0.69241953  0.49745481  0.11725267  1
  Mo  Mo184  1  0.10156276  0.09160568  0.11581600  1
  Mo  Mo185  1  0.59220514  0.79829209  0.75662355  1
  Mo  Mo186  1  0.10023972  0.50411777  0.64144464  1
  Mo  Mo187  1  -0.00041276  0.60655534  0.74077732  1
  Mo  Mo188  1  0.60336890  0.19786023  0.51748975  1
  Mo  Mo189  1  0.50070224  0.30575273  0.12607592  1
  Mo  Mo190  1  0.29521360  0.10330377  0.10952743  1
  Mo  Mo191  1  0.80654852  0.19867824  0.52302028  1
  Mo  Mo192  1  0.90346074  0.50021654  0.63761381  1
  Mo  Mo193  1  -0.00568558  0.40537814  0.51748848  1
  Mo  Mo194  1  0.19841665  0.41863504  0.27207690  1
  Mo  Mo195  1  0.29728299  0.28721940  0.88097423  1
  Mo  Mo196  1  0.79520498  0.39434769  0.74682065  1
  Mo  Mo197  1  0.49277427  0.70263718  0.60585955  1
  Mo  Mo198  1  0.19880562  0.00293421  0.48615924  1
  Mo  Mo199  1  0.79399731  0.61000832  -0.01720672  1
