# generated using pymatgen
data_HfZrTaTiMo
_symmetry_space_group_name_H-M   'P 1'
_cell_length_a   15.83058727
_cell_length_b   15.83936513
_cell_length_c   15.40829557
_cell_angle_alpha   90.01363926
_cell_angle_beta   90.01253969
_cell_angle_gamma   90.06065546
_symmetry_Int_Tables_number   1
_chemical_formula_structural   HfZrTaTiMo
_chemical_formula_sum   'Hf40 Zr40 Ta40 Ti40 Mo40'
_cell_volume   3863.57307855
_cell_formula_units_Z   40
loop_
 _symmetry_equiv_pos_site_id
 _symmetry_equiv_pos_as_xyz
  1  'x, y, z'
loop_
 _atom_site_type_symbol
 _atom_site_label
 _atom_site_symmetry_multiplicity
 _atom_site_fract_x
 _atom_site_fract_y
 _atom_site_fract_z
 _atom_site_occupancy
  Hf  Hf0  1  0.50748552  0.68025874  0.88583137  1
  Hf  Hf1  1  0.79321244  0.60035167  0.77155830  1
  Hf  Hf2  1  0.09086444  0.49556523  0.36453636  1
  Hf  Hf3  1  0.58783728  0.18998938  0.26042600  1
  Hf  Hf4  1  0.29722488  0.89192842  0.63013570  1
  Hf  Hf5  1  0.80143952  0.59590463  0.48548900  1
  Hf  Hf6  1  0.30018666  0.90722016  0.87847358  1
  Hf  Hf7  1  -0.00800648  0.19778205  0.75674724  1
  Hf  Hf8  1  0.09588242  0.50429804  0.11295812  1
  Hf  Hf9  1  0.89019502  0.70412692  0.63649318  1
  Hf  Hf10  1  0.18274232  0.39517333  0.50844866  1
  Hf  Hf11  1  0.21062734  0.20270734  0.75674593  1
  Hf  Hf12  1  0.89623741  0.49772841  0.63843518  1
  Hf  Hf13  1  -0.00408819  0.60180619  0.77870658  1
  Hf  Hf14  1  0.60938081  0.22571394  0.48479939  1
  Hf  Hf15  1  0.10382492  0.10114060  0.88120896  1
  Hf  Hf16  1  0.89979480  0.09433666  0.90228584  1
  Hf  Hf17  1  0.09935502  0.10911438  0.60983013  1
  Hf  Hf18  1  0.28900511  0.29127872  0.38858576  1
  Hf  Hf19  1  0.60940558  0.79279226  0.49506954  1
  Hf  Hf20  1  0.20403840  0.20832518  0.00617127  1
  Hf  Hf21  1  0.48344448  0.28222202  0.13563806  1
  Hf  Hf22  1  0.40324557  0.79600144  0.75792083  1
  Hf  Hf23  1  0.90608181  0.30573894  0.36380820  1
  Hf  Hf24  1  0.60492706  0.59420020  0.50068481  1
  Hf  Hf25  1  0.20127934  0.59684712  0.75751993  1
  Hf  Hf26  1  0.60882651  0.79409078  0.76695398  1
  Hf  Hf27  1  0.49788682  0.47654241  0.86969761  1
  Hf  Hf28  1  0.70488269  0.48959649  0.12565099  1
  Hf  Hf29  1  0.20603224  0.00981781  0.24454976  1
  Hf  Hf30  1  0.10953710  0.12576243  0.38060780  1
  Hf  Hf31  1  0.69588028  0.48869146  0.63082609  1
  Hf  Hf32  1  0.69250640  0.29727877  0.13465866  1
  Hf  Hf33  1  0.09403450  0.71604322  0.64223616  1
  Hf  Hf34  1  0.88715769  0.31634045  0.12042807  1
  Hf  Hf35  1  0.89558711  0.10888333  0.12552329  1
  Hf  Hf36  1  0.50563694  0.89703685  0.62526939  1
  Hf  Hf37  1  0.20193884  0.00326492  0.74200665  1
  Hf  Hf38  1  0.50647204  0.10895619  0.61362066  1
  Hf  Hf39  1  0.70675293  0.89106316  0.35971740  1
  Zr  Zr40  1  0.50496013  0.70034419  0.12359557  1
  Zr  Zr41  1  0.30048840  0.70161899  0.89074872  1
  Zr  Zr42  1  0.61159515  -0.00031288  0.74471439  1
  Zr  Zr43  1  0.70799291  0.09170104  0.89118366  1
  Zr  Zr44  1  0.19995140  0.59614021  0.51978953  1
  Zr  Zr45  1  0.09880032  0.69633605  0.37260311  1
  Zr  Zr46  1  0.09217011  0.31016899  0.64722024  1
  Zr  Zr47  1  0.60295018  -0.03450772  -0.00693012  1
  Zr  Zr48  1  0.19775529  -0.00589255  0.49245741  1
  Zr  Zr49  1  0.50868637  0.09946684  0.87340190  1
  Zr  Zr50  1  0.49437023  0.50068995  0.36493224  1
  Zr  Zr51  1  -0.00448947  0.60372825  0.50213537  1
  Zr  Zr52  1  0.29382152  0.50026669  0.37814739  1
  Zr  Zr53  1  0.32061617  0.90854056  0.11294169  1
  Zr  Zr54  1  0.78497823  0.39208551  0.48153365  1
  Zr  Zr55  1  0.70881620  0.10469979  0.60073811  1
  Zr  Zr56  1  0.39459036  0.19934300  -0.02100981  1
  Zr  Zr57  1  -0.00220005  0.00106230  0.74089818  1
  Zr  Zr58  1  0.81220062  -0.02105711  0.49794783  1
  Zr  Zr59  1  0.89174345  0.30212130  0.88846178  1
  Zr  Zr60  1  0.19369716  0.80348159  0.49645239  1
  Zr  Zr61  1  0.67491963  0.29931373  0.87109699  1
  Zr  Zr62  1  0.50585329  0.69170307  0.36371498  1
  Zr  Zr63  1  0.81028102  -0.00579432  0.73930848  1
  Zr  Zr64  1  0.01929270  -0.00659852  0.01985488  1
  Zr  Zr65  1  0.82031915  0.60188729  0.23504767  1
  Zr  Zr66  1  0.30303945  0.50131438  0.11532905  1
  Zr  Zr67  1  0.38754214  0.38830410  0.24886960  1
  Zr  Zr68  1  0.90780081  0.10307974  0.38243321  1
  Zr  Zr69  1  0.30561090  0.70751101  0.10199581  1
  Zr  Zr70  1  -0.00712409  0.78792143  0.24325863  1
  Zr  Zr71  1  0.89674052  0.89582578  0.12215517  1
  Zr  Zr72  1  0.30820416  0.11411277  0.60316615  1
  Zr  Zr73  1  0.40106993  0.00698197  0.26928537  1
  Zr  Zr74  1  0.39937436  0.58660995  0.73516745  1
  Zr  Zr75  1  0.19830752  0.60659804  0.23544725  1
  Zr  Zr76  1  0.79654648  0.19279538  0.75219912  1
  Zr  Zr77  1  0.00960251  0.00693955  0.24454125  1
  Zr  Zr78  1  0.88844637  0.30507439  0.62367431  1
  Zr  Zr79  1  0.20239067  0.80704036  0.24259599  1
  Ta  Ta80  1  0.10263285  0.30836232  0.87431689  1
  Ta  Ta81  1  0.59338996  0.19657847  0.01150954  1
  Ta  Ta82  1  0.20187167  0.39659701  -0.00219882  1
  Ta  Ta83  1  0.50515806  0.31087870  0.63596424  1
  Ta  Ta84  1  0.69626799  0.69175521  0.89719818  1
  Ta  Ta85  1  0.70467003  0.09813213  0.38102983  1
  Ta  Ta86  1  0.70344602  0.69515488  0.63331167  1
  Ta  Ta87  1  0.40166549  -0.01167186  0.49379440  1
  Ta  Ta88  1  0.00884922  0.20853161  0.01292886  1
  Ta  Ta89  1  0.90561274  0.10969424  0.59597359  1
  Ta  Ta90  1  0.20793238  0.20676186  0.23169150  1
  Ta  Ta91  1  0.69797950  0.50178506  0.34856049  1
  Ta  Ta92  1  0.89535099  0.90348379  0.89250727  1
  Ta  Ta93  1  -0.01156884  0.41407484  0.23601386  1
  Ta  Ta94  1  -0.00873405  0.80372534  0.77194240  1
  Ta  Ta95  1  0.71449212  0.87751069  0.62964263  1
  Ta  Ta96  1  0.50537224  0.89640135  0.37479592  1
  Ta  Ta97  1  0.30106197  0.49341847  0.87998973  1
  Ta  Ta98  1  0.40579607  0.20396630  0.75268780  1
  Ta  Ta99  1  0.21130136  0.01290662  0.01038088  1
  Ta  Ta100  1  0.30442218  0.69580631  0.38136871  1
  Ta  Ta101  1  0.69528690  0.09053737  0.12520980  1
  Ta  Ta102  1  0.10336766  0.90043390  0.86964650  1
  Ta  Ta103  1  0.09322581  0.49959711  0.64700432  1
  Ta  Ta104  1  0.49826136  0.08327603  0.11623048  1
  Ta  Ta105  1  0.40017977  0.00778916  0.75119106  1
  Ta  Ta106  1  -0.00858666  0.80616418  0.49156084  1
  Ta  Ta107  1  0.78490961  0.80795388  0.00518862  1
  Ta  Ta108  1  0.70441574  0.69703120  0.34667801  1
  Ta  Ta109  1  0.18632032  0.38950303  0.23648160  1
  Ta  Ta110  1  0.79377153  0.19984678  0.25736352  1
  Ta  Ta111  1  0.50852936  0.89448243  0.14392625  1
  Ta  Ta112  1  0.43143517  0.82085049  -0.01763503  1
  Ta  Ta113  1  0.60068325  0.00230522  0.26064222  1
  Ta  Ta114  1  0.39646992  0.80176603  0.26447015  1
  Ta  Ta115  1  -0.00345866  0.60411417  -0.00898470  1
  Ta  Ta116  1  0.50665190  0.69815983  0.62483434  1
  Ta  Ta117  1  0.40213810  0.79478165  0.49470108  1
  Ta  Ta118  1  0.40190231  0.59647785  0.51547784  1
  Ta  Ta119  1  0.49921851  0.10274176  0.39926503  1
  Ti  Ti120  1  0.80408762  0.78600001  0.48943011  1
  Ti  Ti121  1  0.59215929  0.40421703  0.48493428  1
  Ti  Ti122  1  0.10434712  0.71311387  0.88005662  1
  Ti  Ti123  1  -0.00470205  0.60225990  0.23200590  1
  Ti  Ti124  1  0.01509169  0.21632974  0.23231047  1
  Ti  Ti125  1  0.59880323  0.59168453  0.74590383  1
  Ti  Ti126  1  -0.00340361  0.40999909  0.77465627  1
  Ti  Ti127  1  0.40332485  0.40176151  0.51023096  1
  Ti  Ti128  1  0.58639045  0.39021128  0.00910229  1
  Ti  Ti129  1  0.69348059  0.29898346  0.63841673  1
  Ti  Ti130  1  0.00215327  0.40354077  -0.00365072  1
  Ti  Ti131  1  0.09767726  0.90152442  0.36345182  1
  Ti  Ti132  1  0.18682989  0.81980202  0.00730909  1
  Ti  Ti133  1  0.01095646  0.22929022  0.49624000  1
  Ti  Ti134  1  0.88749525  0.49678515  0.89567777  1
  Ti  Ti135  1  0.30367666  0.10934181  0.39055924  1
  Ti  Ti136  1  0.69505031  0.89218217  0.14411782  1
  Ti  Ti137  1  0.69386835  0.70083835  0.12497391  1
  Ti  Ti138  1  0.00703689  -0.01617620  0.50215643  1
  Ti  Ti139  1  0.78873269  0.20542796  0.00877241  1
  Ti  Ti140  1  0.68565741  0.50004089  0.89401651  1
  Ti  Ti141  1  0.79888194  0.59962843  0.00955117  1
  Ti  Ti142  1  0.50662736  0.49687979  0.13430173  1
  Ti  Ti143  1  0.60760981  -0.01045736  0.49587523  1
  Ti  Ti144  1  0.08908005  0.71065509  0.10434127  1
  Ti  Ti145  1  0.78978732  0.40340679  0.76928473  1
  Ti  Ti146  1  0.90721399  0.88531538  0.62818421  1
  Ti  Ti147  1  0.89878012  0.88996924  0.35890962  1
  Ti  Ti148  1  0.59319450  0.39044514  0.25936407  1
  Ti  Ti149  1  0.19155189  0.59675712  -0.01212969  1
  Ti  Ti150  1  0.79908893  0.00439745  0.24770960  1
  Ti  Ti151  1  0.89048446  0.71148411  0.89457917  1
  Ti  Ti152  1  0.30912017  0.31509960  0.86059749  1
  Ti  Ti153  1  0.30298785  0.30776997  0.62674486  1
  Ti  Ti154  1  0.41107084  0.58438202  0.00284053  1
  Ti  Ti155  1  0.31977199  0.11225576  0.12664778  1
  Ti  Ti156  1  0.39474285  0.60358601  0.24169794  1
  Ti  Ti157  1  -0.00830005  0.41311925  0.49783293  1
  Ti  Ti158  1  0.39838974  0.38918536  0.00683127  1
  Ti  Ti159  1  0.30086796  0.70291156  0.62645369  1
  Mo  Mo160  1  0.48966705  0.29900225  0.37723328  1
  Mo  Mo161  1  0.59936667  0.79915486  0.25366664  1
  Mo  Mo162  1  0.80537772  0.20255271  0.48008851  1
  Mo  Mo163  1  0.50216350  0.49616812  0.61835390  1
  Mo  Mo164  1  0.09657048  0.30684564  0.35900777  1
  Mo  Mo165  1  0.10831600  0.10762481  0.12639223  1
  Mo  Mo166  1  0.39342958  0.39859192  0.73418931  1
  Mo  Mo167  1  0.29937028  0.29990089  0.12267172  1
  Mo  Mo168  1  0.29484702  0.49256873  0.62095524  1
  Mo  Mo169  1  0.40543635  0.00142565  -0.00662174  1
  Mo  Mo170  1  0.09020828  0.89716789  0.64112655  1
  Mo  Mo171  1  0.19598316  0.79934274  0.75710672  1
  Mo  Mo172  1  0.30377905  0.89436268  0.38127316  1
  Mo  Mo173  1  0.49634961  0.30003953  0.86069429  1
  Mo  Mo174  1  0.90097523  0.50151393  0.09877224  1
  Mo  Mo175  1  0.80261580  0.79459122  0.77153983  1
  Mo  Mo176  1  0.20340451  0.40473736  0.75943944  1
  Mo  Mo177  1  0.59957665  0.40745995  0.74812639  1
  Mo  Mo178  1  0.09477384  0.30826912  0.11797764  1
  Mo  Mo179  1  0.00203521  0.80026353  -0.01198978  1
  Mo  Mo180  1  0.79892722  0.79584649  0.23128248  1
  Mo  Mo181  1  0.89481452  0.70544117  0.37495258  1
  Mo  Mo182  1  0.79671178  -0.00321753  0.02001276  1
  Mo  Mo183  1  0.50309068  0.90064805  0.85234535  1
  Mo  Mo184  1  0.59973805  0.58550650  0.01547370  1
  Mo  Mo185  1  0.90197895  0.50309800  0.36900128  1
  Mo  Mo186  1  0.60322388  0.59338324  0.23260774  1
  Mo  Mo187  1  0.30151598  0.09988220  0.87164134  1
  Mo  Mo188  1  0.60446198  0.79304897  -0.00488274  1
  Mo  Mo189  1  0.80206186  0.40157281  0.25887089  1
  Mo  Mo190  1  0.59786910  0.20243247  0.73705517  1
  Mo  Mo191  1  0.78654955  0.39979392  -0.01330485  1
  Mo  Mo192  1  0.10146893  0.49929288  0.88245904  1
  Mo  Mo193  1  0.89944072  0.70094025  0.09597488  1
  Mo  Mo194  1  0.69726441  0.30311416  0.35300761  1
  Mo  Mo195  1  0.11072859  0.89970381  0.12980568  1
  Mo  Mo196  1  0.19842824  0.21065681  0.51037815  1
  Mo  Mo197  1  0.71354407  0.89156676  0.86643953  1
  Mo  Mo198  1  0.39444692  0.18880567  0.26785083  1
  Mo  Mo199  1  0.40766367  0.21472047  0.50071538  1
