# generated using pymatgen
data_HfZrTaTiMo
_symmetry_space_group_name_H-M   'P 1'
_cell_length_a   15.83237839
_cell_length_b   15.83973211
_cell_length_c   15.39254481
_cell_angle_alpha   89.97332245
_cell_angle_beta   89.99351753
_cell_angle_gamma   90.15847461
_symmetry_Int_Tables_number   1
_chemical_formula_structural   HfZrTaTiMo
_chemical_formula_sum   'Hf40 Zr40 Ta40 Ti40 Mo40'
_cell_volume   3860.13691059
_cell_formula_units_Z   40
loop_
 _symmetry_equiv_pos_site_id
 _symmetry_equiv_pos_as_xyz
  1  'x, y, z'
loop_
 _atom_site_type_symbol
 _atom_site_label
 _atom_site_symmetry_multiplicity
 _atom_site_fract_x
 _atom_site_fract_y
 _atom_site_fract_z
 _atom_site_occupancy
  Hf  Hf0  1  0.10380276  0.10537071  0.63655540  1
  Hf  Hf1  1  0.09206398  0.30416239  0.63010681  1
  Hf  Hf2  1  0.30989801  0.69190197  0.88845794  1
  Hf  Hf3  1  0.51245369  0.89664570  0.13681272  1
  Hf  Hf4  1  0.09956374  0.69692901  0.87584493  1
  Hf  Hf5  1  0.29848863  0.30175900  0.36340115  1
  Hf  Hf6  1  0.50038562  0.70563369  0.88781272  1
  Hf  Hf7  1  0.00887359  0.00008672  -0.01271147  1
  Hf  Hf8  1  0.88992141  0.29860556  0.88513486  1
  Hf  Hf9  1  0.00112370  0.39890444  0.00401958  1
  Hf  Hf10  1  0.90348489  0.69660062  0.13604407  1
  Hf  Hf11  1  0.10270058  0.69741409  0.12812853  1
  Hf  Hf12  1  0.10582714  0.89280898  0.38154380  1
  Hf  Hf13  1  0.60880022  0.80921399  0.74611938  1
  Hf  Hf14  1  0.19860515  0.19932619  -0.01142068  1
  Hf  Hf15  1  0.29781657  0.30049507  0.64072712  1
  Hf  Hf16  1  0.60817955  0.59613458  0.00050827  1
  Hf  Hf17  1  0.10681419  0.90409421  0.12657890  1
  Hf  Hf18  1  -0.01846157  0.77250649  0.74217455  1
  Hf  Hf19  1  0.90167779  0.69997999  0.36887469  1
  Hf  Hf20  1  0.49269897  0.30416146  0.36028693  1
  Hf  Hf21  1  0.39758825  0.59777936  0.73872250  1
  Hf  Hf22  1  0.10366462  0.89668690  0.63755872  1
  Hf  Hf23  1  0.49634611  0.91002893  0.37736917  1
  Hf  Hf24  1  0.80014567  0.41153115  0.75493489  1
  Hf  Hf25  1  0.46908614  0.29046052  0.88417268  1
  Hf  Hf26  1  0.79422304  0.80565863  0.00569414  1
  Hf  Hf27  1  0.69023165  0.29627950  0.87742669  1
  Hf  Hf28  1  0.30193983  0.70896899  0.35456192  1
  Hf  Hf29  1  0.00242476  -0.00154826  0.51122565  1
  Hf  Hf30  1  0.30382821  0.10079181  0.63920167  1
  Hf  Hf31  1  -0.00988621  0.18463020  0.24631267  1
  Hf  Hf32  1  0.49987295  0.09696914  0.60799948  1
  Hf  Hf33  1  0.58725463  0.18770974  0.75997520  1
  Hf  Hf34  1  0.20503713  0.80825730  -0.00501291  1
  Hf  Hf35  1  0.58798769  0.39539782  0.01087973  1
  Hf  Hf36  1  0.61096618  0.60823807  0.76667793  1
  Hf  Hf37  1  0.88390341  0.88935190  0.63026696  1
  Hf  Hf38  1  0.09518104  0.30045715  0.37321414  1
  Hf  Hf39  1  0.90299563  0.91080523  0.37974746  1
  Zr  Zr40  1  0.31572560  0.09726853  0.38210318  1
  Zr  Zr41  1  0.50928008  0.11438338  0.11179157  1
  Zr  Zr42  1  0.09183972  0.67723028  0.62550448  1
  Zr  Zr43  1  0.19410113  0.59109873  0.48924287  1
  Zr  Zr44  1  0.19964482  0.20142802  0.50006993  1
  Zr  Zr45  1  0.29828760  0.49298763  0.36295038  1
  Zr  Zr46  1  0.89338888  0.50480280  0.13508508  1
  Zr  Zr47  1  0.72136277  0.11401113  0.37705065  1
  Zr  Zr48  1  0.30297445  0.70186595  0.12825263  1
  Zr  Zr49  1  0.50171631  0.49883212  0.62019508  1
  Zr  Zr50  1  0.10687715  0.89709670  0.85477501  1
  Zr  Zr51  1  0.49663258  0.50306365  0.36385498  1
  Zr  Zr52  1  0.19307931  0.00834737  0.25649468  1
  Zr  Zr53  1  0.79735605  0.39386337  0.49115981  1
  Zr  Zr54  1  0.20902016  0.78957923  0.51711481  1
  Zr  Zr55  1  -0.00606322  0.38976706  0.24651670  1
  Zr  Zr56  1  0.39655258  0.60673659  0.49984820  1
  Zr  Zr57  1  0.58920354  0.40629042  0.76296930  1
  Zr  Zr58  1  0.19429077  0.19554916  0.24068415  1
  Zr  Zr59  1  0.20016551  0.59027598  0.75756074  1
  Zr  Zr60  1  0.41433381  0.79735766  0.73779441  1
  Zr  Zr61  1  0.40284385  -0.00483979  -0.00552678  1
  Zr  Zr62  1  0.00461798  0.19244679  -0.01432595  1
  Zr  Zr63  1  0.30570917  0.89612475  0.36986977  1
  Zr  Zr64  1  0.69284982  0.70433743  0.14140358  1
  Zr  Zr65  1  0.60090196  0.40395361  0.49208036  1
  Zr  Zr66  1  0.62365279  0.00195642  0.74103286  1
  Zr  Zr67  1  -0.01080542  0.01080634  0.75170493  1
  Zr  Zr68  1  0.70355479  0.51271455  0.62491284  1
  Zr  Zr69  1  0.79329158  0.18508205  0.74649489  1
  Zr  Zr70  1  0.61173865  -0.00161063  -0.01307242  1
  Zr  Zr71  1  0.79479408  0.60562698  -0.01105676  1
  Zr  Zr72  1  0.47031535  0.49966096  0.89178876  1
  Zr  Zr73  1  0.42915881  0.00101167  0.76275238  1
  Zr  Zr74  1  0.78036510  0.40839189  0.01167704  1
  Zr  Zr75  1  0.90343504  0.90644795  0.12928395  1
  Zr  Zr76  1  0.80047925  0.80887615  0.25613493  1
  Zr  Zr77  1  0.90814719  0.50331286  0.61933514  1
  Zr  Zr78  1  0.89327974  0.89179823  0.86477006  1
  Zr  Zr79  1  0.60562251  0.20988389  0.49078267  1
  Ta  Ta80  1  0.60829128  0.61037566  0.48218208  1
  Ta  Ta81  1  0.69559285  0.29967516  0.63668697  1
  Ta  Ta82  1  0.29710905  0.09591299  0.11502815  1
  Ta  Ta83  1  0.20593129  -0.00237741  0.50775317  1
  Ta  Ta84  1  0.88832387  0.28820497  0.11615982  1
  Ta  Ta85  1  0.21543417  0.78851779  0.74147834  1
  Ta  Ta86  1  0.29118330  0.49240615  0.62231187  1
  Ta  Ta87  1  -0.00414673  0.78686715  0.50526828  1
  Ta  Ta88  1  0.40583741  0.00964138  0.24017256  1
  Ta  Ta89  1  0.30776403  0.90795534  0.63489941  1
  Ta  Ta90  1  0.19914824  0.58946447  -0.00126564  1
  Ta  Ta91  1  0.40380303  0.20679209  0.50194877  1
  Ta  Ta92  1  -0.00342850  0.20305424  0.76663671  1
  Ta  Ta93  1  0.19615715  0.39976297  0.22652494  1
  Ta  Ta94  1  0.79808236  0.60241540  0.48203559  1
  Ta  Ta95  1  0.30727242  0.89947524  0.85983172  1
  Ta  Ta96  1  0.31863382  0.11479327  0.87139192  1
  Ta  Ta97  1  0.20151240  0.39551270  -0.00184825  1
  Ta  Ta98  1  0.70494487  0.09903812  0.13002871  1
  Ta  Ta99  1  0.40660144  0.80295334  0.51395342  1
  Ta  Ta100  1  0.49628318  0.50677892  0.12666519  1
  Ta  Ta101  1  0.69937935  0.90888246  0.37569749  1
  Ta  Ta102  1  0.80931524  0.62080903  0.76311092  1
  Ta  Ta103  1  0.00812902  0.59302717  0.26390171  1
  Ta  Ta104  1  0.20279084  0.40015635  0.77300311  1
  Ta  Ta105  1  0.39411175  0.39457869  0.50670242  1
  Ta  Ta106  1  0.01057050  0.80167221  0.25533511  1
  Ta  Ta107  1  -0.00055356  0.79600621  -0.00156325  1
  Ta  Ta108  1  0.79482121  0.00426712  0.51138861  1
  Ta  Ta109  1  0.79538415  0.79906025  0.49099121  1
  Ta  Ta110  1  0.78980284  0.38724785  0.24569339  1
  Ta  Ta111  1  0.50028694  0.71294659  0.36398165  1
  Ta  Ta112  1  0.60363593  0.20294887  0.25938072  1
  Ta  Ta113  1  0.89703475  0.09757245  0.10948928  1
  Ta  Ta114  1  0.19670657  0.20501431  0.77158210  1
  Ta  Ta115  1  0.30326779  0.90041373  0.13775185  1
  Ta  Ta116  1  0.90040975  0.11237111  0.61280545  1
  Ta  Ta117  1  -0.00891112  0.58545166  0.76500306  1
  Ta  Ta118  1  0.00039109  0.58663271  0.47743583  1
  Ta  Ta119  1  0.51796978  0.69889189  0.61323447  1
  Ti  Ti120  1  0.87516380  0.08571167  0.88232412  1
  Ti  Ti121  1  0.40401274  0.19488462  0.24038940  1
  Ti  Ti122  1  0.59962966  0.39900684  0.23659217  1
  Ti  Ti123  1  0.89558534  0.49286271  0.36445571  1
  Ti  Ti124  1  0.10417423  0.70017319  0.36969140  1
  Ti  Ti125  1  0.60415986  0.80286341  0.49449322  1
  Ti  Ti126  1  0.19535152  0.40173957  0.49625847  1
  Ti  Ti127  1  0.69619563  0.70547356  0.36327839  1
  Ti  Ti128  1  0.60020963  0.60076883  0.25250062  1
  Ti  Ti129  1  0.90086472  0.29959236  0.62533915  1
  Ti  Ti130  1  0.39659068  0.39900775  0.22730778  1
  Ti  Ti131  1  0.49470574  0.30061529  0.63535135  1
  Ti  Ti132  1  0.09798075  0.49575212  0.88291335  1
  Ti  Ti133  1  0.59900997  0.01489330  0.26307064  1
  Ti  Ti134  1  0.89627213  0.50024600  0.88375258  1
  Ti  Ti135  1  0.68794360  0.28578463  0.12545234  1
  Ti  Ti136  1  0.71285780  0.70713438  0.61880809  1
  Ti  Ti137  1  0.09031035  0.10102413  0.39160016  1
  Ti  Ti138  1  -0.00118617  0.60036905  -0.00432916  1
  Ti  Ti139  1  0.70011313  0.91256057  0.14421428  1
  Ti  Ti140  1  0.09819587  0.50140055  0.12357645  1
  Ti  Ti141  1  0.50359541  0.70729731  0.13280504  1
  Ti  Ti142  1  0.40317049  0.60190540  0.24175802  1
  Ti  Ti143  1  0.30052501  0.50285734  0.11625592  1
  Ti  Ti144  1  0.00315382  0.00598010  0.25196014  1
  Ti  Ti145  1  0.60659043  0.80593849  -0.00803804  1
  Ti  Ti146  1  0.71677110  0.90888096  0.86784574  1
  Ti  Ti147  1  -0.00266745  0.39732218  0.48851101  1
  Ti  Ti148  1  0.60361171  0.00265109  0.49591808  1
  Ti  Ti149  1  0.40661579  0.80764030  0.00658212  1
  Ti  Ti150  1  0.09534355  0.29200216  0.12176217  1
  Ti  Ti151  1  0.70176396  0.49935998  0.35805939  1
  Ti  Ti152  1  0.78382993  0.18958359  0.00054854  1
  Ti  Ti153  1  0.81367454  0.01879022  0.25569886  1
  Ti  Ti154  1  0.09692421  0.48834756  0.62939933  1
  Ti  Ti155  1  0.30433417  0.29348024  0.11843236  1
  Ti  Ti156  1  0.00068991  0.39694238  0.76488017  1
  Ti  Ti157  1  0.88320646  0.27517920  0.37667158  1
  Ti  Ti158  1  0.19514529  0.59108402  0.24994676  1
  Ti  Ti159  1  0.20427898  0.00554817  -0.01548247  1
  Mo  Mo160  1  0.39910270  -0.00134359  0.50887562  1
  Mo  Mo161  1  0.29819289  0.49660820  0.89455047  1
  Mo  Mo162  1  0.49702170  0.30151251  0.13686721  1
  Mo  Mo163  1  0.38935377  0.40411687  0.73917255  1
  Mo  Mo164  1  0.80017723  -0.00184540  0.01150564  1
  Mo  Mo165  1  0.79600310  -0.00070650  0.72780787  1
  Mo  Mo166  1  0.70611484  0.09764532  0.88422727  1
  Mo  Mo167  1  0.21212840  -0.00032949  0.75854938  1
  Mo  Mo168  1  0.40212969  0.60494991  0.02396504  1
  Mo  Mo169  1  0.09823633  0.09299452  0.11641066  1
  Mo  Mo170  1  0.79952244  0.20963156  0.51830033  1
  Mo  Mo171  1  0.69134950  0.50164651  0.14849737  1
  Mo  Mo172  1  0.19685657  0.79850142  0.24578546  1
  Mo  Mo173  1  0.50738131  0.89300765  0.88499188  1
  Mo  Mo174  1  0.40699681  0.80529891  0.23814172  1
  Mo  Mo175  1  0.78850868  0.79299555  0.74706127  1
  Mo  Mo176  1  0.09827312  0.49055485  0.36398378  1
  Mo  Mo177  1  0.69990909  0.30625841  0.35715730  1
  Mo  Mo178  1  0.29935960  0.30729802  0.87700605  1
  Mo  Mo179  1  0.30726505  0.69621125  0.62370694  1
  Mo  Mo180  1  0.79887703  0.59318382  0.26728912  1
  Mo  Mo181  1  0.70013587  0.10591690  0.60648165  1
  Mo  Mo182  1  0.50362790  0.10468877  0.88937012  1
  Mo  Mo183  1  0.09430074  0.30620387  0.87142038  1
  Mo  Mo184  1  0.70438112  0.71547006  0.87634045  1
  Mo  Mo185  1  0.80238517  0.20003135  0.23238178  1
  Mo  Mo186  1  0.50718881  0.90003344  0.60252635  1
  Mo  Mo187  1  0.90422774  0.69687583  0.89073459  1
  Mo  Mo188  1  0.38936514  0.39887572  0.02577854  1
  Mo  Mo189  1  0.59940428  0.20133829  -0.00839200  1
  Mo  Mo190  1  0.11025184  0.09671905  0.85980995  1
  Mo  Mo191  1  0.90697041  0.10244882  0.39329178  1
  Mo  Mo192  1  0.69994513  0.50308082  0.86607183  1
  Mo  Mo193  1  0.69684008  0.89567728  0.60029072  1
  Mo  Mo194  1  0.89102058  0.68639641  0.60345297  1
  Mo  Mo195  1  -0.00556536  0.20705750  0.49771028  1
  Mo  Mo196  1  0.60180538  0.80896864  0.26650330  1
  Mo  Mo197  1  0.50125960  0.10302003  0.37752572  1
  Mo  Mo198  1  0.40118910  0.20179382  0.73929885  1
  Mo  Mo199  1  0.39370340  0.20038054  0.01523594  1
