# generated using pymatgen
data_HfZrTaTiMo
_symmetry_space_group_name_H-M   'P 1'
_cell_length_a   15.84277182
_cell_length_b   15.83389179
_cell_length_c   15.41911316
_cell_angle_alpha   90.05207826
_cell_angle_beta   90.00975014
_cell_angle_gamma   89.98164009
_symmetry_Int_Tables_number   1
_chemical_formula_structural   HfZrTaTiMo
_chemical_formula_sum   'Hf40 Zr40 Ta40 Ti40 Mo40'
_cell_volume   3867.92485100
_cell_formula_units_Z   40
loop_
 _symmetry_equiv_pos_site_id
 _symmetry_equiv_pos_as_xyz
  1  'x, y, z'
loop_
 _atom_site_type_symbol
 _atom_site_label
 _atom_site_symmetry_multiplicity
 _atom_site_fract_x
 _atom_site_fract_y
 _atom_site_fract_z
 _atom_site_occupancy
  Hf  Hf0  1  0.00364553  0.40091463  0.50051150  1
  Hf  Hf1  1  0.29481430  0.72737605  0.36243839  1
  Hf  Hf2  1  0.08301170  0.70349474  0.37172273  1
  Hf  Hf3  1  0.09889679  0.69439913  0.88457228  1
  Hf  Hf4  1  0.29825996  0.50130190  0.11371237  1
  Hf  Hf5  1  0.30201531  0.70006727  0.61852312  1
  Hf  Hf6  1  0.50324754  0.10169572  0.60497805  1
  Hf  Hf7  1  0.10874477  0.49205988  0.10871907  1
  Hf  Hf8  1  0.49758006  0.89801424  0.63037114  1
  Hf  Hf9  1  0.39568822  0.19260156  0.23718021  1
  Hf  Hf10  1  0.49394855  0.70754418  0.63628911  1
  Hf  Hf11  1  0.60822643  0.01175877  0.25230804  1
  Hf  Hf12  1  0.20414067  0.79048304  0.75514958  1
  Hf  Hf13  1  0.49516842  0.88026806  0.34672680  1
  Hf  Hf14  1  -0.00659145  0.80868001  0.01296054  1
  Hf  Hf15  1  0.79547788  0.80278264  0.76202629  1
  Hf  Hf16  1  0.89468151  0.90390929  0.63328039  1
  Hf  Hf17  1  0.50109834  0.49395349  0.86624232  1
  Hf  Hf18  1  0.52480409  0.49281885  0.38410983  1
  Hf  Hf19  1  0.11794959  0.90015431  0.35465226  1
  Hf  Hf20  1  0.79675686  0.61267621  0.23073960  1
  Hf  Hf21  1  0.79673710  0.41093263  0.24425419  1
  Hf  Hf22  1  0.70137135  0.50232213  0.87910842  1
  Hf  Hf23  1  0.19718506  0.39923530  0.27312113  1
  Hf  Hf24  1  0.69111500  0.90278780  0.62074273  1
  Hf  Hf25  1  0.40005462  0.39800838  0.27199909  1
  Hf  Hf26  1  -0.00829522  0.01051237  0.75832179  1
  Hf  Hf27  1  0.29278410  0.50210335  0.60518255  1
  Hf  Hf28  1  0.90557201  0.69602981  0.87562407  1
  Hf  Hf29  1  0.41316568  0.38100062  0.50056040  1
  Hf  Hf30  1  0.91102595  0.49605950  0.63453542  1
  Hf  Hf31  1  0.39838223  0.00933349  0.00969585  1
  Hf  Hf32  1  0.00002422  0.79905334  0.51132944  1
  Hf  Hf33  1  0.59838944  0.40299374  0.00900555  1
  Hf  Hf34  1  0.80084076  0.00243164  0.48186801  1
  Hf  Hf35  1  0.81245355  0.60441877  0.50582594  1
  Hf  Hf36  1  0.09459193  0.29074691  0.37843356  1
  Hf  Hf37  1  0.79270769  0.00220397  0.77664879  1
  Hf  Hf38  1  0.30733147  0.89643521  0.62859324  1
  Hf  Hf39  1  0.80721219  0.60215829  0.01276463  1
  Zr  Zr40  1  0.80044897  0.80180894  0.49611413  1
  Zr  Zr41  1  0.19738992  0.41615638  0.75028633  1
  Zr  Zr42  1  0.01171723  0.00315981  0.51355358  1
  Zr  Zr43  1  0.59535626  0.20045183  -0.00241076  1
  Zr  Zr44  1  0.69570628  0.70382633  0.62054080  1
  Zr  Zr45  1  0.39721997  0.39747678  0.74066384  1
  Zr  Zr46  1  0.29793010  0.08991739  0.60992483  1
  Zr  Zr47  1  0.29638647  0.90746219  0.87364098  1
  Zr  Zr48  1  0.00233276  0.00892984  0.22554723  1
  Zr  Zr49  1  0.69758100  0.10200386  0.60778629  1
  Zr  Zr50  1  0.10568355  0.69468172  0.12096716  1
  Zr  Zr51  1  0.79238319  0.39716112  0.74766926  1
  Zr  Zr52  1  0.29170672  0.89805468  0.14331652  1
  Zr  Zr53  1  0.60514028  0.00979155  0.76943333  1
  Zr  Zr54  1  0.19998863  0.58923298  0.26840797  1
  Zr  Zr55  1  0.79447017  0.18870388  0.76286557  1
  Zr  Zr56  1  0.61263564  0.58315243  0.23285926  1
  Zr  Zr57  1  0.39884952  0.20200485  0.74346184  1
  Zr  Zr58  1  0.50120204  0.70045707  0.87299659  1
  Zr  Zr59  1  0.70322881  0.29300341  0.13049950  1
  Zr  Zr60  1  0.39468115  0.01155024  0.25197533  1
  Zr  Zr61  1  0.50732755  0.90268233  0.12837549  1
  Zr  Zr62  1  0.91149260  0.50050247  0.86818814  1
  Zr  Zr63  1  0.40708872  0.59476787  -0.00219489  1
  Zr  Zr64  1  -0.00467283  0.59398138  0.23727350  1
  Zr  Zr65  1  0.40123697  0.59515052  0.26655089  1
  Zr  Zr66  1  0.90926469  0.90073414  0.36216354  1
  Zr  Zr67  1  -0.00229615  0.20404211  0.23949160  1
  Zr  Zr68  1  0.59517290  -0.01717484  0.47481597  1
  Zr  Zr69  1  0.40846646  0.60960024  0.48085679  1
  Zr  Zr70  1  0.29733262  0.27124923  0.38991063  1
  Zr  Zr71  1  0.49779689  0.70463082  0.13519389  1
  Zr  Zr72  1  0.60766109  0.59763959  0.74541401  1
  Zr  Zr73  1  0.79529959  0.18860490  0.26112920  1
  Zr  Zr74  1  0.29421949  0.31186681  0.12074799  1
  Zr  Zr75  1  0.19934972  0.80856342  -0.00027574  1
  Zr  Zr76  1  0.10581533  0.09700563  0.37936340  1
  Zr  Zr77  1  0.40121532  0.00664855  0.76324448  1
  Zr  Zr78  1  0.00326694  0.38992513  -0.00680104  1
  Zr  Zr79  1  0.90584110  0.50922118  0.37828260  1
  Ta  Ta80  1  0.38366505  0.59512083  0.75345765  1
  Ta  Ta81  1  0.39838440  0.20436473  0.00640075  1
  Ta  Ta82  1  0.88829494  0.10885237  0.10504588  1
  Ta  Ta83  1  0.90538112  0.10705255  0.38181761  1
  Ta  Ta84  1  0.70018852  0.09483115  0.11294697  1
  Ta  Ta85  1  0.50218518  0.50487968  0.61998953  1
  Ta  Ta86  1  0.89960326  0.29723149  0.63664254  1
  Ta  Ta87  1  0.60443596  0.80886611  0.76893697  1
  Ta  Ta88  1  0.29920601  0.69859832  0.13027752  1
  Ta  Ta89  1  0.00453074  0.79974939  0.75023263  1
  Ta  Ta90  1  0.68742695  0.31155881  0.37324938  1
  Ta  Ta91  1  0.70320804  0.70283215  0.89046695  1
  Ta  Ta92  1  0.19936857  0.18194131  0.23070650  1
  Ta  Ta93  1  0.60008106  0.39067488  0.73403196  1
  Ta  Ta94  1  0.19662293  0.80900251  0.50409556  1
  Ta  Ta95  1  0.80089581  0.39277625  -0.00426526  1
  Ta  Ta96  1  0.90838577  0.69672080  0.64186154  1
  Ta  Ta97  1  0.80129787  0.39337649  0.50615635  1
  Ta  Ta98  1  0.19420457  0.20366585  0.00323492  1
  Ta  Ta99  1  0.60598141  0.39331165  0.51788648  1
  Ta  Ta100  1  0.89866114  0.29865114  0.11890899  1
  Ta  Ta101  1  0.18083588  0.19497108  0.52459028  1
  Ta  Ta102  1  0.19201566  0.59867545  0.48177578  1
  Ta  Ta103  1  0.79939001  -0.00250364  -0.00670724  1
  Ta  Ta104  1  0.29627773  0.30052149  0.88002675  1
  Ta  Ta105  1  0.70634018  0.50049257  0.39138456  1
  Ta  Ta106  1  0.10813841  0.90268080  0.64236411  1
  Ta  Ta107  1  0.11147333  0.50577598  0.89110847  1
  Ta  Ta108  1  0.10822984  0.69443871  0.62257331  1
  Ta  Ta109  1  0.69380584  0.69109116  0.37739836  1
  Ta  Ta110  1  -0.00660815  0.20282118  0.51582049  1
  Ta  Ta111  1  0.49906621  0.89857082  0.88562590  1
  Ta  Ta112  1  0.90517678  0.29266552  0.86719726  1
  Ta  Ta113  1  0.49928989  0.30314526  0.13744095  1
  Ta  Ta114  1  0.10235733  0.29747377  0.86446625  1
  Ta  Ta115  1  0.39812365  0.80032768  0.00167067  1
  Ta  Ta116  1  -0.00090913  0.00165682  0.00128398  1
  Ta  Ta117  1  0.09647306  0.90656304  0.86840413  1
  Ta  Ta118  1  0.48705967  0.11381755  0.39167955  1
  Ta  Ta119  1  0.02596684  0.59065237  0.74119802  1
  Ti  Ti120  1  0.60521327  0.80313419  0.00209733  1
  Ti  Ti121  1  0.68875379  0.11604096  0.38873390  1
  Ti  Ti122  1  0.28989079  0.11027512  0.88445105  1
  Ti  Ti123  1  0.70719559  0.88527468  0.35969273  1
  Ti  Ti124  1  0.59156675  0.19848142  0.25143247  1
  Ti  Ti125  1  0.29939871  0.69127043  0.88019144  1
  Ti  Ti126  1  0.89204136  0.10438649  0.61852803  1
  Ti  Ti127  1  0.00091015  0.40155259  0.25243679  1
  Ti  Ti128  1  0.80100981  0.60258670  0.74877903  1
  Ti  Ti129  1  0.40273667  0.39413970  -0.00726508  1
  Ti  Ti130  1  0.09971719  0.10536311  0.87670732  1
  Ti  Ti131  1  0.80106786  -0.00638296  0.23801925  1
  Ti  Ti132  1  0.62580258  0.78964329  0.23486357  1
  Ti  Ti133  1  0.89511060  0.30194051  0.37274331  1
  Ti  Ti134  1  0.28977857  0.08342188  0.39517832  1
  Ti  Ti135  1  0.09457694  0.31187777  0.63633550  1
  Ti  Ti136  1  0.40223657  0.80952636  0.48610734  1
  Ti  Ti137  1  0.79790426  0.80672013  0.01895476  1
  Ti  Ti138  1  0.60075820  0.19866767  0.75839528  1
  Ti  Ti139  1  0.69763459  0.28649136  0.62053468  1
  Ti  Ti140  1  -0.01006848  0.80453254  0.22456883  1
  Ti  Ti141  1  0.18868322  0.00858737  0.01187198  1
  Ti  Ti142  1  0.49831458  0.29990989  0.86741404  1
  Ti  Ti143  1  0.49657234  0.10543034  0.88269012  1
  Ti  Ti144  1  0.60504371  0.59982470  0.01391435  1
  Ti  Ti145  1  0.19479908  0.01337244  0.75054671  1
  Ti  Ti146  1  0.19802071  0.20085821  0.74366212  1
  Ti  Ti147  1  0.90255216  0.89741569  0.88101210  1
  Ti  Ti148  1  -0.00016205  0.19707915  -0.00338806  1
  Ti  Ti149  1  0.29274358  0.29834612  0.61544745  1
  Ti  Ti150  1  0.89191913  0.70951667  0.36058471  1
  Ti  Ti151  1  0.60291258  -0.00131866  -0.00248221  1
  Ti  Ti152  1  0.80135200  0.20927865  0.49248718  1
  Ti  Ti153  1  0.90692420  0.49163211  0.11474459  1
  Ti  Ti154  1  0.49516354  0.48935577  0.13165608  1
  Ti  Ti155  1  0.58870638  0.78395775  0.48438386  1
  Ti  Ti156  1  0.00136588  0.19763611  0.74488732  1
  Ti  Ti157  1  0.69622365  0.29949523  0.87703609  1
  Ti  Ti158  1  0.09955043  0.30110706  0.12446752  1
  Ti  Ti159  1  0.70227540  0.50190652  0.61529356  1
  Mo  Mo160  1  0.09575570  0.10603502  0.64194474  1
  Mo  Mo161  1  0.90580504  0.10337153  0.89288500  1
  Mo  Mo162  1  0.70472709  0.49494332  0.10534561  1
  Mo  Mo163  1  0.10465333  0.50326723  0.60921352  1
  Mo  Mo164  1  0.70107239  0.90600553  0.11927025  1
  Mo  Mo165  1  0.00422251  0.60582602  0.51618286  1
  Mo  Mo166  1  0.50808418  0.29440685  0.63470323  1
  Mo  Mo167  1  0.00706095  0.39427424  0.75597791  1
  Mo  Mo168  1  0.69719479  0.89451680  0.89757421  1
  Mo  Mo169  1  0.09545132  0.10822084  0.10401940  1
  Mo  Mo170  1  0.39520704  0.79595344  0.24241702  1
  Mo  Mo171  1  0.51241987  0.70009026  0.35847538  1
  Mo  Mo172  1  0.60233135  0.39683429  0.24111882  1
  Mo  Mo173  1  0.40333744  0.79615352  0.77081826  1
  Mo  Mo174  1  0.19806935  0.39356001  0.49817360  1
  Mo  Mo175  1  0.19598940  -0.00949569  0.51378975  1
  Mo  Mo176  1  0.89232725  0.90963516  0.12217667  1
  Mo  Mo177  1  0.60670275  0.59834916  0.50766133  1
  Mo  Mo178  1  0.50686882  0.10675478  0.11857648  1
  Mo  Mo179  1  0.39691872  -0.01108710  0.48057766  1
  Mo  Mo180  1  0.59390859  0.21517706  0.48931511  1
  Mo  Mo181  1  0.79940831  0.80365393  0.23726715  1
  Mo  Mo182  1  0.19846949  0.01104159  0.23427566  1
  Mo  Mo183  1  0.18860090  0.79873325  0.23830499  1
  Mo  Mo184  1  0.20396062  0.39388789  -0.01661607  1
  Mo  Mo185  1  0.20617804  0.60021753  0.75723068  1
  Mo  Mo186  1  0.29686029  0.90686893  0.37195614  1
  Mo  Mo187  1  0.69782119  0.70513040  0.10531442  1
  Mo  Mo188  1  0.29670219  0.10384141  0.10644649  1
  Mo  Mo189  1  0.20961213  0.60127643  -0.00661456  1
  Mo  Mo190  1  0.80239345  0.20218641  -0.01292534  1
  Mo  Mo191  1  0.09630591  0.49650910  0.38939978  1
  Mo  Mo192  1  0.00168871  0.59866376  0.00974414  1
  Mo  Mo193  1  0.69667392  0.10265778  0.89698498  1
  Mo  Mo194  1  0.89919929  0.70595383  0.12498755  1
  Mo  Mo195  1  0.29912678  0.48653221  0.39999880  1
  Mo  Mo196  1  0.30125832  0.49865274  0.88638730  1
  Mo  Mo197  1  0.50653436  0.29323068  0.36286171  1
  Mo  Mo198  1  0.09846906  0.90672817  0.12940734  1
  Mo  Mo199  1  0.39478867  0.19686064  0.50961518  1
