# generated using pymatgen
data_HfZrTaTiMo
_symmetry_space_group_name_H-M   'P 1'
_cell_length_a   15.83713770
_cell_length_b   15.83977006
_cell_length_c   15.41565343
_cell_angle_alpha   89.98716538
_cell_angle_beta   89.96061835
_cell_angle_gamma   89.91133818
_symmetry_Int_Tables_number   1
_chemical_formula_structural   HfZrTaTiMo
_chemical_formula_sum   'Hf40 Zr40 Ta40 Ti40 Mo40'
_cell_volume   3867.11306922
_cell_formula_units_Z   40
loop_
 _symmetry_equiv_pos_site_id
 _symmetry_equiv_pos_as_xyz
  1  'x, y, z'
loop_
 _atom_site_type_symbol
 _atom_site_label
 _atom_site_symmetry_multiplicity
 _atom_site_fract_x
 _atom_site_fract_y
 _atom_site_fract_z
 _atom_site_occupancy
  Hf  Hf0  1  0.80912758  0.80804970  0.22574690  1
  Hf  Hf1  1  0.17480867  0.59810409  0.51086732  1
  Hf  Hf2  1  0.30506351  0.29374118  0.13307809  1
  Hf  Hf3  1  0.38391038  0.81728122  0.00695457  1
  Hf  Hf4  1  0.09306332  0.30196210  0.39443890  1
  Hf  Hf5  1  0.09635387  0.09743977  0.87025254  1
  Hf  Hf6  1  0.40020886  0.39156320  -0.01366727  1
  Hf  Hf7  1  0.70176789  0.09665774  0.62672671  1
  Hf  Hf8  1  0.19429824  0.59755538  0.23784202  1
  Hf  Hf9  1  0.00401412  0.40340516  0.73927393  1
  Hf  Hf10  1  0.40163512  0.20003902  0.75018976  1
  Hf  Hf11  1  0.19070424  0.00104557  0.25831178  1
  Hf  Hf12  1  0.20777116  0.19689748  -0.00950247  1
  Hf  Hf13  1  0.60728851  0.79261165  0.75050896  1
  Hf  Hf14  1  -0.00496327  -0.00241767  0.50758278  1
  Hf  Hf15  1  0.29011532  0.10829349  0.62905039  1
  Hf  Hf16  1  0.61513151  0.59391590  0.74898001  1
  Hf  Hf17  1  0.31481592  0.11554443  0.36388893  1
  Hf  Hf18  1  -0.00091278  0.61504517  0.23523442  1
  Hf  Hf19  1  0.40177709  0.39103390  0.75158923  1
  Hf  Hf20  1  0.61400532  0.79477637  0.50882515  1
  Hf  Hf21  1  0.29332232  0.89530854  0.38901290  1
  Hf  Hf22  1  0.60302862  0.00033600  0.75718986  1
  Hf  Hf23  1  0.49704849  0.28894074  0.36702754  1
  Hf  Hf24  1  0.29682569  0.70040895  0.88442313  1
  Hf  Hf25  1  0.71173664  0.90109242  0.38203384  1
  Hf  Hf26  1  0.68356208  0.71255406  0.10366746  1
  Hf  Hf27  1  0.89099390  0.30303046  0.38732215  1
  Hf  Hf28  1  0.80451144  0.01596701  0.24064917  1
  Hf  Hf29  1  0.80461890  0.20401677  0.74077564  1
  Hf  Hf30  1  0.50612868  0.49770611  0.62314584  1
  Hf  Hf31  1  -0.00721914  0.18858206  0.25729533  1
  Hf  Hf32  1  0.61232247  0.38572942  0.74008523  1
  Hf  Hf33  1  0.70924853  0.69835498  0.37556380  1
  Hf  Hf34  1  0.89552576  0.50689542  0.87400574  1
  Hf  Hf35  1  0.39573113  0.59928859  0.23871737  1
  Hf  Hf36  1  0.79973159  0.60862328  0.23160055  1
  Hf  Hf37  1  0.40218184  0.79332662  0.51306421  1
  Hf  Hf38  1  0.19198870  0.20860674  0.25673918  1
  Hf  Hf39  1  0.79795174  0.40638687  0.73635648  1
  Zr  Zr40  1  0.19085520  0.38427739  -0.01214389  1
  Zr  Zr41  1  0.00360184  0.42973651  0.51275054  1
  Zr  Zr42  1  0.50648205  0.10721788  0.12689075  1
  Zr  Zr43  1  0.39658633  0.60924164  0.74524365  1
  Zr  Zr44  1  0.50074651  0.49888560  0.38745565  1
  Zr  Zr45  1  0.50525565  0.70153382  0.88792623  1
  Zr  Zr46  1  0.50102740  0.69707447  0.10246277  1
  Zr  Zr47  1  0.51106504  0.30797248  0.13385934  1
  Zr  Zr48  1  0.69889587  0.11816158  0.86530322  1
  Zr  Zr49  1  0.89145848  0.50199386  0.36110774  1
  Zr  Zr50  1  0.50969081  0.90383969  0.62679329  1
  Zr  Zr51  1  0.29289275  0.90116110  0.61994038  1
  Zr  Zr52  1  0.90402272  0.30235710  0.88002363  1
  Zr  Zr53  1  0.20486201  -0.01821191  0.00659964  1
  Zr  Zr54  1  0.29087275  0.49826620  0.63001309  1
  Zr  Zr55  1  0.59453228  0.80167613  0.25756699  1
  Zr  Zr56  1  -0.00685699  0.59726915  0.00890899  1
  Zr  Zr57  1  0.08948709  0.89269640  0.63957240  1
  Zr  Zr58  1  0.19513084  0.58923768  -0.00408318  1
  Zr  Zr59  1  0.40443060  -0.01455509  0.24211120  1
  Zr  Zr60  1  0.29503533  0.49597818  0.37984811  1
  Zr  Zr61  1  0.09553191  0.10312050  0.11806270  1
  Zr  Zr62  1  0.18784493  0.79365300  0.25975029  1
  Zr  Zr63  1  0.00646319  0.38747113  0.24376685  1
  Zr  Zr64  1  0.29182260  0.69383770  0.39222326  1
  Zr  Zr65  1  0.90734477  0.29758716  0.60416207  1
  Zr  Zr66  1  0.67946862  0.48877082  0.13415957  1
  Zr  Zr67  1  0.40710179  0.00817922  0.49681318  1
  Zr  Zr68  1  0.39442611  0.38092454  0.51045602  1
  Zr  Zr69  1  0.59055100  0.59829727  0.25695551  1
  Zr  Zr70  1  0.39588916  0.79570939  0.24577558  1
  Zr  Zr71  1  0.79933301  0.00478021  -0.00839896  1
  Zr  Zr72  1  0.07408731  0.90020846  0.13544577  1
  Zr  Zr73  1  0.11228541  0.29043885  0.61805670  1
  Zr  Zr74  1  0.18378275  0.01222352  0.49371328  1
  Zr  Zr75  1  0.60122867  0.39944232  -0.01492325  1
  Zr  Zr76  1  0.39919739  0.00424754  0.00456786  1
  Zr  Zr77  1  0.79714566  0.59956996  0.01497327  1
  Zr  Zr78  1  0.60771767  -0.00122571  0.25023964  1
  Zr  Zr79  1  0.20070770  0.79155934  0.75329017  1
  Ta  Ta80  1  0.29987348  0.49834413  0.87032099  1
  Ta  Ta81  1  0.60732082  0.39359233  0.50417265  1
  Ta  Ta82  1  0.70364115  0.30035041  0.37871788  1
  Ta  Ta83  1  0.49683904  0.90089485  0.87278420  1
  Ta  Ta84  1  0.90024142  0.53834278  0.64048067  1
  Ta  Ta85  1  0.07366226  0.69058267  0.64349847  1
  Ta  Ta86  1  0.70929178  0.70093275  0.88487674  1
  Ta  Ta87  1  -0.00812561  0.81195503  -0.01501653  1
  Ta  Ta88  1  0.90428029  0.90315356  0.36570988  1
  Ta  Ta89  1  0.80901804  0.81179176  0.00254755  1
  Ta  Ta90  1  0.50301072  0.10275299  0.62959456  1
  Ta  Ta91  1  0.09812811  0.71357476  0.10404069  1
  Ta  Ta92  1  0.40300416  0.80159691  0.74441169  1
  Ta  Ta93  1  0.00813923  0.79883190  0.49108291  1
  Ta  Ta94  1  0.61743775  0.59276262  0.50494365  1
  Ta  Ta95  1  0.70562889  0.10493319  0.39052319  1
  Ta  Ta96  1  0.09681056  0.50558333  0.36612118  1
  Ta  Ta97  1  0.20005172  0.39282960  0.76050566  1
  Ta  Ta98  1  0.40022583  0.40245154  0.25053380  1
  Ta  Ta99  1  0.28816361  0.70282104  0.10878606  1
  Ta  Ta100  1  0.79810756  0.39295304  0.00605127  1
  Ta  Ta101  1  0.30003520  0.49092154  0.12036286  1
  Ta  Ta102  1  -0.00970109  0.00044532  -0.01555466  1
  Ta  Ta103  1  0.40318699  0.20024821  -0.01372047  1
  Ta  Ta104  1  0.59676959  0.20092985  0.50594382  1
  Ta  Ta105  1  0.89963618  0.71028675  0.37272444  1
  Ta  Ta106  1  0.09512052  0.89997562  0.86351494  1
  Ta  Ta107  1  0.71799840  0.89509237  0.63824688  1
  Ta  Ta108  1  0.80657561  -0.00537188  0.51438176  1
  Ta  Ta109  1  0.89428763  0.48307740  0.13091955  1
  Ta  Ta110  1  0.30392586  0.10208206  0.13505790  1
  Ta  Ta111  1  0.51912263  0.28290335  0.86710095  1
  Ta  Ta112  1  0.00017109  0.19458258  0.74529204  1
  Ta  Ta113  1  0.60268566  0.00321935  -0.01038162  1
  Ta  Ta114  1  0.08897946  0.69969303  0.87729459  1
  Ta  Ta115  1  0.61710417  0.19469467  0.25429998  1
  Ta  Ta116  1  0.40083608  0.58558705  0.00294775  1
  Ta  Ta117  1  0.90311822  0.10295573  0.11068525  1
  Ta  Ta118  1  0.18414559  0.59044068  0.75747775  1
  Ta  Ta119  1  0.30211634  0.09253407  0.86609863  1
  Ti  Ti120  1  0.08799392  0.49085373  0.87666096  1
  Ti  Ti121  1  0.19452732  0.00486525  0.74617538  1
  Ti  Ti122  1  0.61107084  0.20163632  0.00691600  1
  Ti  Ti123  1  0.80194412  0.20106465  0.24845728  1
  Ti  Ti124  1  0.72379460  0.68967142  0.62843017  1
  Ti  Ti125  1  0.89595317  0.90538006  0.85411091  1
  Ti  Ti126  1  0.79369336  0.41679924  0.51463914  1
  Ti  Ti127  1  0.39960237  -0.00229450  0.74828976  1
  Ti  Ti128  1  0.80646349  0.60162118  0.49753540  1
  Ti  Ti129  1  0.60705797  0.00008503  0.50185484  1
  Ti  Ti130  1  0.51003507  0.09901270  0.37205598  1
  Ti  Ti131  1  0.50099277  0.69580906  0.39077725  1
  Ti  Ti132  1  0.20034626  0.39803264  0.25220607  1
  Ti  Ti133  1  0.81808163  0.80306712  0.51088794  1
  Ti  Ti134  1  0.70531202  0.50041385  0.87829907  1
  Ti  Ti135  1  0.70684991  0.89680890  0.86551539  1
  Ti  Ti136  1  0.51523047  0.89314434  0.10962375  1
  Ti  Ti137  1  0.21055252  0.20565316  0.48998535  1
  Ti  Ti138  1  0.29778995  0.90217801  0.86170226  1
  Ti  Ti139  1  -0.00845453  0.61233798  0.49136236  1
  Ti  Ti140  1  0.50351531  0.89627006  0.38673012  1
  Ti  Ti141  1  0.89820899  0.10136305  0.39029514  1
  Ti  Ti142  1  0.79942800  0.19568585  0.50799106  1
  Ti  Ti143  1  0.28362091  0.70034957  0.62153226  1
  Ti  Ti144  1  0.20199702  0.39969664  0.50308256  1
  Ti  Ti145  1  0.19925975  0.20613686  0.76265081  1
  Ti  Ti146  1  0.70593349  0.29852858  0.13738944  1
  Ti  Ti147  1  0.50168119  0.50105565  0.86601042  1
  Ti  Ti148  1  0.70404341  0.48843178  0.36351532  1
  Ti  Ti149  1  0.81652520  0.78636903  0.75252959  1
  Ti  Ti150  1  0.09762767  0.48464552  0.12154566  1
  Ti  Ti151  1  -0.01760173  0.01024731  0.74461165  1
  Ti  Ti152  1  0.00770688  0.20952873  -0.00646979  1
  Ti  Ti153  1  0.90515913  0.29537113  0.11779818  1
  Ti  Ti154  1  0.50106859  0.09873782  0.87213655  1
  Ti  Ti155  1  0.40078291  0.20323531  0.51191448  1
  Ti  Ti156  1  0.79910550  0.20290725  0.00039884  1
  Ti  Ti157  1  0.69722229  0.91106930  0.11310436  1
  Ti  Ti158  1  0.39989789  0.59922821  0.51253384  1
  Ti  Ti159  1  0.50916234  0.69413165  0.62396149  1
  Mo  Mo160  1  0.09789858  0.29643939  0.86251266  1
  Mo  Mo161  1  -0.00606345  0.00651872  0.26819876  1
  Mo  Mo162  1  0.70745196  0.50577369  0.61868710  1
  Mo  Mo163  1  0.80534971  -0.00091868  0.74803918  1
  Mo  Mo164  1  -0.00152862  0.80122265  0.26312446  1
  Mo  Mo165  1  0.08972360  0.89800827  0.37257496  1
  Mo  Mo166  1  0.09513584  0.50516864  0.64040212  1
  Mo  Mo167  1  0.09918754  0.10045710  0.64521572  1
  Mo  Mo168  1  0.89904254  0.89662830  0.64048560  1
  Mo  Mo169  1  0.29987014  0.30441686  0.36336894  1
  Mo  Mo170  1  0.91016601  0.71988918  0.11181827  1
  Mo  Mo171  1  -0.00316085  0.39488392  0.01075233  1
  Mo  Mo172  1  0.70517011  0.30311066  0.88094617  1
  Mo  Mo173  1  0.60121625  0.20266966  0.73190459  1
  Mo  Mo174  1  0.60301845  0.39308578  0.27022639  1
  Mo  Mo175  1  0.30514185  0.29324433  0.86703197  1
  Mo  Mo176  1  0.79786562  0.60887133  0.75970107  1
  Mo  Mo177  1  0.70578923  0.29982274  0.60125032  1
  Mo  Mo178  1  0.40638841  0.19790348  0.24774999  1
  Mo  Mo179  1  0.70517505  0.11242052  0.11470033  1
  Mo  Mo180  1  0.09610425  0.10348813  0.37747795  1
  Mo  Mo181  1  -0.00717568  0.79892730  0.76935483  1
  Mo  Mo182  1  -0.00622706  0.60721508  0.77101158  1
  Mo  Mo183  1  0.90241636  0.71068559  0.61737720  1
  Mo  Mo184  1  0.90248956  0.09964784  0.61633499  1
  Mo  Mo185  1  0.79934206  0.38569294  0.23964849  1
  Mo  Mo186  1  0.18658862  0.79194573  0.50419819  1
  Mo  Mo187  1  0.90253126  0.91347734  0.12860350  1
  Mo  Mo188  1  0.89439150  0.70806811  0.89362463  1
  Mo  Mo189  1  0.60946926  0.81910963  -0.02135874  1
  Mo  Mo190  1  0.19001667  0.80259184  -0.01201914  1
  Mo  Mo191  1  0.09000707  0.69407852  0.37814480  1
  Mo  Mo192  1  0.00817432  0.18234059  0.50041056  1
  Mo  Mo193  1  0.48863529  0.49381378  0.12442429  1
  Mo  Mo194  1  0.09713044  0.29911412  0.12484238  1
  Mo  Mo195  1  0.90409507  0.10518413  0.88430846  1
  Mo  Mo196  1  0.59643751  0.59241182  -0.01954859  1
  Mo  Mo197  1  0.29606335  0.29498693  0.63373458  1
  Mo  Mo198  1  0.50490387  0.29302305  0.62564225  1
  Mo  Mo199  1  0.28649331  0.89781764  0.13688197  1
