# generated using pymatgen
data_HfZrTaTiMo
_symmetry_space_group_name_H-M   'P 1'
_cell_length_a   15.83761585
_cell_length_b   15.83278645
_cell_length_c   15.39148358
_cell_angle_alpha   90.04714510
_cell_angle_beta   89.99030067
_cell_angle_gamma   89.96460358
_symmetry_Int_Tables_number   1
_chemical_formula_structural   HfZrTaTiMo
_chemical_formula_sum   'Hf40 Zr40 Ta40 Ti40 Mo40'
_cell_volume   3859.46765853
_cell_formula_units_Z   40
loop_
 _symmetry_equiv_pos_site_id
 _symmetry_equiv_pos_as_xyz
  1  'x, y, z'
loop_
 _atom_site_type_symbol
 _atom_site_label
 _atom_site_symmetry_multiplicity
 _atom_site_fract_x
 _atom_site_fract_y
 _atom_site_fract_z
 _atom_site_occupancy
  Hf  Hf0  1  0.20052821  0.59921725  0.24997352  1
  Hf  Hf1  1  0.20392313  0.19300595  -0.01148342  1
  Hf  Hf2  1  0.78550312  0.21767668  0.51003153  1
  Hf  Hf3  1  0.51208330  0.89397267  0.64580207  1
  Hf  Hf4  1  0.31334622  0.51692337  0.88124943  1
  Hf  Hf5  1  0.29643045  0.11030495  0.62771773  1
  Hf  Hf6  1  0.20121165  0.80544196  -0.00803919  1
  Hf  Hf7  1  0.69392798  0.69831623  0.14312651  1
  Hf  Hf8  1  0.69000614  0.89883516  0.13171170  1
  Hf  Hf9  1  0.79852956  0.80153228  0.73681071  1
  Hf  Hf10  1  0.20144999  0.00283058  -0.00481288  1
  Hf  Hf11  1  0.60504076  0.78084113  -0.01842286  1
  Hf  Hf12  1  0.49683195  0.69741853  0.11667692  1
  Hf  Hf13  1  0.01713417  0.40639264  0.48905092  1
  Hf  Hf14  1  0.89827019  0.49844346  0.12884029  1
  Hf  Hf15  1  0.48192675  0.67791244  0.87421316  1
  Hf  Hf16  1  0.40033279  0.80052329  0.50845861  1
  Hf  Hf17  1  0.31493952  0.30663880  0.62330916  1
  Hf  Hf18  1  0.58611181  0.20406817  0.50883159  1
  Hf  Hf19  1  0.40138886  0.40276081  0.24636862  1
  Hf  Hf20  1  0.09207658  0.50227680  0.88292335  1
  Hf  Hf21  1  -0.01278450  0.61327362  0.01492196  1
  Hf  Hf22  1  0.51231740  0.28349719  0.88314895  1
  Hf  Hf23  1  0.30863638  0.50900032  0.38603029  1
  Hf  Hf24  1  0.49095034  0.89446574  0.86251109  1
  Hf  Hf25  1  0.49923375  0.09534138  0.12938687  1
  Hf  Hf26  1  0.80430347  0.79602309  0.00134672  1
  Hf  Hf27  1  0.19876102  0.40426234  0.25982615  1
  Hf  Hf28  1  0.11187121  0.29422356  0.61693109  1
  Hf  Hf29  1  0.20062848  0.39111005  -0.00698880  1
  Hf  Hf30  1  0.80265910  -0.00169840  0.00345573  1
  Hf  Hf31  1  0.07987680  0.88756736  0.38455821  1
  Hf  Hf32  1  0.50743598  0.08954414  0.36118325  1
  Hf  Hf33  1  0.79454555  0.00514952  0.73480193  1
  Hf  Hf34  1  0.19961529  -0.00671388  0.25573876  1
  Hf  Hf35  1  0.69959245  0.90546800  0.36875414  1
  Hf  Hf36  1  -0.00141364  0.00529790  0.74686186  1
  Hf  Hf37  1  0.71391897  0.30159316  0.88704256  1
  Hf  Hf38  1  0.62388229  0.19287058  0.23424174  1
  Hf  Hf39  1  0.78852447  0.60601978  0.49545142  1
  Zr  Zr40  1  0.89879295  0.50399322  0.87694118  1
  Zr  Zr41  1  0.40109441  0.40092947  0.00215833  1
  Zr  Zr42  1  0.20422412  0.00847993  0.49377936  1
  Zr  Zr43  1  0.60320077  0.79894936  0.49868853  1
  Zr  Zr44  1  0.69629109  0.89913251  0.86035172  1
  Zr  Zr45  1  0.90628822  0.11668112  0.62305774  1
  Zr  Zr46  1  0.21170033  0.40147695  0.75886027  1
  Zr  Zr47  1  0.91027080  0.10960081  0.13008098  1
  Zr  Zr48  1  0.09141147  0.90731798  0.13376631  1
  Zr  Zr49  1  0.08815800  0.10261031  0.37151996  1
  Zr  Zr50  1  0.89876314  0.50049726  0.60959461  1
  Zr  Zr51  1  0.19570569  0.20605104  0.25719258  1
  Zr  Zr52  1  0.10361686  0.90538442  0.61915704  1
  Zr  Zr53  1  0.50798831  0.46773334  0.63853084  1
  Zr  Zr54  1  0.21013955  0.60560581  0.01029375  1
  Zr  Zr55  1  0.58910715  0.00045567  -0.00508366  1
  Zr  Zr56  1  0.59056601  0.58595270  0.49491905  1
  Zr  Zr57  1  0.90110564  0.31344409  0.88990594  1
  Zr  Zr58  1  0.09852977  0.89743593  0.86188345  1
  Zr  Zr59  1  0.49900638  0.69565764  0.64077162  1
  Zr  Zr60  1  0.57976910  0.80357761  0.25946660  1
  Zr  Zr61  1  0.00719726  0.39810571  0.74022643  1
  Zr  Zr62  1  0.60614965  0.58497869  0.76207283  1
  Zr  Zr63  1  0.09472032  0.71194973  0.12937801  1
  Zr  Zr64  1  0.41978769  0.39415606  0.48485486  1
  Zr  Zr65  1  0.89404987  0.29441017  0.37219653  1
  Zr  Zr66  1  0.60270550  0.41225099  -0.00222989  1
  Zr  Zr67  1  0.30168313  0.90054204  0.63680542  1
  Zr  Zr68  1  0.79869601  0.00351602  0.24381863  1
  Zr  Zr69  1  0.68957178  0.11662626  0.87885653  1
  Zr  Zr70  1  0.48372636  0.68594934  0.37923543  1
  Zr  Zr71  1  0.89258609  0.69434764  0.85775683  1
  Zr  Zr72  1  0.30457421  0.28990071  0.12736459  1
  Zr  Zr73  1  0.89917122  0.50347978  0.38007266  1
  Zr  Zr74  1  0.00355805  0.00502467  -0.01103363  1
  Zr  Zr75  1  0.30307267  0.89863240  0.38412851  1
  Zr  Zr76  1  0.89051083  0.11511147  0.87001706  1
  Zr  Zr77  1  0.00256902  0.60594787  0.25753806  1
  Zr  Zr78  1  0.70225155  0.10706340  0.38117049  1
  Zr  Zr79  1  0.09467839  0.69873310  0.87143442  1
  Ta  Ta80  1  0.19753676  0.59428657  0.73450018  1
  Ta  Ta81  1  0.71192029  0.29958769  0.11109040  1
  Ta  Ta82  1  0.90048619  0.90105615  0.61177637  1
  Ta  Ta83  1  0.10428537  0.10992570  0.62777816  1
  Ta  Ta84  1  0.30231342  0.70985294  0.13308324  1
  Ta  Ta85  1  0.79744276  0.39525995  0.24258176  1
  Ta  Ta86  1  0.29617845  0.69768506  0.62764889  1
  Ta  Ta87  1  0.78338741  0.60605766  0.00941540  1
  Ta  Ta88  1  0.31178936  0.09467306  0.86826273  1
  Ta  Ta89  1  0.79512694  0.40512671  0.73891935  1
  Ta  Ta90  1  0.90833358  0.30207186  0.12277871  1
  Ta  Ta91  1  0.38990187  -0.00844790  0.00105419  1
  Ta  Ta92  1  0.89998706  0.70072772  0.60941883  1
  Ta  Ta93  1  0.18925246  0.59062056  0.51580265  1
  Ta  Ta94  1  0.50569948  0.50515139  0.12920651  1
  Ta  Ta95  1  0.29045171  0.69641356  0.38845332  1
  Ta  Ta96  1  0.71294007  0.50203110  0.87736140  1
  Ta  Ta97  1  0.40422041  -0.01452051  0.23947822  1
  Ta  Ta98  1  0.61165091  0.38850951  0.47739559  1
  Ta  Ta99  1  0.38547777  0.79317545  -0.01422573  1
  Ta  Ta100  1  0.09832914  0.49145855  0.12159090  1
  Ta  Ta101  1  0.00754681  0.60119073  0.72387335  1
  Ta  Ta102  1  0.50782045  0.29430387  0.12590130  1
  Ta  Ta103  1  0.19423878  0.79414796  0.26486158  1
  Ta  Ta104  1  0.01476725  0.20511019  -0.01083346  1
  Ta  Ta105  1  0.79554355  0.00335757  0.50769344  1
  Ta  Ta106  1  0.41324999  0.00878718  0.51343736  1
  Ta  Ta107  1  0.20480529  0.20730895  0.76904183  1
  Ta  Ta108  1  0.01012144  0.39424219  0.25957939  1
  Ta  Ta109  1  0.39369344  0.59725254  0.23918741  1
  Ta  Ta110  1  0.31685515  0.10092831  0.36288018  1
  Ta  Ta111  1  -0.00089121  0.79705372  0.72873632  1
  Ta  Ta112  1  0.50733840  0.28670783  0.34986811  1
  Ta  Ta113  1  0.30303723  0.09311121  0.13423554  1
  Ta  Ta114  1  0.70394448  0.70306237  0.36522863  1
  Ta  Ta115  1  0.89980069  0.71971046  0.38938313  1
  Ta  Ta116  1  0.70393973  0.49514496  0.36409054  1
  Ta  Ta117  1  0.80386448  0.60631148  0.25398580  1
  Ta  Ta118  1  0.40328242  0.19621712  0.49434207  1
  Ta  Ta119  1  0.69729458  0.69886633  0.63594331  1
  Ti  Ti120  1  0.40898648  0.39093625  0.77098709  1
  Ti  Ti121  1  0.00401101  0.20427978  0.49423289  1
  Ti  Ti122  1  0.19820211  0.78804766  0.74619730  1
  Ti  Ti123  1  0.59466808  0.01541887  0.74913843  1
  Ti  Ti124  1  0.09230621  0.69436467  0.39246002  1
  Ti  Ti125  1  0.19877384  0.01239280  0.75711771  1
  Ti  Ti126  1  -0.01292829  -0.00555405  0.25796814  1
  Ti  Ti127  1  0.30989662  0.29403335  0.37244916  1
  Ti  Ti128  1  0.40461185  0.00918325  0.74438020  1
  Ti  Ti129  1  0.90082310  0.89702344  0.86384488  1
  Ti  Ti130  1  0.68273199  0.31797452  0.63515731  1
  Ti  Ti131  1  0.69765206  0.50434464  0.13123609  1
  Ti  Ti132  1  0.09331909  0.29682239  0.12342798  1
  Ti  Ti133  1  0.70019162  0.49655991  0.62159560  1
  Ti  Ti134  1  0.59194083  0.20345266  0.73738132  1
  Ti  Ti135  1  0.20548590  0.20425059  0.48365879  1
  Ti  Ti136  1  0.89427863  0.10478202  0.37132203  1
  Ti  Ti137  1  0.30122178  0.89592781  0.85652734  1
  Ti  Ti138  1  0.60569987  0.39691458  0.24874060  1
  Ti  Ti139  1  0.39400878  0.59106839  0.52160037  1
  Ti  Ti140  1  0.79535937  0.21418682  0.73508526  1
  Ti  Ti141  1  0.19459936  0.79167692  0.50510493  1
  Ti  Ti142  1  0.29841384  0.89277810  0.12941579  1
  Ti  Ti143  1  0.49822792  0.90739900  0.38103985  1
  Ti  Ti144  1  0.01293540  0.20741789  0.76239503  1
  Ti  Ti145  1  -0.01317580  0.80932267  0.00827998  1
  Ti  Ti146  1  0.40409315  0.18646241  -0.00419347  1
  Ti  Ti147  1  0.60145371  -0.00111095  0.51769977  1
  Ti  Ti148  1  0.09963108  0.10666488  0.13688807  1
  Ti  Ti149  1  0.69207326  0.10519031  0.62595100  1
  Ti  Ti150  1  0.90090347  0.30796842  0.61662939  1
  Ti  Ti151  1  0.59453544  0.59244970  0.26239228  1
  Ti  Ti152  1  0.38988786  0.58476097  0.73345719  1
  Ti  Ti153  1  0.38872931  0.79634860  0.25930345  1
  Ti  Ti154  1  0.40500409  0.19896021  0.75336572  1
  Ti  Ti155  1  0.20759715  0.40220395  0.49383788  1
  Ti  Ti156  1  0.48830228  0.88860092  0.11492615  1
  Ti  Ti157  1  -0.02521073  0.80624582  0.24908835  1
  Ti  Ti158  1  -0.00918263  0.00648095  0.49947082  1
  Ti  Ti159  1  0.79109593  0.81030998  0.50768808  1
  Mo  Mo160  1  0.30081140  0.50486533  0.12102732  1
  Mo  Mo161  1  0.50584031  0.49115563  0.35384646  1
  Mo  Mo162  1  0.31184307  0.29247957  0.87750987  1
  Mo  Mo163  1  0.70176519  0.30415435  0.36211501  1
  Mo  Mo164  1  0.70355786  0.10231786  0.10627989  1
  Mo  Mo165  1  0.10069426  0.70075621  0.62020572  1
  Mo  Mo166  1  0.10754367  0.50423437  0.37560310  1
  Mo  Mo167  1  0.10659756  0.49476961  0.62423980  1
  Mo  Mo168  1  0.49693919  0.10102103  0.63125672  1
  Mo  Mo169  1  0.39203862  0.79353578  0.75591803  1
  Mo  Mo170  1  0.50220151  0.49220194  0.87000366  1
  Mo  Mo171  1  0.89921552  0.89770224  0.12473510  1
  Mo  Mo172  1  0.88891555  0.70542748  0.13482151  1
  Mo  Mo173  1  0.60228563  0.78843745  0.76368310  1
  Mo  Mo174  1  0.61046353  0.39100450  0.77049526  1
  Mo  Mo175  1  0.60011839  0.20048518  0.01612632  1
  Mo  Mo176  1  0.30354156  0.49475041  0.61919982  1
  Mo  Mo177  1  0.10636016  0.30153220  0.38772966  1
  Mo  Mo178  1  0.89325472  0.90744267  0.39529466  1
  Mo  Mo179  1  0.00333598  0.60686076  0.50039767  1
  Mo  Mo180  1  0.10129590  0.30280418  0.88032389  1
  Mo  Mo181  1  0.80460326  0.80017413  0.25487588  1
  Mo  Mo182  1  0.60223229  0.59490819  -0.00685728  1
  Mo  Mo183  1  0.69704681  0.90537402  0.62799313  1
  Mo  Mo184  1  0.49251191  0.09691092  0.87175201  1
  Mo  Mo185  1  0.00039795  0.20609719  0.25469478  1
  Mo  Mo186  1  0.80349146  0.59599134  0.72869883  1
  Mo  Mo187  1  0.80808080  0.20032527  0.01445542  1
  Mo  Mo188  1  0.78855894  0.40115130  0.50839702  1
  Mo  Mo189  1  0.59376695  -0.00811718  0.23744177  1
  Mo  Mo190  1  0.29705170  0.69978592  0.85151659  1
  Mo  Mo191  1  -0.00271030  0.80233621  0.51097282  1
  Mo  Mo192  1  0.70403825  0.69035236  0.85946957  1
  Mo  Mo193  1  0.80663941  0.20492867  0.23619568  1
  Mo  Mo194  1  0.40495813  0.19636002  0.25044374  1
  Mo  Mo195  1  0.80239076  0.41023437  0.01897589  1
  Mo  Mo196  1  0.40021801  0.60015440  0.01852272  1
  Mo  Mo197  1  0.00590330  0.40157327  0.01417692  1
  Mo  Mo198  1  0.10343168  0.10440769  0.85820226  1
  Mo  Mo199  1  0.50011251  0.29573251  0.63616267  1
