# generated using pymatgen
data_HfZrTaTiMo
_symmetry_space_group_name_H-M   'P 1'
_cell_length_a   15.84492762
_cell_length_b   15.83570296
_cell_length_c   15.41123228
_cell_angle_alpha   89.98168479
_cell_angle_beta   90.00119813
_cell_angle_gamma   89.93361272
_symmetry_Int_Tables_number   1
_chemical_formula_structural   HfZrTaTiMo
_chemical_formula_sum   'Hf40 Zr40 Ta40 Ti40 Mo40'
_cell_volume   3866.91529492
_cell_formula_units_Z   40
loop_
 _symmetry_equiv_pos_site_id
 _symmetry_equiv_pos_as_xyz
  1  'x, y, z'
loop_
 _atom_site_type_symbol
 _atom_site_label
 _atom_site_symmetry_multiplicity
 _atom_site_fract_x
 _atom_site_fract_y
 _atom_site_fract_z
 _atom_site_occupancy
  Hf  Hf0  1  0.19539253  0.81993522  -0.00472927  1
  Hf  Hf1  1  0.89867883  0.70467559  0.61931813  1
  Hf  Hf2  1  0.61402378  0.39782393  0.51490727  1
  Hf  Hf3  1  0.30650808  0.29552082  0.87131627  1
  Hf  Hf4  1  0.39756036  0.80802335  -0.00629828  1
  Hf  Hf5  1  0.40001241  0.39953670  0.24242867  1
  Hf  Hf6  1  -0.00272447  0.00367671  0.50103844  1
  Hf  Hf7  1  0.79536483  0.00068721  0.23508100  1
  Hf  Hf8  1  -0.00240707  0.60306047  -0.00184069  1
  Hf  Hf9  1  0.38044230  0.00667476  -0.00356559  1
  Hf  Hf10  1  0.10813958  0.50898203  0.63009765  1
  Hf  Hf11  1  0.08495247  0.71861961  0.87763015  1
  Hf  Hf12  1  0.41192712  0.39281235  0.01418905  1
  Hf  Hf13  1  0.09250488  0.70112083  0.63276237  1
  Hf  Hf14  1  0.89302185  0.29021739  0.86956707  1
  Hf  Hf15  1  0.78800440  0.38803976  0.00896010  1
  Hf  Hf16  1  0.59696210  0.00515979  0.00928804  1
  Hf  Hf17  1  0.20213424  0.39663110  0.50894924  1
  Hf  Hf18  1  0.39893127  0.78965569  0.74298990  1
  Hf  Hf19  1  0.59613873  0.19971427  0.24732178  1
  Hf  Hf20  1  -0.00054071  0.40862406  0.24134884  1
  Hf  Hf21  1  0.69045943  0.49083844  0.13080727  1
  Hf  Hf22  1  0.39602168  0.80603983  0.49139981  1
  Hf  Hf23  1  0.60039668  0.79690377  -0.00830825  1
  Hf  Hf24  1  0.11306907  0.68889218  0.36060046  1
  Hf  Hf25  1  0.00886741  0.40507231  0.77344160  1
  Hf  Hf26  1  0.90118981  0.30624966  0.37146695  1
  Hf  Hf27  1  0.70386676  0.88629769  0.62035774  1
  Hf  Hf28  1  0.70384743  0.49460799  0.37411733  1
  Hf  Hf29  1  -0.00587172  0.79610474  0.24109665  1
  Hf  Hf30  1  0.49540332  0.90665906  0.85879521  1
  Hf  Hf31  1  0.50817166  0.30677181  0.85634072  1
  Hf  Hf32  1  0.70339116  0.29631962  0.37266928  1
  Hf  Hf33  1  0.68975029  0.49337681  0.88343879  1
  Hf  Hf34  1  0.00325714  0.20547454  0.49996558  1
  Hf  Hf35  1  0.09284257  0.10191933  0.64537590  1
  Hf  Hf36  1  0.20210012  0.39511419  0.23574882  1
  Hf  Hf37  1  0.70358008  0.69362335  0.12263339  1
  Hf  Hf38  1  0.29362302  0.51076822  0.37674367  1
  Hf  Hf39  1  0.40099498  -0.00649665  0.26927493  1
  Zr  Zr40  1  0.31620244  0.50861938  0.88843895  1
  Zr  Zr41  1  0.70295675  0.10846349  0.88045419  1
  Zr  Zr42  1  0.40385122  0.20049007  0.01749168  1
  Zr  Zr43  1  0.78978666  0.40323045  0.73291397  1
  Zr  Zr44  1  0.81661674  0.79832899  0.77075601  1
  Zr  Zr45  1  0.79715058  0.00547008  0.50714600  1
  Zr  Zr46  1  -0.00064092  0.59251694  0.48204157  1
  Zr  Zr47  1  0.10669264  0.90452626  0.35826521  1
  Zr  Zr48  1  0.49855233  0.11019666  0.86757414  1
  Zr  Zr49  1  0.50529321  0.89318493  0.62531387  1
  Zr  Zr50  1  0.49118754  0.68384528  0.88061485  1
  Zr  Zr51  1  0.39384239  0.59744279  0.73196224  1
  Zr  Zr52  1  0.79386954  0.60884939  0.75932721  1
  Zr  Zr53  1  0.30162381  0.70878960  0.12071754  1
  Zr  Zr54  1  0.91621704  0.10340340  0.12722427  1
  Zr  Zr55  1  0.80004759  0.80050727  0.24715562  1
  Zr  Zr56  1  0.48172261  0.08732248  0.60914731  1
  Zr  Zr57  1  0.60231401  0.21956565  0.02324014  1
  Zr  Zr58  1  0.80026279  0.19384273  0.01402492  1
  Zr  Zr59  1  0.20971205  0.18215245  -0.00412834  1
  Zr  Zr60  1  0.60226271  0.59477646  0.73494911  1
  Zr  Zr61  1  -0.00030380  0.39740602  -0.00224813  1
  Zr  Zr62  1  0.19833361  -0.00105279  0.50259161  1
  Zr  Zr63  1  0.29224096  0.10770538  0.37821280  1
  Zr  Zr64  1  0.39027616  0.60694549  0.51683727  1
  Zr  Zr65  1  0.80100119  0.18624564  0.72964744  1
  Zr  Zr66  1  0.81077128  -0.00313921  0.74084074  1
  Zr  Zr67  1  0.70668234  0.90334188  0.88102654  1
  Zr  Zr68  1  0.10853416  0.29367109  0.64678976  1
  Zr  Zr69  1  0.90983578  0.50398781  0.62852899  1
  Zr  Zr70  1  0.49601273  0.30124646  0.62249356  1
  Zr  Zr71  1  0.60958819  0.00973863  0.73794820  1
  Zr  Zr72  1  0.60158035  -0.00020691  0.25685299  1
  Zr  Zr73  1  0.30199942  0.91049813  0.63297535  1
  Zr  Zr74  1  0.49395707  0.69159962  0.36976828  1
  Zr  Zr75  1  0.49740316  0.49118639  0.38264528  1
  Zr  Zr76  1  0.39504695  0.20474287  0.23835099  1
  Zr  Zr77  1  0.10106540  0.10886997  0.35827515  1
  Zr  Zr78  1  0.00423297  0.80021772  0.48536174  1
  Zr  Zr79  1  0.89429776  0.10735334  0.36434532  1
  Ta  Ta80  1  0.69654802  0.89299230  0.11869414  1
  Ta  Ta81  1  0.80083694  0.59732876  0.48861673  1
  Ta  Ta82  1  0.70027555  0.69508518  0.37003708  1
  Ta  Ta83  1  0.69037554  0.30156137  0.85662457  1
  Ta  Ta84  1  0.11358447  0.09455086  0.13391684  1
  Ta  Ta85  1  0.50435609  0.49082754  0.87386133  1
  Ta  Ta86  1  0.10201514  0.70165473  0.12442111  1
  Ta  Ta87  1  0.20617197  0.79145868  0.49096367  1
  Ta  Ta88  1  0.61099691  0.78284002  0.75864356  1
  Ta  Ta89  1  0.59723864  0.80157974  0.25621536  1
  Ta  Ta90  1  0.19581124  0.60397437  -0.00552727  1
  Ta  Ta91  1  0.80834304  -0.00666303  0.01296009  1
  Ta  Ta92  1  0.50206210  0.70144354  0.12926295  1
  Ta  Ta93  1  0.10254086  0.49481783  0.37042250  1
  Ta  Ta94  1  0.59949764  0.59877680  0.24883477  1
  Ta  Ta95  1  0.49522441  0.10653206  0.39256057  1
  Ta  Ta96  1  0.01427774  -0.00658222  0.00119746  1
  Ta  Ta97  1  0.60559505  0.19606469  0.50628384  1
  Ta  Ta98  1  0.19641767  0.39833752  -0.00641321  1
  Ta  Ta99  1  0.19326814  0.59960005  0.77268724  1
  Ta  Ta100  1  0.10273207  0.29066548  0.11502896  1
  Ta  Ta101  1  0.60291598  0.60343651  0.50670054  1
  Ta  Ta102  1  0.60129505  0.79701957  0.48341491  1
  Ta  Ta103  1  0.09917843  0.89362221  0.63690331  1
  Ta  Ta104  1  0.01146422  0.19297678  -0.01221543  1
  Ta  Ta105  1  0.29719591  0.30194820  0.37991555  1
  Ta  Ta106  1  0.29839871  0.50416928  0.11114143  1
  Ta  Ta107  1  0.28353222  0.11068156  0.63328036  1
  Ta  Ta108  1  0.80942220  0.59302408  0.25672234  1
  Ta  Ta109  1  0.20472640  0.40738135  0.76702002  1
  Ta  Ta110  1  0.80116943  0.20621833  0.51871073  1
  Ta  Ta111  1  0.39279078  0.19871272  0.73855121  1
  Ta  Ta112  1  0.89015008  0.50318092  0.88404775  1
  Ta  Ta113  1  0.39659866  0.59970986  0.23762062  1
  Ta  Ta114  1  0.49455720  0.89282718  0.13091900  1
  Ta  Ta115  1  0.10523588  0.90173261  0.13362449  1
  Ta  Ta116  1  0.29706001  0.91166925  0.13623384  1
  Ta  Ta117  1  0.80393274  0.39912640  0.24178759  1
  Ta  Ta118  1  0.89619156  0.90254334  0.37321144  1
  Ta  Ta119  1  0.59457533  0.59448766  0.00638293  1
  Ti  Ti120  1  0.38811825  0.40142283  0.51557341  1
  Ti  Ti121  1  0.70280231  0.70123857  0.61092814  1
  Ti  Ti122  1  0.69913782  0.10367193  0.38402919  1
  Ti  Ti123  1  0.20316805  0.59630248  0.23503000  1
  Ti  Ti124  1  -0.01005441  -0.00769278  0.75177362  1
  Ti  Ti125  1  0.09361351  0.90739108  0.86342643  1
  Ti  Ti126  1  0.49422953  0.29752408  0.38831239  1
  Ti  Ti127  1  0.91576744  0.29379593  0.63848219  1
  Ti  Ti128  1  -0.00754712  0.60703355  0.77031702  1
  Ti  Ti129  1  0.21242488  0.80107550  0.25406335  1
  Ti  Ti130  1  0.50392713  0.50140998  0.12770578  1
  Ti  Ti131  1  0.90719118  0.89288264  0.61596382  1
  Ti  Ti132  1  0.70243954  0.89870092  0.37565955  1
  Ti  Ti133  1  0.50141497  0.49930605  0.62137841  1
  Ti  Ti134  1  0.90538558  0.29879872  0.12545738  1
  Ti  Ti135  1  0.39914898  0.80080878  0.26186380  1
  Ti  Ti136  1  0.49360439  0.08845804  0.13173365  1
  Ti  Ti137  1  0.79424181  0.19949836  0.23423768  1
  Ti  Ti138  1  0.89837410  0.69666141  0.36929101  1
  Ti  Ti139  1  0.88916908  0.50691569  0.11287548  1
  Ti  Ti140  1  0.10105150  0.50388173  0.11728354  1
  Ti  Ti141  1  0.00858924  0.21165394  0.24532561  1
  Ti  Ti142  1  0.00322122  0.39869108  0.49735956  1
  Ti  Ti143  1  0.60615530  0.20225651  0.72165489  1
  Ti  Ti144  1  0.37971062  0.20916807  0.51162376  1
  Ti  Ti145  1  -0.00388811  0.59474136  0.24417104  1
  Ti  Ti146  1  0.19664531  0.80058892  0.75544174  1
  Ti  Ti147  1  0.10812225  0.09222010  0.86251144  1
  Ti  Ti148  1  0.29588964  0.70391026  0.87981439  1
  Ti  Ti149  1  0.81066037  0.79684458  -0.00433215  1
  Ti  Ti150  1  0.89826852  0.69591590  0.11619037  1
  Ti  Ti151  1  -0.00396952  -0.00662359  0.24209814  1
  Ti  Ti152  1  0.28776466  0.91729817  0.85788953  1
  Ti  Ti153  1  0.27537529  0.69412005  0.62719509  1
  Ti  Ti154  1  0.59407281  -0.00715239  0.48814934  1
  Ti  Ti155  1  0.39449867  0.40421357  0.73635048  1
  Ti  Ti156  1  0.80106078  0.79646804  0.48501509  1
  Ti  Ti157  1  0.11115925  0.29928850  0.37113879  1
  Ti  Ti158  1  0.81244551  0.39956738  0.51138344  1
  Ti  Ti159  1  0.90734952  0.08802255  0.88170118  1
  Mo  Mo160  1  0.59607305  0.39904418  0.26841445  1
  Mo  Mo161  1  0.19792344  0.20158611  0.77210021  1
  Mo  Mo162  1  -0.00316024  0.19319377  0.77549760  1
  Mo  Mo163  1  0.70784107  0.50655663  0.60577466  1
  Mo  Mo164  1  0.29844576  0.09515835  0.14108536  1
  Mo  Mo165  1  0.19711003  -0.00210224  0.00204362  1
  Mo  Mo166  1  0.19783910  0.60256004  0.49624499  1
  Mo  Mo167  1  0.29901490  0.89530874  0.37047718  1
  Mo  Mo168  1  0.79634579  0.59986762  -0.00336505  1
  Mo  Mo169  1  0.40370426  0.60041254  0.01806384  1
  Mo  Mo170  1  0.29701487  0.69854237  0.35927632  1
  Mo  Mo171  1  0.20110614  0.20870881  0.23458074  1
  Mo  Mo172  1  0.59750721  0.40338508  0.73264642  1
  Mo  Mo173  1  0.91611813  0.90051374  0.89558515  1
  Mo  Mo174  1  0.29589506  0.30362554  0.64251287  1
  Mo  Mo175  1  0.10387508  0.29585970  0.88227121  1
  Mo  Mo176  1  0.29725352  0.09514163  0.85330972  1
  Mo  Mo177  1  0.39585840  0.00341514  0.48528690  1
  Mo  Mo178  1  0.89904994  0.70171304  0.89287104  1
  Mo  Mo179  1  0.51637782  0.70750233  0.61739486  1
  Mo  Mo180  1  0.90852114  0.10281947  0.62327594  1
  Mo  Mo181  1  0.50406494  0.89944518  0.37671911  1
  Mo  Mo182  1  0.19958254  0.20855236  0.50411936  1
  Mo  Mo183  1  0.69286853  0.09380772  0.60516835  1
  Mo  Mo184  1  0.70362189  0.29906663  0.62400512  1
  Mo  Mo185  1  0.69938708  0.69319074  0.89584250  1
  Mo  Mo186  1  0.20414494  0.00058969  0.24608558  1
  Mo  Mo187  1  0.29277179  0.30402344  0.11389339  1
  Mo  Mo188  1  0.29172058  0.50106024  0.63439191  1
  Mo  Mo189  1  0.70248812  0.30249943  0.14933027  1
  Mo  Mo190  1  -0.00226339  0.80715084  0.74710245  1
  Mo  Mo191  1  0.39444739  0.00502579  0.75807807  1
  Mo  Mo192  1  0.90325897  0.89729481  0.11446358  1
  Mo  Mo193  1  0.69840698  0.09317433  0.12285193  1
  Mo  Mo194  1  -0.00094372  0.80462039  0.02067287  1
  Mo  Mo195  1  0.51210497  0.31815283  0.14191080  1
  Mo  Mo196  1  0.59744398  0.39832630  -0.00006368  1
  Mo  Mo197  1  0.10052851  0.50645596  0.88151783  1
  Mo  Mo198  1  0.19303813  -0.00160630  0.74305559  1
  Mo  Mo199  1  0.90224558  0.49515376  0.37357412  1
