# generated using pymatgen
data_HfZrTaTiMo
_symmetry_space_group_name_H-M   'P 1'
_cell_length_a   15.83767785
_cell_length_b   15.83816912
_cell_length_c   15.41425441
_cell_angle_alpha   90.01501688
_cell_angle_beta   90.03617076
_cell_angle_gamma   90.02587306
_symmetry_Int_Tables_number   1
_chemical_formula_structural   HfZrTaTiMo
_chemical_formula_sum   'Hf40 Zr40 Ta40 Ti40 Mo40'
_cell_volume   3866.50750930
_cell_formula_units_Z   40
loop_
 _symmetry_equiv_pos_site_id
 _symmetry_equiv_pos_as_xyz
  1  'x, y, z'
loop_
 _atom_site_type_symbol
 _atom_site_label
 _atom_site_symmetry_multiplicity
 _atom_site_fract_x
 _atom_site_fract_y
 _atom_site_fract_z
 _atom_site_occupancy
  Hf  Hf0  1  0.39920852  0.61629286  -0.00513344  1
  Hf  Hf1  1  0.09050395  0.51886972  0.61082701  1
  Hf  Hf2  1  0.10161913  0.49587244  0.13804849  1
  Hf  Hf3  1  0.40279663  0.00439293  0.24813217  1
  Hf  Hf4  1  0.19057593  0.79531488  0.48292545  1
  Hf  Hf5  1  0.10533552  0.29969561  0.60869583  1
  Hf  Hf6  1  0.70719443  0.09821080  0.85993371  1
  Hf  Hf7  1  0.60088782  0.20539429  0.51176995  1
  Hf  Hf8  1  0.12366557  0.50530382  0.37326458  1
  Hf  Hf9  1  0.59596159  0.40714824  0.50832433  1
  Hf  Hf10  1  0.38595046  0.21438784  0.25672409  1
  Hf  Hf11  1  0.59487759  0.20347601  0.26539732  1
  Hf  Hf12  1  0.59228636  0.40658544  0.26911166  1
  Hf  Hf13  1  0.11298811  0.71834982  0.87727705  1
  Hf  Hf14  1  0.50678554  0.51228040  0.86237439  1
  Hf  Hf15  1  0.89510338  0.89260288  0.37385879  1
  Hf  Hf16  1  0.79609488  0.79522630  0.24520091  1
  Hf  Hf17  1  0.71227911  0.29926559  0.85657421  1
  Hf  Hf18  1  0.00477024  0.82616557  0.75815500  1
  Hf  Hf19  1  0.29344469  0.09685645  0.87926709  1
  Hf  Hf20  1  0.41137631  0.61148580  0.51637690  1
  Hf  Hf21  1  0.39312723  0.79954284  0.49682733  1
  Hf  Hf22  1  0.19941226  0.00260257  0.02430270  1
  Hf  Hf23  1  0.89771632  0.11431843  0.14527876  1
  Hf  Hf24  1  0.70204815  0.09300542  0.38420792  1
  Hf  Hf25  1  0.49599030  0.09940412  0.38607016  1
  Hf  Hf26  1  0.40127885  0.20621067  0.51445880  1
  Hf  Hf27  1  0.79457889  -0.00678049  0.24455081  1
  Hf  Hf28  1  0.38193158  -0.00553669  0.74419439  1
  Hf  Hf29  1  0.49763180  0.09481392  0.63068872  1
  Hf  Hf30  1  0.40645926  0.19240257  -0.00939380  1
  Hf  Hf31  1  -0.00836322  -0.00350165  0.03081089  1
  Hf  Hf32  1  0.58623421  0.79711947  -0.01582338  1
  Hf  Hf33  1  0.60269916  -0.01696430  0.49918104  1
  Hf  Hf34  1  0.59958649  0.20390924  -0.01779374  1
  Hf  Hf35  1  0.70721491  0.89986901  0.86943095  1
  Hf  Hf36  1  0.92347032  0.89356346  0.59776012  1
  Hf  Hf37  1  0.27772352  0.30401697  0.40639184  1
  Hf  Hf38  1  0.89934314  0.31019381  0.13751324  1
  Hf  Hf39  1  -0.00006587  0.60303952  -0.00807586  1
  Zr  Zr40  1  0.28703055  0.29441357  0.10192777  1
  Zr  Zr41  1  0.90665054  0.08859619  0.87621767  1
  Zr  Zr42  1  0.90404881  0.69193269  0.60208260  1
  Zr  Zr43  1  0.69901446  0.30231122  0.12242258  1
  Zr  Zr44  1  0.79243027  0.40621931  0.27293092  1
  Zr  Zr45  1  0.49504944  0.88975760  0.63854324  1
  Zr  Zr46  1  0.09753290  0.30732363  0.12582757  1
  Zr  Zr47  1  0.60630616  0.60077212  0.23652762  1
  Zr  Zr48  1  0.29652110  0.68765014  0.35911085  1
  Zr  Zr49  1  -0.00626885  0.61073975  0.76377196  1
  Zr  Zr50  1  0.40419829  0.59323242  0.23270887  1
  Zr  Zr51  1  0.19995288  0.59971197  0.00454498  1
  Zr  Zr52  1  0.90006677  0.51541790  0.38472382  1
  Zr  Zr53  1  0.80798569  0.59350643  -0.00813818  1
  Zr  Zr54  1  0.28992308  0.89695527  0.88536733  1
  Zr  Zr55  1  0.31782572  0.49258056  0.37870479  1
  Zr  Zr56  1  0.29331446  0.49620032  0.87044265  1
  Zr  Zr57  1  0.81951865  0.19850048  0.71866662  1
  Zr  Zr58  1  0.19507857  0.61081291  0.75117984  1
  Zr  Zr59  1  0.59480974  0.78708499  0.50426483  1
  Zr  Zr60  1  0.49544980  0.30389584  0.12379395  1
  Zr  Zr61  1  0.69303573  0.68687986  0.86206040  1
  Zr  Zr62  1  0.58592261  0.00251570  -0.01204730  1
  Zr  Zr63  1  0.70714048  0.49198242  0.11538083  1
  Zr  Zr64  1  0.09541756  0.91154392  0.89577175  1
  Zr  Zr65  1  0.90315019  0.29754424  0.86864044  1
  Zr  Zr66  1  0.10451187  0.30435266  0.87137716  1
  Zr  Zr67  1  0.81171692  0.79566236  0.00218338  1
  Zr  Zr68  1  0.69535899  0.69019779  0.37921419  1
  Zr  Zr69  1  0.19434150  0.18628019  0.73965006  1
  Zr  Zr70  1  -0.02117195  0.40902051  0.73008490  1
  Zr  Zr71  1  0.50005286  0.48965970  0.10787275  1
  Zr  Zr72  1  0.00079966  0.20220684  0.00301476  1
  Zr  Zr73  1  0.82822673  -0.01076909  0.73556574  1
  Zr  Zr74  1  0.30007235  0.50067360  0.63290871  1
  Zr  Zr75  1  0.80339926  0.39828266  0.51491206  1
  Zr  Zr76  1  0.81769719  0.78503459  0.75468929  1
  Zr  Zr77  1  0.29226259  0.09969709  0.38539225  1
  Zr  Zr78  1  0.68999301  0.10401311  0.12841953  1
  Zr  Zr79  1  0.10956404  0.11798112  0.14697623  1
  Ta  Ta80  1  0.20401527  0.79248390  0.02786801  1
  Ta  Ta81  1  0.59929886  -0.00836525  0.25629372  1
  Ta  Ta82  1  -0.00146456  0.00078004  0.25539059  1
  Ta  Ta83  1  0.00554995  0.40484466  0.49239003  1
  Ta  Ta84  1  0.00864791  -0.00013634  0.47072711  1
  Ta  Ta85  1  0.10374713  0.89720656  0.35434343  1
  Ta  Ta86  1  0.60577276  0.40100895  0.75275523  1
  Ta  Ta87  1  0.49675950  0.69897507  0.36468440  1
  Ta  Ta88  1  0.40265332  0.39462143  -0.02630960  1
  Ta  Ta89  1  0.31002032  0.89470386  0.13222445  1
  Ta  Ta90  1  0.09218230  0.08470240  0.60839590  1
  Ta  Ta91  1  0.09780160  0.72525578  0.62522886  1
  Ta  Ta92  1  0.90367568  0.29535875  0.38556684  1
  Ta  Ta93  1  0.70028928  0.08720380  0.62653659  1
  Ta  Ta94  1  0.69054562  0.89596082  0.11666359  1
  Ta  Ta95  1  0.79656470  0.20512299  0.27072121  1
  Ta  Ta96  1  0.81122445  0.57921707  0.75153297  1
  Ta  Ta97  1  0.60454292  0.40064385  -0.02936799  1
  Ta  Ta98  1  0.30075108  0.29627170  0.86035394  1
  Ta  Ta99  1  0.09548303  0.89148306  0.14386464  1
  Ta  Ta100  1  0.09883342  0.09893372  0.87655040  1
  Ta  Ta101  1  0.30127377  0.48355234  0.11499226  1
  Ta  Ta102  1  0.00622829  0.39707206  0.27578738  1
  Ta  Ta103  1  0.79994279  0.19754623  0.00119847  1
  Ta  Ta104  1  0.80096593  -0.00303161  0.01347586  1
  Ta  Ta105  1  0.60005215  0.80503345  0.24988655  1
  Ta  Ta106  1  0.30168358  0.89813332  0.36027159  1
  Ta  Ta107  1  0.59884567  0.60310977  0.00004023  1
  Ta  Ta108  1  0.30064642  0.30145884  0.63656156  1
  Ta  Ta109  1  0.20643681  0.79372447  0.24294633  1
  Ta  Ta110  1  0.49773287  0.90178220  0.12546010  1
  Ta  Ta111  1  0.29074476  0.09287217  0.61292540  1
  Ta  Ta112  1  0.70224212  0.88949334  0.63738900  1
  Ta  Ta113  1  0.80401228  0.60244263  0.25052751  1
  Ta  Ta114  1  0.69871957  0.50371101  0.63410243  1
  Ta  Ta115  1  0.80230635  0.19382142  0.50560374  1
  Ta  Ta116  1  0.50113387  0.50363354  0.64572673  1
  Ta  Ta117  1  0.49241926  0.09707530  0.85361341  1
  Ta  Ta118  1  0.90987583  0.50021535  0.13992340  1
  Ta  Ta119  1  0.09607228  0.69345383  0.14385918  1
  Ti  Ti120  1  0.49408419  0.71497668  0.12962562  1
  Ti  Ti121  1  0.80103459  -0.00486068  0.50531374  1
  Ti  Ti122  1  0.01725397  0.62375325  0.47580364  1
  Ti  Ti123  1  0.91072117  0.69449985  0.14082901  1
  Ti  Ti124  1  0.20402208  0.00226053  0.24767574  1
  Ti  Ti125  1  0.00101769  0.19640006  0.49331387  1
  Ti  Ti126  1  0.49823817  0.10092875  0.12826425  1
  Ti  Ti127  1  0.39568711  0.79887798  0.76995497  1
  Ti  Ti128  1  0.10593906  0.11569062  0.36850660  1
  Ti  Ti129  1  0.29684680  0.71341547  0.63879492  1
  Ti  Ti130  1  0.69784409  0.70046029  0.11760081  1
  Ti  Ti131  1  0.79045558  0.80018403  0.49582107  1
  Ti  Ti132  1  0.18726895  0.40652546  0.74468546  1
  Ti  Ti133  1  -0.00004029  0.18613290  0.72880922  1
  Ti  Ti134  1  -0.00207663  0.79836821  0.01165948  1
  Ti  Ti135  1  0.70091601  0.30101483  0.63390864  1
  Ti  Ti136  1  0.39561031  0.61252533  0.75931655  1
  Ti  Ti137  1  0.39843647  0.80367295  -0.00893064  1
  Ti  Ti138  1  0.19608237  -0.00853613  0.48964585  1
  Ti  Ti139  1  0.20778971  0.61141436  0.50793787  1
  Ti  Ti140  1  0.39608172  -0.01119414  0.50178724  1
  Ti  Ti141  1  -0.00069819  0.41430638  -0.00976500  1
  Ti  Ti142  1  0.49726019  0.89274783  0.36789694  1
  Ti  Ti143  1  0.28346102  0.89517943  0.62165321  1
  Ti  Ti144  1  0.60138515  0.19536728  0.74226006  1
  Ti  Ti145  1  0.21255978  0.38805999  0.25380208  1
  Ti  Ti146  1  0.50734187  0.70008332  0.65420868  1
  Ti  Ti147  1  0.69832364  0.30196492  0.38966863  1
  Ti  Ti148  1  0.50846713  0.51493492  0.38844128  1
  Ti  Ti149  1  0.49412696  0.29486641  0.85044493  1
  Ti  Ti150  1  0.17996089  -0.01231830  0.74010651  1
  Ti  Ti151  1  0.80701657  0.39924233  -0.00943304  1
  Ti  Ti152  1  0.40393411  0.40540690  0.52007059  1
  Ti  Ti153  1  0.48148087  0.31557429  0.38050357  1
  Ti  Ti154  1  0.49341900  0.30622393  0.64916325  1
  Ti  Ti155  1  0.78396621  0.59829079  0.50396540  1
  Ti  Ti156  1  0.90006757  0.10120927  0.37416898  1
  Ti  Ti157  1  0.30443481  0.10531098  0.12364047  1
  Ti  Ti158  1  0.59670144  -0.01016162  0.75314114  1
  Ti  Ti159  1  0.69714437  0.69718405  0.63683151  1
  Mo  Mo160  1  0.91087373  0.29398522  0.60062866  1
  Mo  Mo161  1  0.20234949  0.41001570  0.52079580  1
  Mo  Mo162  1  0.00785743  0.00835689  0.74452187  1
  Mo  Mo163  1  0.19937716  0.20722589  0.26222547  1
  Mo  Mo164  1  0.20223679  0.19873333  -0.01739761  1
  Mo  Mo165  1  0.49536901  0.70433668  0.86389196  1
  Mo  Mo166  1  0.69519117  0.89587834  0.37375435  1
  Mo  Mo167  1  0.29883263  0.70839805  0.87228568  1
  Mo  Mo168  1  0.30408333  0.69940870  0.13174190  1
  Mo  Mo169  1  0.09668744  0.49599195  0.87602256  1
  Mo  Mo170  1  -0.00178466  0.79515989  0.25443815  1
  Mo  Mo171  1  0.59950659  0.80202140  0.75705188  1
  Mo  Mo172  1  0.20691300  0.59085693  0.22951627  1
  Mo  Mo173  1  0.69187892  0.50384361  0.39484183  1
  Mo  Mo174  1  0.19638166  0.40175266  -0.01524097  1
  Mo  Mo175  1  0.89978065  0.89638379  0.13445771  1
  Mo  Mo176  1  0.40102760  -0.00085966  0.01527039  1
  Mo  Mo177  1  0.39569370  0.39766318  0.25604804  1
  Mo  Mo178  1  0.20320917  0.81024458  0.74039335  1
  Mo  Mo179  1  0.19589859  0.19189870  0.51386757  1
  Mo  Mo180  1  0.90775601  0.09155152  0.59432038  1
  Mo  Mo181  1  0.40658620  0.80267308  0.25462166  1
  Mo  Mo182  1  0.49231561  0.90554457  0.86732475  1
  Mo  Mo183  1  0.70496895  0.49222723  0.86490494  1
  Mo  Mo184  1  0.00585126  0.79839284  0.47121932  1
  Mo  Mo185  1  0.09959377  0.30216394  0.38714312  1
  Mo  Mo186  1  0.00003882  0.59768421  0.26122594  1
  Mo  Mo187  1  0.89661711  0.70123015  0.38049953  1
  Mo  Mo188  1  0.10048013  0.69734304  0.34862379  1
  Mo  Mo189  1  0.40145333  0.39742983  0.75601403  1
  Mo  Mo190  1  0.39646813  0.19596205  0.73900685  1
  Mo  Mo191  1  0.90119243  0.51041348  0.60090521  1
  Mo  Mo192  1  0.90247598  0.90063584  0.89675055  1
  Mo  Mo193  1  0.80243239  0.40014000  0.72922590  1
  Mo  Mo194  1  0.90734129  0.70334742  0.87713690  1
  Mo  Mo195  1  0.89836028  0.49362851  0.87944005  1
  Mo  Mo196  1  0.59600293  0.60103173  0.52370651  1
  Mo  Mo197  1  -0.00227967  0.20636557  0.27579280  1
  Mo  Mo198  1  0.60512555  0.60117324  0.74134509  1
  Mo  Mo199  1  0.10440674  0.90362451  0.60450352  1
