# generated using pymatgen
data_HfZrTaTiMo
_symmetry_space_group_name_H-M   'P 1'
_cell_length_a   15.82608796
_cell_length_b   15.84225679
_cell_length_c   15.38683633
_cell_angle_alpha   90.05483732
_cell_angle_beta   89.98587020
_cell_angle_gamma   90.08777840
_symmetry_Int_Tables_number   1
_chemical_formula_structural   HfZrTaTiMo
_chemical_formula_sum   'Hf40 Zr40 Ta40 Ti40 Mo40'
_cell_volume   3857.79580420
_cell_formula_units_Z   40
loop_
 _symmetry_equiv_pos_site_id
 _symmetry_equiv_pos_as_xyz
  1  'x, y, z'
loop_
 _atom_site_type_symbol
 _atom_site_label
 _atom_site_symmetry_multiplicity
 _atom_site_fract_x
 _atom_site_fract_y
 _atom_site_fract_z
 _atom_site_occupancy
  Hf  Hf0  1  0.00461929  0.80683441  0.50915212  1
  Hf  Hf1  1  0.31737141  0.90823690  0.88461107  1
  Hf  Hf2  1  0.40204922  0.59949871  0.49978126  1
  Hf  Hf3  1  -0.00663966  -0.00874300  0.00133954  1
  Hf  Hf4  1  0.00891922  0.40391881  0.25531927  1
  Hf  Hf5  1  0.39403304  0.38961322  0.01847731  1
  Hf  Hf6  1  0.08762037  0.88296693  0.85661930  1
  Hf  Hf7  1  0.10497757  0.71004020  0.36170374  1
  Hf  Hf8  1  0.58774311  0.18749155  0.24522785  1
  Hf  Hf9  1  0.49166653  0.09532941  0.87964358  1
  Hf  Hf10  1  0.29535346  0.11069436  0.10530609  1
  Hf  Hf11  1  0.41018194  0.00601184  0.23650203  1
  Hf  Hf12  1  0.89524301  0.69948667  0.37428914  1
  Hf  Hf13  1  0.79091677  0.80597134  0.50644466  1
  Hf  Hf14  1  0.00799504  0.59446154  0.48859724  1
  Hf  Hf15  1  0.89842724  0.08970300  0.36991197  1
  Hf  Hf16  1  0.59225984  0.61531616  0.23787179  1
  Hf  Hf17  1  0.19953557  0.40935076  0.48216658  1
  Hf  Hf18  1  0.59745932  0.19370402  0.50346555  1
  Hf  Hf19  1  0.29691789  0.69261288  0.13046161  1
  Hf  Hf20  1  0.19625316  0.20142811  0.75774491  1
  Hf  Hf21  1  0.69294964  0.09918862  0.87319199  1
  Hf  Hf22  1  0.79078451  0.18811799  0.50002761  1
  Hf  Hf23  1  0.10146635  0.11096587  0.12535443  1
  Hf  Hf24  1  0.00242288  0.59256496  0.25412376  1
  Hf  Hf25  1  0.70016160  0.30724236  0.37085218  1
  Hf  Hf26  1  0.79176498  -0.01512336  0.00427486  1
  Hf  Hf27  1  0.78885653  -0.00746865  0.23994044  1
  Hf  Hf28  1  0.88724049  0.10329398  0.87691893  1
  Hf  Hf29  1  0.10373249  0.69859730  0.63804277  1
  Hf  Hf30  1  0.89954801  0.90163400  0.36902885  1
  Hf  Hf31  1  0.19672450  0.79009310  -0.00672354  1
  Hf  Hf32  1  0.60615622  0.60722237  0.73987747  1
  Hf  Hf33  1  0.20077847  0.80992312  0.50457309  1
  Hf  Hf34  1  0.38431791  0.19848596  0.25249493  1
  Hf  Hf35  1  0.39562754  0.20352892  0.75126719  1
  Hf  Hf36  1  0.70707710  0.50040881  0.12609223  1
  Hf  Hf37  1  0.90436016  0.69466808  0.63000402  1
  Hf  Hf38  1  0.41680297  0.79864618  0.24648323  1
  Hf  Hf39  1  0.89725942  0.10542179  0.12581030  1
  Zr  Zr40  1  0.21463786  0.41407817  0.25124627  1
  Zr  Zr41  1  0.80718217  0.60658064  -0.00173280  1
  Zr  Zr42  1  -0.00387686  0.79560126  0.00785060  1
  Zr  Zr43  1  0.29860874  0.91204457  0.36443304  1
  Zr  Zr44  1  0.20736596  0.19267895  0.48226943  1
  Zr  Zr45  1  0.90241729  0.30369290  0.14196651  1
  Zr  Zr46  1  0.30969018  0.49282572  0.88638360  1
  Zr  Zr47  1  0.00861789  0.18879876  0.49848985  1
  Zr  Zr48  1  0.69629158  0.29189264  0.86245890  1
  Zr  Zr49  1  0.69168195  0.70280577  0.37635819  1
  Zr  Zr50  1  0.49977082  0.49433515  0.38082688  1
  Zr  Zr51  1  0.00737630  -0.00722277  0.51736732  1
  Zr  Zr52  1  0.80829560  0.38652169  0.00025022  1
  Zr  Zr53  1  0.20104292  0.60135855  0.77552627  1
  Zr  Zr54  1  0.09825154  0.10006665  0.87934015  1
  Zr  Zr55  1  0.89719358  0.29981433  0.37612851  1
  Zr  Zr56  1  0.59377055  0.20290092  0.01430625  1
  Zr  Zr57  1  0.79975217  0.59304734  0.74715472  1
  Zr  Zr58  1  0.09631436  0.49788909  0.62554345  1
  Zr  Zr59  1  0.40212472  0.61253965  0.74845061  1
  Zr  Zr60  1  0.69938699  0.49834916  0.87894316  1
  Zr  Zr61  1  -0.00061579  0.21948832  -0.00565153  1
  Zr  Zr62  1  0.50404403  0.50338018  0.88250568  1
  Zr  Zr63  1  0.39078656  0.58742776  0.25143308  1
  Zr  Zr64  1  0.10121408  0.30329926  0.61649029  1
  Zr  Zr65  1  0.20205512  0.39295088  0.76539467  1
  Zr  Zr66  1  0.78937456  0.59544004  0.51255844  1
  Zr  Zr67  1  0.69556202  0.49573042  0.37245867  1
  Zr  Zr68  1  0.90106729  0.30244741  0.61164582  1
  Zr  Zr69  1  0.59548459  0.39214795  0.01254916  1
  Zr  Zr70  1  0.29713530  0.50412609  0.62262023  1
  Zr  Zr71  1  0.90733313  0.70836699  0.86355574  1
  Zr  Zr72  1  0.51258336  0.72247057  0.62248695  1
  Zr  Zr73  1  0.30473152  0.10280915  0.62361293  1
  Zr  Zr74  1  0.21848998  0.79730218  0.75562183  1
  Zr  Zr75  1  0.10559815  0.08480143  0.35808085  1
  Zr  Zr76  1  0.50016044  0.30387537  0.37856354  1
  Zr  Zr77  1  0.40200757  0.81006598  0.49358058  1
  Zr  Zr78  1  0.19376074  -0.00775440  -0.00123934  1
  Zr  Zr79  1  -0.00081548  0.00171696  0.73981393  1
  Ta  Ta80  1  -0.00236092  0.20358877  0.74783053  1
  Ta  Ta81  1  0.90577969  0.48803247  0.61466108  1
  Ta  Ta82  1  0.30095182  0.70153421  0.36588886  1
  Ta  Ta83  1  0.59594538  0.40428742  0.73569962  1
  Ta  Ta84  1  0.69595212  0.29734723  0.62906821  1
  Ta  Ta85  1  0.30190581  0.89879596  0.12124335  1
  Ta  Ta86  1  0.68685853  0.08027772  0.37615340  1
  Ta  Ta87  1  0.30319230  0.10229703  0.88460569  1
  Ta  Ta88  1  0.58888310  -0.00476881  0.75389313  1
  Ta  Ta89  1  0.90006510  0.69607781  0.13012187  1
  Ta  Ta90  1  0.59209511  0.40010787  0.23354482  1
  Ta  Ta91  1  0.50149656  0.09669387  0.63056807  1
  Ta  Ta92  1  0.49727404  0.30186357  0.86208786  1
  Ta  Ta93  1  0.79367172  0.79703182  0.24143633  1
  Ta  Ta94  1  0.19982833  0.60223038  -0.00972142  1
  Ta  Ta95  1  0.79946554  0.19671179  0.73781727  1
  Ta  Ta96  1  0.89143931  0.09556036  0.62573664  1
  Ta  Ta97  1  0.10702722  0.50095791  0.11136771  1
  Ta  Ta98  1  -0.00298586  0.39664736  0.76545917  1
  Ta  Ta99  1  0.49573255  0.50736885  0.11935072  1
  Ta  Ta100  1  0.80293288  0.59723806  0.24715571  1
  Ta  Ta101  1  0.30427146  0.30434537  0.61149992  1
  Ta  Ta102  1  0.20030721  -0.00448629  0.51913241  1
  Ta  Ta103  1  0.60740665  0.80242725  0.00311252  1
  Ta  Ta104  1  0.10210218  0.69398637  0.13609192  1
  Ta  Ta105  1  0.80200536  0.39956753  0.74175281  1
  Ta  Ta106  1  0.40427429  0.40071216  0.73822904  1
  Ta  Ta107  1  0.50424997  0.90072373  0.88588197  1
  Ta  Ta108  1  0.40896136  -0.00480523  0.50542075  1
  Ta  Ta109  1  0.10127231  0.90068130  0.13930510  1
  Ta  Ta110  1  0.70788470  0.29519148  0.14246529  1
  Ta  Ta111  1  0.20416182  0.60644939  0.48242685  1
  Ta  Ta112  1  0.68203953  0.89492191  0.64088128  1
  Ta  Ta113  1  0.50213263  0.70843837  0.88387106  1
  Ta  Ta114  1  0.69790081  0.89479876  0.86910619  1
  Ta  Ta115  1  0.89063457  0.48838462  0.38380744  1
  Ta  Ta116  1  0.21117126  0.01060452  0.23730147  1
  Ta  Ta117  1  0.59768353  0.83238738  0.48522567  1
  Ta  Ta118  1  0.20727644  -0.00173471  0.74307894  1
  Ta  Ta119  1  -0.00454445  0.80115464  0.24290544  1
  Ti  Ti120  1  0.40280534  0.20866001  0.00475818  1
  Ti  Ti121  1  0.09522902  0.49032078  0.89348569  1
  Ti  Ti122  1  0.59765533  0.61015858  0.00862624  1
  Ti  Ti123  1  0.88953342  0.89794940  0.63570934  1
  Ti  Ti124  1  0.50170580  0.89779793  0.11030834  1
  Ti  Ti125  1  0.10594019  0.29848717  0.36734367  1
  Ti  Ti126  1  0.60339337  0.81293597  0.24451645  1
  Ti  Ti127  1  0.90461831  0.49362207  0.88230391  1
  Ti  Ti128  1  0.40331942  0.79473435  0.00781931  1
  Ti  Ti129  1  0.11605127  0.30339419  0.12111285  1
  Ti  Ti130  1  0.39873309  0.60597810  0.00500338  1
  Ti  Ti131  1  0.49824382  0.29706687  0.62562637  1
  Ti  Ti132  1  0.31224895  0.30996460  0.38220791  1
  Ti  Ti133  1  0.79258006  -0.00244894  0.74926398  1
  Ti  Ti134  1  0.89604899  0.89277482  0.12968568  1
  Ti  Ti135  1  0.78420924  0.79103802  0.73846117  1
  Ti  Ti136  1  0.89542090  0.29728191  0.86837906  1
  Ti  Ti137  1  0.00854944  0.20007599  0.25319576  1
  Ti  Ti138  1  0.70140062  0.70744821  0.88331762  1
  Ti  Ti139  1  0.00274416  0.58957924  0.76030422  1
  Ti  Ti140  1  0.69223316  0.09454462  0.63569364  1
  Ti  Ti141  1  0.40288557  0.19659382  0.49522291  1
  Ti  Ti142  1  0.70436599  0.70802895  0.11981248  1
  Ti  Ti143  1  0.00808719  0.60321669  -0.00223992  1
  Ti  Ti144  1  0.90867611  0.49968951  0.11940939  1
  Ti  Ti145  1  0.78157340  -0.00899672  0.50678220  1
  Ti  Ti146  1  0.60057164  0.40748219  0.52204475  1
  Ti  Ti147  1  0.50385036  0.70560936  0.38218512  1
  Ti  Ti148  1  0.49745067  0.08704563  0.38338129  1
  Ti  Ti149  1  0.39798890  0.39706957  0.23133376  1
  Ti  Ti150  1  0.59987017  0.60295642  0.51662335  1
  Ti  Ti151  1  0.09858101  0.90556708  0.35503149  1
  Ti  Ti152  1  0.79100706  0.19157194  0.25951044  1
  Ti  Ti153  1  0.70147070  0.10244988  0.11734589  1
  Ti  Ti154  1  0.88748874  0.89148627  0.86286390  1
  Ti  Ti155  1  0.20516230  0.80474802  0.24379315  1
  Ti  Ti156  1  0.59771697  -0.00165101  0.00716251  1
  Ti  Ti157  1  0.30348532  0.70608994  0.61830401  1
  Ti  Ti158  1  0.41171526  0.81373024  0.74983313  1
  Ti  Ti159  1  0.59796774  -0.00454519  0.23213542  1
  Mo  Mo160  1  -0.00114893  -0.00356008  0.23353701  1
  Mo  Mo161  1  -0.00885303  0.80057437  0.73347070  1
  Mo  Mo162  1  0.49743411  0.09743177  0.11186360  1
  Mo  Mo163  1  0.00023284  0.39959205  0.47662869  1
  Mo  Mo164  1  0.40600801  -0.00190137  0.01502025  1
  Mo  Mo165  1  0.69742497  0.71032690  0.61654790  1
  Mo  Mo166  1  0.49503812  0.29737645  0.14267668  1
  Mo  Mo167  1  0.29265869  0.50220693  0.10825691  1
  Mo  Mo168  1  0.10718316  0.89698213  0.64097229  1
  Mo  Mo169  1  0.20055367  0.20746762  0.26153767  1
  Mo  Mo170  1  0.40493401  0.39578150  0.51725725  1
  Mo  Mo171  1  0.09713654  0.69214466  0.86749199  1
  Mo  Mo172  1  0.60165825  0.00379414  0.51267594  1
  Mo  Mo173  1  0.50184160  0.50025492  0.62201324  1
  Mo  Mo174  1  0.69958051  0.90505100  0.36262807  1
  Mo  Mo175  1  0.80160239  0.40768102  0.24167809  1
  Mo  Mo176  1  0.70092006  0.49506163  0.62626154  1
  Mo  Mo177  1  0.30826357  0.90157161  0.62954542  1
  Mo  Mo178  1  0.59519958  0.19908992  0.73811612  1
  Mo  Mo179  1  0.31516395  0.70391205  0.89145698  1
  Mo  Mo180  1  0.29048942  0.29711304  0.12285832  1
  Mo  Mo181  1  0.51280448  0.91353216  0.36065441  1
  Mo  Mo182  1  0.39850459  -0.00223030  0.74704367  1
  Mo  Mo183  1  0.19684435  0.39686666  0.00225562  1
  Mo  Mo184  1  0.79265776  0.39653484  0.51592893  1
  Mo  Mo185  1  0.09607079  0.30414938  0.87731454  1
  Mo  Mo186  1  0.79392492  0.19619510  0.00854755  1
  Mo  Mo187  1  0.49865800  0.90816443  0.63803827  1
  Mo  Mo188  1  0.50211289  0.70282002  0.10924648  1
  Mo  Mo189  1  0.30675820  0.50047033  0.38650623  1
  Mo  Mo190  1  0.10025765  0.50317279  0.37484095  1
  Mo  Mo191  1  0.79814900  0.80015801  0.00780887  1
  Mo  Mo192  1  0.20587154  0.21371477  -0.01750463  1
  Mo  Mo193  1  0.59964078  0.79904482  0.77258586  1
  Mo  Mo194  1  0.30595044  0.29449483  0.88248573  1
  Mo  Mo195  1  0.30872578  0.09639821  0.38728946  1
  Mo  Mo196  1  0.19867438  0.60160357  0.26027569  1
  Mo  Mo197  1  0.00033606  0.40682377  -0.00375965  1
  Mo  Mo198  1  0.69511393  0.89590456  0.12275789  1
  Mo  Mo199  1  0.09991339  0.09906218  0.63615278  1
