# generated using pymatgen
data_HfZrTaTiMo
_symmetry_space_group_name_H-M   'P 1'
_cell_length_a   15.84470068
_cell_length_b   15.83595098
_cell_length_c   15.39666314
_cell_angle_alpha   90.00967568
_cell_angle_beta   90.05895964
_cell_angle_gamma   89.96730683
_symmetry_Int_Tables_number   1
_chemical_formula_structural   HfZrTaTiMo
_chemical_formula_sum   'Hf40 Zr40 Ta40 Ti40 Mo40'
_cell_volume   3863.26491139
_cell_formula_units_Z   40
loop_
 _symmetry_equiv_pos_site_id
 _symmetry_equiv_pos_as_xyz
  1  'x, y, z'
loop_
 _atom_site_type_symbol
 _atom_site_label
 _atom_site_symmetry_multiplicity
 _atom_site_fract_x
 _atom_site_fract_y
 _atom_site_fract_z
 _atom_site_occupancy
  Hf  Hf0  1  0.79986584  0.39685250  -0.02075119  1
  Hf  Hf1  1  0.09506023  0.50382034  0.11618678  1
  Hf  Hf2  1  -0.00452051  0.19726744  -0.01022648  1
  Hf  Hf3  1  0.89126977  0.89835654  0.86419549  1
  Hf  Hf4  1  0.30799393  0.30270979  0.36165986  1
  Hf  Hf5  1  0.20340702  0.60203865  0.00203193  1
  Hf  Hf6  1  0.59630022  0.00880603  0.24194570  1
  Hf  Hf7  1  0.40943182  0.19220505  0.76276606  1
  Hf  Hf8  1  0.59905700  0.41690178  0.48916295  1
  Hf  Hf9  1  0.09924613  0.70214950  0.12335383  1
  Hf  Hf10  1  0.08686680  0.10270120  0.37403464  1
  Hf  Hf11  1  0.41583751  0.20397880  0.22638444  1
  Hf  Hf12  1  0.29569541  0.89790746  0.12842163  1
  Hf  Hf13  1  0.60020822  0.20465335  0.22678570  1
  Hf  Hf14  1  0.30936882  0.70428173  0.13086317  1
  Hf  Hf15  1  0.40933184  0.59732761  0.49998393  1
  Hf  Hf16  1  0.68991528  0.48689216  0.11494866  1
  Hf  Hf17  1  -0.00640800  0.41066278  0.24648174  1
  Hf  Hf18  1  0.29935922  0.49604169  0.63729620  1
  Hf  Hf19  1  0.70672513  0.10314941  0.37447674  1
  Hf  Hf20  1  0.60204734  0.79534368  0.48588751  1
  Hf  Hf21  1  0.90036407  0.69436078  0.36324901  1
  Hf  Hf22  1  0.79976720  0.19896515  0.23662726  1
  Hf  Hf23  1  0.30878580  0.09189756  0.11779061  1
  Hf  Hf24  1  0.59639611  -0.00615524  0.48847043  1
  Hf  Hf25  1  0.10919432  0.29810856  0.64210718  1
  Hf  Hf26  1  0.70189095  0.89794656  0.12561568  1
  Hf  Hf27  1  0.40272081  0.39643462  0.49718592  1
  Hf  Hf28  1  0.10319764  0.31231239  0.10433860  1
  Hf  Hf29  1  0.20130274  0.79805532  0.26777105  1
  Hf  Hf30  1  0.20423681  0.78117503  0.73177245  1
  Hf  Hf31  1  0.31467214  0.70571924  0.88722628  1
  Hf  Hf32  1  0.80544221  0.59505654  -0.00602760  1
  Hf  Hf33  1  0.19701477  0.20723853  0.23268808  1
  Hf  Hf34  1  -0.02000743  0.80070862  0.50951534  1
  Hf  Hf35  1  0.90327804  0.29381152  0.38338249  1
  Hf  Hf36  1  0.09317941  0.68516954  0.38642897  1
  Hf  Hf37  1  0.50680263  0.09600371  0.89509281  1
  Hf  Hf38  1  0.50295462  0.30225835  0.63870283  1
  Hf  Hf39  1  0.00058710  0.41146777  0.52206522  1
  Zr  Zr40  1  0.57852878  0.78667752  0.01689214  1
  Zr  Zr41  1  0.41594710  0.21575368  0.00390099  1
  Zr  Zr42  1  0.40766080  0.79638670  0.73421508  1
  Zr  Zr43  1  0.70206038  0.29986181  0.37607518  1
  Zr  Zr44  1  0.20102560  0.40295002  0.50388016  1
  Zr  Zr45  1  -0.00448292  0.79030461  0.74912368  1
  Zr  Zr46  1  0.00158103  0.60065882  0.74142713  1
  Zr  Zr47  1  0.20294572  0.00840516  0.51082245  1
  Zr  Zr48  1  0.70734934  0.68832186  0.35919171  1
  Zr  Zr49  1  0.80242031  -0.01138538  0.49919665  1
  Zr  Zr50  1  0.08544100  0.90918910  0.39431823  1
  Zr  Zr51  1  0.40539509  0.80518733  0.48901013  1
  Zr  Zr52  1  0.59329442  0.79429817  0.25503005  1
  Zr  Zr53  1  0.80396826  0.40717078  0.50441021  1
  Zr  Zr54  1  0.08007027  0.91625084  0.62951834  1
  Zr  Zr55  1  0.69968361  0.31038163  0.63257134  1
  Zr  Zr56  1  0.09924586  0.30328356  0.37850012  1
  Zr  Zr57  1  0.09533168  0.08832880  0.10997084  1
  Zr  Zr58  1  0.18440019  -0.00956914  0.24703274  1
  Zr  Zr59  1  -0.00567404  0.19663504  0.23720537  1
  Zr  Zr60  1  0.50477972  0.52293179  0.87916986  1
  Zr  Zr61  1  0.68823109  0.50269131  0.86521538  1
  Zr  Zr62  1  0.10250238  0.09505177  0.86794267  1
  Zr  Zr63  1  0.20713884  -0.00127704  0.74623207  1
  Zr  Zr64  1  0.30388863  0.32494741  0.12135016  1
  Zr  Zr65  1  0.80078359  0.79125477  0.00228704  1
  Zr  Zr66  1  0.70343575  0.09758431  0.89072170  1
  Zr  Zr67  1  0.20665768  0.19875322  0.51131199  1
  Zr  Zr68  1  0.29943913  0.10253227  0.35861370  1
  Zr  Zr69  1  0.39732860  0.61393934  0.73766205  1
  Zr  Zr70  1  0.79771806  0.19463447  0.75187400  1
  Zr  Zr71  1  0.79726885  0.59855565  0.51010466  1
  Zr  Zr72  1  0.51194428  0.49929458  0.64476533  1
  Zr  Zr73  1  0.69602410  0.08780209  0.63085522  1
  Zr  Zr74  1  0.89752584  0.30577392  0.10888982  1
  Zr  Zr75  1  0.59699472  0.20030838  0.50553997  1
  Zr  Zr76  1  0.20239531  0.79834378  0.50966998  1
  Zr  Zr77  1  0.50249287  0.91338223  0.62970954  1
  Zr  Zr78  1  0.00801686  0.80844982  0.24604297  1
  Zr  Zr79  1  0.10880904  0.30024557  0.87293053  1
  Ta  Ta80  1  0.10685990  0.70013355  0.87715842  1
  Ta  Ta81  1  0.89464292  0.90418477  0.35926167  1
  Ta  Ta82  1  0.69584440  0.88750323  0.64263798  1
  Ta  Ta83  1  0.48072774  0.90123939  0.13857284  1
  Ta  Ta84  1  0.29556827  0.50336823  0.37062187  1
  Ta  Ta85  1  -0.00847854  0.60378203  -0.01789040  1
  Ta  Ta86  1  0.59105120  0.00347795  0.75803399  1
  Ta  Ta87  1  0.81262666  0.19218520  0.51590361  1
  Ta  Ta88  1  0.40496389  0.39643875  0.77500071  1
  Ta  Ta89  1  0.90038688  0.29404652  0.86388176  1
  Ta  Ta90  1  0.79897145  0.39964657  0.24662015  1
  Ta  Ta91  1  0.49688013  0.10796238  0.36984642  1
  Ta  Ta92  1  0.88148872  0.90115667  0.64657083  1
  Ta  Ta93  1  0.10730537  0.50773148  0.86858824  1
  Ta  Ta94  1  -0.00213621  0.79441538  -0.00694328  1
  Ta  Ta95  1  0.90654046  0.68907936  0.13280928  1
  Ta  Ta96  1  0.58496992  0.58762558  0.23997063  1
  Ta  Ta97  1  0.40034440  0.00557726  0.48568636  1
  Ta  Ta98  1  0.00106835  0.19047414  0.52178310  1
  Ta  Ta99  1  -0.00133890  0.40369185  0.75212712  1
  Ta  Ta100  1  0.30656390  0.29706808  0.64701629  1
  Ta  Ta101  1  0.69798045  0.50715262  0.64553880  1
  Ta  Ta102  1  0.20758858  0.40312928  0.76287193  1
  Ta  Ta103  1  0.90868415  0.90115620  0.12519205  1
  Ta  Ta104  1  0.21297573  0.20425517  -0.00554705  1
  Ta  Ta105  1  0.10229582  0.89271069  0.87185536  1
  Ta  Ta106  1  0.80476694  0.00425881  0.23847819  1
  Ta  Ta107  1  0.49525768  0.89212187  0.87451780  1
  Ta  Ta108  1  0.30408205  0.09817193  0.88088384  1
  Ta  Ta109  1  0.19946566  0.80549504  -0.00296801  1
  Ta  Ta110  1  0.68806445  0.89696123  0.87474802  1
  Ta  Ta111  1  0.30214850  0.50748512  0.87901263  1
  Ta  Ta112  1  0.91073965  0.08292598  0.64220163  1
  Ta  Ta113  1  -0.00593701  0.41565710  -0.02293396  1
  Ta  Ta114  1  0.68198546  0.69723566  0.88467980  1
  Ta  Ta115  1  0.79989799  0.60700733  0.75588388  1
  Ta  Ta116  1  0.29518772  0.68723958  0.38340849  1
  Ta  Ta117  1  0.39727498  0.80168338  0.27758976  1
  Ta  Ta118  1  0.40214756  0.19599380  0.50927073  1
  Ta  Ta119  1  0.90335141  0.29623164  0.63779195  1
  Ti  Ti120  1  0.19834706  0.41066061  0.25240420  1
  Ti  Ti121  1  0.70703445  0.90018438  0.35698426  1
  Ti  Ti122  1  0.59851550  0.63723693  0.73559168  1
  Ti  Ti123  1  0.58858903  0.38884100  -0.01290594  1
  Ti  Ti124  1  0.80174998  0.40229500  0.75837852  1
  Ti  Ti125  1  0.39988634  -0.01332076  -0.00522301  1
  Ti  Ti126  1  0.70060955  0.29712630  0.10354214  1
  Ti  Ti127  1  0.59609653  0.39967198  0.24997750  1
  Ti  Ti128  1  0.30270075  0.89831698  0.87018588  1
  Ti  Ti129  1  0.70132621  0.50191058  0.35957946  1
  Ti  Ti130  1  0.19286593  0.59476540  0.51932180  1
  Ti  Ti131  1  0.80793510  0.58229474  0.23295269  1
  Ti  Ti132  1  0.90344413  0.09345440  0.37782229  1
  Ti  Ti133  1  0.79184435  0.80014321  0.49826958  1
  Ti  Ti134  1  0.19974218  0.59599630  0.24903244  1
  Ti  Ti135  1  0.40151337  0.40622843  -0.01201636  1
  Ti  Ti136  1  0.70272705  0.10159012  0.10413550  1
  Ti  Ti137  1  0.20125270  -0.00550262  -0.00827753  1
  Ti  Ti138  1  0.78190114  0.78624277  0.76037926  1
  Ti  Ti139  1  0.41449423  0.41619327  0.24877628  1
  Ti  Ti140  1  0.40356841  0.60016510  0.25748285  1
  Ti  Ti141  1  -0.00430369  0.59498582  0.52737627  1
  Ti  Ti142  1  0.50073466  0.29935755  0.37056160  1
  Ti  Ti143  1  -0.00142031  -0.01185696  -0.01089118  1
  Ti  Ti144  1  0.89580697  0.09364089  0.11000258  1
  Ti  Ti145  1  0.09690015  0.50502125  0.37336556  1
  Ti  Ti146  1  0.30517838  0.50508512  0.12076430  1
  Ti  Ti147  1  0.89827829  0.09180696  0.86791420  1
  Ti  Ti148  1  0.31565552  0.09766013  0.63914781  1
  Ti  Ti149  1  0.30996886  0.90694368  0.62545253  1
  Ti  Ti150  1  0.80351848  0.79704445  0.23801308  1
  Ti  Ti151  1  0.42139201  0.61550740  0.01538284  1
  Ti  Ti152  1  0.88271069  0.70324385  0.63040546  1
  Ti  Ti153  1  0.60118994  0.60450001  0.49945033  1
  Ti  Ti154  1  0.90446060  0.50674824  0.37188256  1
  Ti  Ti155  1  0.60118873  0.20115278  0.76046357  1
  Ti  Ti156  1  0.00478518  0.19255346  0.74751356  1
  Ti  Ti157  1  0.59338890  -0.01001585  0.01233805  1
  Ti  Ti158  1  0.80325178  -0.00767508  0.00123917  1
  Ti  Ti159  1  0.69767603  0.68784196  0.12910354  1
  Mo  Mo160  1  0.20647647  0.40829882  -0.01828035  1
  Mo  Mo161  1  0.50055632  0.49718382  0.36834711  1
  Mo  Mo162  1  0.51349054  0.32717312  0.12265638  1
  Mo  Mo163  1  0.21338558  0.19894350  0.75506506  1
  Mo  Mo164  1  0.49106834  0.49984388  0.11498125  1
  Mo  Mo165  1  0.00171524  0.59685113  0.24904399  1
  Mo  Mo166  1  0.40183175  -0.00088877  0.76872847  1
  Mo  Mo167  1  0.50434546  0.70589486  0.87882176  1
  Mo  Mo168  1  0.39539044  0.80680461  0.00188917  1
  Mo  Mo169  1  0.49873709  0.91327695  0.36174130  1
  Mo  Mo170  1  0.29941448  0.90144860  0.37831206  1
  Mo  Mo171  1  0.20130700  0.60143590  0.74959761  1
  Mo  Mo172  1  0.29934435  0.69586425  0.60240390  1
  Mo  Mo173  1  0.09624696  0.89770550  0.09854497  1
  Mo  Mo174  1  0.89123736  0.49571225  0.64454356  1
  Mo  Mo175  1  0.09408504  0.69770658  0.60908247  1
  Mo  Mo176  1  0.69992696  0.70473576  0.62177668  1
  Mo  Mo177  1  -0.00419577  -0.00192832  0.76775752  1
  Mo  Mo178  1  0.60128914  0.60108649  0.02312419  1
  Mo  Mo179  1  0.89507732  0.69947157  0.87092832  1
  Mo  Mo180  1  0.59856885  0.80240180  0.75700636  1
  Mo  Mo181  1  0.90034036  0.49856455  0.85876990  1
  Mo  Mo182  1  0.48984192  0.70082801  0.15100090  1
  Mo  Mo183  1  0.39872885  0.00008466  0.26030643  1
  Mo  Mo184  1  0.60307607  0.38951829  0.76852242  1
  Mo  Mo185  1  0.49460039  0.09936124  0.62281500  1
  Mo  Mo186  1  0.10459577  0.50082837  0.64653211  1
  Mo  Mo187  1  0.51014719  0.70605873  0.60215165  1
  Mo  Mo188  1  0.30530983  0.30230062  0.87418659  1
  Mo  Mo189  1  0.80404272  0.19478777  -0.00815547  1
  Mo  Mo190  1  0.50204472  0.08566991  0.10974329  1
  Mo  Mo191  1  0.69926463  0.29582790  0.87778647  1
  Mo  Mo192  1  0.89854485  0.50103747  0.12116971  1
  Mo  Mo193  1  -0.01443932  0.00774675  0.50595481  1
  Mo  Mo194  1  0.49917795  0.68862568  0.37018161  1
  Mo  Mo195  1  0.50813885  0.30089076  0.87321684  1
  Mo  Mo196  1  -0.01344020  0.00323453  0.23905840  1
  Mo  Mo197  1  0.09953693  0.10578281  0.64111032  1
  Mo  Mo198  1  0.79034451  -0.00814220  0.75807546  1
  Mo  Mo199  1  0.60412434  0.20339869  0.01281596  1
