# generated using pymatgen
data_HfZrTaTiMo
_symmetry_space_group_name_H-M   'P 1'
_cell_length_a   15.83347439
_cell_length_b   15.83266462
_cell_length_c   15.41289702
_cell_angle_alpha   90.00109326
_cell_angle_beta   90.10924789
_cell_angle_gamma   89.89729663
_symmetry_Int_Tables_number   1
_chemical_formula_structural   HfZrTaTiMo
_chemical_formula_sum   'Hf40 Zr40 Ta40 Ti40 Mo40'
_cell_volume   3863.78565485
_cell_formula_units_Z   40
loop_
 _symmetry_equiv_pos_site_id
 _symmetry_equiv_pos_as_xyz
  1  'x, y, z'
loop_
 _atom_site_type_symbol
 _atom_site_label
 _atom_site_symmetry_multiplicity
 _atom_site_fract_x
 _atom_site_fract_y
 _atom_site_fract_z
 _atom_site_occupancy
  Hf  Hf0  1  0.49468204  0.90177486  0.37420821  1
  Hf  Hf1  1  0.59299422  0.80201840  0.74722630  1
  Hf  Hf2  1  0.11345803  0.30669866  0.13066383  1
  Hf  Hf3  1  0.70990918  0.09556573  0.34987228  1
  Hf  Hf4  1  0.00316111  -0.01010330  0.21218255  1
  Hf  Hf5  1  0.89804492  0.89757603  0.37202344  1
  Hf  Hf6  1  0.00908858  0.38122355  0.51017243  1
  Hf  Hf7  1  0.90451634  0.70244314  0.88311796  1
  Hf  Hf8  1  0.29823745  0.70132716  0.11080681  1
  Hf  Hf9  1  0.61056853  0.20145697  0.49118034  1
  Hf  Hf10  1  0.69753155  0.69823894  0.11580074  1
  Hf  Hf11  1  0.79445570  0.80170780  0.51769960  1
  Hf  Hf12  1  0.90357441  0.09071237  0.34524511  1
  Hf  Hf13  1  0.81176871  0.59577036  0.73822323  1
  Hf  Hf14  1  0.20270378  0.60693172  0.25875158  1
  Hf  Hf15  1  0.00348884  0.40831065  0.00872754  1
  Hf  Hf16  1  0.60645790  0.21901145  0.25988717  1
  Hf  Hf17  1  0.38628883  0.80839154  0.25227810  1
  Hf  Hf18  1  0.70029217  0.69793920  0.87012003  1
  Hf  Hf19  1  0.09771699  0.70211970  0.39505252  1
  Hf  Hf20  1  0.49736483  0.50967224  0.36847844  1
  Hf  Hf21  1  0.00211363  0.79426135  0.23210372  1
  Hf  Hf22  1  0.49382324  0.09666620  0.37447822  1
  Hf  Hf23  1  0.30345561  0.10503230  0.38536828  1
  Hf  Hf24  1  0.60974925  0.40363194  0.48211638  1
  Hf  Hf25  1  0.79710080  0.59124400  0.51674663  1
  Hf  Hf26  1  0.90069652  0.49344570  0.38319134  1
  Hf  Hf27  1  0.59334247  0.79397813  0.50878694  1
  Hf  Hf28  1  0.70990511  0.09552294  0.63698101  1
  Hf  Hf29  1  0.70693418  0.29296090  0.62792607  1
  Hf  Hf30  1  0.37621438  0.80874512  0.73112872  1
  Hf  Hf31  1  0.82291219  0.18597392  0.76712000  1
  Hf  Hf32  1  0.30299322  0.26761974  0.89116985  1
  Hf  Hf33  1  0.50172786  0.31395986  0.12389796  1
  Hf  Hf34  1  0.69365918  0.90434900  0.13372475  1
  Hf  Hf35  1  0.18928784  0.00522942  0.01257148  1
  Hf  Hf36  1  0.39447964  0.19641741  0.73364396  1
  Hf  Hf37  1  0.80604622  0.80006333  0.74471519  1
  Hf  Hf38  1  0.59204296  0.59127206  -0.01014019  1
  Hf  Hf39  1  0.78685476  0.39740789  0.25724982  1
  Zr  Zr40  1  0.00371830  0.60055783  0.74358788  1
  Zr  Zr41  1  0.01162490  0.18297657  0.00955264  1
  Zr  Zr42  1  0.90415544  0.69368601  0.38816202  1
  Zr  Zr43  1  0.11940154  0.48508009  0.62809858  1
  Zr  Zr44  1  0.49664881  0.90134094  0.13027804  1
  Zr  Zr45  1  0.18863509  0.21268748  0.50428840  1
  Zr  Zr46  1  0.68403377  0.49240473  0.63539830  1
  Zr  Zr47  1  0.09271837  0.91021597  0.37993184  1
  Zr  Zr48  1  0.00399088  0.17550550  0.48323686  1
  Zr  Zr49  1  0.48243246  0.90779272  0.86815287  1
  Zr  Zr50  1  0.29663132  0.31295794  0.60923530  1
  Zr  Zr51  1  0.19800978  0.59749466  -0.02034129  1
  Zr  Zr52  1  0.59491942  0.19944500  0.75702404  1
  Zr  Zr53  1  0.49733801  0.69628484  0.11896193  1
  Zr  Zr54  1  0.19750441  0.80150808  0.24816028  1
  Zr  Zr55  1  0.70931954  0.09107645  0.88342787  1
  Zr  Zr56  1  -0.00131879  0.80434190  0.52697838  1
  Zr  Zr57  1  0.20663208  0.40783385  -0.00965917  1
  Zr  Zr58  1  0.90521559  0.92646104  0.64255190  1
  Zr  Zr59  1  0.89195838  0.29527340  0.12443647  1
  Zr  Zr60  1  0.80863501  0.79095303  0.23633702  1
  Zr  Zr61  1  0.21245565  -0.00521828  0.24011582  1
  Zr  Zr62  1  -0.00667335  0.59823171  0.23433695  1
  Zr  Zr63  1  0.09986021  0.50203692  0.38102071  1
  Zr  Zr64  1  0.48991950  0.70665274  0.86774264  1
  Zr  Zr65  1  0.40554424  0.40967714  -0.01347470  1
  Zr  Zr66  1  0.80801368  0.00431911  0.49852883  1
  Zr  Zr67  1  0.28445497  0.91032562  0.87129462  1
  Zr  Zr68  1  0.10006351  0.30409352  0.35660332  1
  Zr  Zr69  1  0.81112618  0.39314074  0.74955248  1
  Zr  Zr70  1  0.49791053  0.50837493  0.83953070  1
  Zr  Zr71  1  0.17734327  0.01338945  0.51230864  1
  Zr  Zr72  1  0.69897451  0.69713467  0.37639852  1
  Zr  Zr73  1  0.31100573  0.50137639  0.13816867  1
  Zr  Zr74  1  0.31977880  0.50730996  0.63485535  1
  Zr  Zr75  1  0.60866521  -0.00550961  0.49675736  1
  Zr  Zr76  1  0.50792664  0.09521506  0.14131192  1
  Zr  Zr77  1  0.68687814  0.49661879  0.12853908  1
  Zr  Zr78  1  0.59460352  0.19502969  -0.00345802  1
  Zr  Zr79  1  0.10281398  0.29520944  0.87332749  1
  Ta  Ta80  1  0.20849513  0.19930027  0.24892672  1
  Ta  Ta81  1  0.88955222  0.90161063  0.88420314  1
  Ta  Ta82  1  0.70923895  0.10245917  0.12966758  1
  Ta  Ta83  1  0.40112200  0.79924392  0.51492741  1
  Ta  Ta84  1  0.80938653  0.20057089  0.49322293  1
  Ta  Ta85  1  0.79454351  0.40369548  -0.00635880  1
  Ta  Ta86  1  0.79811815  0.59162973  -0.01016155  1
  Ta  Ta87  1  0.59627290  -0.00384118  -0.01223333  1
  Ta  Ta88  1  0.47132560  0.10115177  0.87930025  1
  Ta  Ta89  1  0.59559037  0.38842641  0.75813248  1
  Ta  Ta90  1  0.60101646  0.40207392  -0.02071193  1
  Ta  Ta91  1  0.39569169  0.20846089  0.25044909  1
  Ta  Ta92  1  0.20105810  0.80670307  0.52000801  1
  Ta  Ta93  1  0.59112062  0.00461693  0.76067907  1
  Ta  Ta94  1  0.89723591  0.69852264  0.09706324  1
  Ta  Ta95  1  0.00375735  0.59643494  -0.00554583  1
  Ta  Ta96  1  0.20102035  0.19465344  0.73462471  1
  Ta  Ta97  1  0.60440323  0.81050025  -0.01340966  1
  Ta  Ta98  1  0.59120673  0.59909857  0.50495805  1
  Ta  Ta99  1  0.91875451  0.27641880  0.63073419  1
  Ta  Ta100  1  0.69748760  0.29832847  0.10976224  1
  Ta  Ta101  1  0.20751021  0.00603773  0.73760631  1
  Ta  Ta102  1  0.50046921  0.31307063  0.61311987  1
  Ta  Ta103  1  0.30213646  0.90750043  0.40072804  1
  Ta  Ta104  1  0.89858633  0.29303519  0.36214272  1
  Ta  Ta105  1  0.09962893  0.69912162  0.10534424  1
  Ta  Ta106  1  0.90193667  0.29654030  0.89381788  1
  Ta  Ta107  1  0.20492957  0.60885575  0.75928482  1
  Ta  Ta108  1  0.39096687  0.59786338  -0.02067252  1
  Ta  Ta109  1  0.30097572  0.70928880  0.39518140  1
  Ta  Ta110  1  0.00589470  0.19220698  0.23657480  1
  Ta  Ta111  1  0.49304727  0.91310550  0.62859139  1
  Ta  Ta112  1  0.30651169  0.29901341  0.11942815  1
  Ta  Ta113  1  0.70190703  0.89991280  0.35465126  1
  Ta  Ta114  1  0.90417713  0.49466781  0.87817572  1
  Ta  Ta115  1  0.06796674  0.10513872  0.65026744  1
  Ta  Ta116  1  0.11527555  0.09595956  0.86723982  1
  Ta  Ta117  1  0.50177557  0.10360081  0.61427284  1
  Ta  Ta118  1  0.69485425  0.90729601  0.64424414  1
  Ta  Ta119  1  0.70567424  0.29755773  0.88151648  1
  Ti  Ti120  1  0.30788244  0.09675449  0.60608001  1
  Ti  Ti121  1  0.09726501  0.49646181  0.86120044  1
  Ti  Ti122  1  -0.01653711  0.01631257  0.78255580  1
  Ti  Ti123  1  0.60128958  0.60262315  0.25894302  1
  Ti  Ti124  1  0.69219515  0.69595387  0.63408268  1
  Ti  Ti125  1  0.49516532  0.29225554  0.88060949  1
  Ti  Ti126  1  0.59150702  0.79074653  0.25784196  1
  Ti  Ti127  1  0.10764245  0.69817146  0.62742664  1
  Ti  Ti128  1  0.21968739  0.40138886  0.26561330  1
  Ti  Ti129  1  0.00312614  -0.00697484  0.00073710  1
  Ti  Ti130  1  0.49299982  0.67895164  0.64045129  1
  Ti  Ti131  1  0.49691890  0.50411988  0.13590489  1
  Ti  Ti132  1  0.60238637  0.40199794  0.26987155  1
  Ti  Ti133  1  0.00596303  0.81136016  -0.00367666  1
  Ti  Ti134  1  0.88957542  0.50391484  0.11700452  1
  Ti  Ti135  1  0.29441988  0.71111007  0.87249576  1
  Ti  Ti136  1  0.39927217  0.61680727  0.26391918  1
  Ti  Ti137  1  0.09781289  0.90989651  0.64584510  1
  Ti  Ti138  1  -0.00648571  0.40568207  0.23930242  1
  Ti  Ti139  1  0.39428996  0.80760904  -0.00115964  1
  Ti  Ti140  1  -0.00514759  0.59124774  0.52973679  1
  Ti  Ti141  1  0.19368936  0.81161389  -0.00034889  1
  Ti  Ti142  1  0.21109100  0.39208986  0.76260611  1
  Ti  Ti143  1  0.39935930  0.39589886  0.26390230  1
  Ti  Ti144  1  0.70188826  0.49809734  0.85959512  1
  Ti  Ti145  1  -0.00010912  0.39037996  0.74460421  1
  Ti  Ti146  1  0.10329186  0.71616836  0.87261685  1
  Ti  Ti147  1  0.39145617  0.00528996  0.01043093  1
  Ti  Ti148  1  0.29455919  0.69721971  0.61930766  1
  Ti  Ti149  1  0.39475281  0.41214990  0.48714658  1
  Ti  Ti150  1  0.30674794  0.10547117  0.12801989  1
  Ti  Ti151  1  0.79853331  0.59543901  0.24857800  1
  Ti  Ti152  1  0.40009292  0.38767160  0.75433636  1
  Ti  Ti153  1  0.11013145  0.50520412  0.13032674  1
  Ti  Ti154  1  0.00375996  0.80356763  0.75282784  1
  Ti  Ti155  1  0.48625791  0.29583666  0.38877081  1
  Ti  Ti156  1  0.40604330  0.60679212  0.49483797  1
  Ti  Ti157  1  0.21082918  0.59308352  0.49713402  1
  Ti  Ti158  1  0.80972637  0.39150821  0.50624594  1
  Ti  Ti159  1  0.80076530  -0.00752994  0.00970975  1
  Mo  Mo160  1  0.18788533  0.79987112  0.73444375  1
  Mo  Mo161  1  0.49600679  0.49428167  0.62585850  1
  Mo  Mo162  1  0.90470232  0.69948520  0.62730736  1
  Mo  Mo163  1  0.10038891  0.29568087  0.64559140  1
  Mo  Mo164  1  0.29910947  0.49924825  0.85216213  1
  Mo  Mo165  1  0.39441209  0.01133484  0.73175770  1
  Mo  Mo166  1  0.40250000  0.19398961  0.02089346  1
  Mo  Mo167  1  0.60171608  0.60069030  0.74046633  1
  Mo  Mo168  1  0.89759064  0.88898402  0.09707795  1
  Mo  Mo169  1  0.40601183  0.20592445  0.50808826  1
  Mo  Mo170  1  0.29684255  0.09528534  0.87670439  1
  Mo  Mo171  1  0.89769249  0.10478549  0.62846834  1
  Mo  Mo172  1  0.29415183  0.90683597  0.61460171  1
  Mo  Mo173  1  0.20529101  0.19278032  0.02119350  1
  Mo  Mo174  1  0.00142188  0.00452002  0.50069902  1
  Mo  Mo175  1  0.71360609  0.30037975  0.38419987  1
  Mo  Mo176  1  0.70000169  0.50540942  0.37653254  1
  Mo  Mo177  1  0.10241983  0.09966260  0.34686868  1
  Mo  Mo178  1  0.30636448  0.50877955  0.37367562  1
  Mo  Mo179  1  0.79426988  0.80015377  -0.00281947  1
  Mo  Mo180  1  0.80526887  -0.00628459  0.22511723  1
  Mo  Mo181  1  0.60188316  -0.00201557  0.26010138  1
  Mo  Mo182  1  0.30453318  0.89933223  0.10846525  1
  Mo  Mo183  1  0.00190921  0.19812534  0.77720850  1
  Mo  Mo184  1  0.10850691  0.10184864  0.13482408  1
  Mo  Mo185  1  0.89615037  0.09274028  0.11854652  1
  Mo  Mo186  1  0.90421424  0.09366516  0.90777522  1
  Mo  Mo187  1  0.49364194  0.70277960  0.37977175  1
  Mo  Mo188  1  0.90546951  0.48396745  0.61652540  1
  Mo  Mo189  1  0.80268956  0.20268979  0.23764500  1
  Mo  Mo190  1  0.20763295  0.40937292  0.48153489  1
  Mo  Mo191  1  0.38901334  0.61306811  0.75385230  1
  Mo  Mo192  1  0.69558347  0.89912615  0.86938571  1
  Mo  Mo193  1  0.30541198  0.30436203  0.38046780  1
  Mo  Mo194  1  0.79764157  -0.00399245  0.76709661  1
  Mo  Mo195  1  0.10236255  0.88906544  0.11434194  1
  Mo  Mo196  1  0.09134476  0.90133807  0.85941156  1
  Mo  Mo197  1  0.80161446  0.19755927  0.00317309  1
  Mo  Mo198  1  0.39494482  0.00354767  0.24881231  1
  Mo  Mo199  1  0.40056860  -0.00040727  0.51122688  1
