# generated using pymatgen
data_HfZrTaTiMo
_symmetry_space_group_name_H-M   'P 1'
_cell_length_a   15.83491039
_cell_length_b   15.83112104
_cell_length_c   15.41283808
_cell_angle_alpha   89.99338351
_cell_angle_beta   90.02381110
_cell_angle_gamma   89.92562297
_symmetry_Int_Tables_number   1
_chemical_formula_structural   HfZrTaTiMo
_chemical_formula_sum   'Hf40 Zr40 Ta40 Ti40 Mo40'
_cell_volume   3863.75419010
_cell_formula_units_Z   40
loop_
 _symmetry_equiv_pos_site_id
 _symmetry_equiv_pos_as_xyz
  1  'x, y, z'
loop_
 _atom_site_type_symbol
 _atom_site_label
 _atom_site_symmetry_multiplicity
 _atom_site_fract_x
 _atom_site_fract_y
 _atom_site_fract_z
 _atom_site_occupancy
  Hf  Hf0  1  0.59967026  0.59880771  0.25531649  1
  Hf  Hf1  1  0.50092224  0.09853222  0.11565026  1
  Hf  Hf2  1  0.20592557  0.60885336  0.25630590  1
  Hf  Hf3  1  0.90158387  0.89990506  0.36134291  1
  Hf  Hf4  1  0.38554896  0.19381514  -0.01576335  1
  Hf  Hf5  1  0.49251915  0.08040650  0.86294188  1
  Hf  Hf6  1  0.80022510  -0.00075157  0.50084068  1
  Hf  Hf7  1  0.00073299  0.40485748  0.01191976  1
  Hf  Hf8  1  0.91310210  0.28840110  0.86617417  1
  Hf  Hf9  1  0.11010770  0.91492435  0.87115181  1
  Hf  Hf10  1  0.19620425  0.80008097  0.49549453  1
  Hf  Hf11  1  0.00766137  0.80533998  0.49336466  1
  Hf  Hf12  1  0.38939214  0.40034826  0.75605789  1
  Hf  Hf13  1  0.00899040  0.78774144  0.75443750  1
  Hf  Hf14  1  0.79985815  0.59785341  0.75443532  1
  Hf  Hf15  1  0.78096471  0.40546589  0.24388285  1
  Hf  Hf16  1  0.21873197  0.81593562  0.25084293  1
  Hf  Hf17  1  0.79645126  0.20116778  0.49698665  1
  Hf  Hf18  1  0.88900397  0.31387663  0.63540975  1
  Hf  Hf19  1  -0.00841232  0.00723865  0.00298211  1
  Hf  Hf20  1  0.59653380  0.40170674  0.49426262  1
  Hf  Hf21  1  0.00637185  0.00967880  0.51668445  1
  Hf  Hf22  1  0.00755660  0.21285494  0.00990549  1
  Hf  Hf23  1  0.79593214  0.40514955  0.77416157  1
  Hf  Hf24  1  0.19532427  0.38503797  -0.01416649  1
  Hf  Hf25  1  0.29528993  0.29075956  0.12665593  1
  Hf  Hf26  1  0.28844432  0.31260257  0.61960431  1
  Hf  Hf27  1  0.59473129  0.80252906  -0.00250772  1
  Hf  Hf28  1  0.20474204  0.79168983  0.74762250  1
  Hf  Hf29  1  0.19731681  0.21055409  0.75153716  1
  Hf  Hf30  1  0.50151657  0.89996955  0.12877710  1
  Hf  Hf31  1  0.00472652  0.80454804  0.00724845  1
  Hf  Hf32  1  0.09059289  0.11235019  0.86995489  1
  Hf  Hf33  1  0.58553077  0.40216156  -0.01247109  1
  Hf  Hf34  1  0.90724516  0.69787727  0.34996785  1
  Hf  Hf35  1  0.39572251  0.40553326  0.49645372  1
  Hf  Hf36  1  0.70915511  0.49899831  0.61497406  1
  Hf  Hf37  1  0.59146190  0.20094677  0.50181420  1
  Hf  Hf38  1  -0.01695197  0.41618131  0.49918465  1
  Hf  Hf39  1  0.40730041  0.79293618  0.25511474  1
  Zr  Zr40  1  0.50054337  0.50757038  0.62588366  1
  Zr  Zr41  1  0.58974691  0.20503300  0.26351737  1
  Zr  Zr42  1  0.79766876  0.17284122  -0.01393101  1
  Zr  Zr43  1  0.79156169  0.00498825  0.25374518  1
  Zr  Zr44  1  0.09471630  0.51168465  0.87177313  1
  Zr  Zr45  1  0.20988778  0.59269081  0.49176804  1
  Zr  Zr46  1  0.49077347  0.29772709  0.11995986  1
  Zr  Zr47  1  0.80290538  0.39657526  -0.00371272  1
  Zr  Zr48  1  0.30392285  0.69459503  0.88238271  1
  Zr  Zr49  1  0.90484361  0.69289905  0.62553809  1
  Zr  Zr50  1  0.90753161  0.69368512  0.88934396  1
  Zr  Zr51  1  0.70924317  0.69988080  0.36774253  1
  Zr  Zr52  1  0.50867185  0.69792044  0.61775557  1
  Zr  Zr53  1  0.89579070  0.10023111  0.13382034  1
  Zr  Zr54  1  0.19694773  0.18386943  0.26085897  1
  Zr  Zr55  1  0.68581559  0.29072310  0.11051323  1
  Zr  Zr56  1  0.30242494  0.48938270  0.13306431  1
  Zr  Zr57  1  0.29389186  0.07223923  0.39077816  1
  Zr  Zr58  1  0.41096313  0.59388791  0.00965798  1
  Zr  Zr59  1  0.10754687  0.49381016  0.62979040  1
  Zr  Zr60  1  0.30986791  0.89930905  0.63111243  1
  Zr  Zr61  1  0.31121776  0.28056906  0.38732126  1
  Zr  Zr62  1  0.20636919  0.80833807  0.00559758  1
  Zr  Zr63  1  0.81302023  0.58746297  0.49254925  1
  Zr  Zr64  1  0.69706769  0.29579570  0.63213024  1
  Zr  Zr65  1  0.79443132  0.79404787  0.75158381  1
  Zr  Zr66  1  0.89776664  0.90168963  0.63376902  1
  Zr  Zr67  1  0.31302087  0.90974294  0.86347297  1
  Zr  Zr68  1  0.59975530  0.40601386  0.75893666  1
  Zr  Zr69  1  0.60511617  -0.00638404  0.49151808  1
  Zr  Zr70  1  0.01949252  0.80489932  0.24178257  1
  Zr  Zr71  1  0.11074285  0.93614983  0.36183708  1
  Zr  Zr72  1  -0.00353166  0.20428918  0.51316626  1
  Zr  Zr73  1  0.47862698  0.10258177  0.38963897  1
  Zr  Zr74  1  0.01536773  0.61082946  0.49568550  1
  Zr  Zr75  1  0.89602889  0.91448141  0.87009966  1
  Zr  Zr76  1  0.09171977  0.29967754  0.37994635  1
  Zr  Zr77  1  0.91701600  0.10142389  0.36542505  1
  Zr  Zr78  1  0.69859047  0.70235623  0.12675095  1
  Zr  Zr79  1  0.51090300  0.89924428  0.63303860  1
  Ta  Ta80  1  0.80124178  0.81215875  0.00914635  1
  Ta  Ta81  1  0.20173848  0.60182558  0.73842286  1
  Ta  Ta82  1  0.19393645  0.00278624  0.52659730  1
  Ta  Ta83  1  0.40349323  0.80057190  0.49261268  1
  Ta  Ta84  1  0.49506092  0.29029968  0.86891205  1
  Ta  Ta85  1  0.19035995  0.18962427  0.51129948  1
  Ta  Ta86  1  0.49644073  0.09628637  0.63310945  1
  Ta  Ta87  1  0.48908719  0.90499796  0.37649788  1
  Ta  Ta88  1  0.69490027  0.69865501  0.60768950  1
  Ta  Ta89  1  0.20458447  0.39952308  0.26770841  1
  Ta  Ta90  1  0.30899171  0.69285602  0.61546204  1
  Ta  Ta91  1  0.89552463  0.50763293  0.13384544  1
  Ta  Ta92  1  0.69095053  0.50190706  0.11342455  1
  Ta  Ta93  1  0.49187881  0.29319734  0.63538078  1
  Ta  Ta94  1  0.31003593  0.70191197  0.12226765  1
  Ta  Ta95  1  0.50656358  0.69347722  0.87562396  1
  Ta  Ta96  1  0.30844515  0.70039506  0.38113408  1
  Ta  Ta97  1  0.89957609  0.70155177  0.13152886  1
  Ta  Ta98  1  0.69406341  0.08994199  0.63910531  1
  Ta  Ta99  1  0.79268650  0.20623753  0.25437249  1
  Ta  Ta100  1  0.00116251  0.20458790  0.24169532  1
  Ta  Ta101  1  0.79941342  0.80173413  0.49845997  1
  Ta  Ta102  1  0.70185755  0.69797922  0.89504474  1
  Ta  Ta103  1  0.69743849  0.30703694  0.37738337  1
  Ta  Ta104  1  0.89841123  0.50347473  0.34651295  1
  Ta  Ta105  1  0.09078874  0.50657939  0.35794684  1
  Ta  Ta106  1  0.29305860  0.50219446  0.86952671  1
  Ta  Ta107  1  0.69044021  0.28577299  0.88155234  1
  Ta  Ta108  1  0.60453270  0.79332522  0.76380588  1
  Ta  Ta109  1  0.89346884  0.30772196  0.36467135  1
  Ta  Ta110  1  0.50114307  0.49830437  0.36680143  1
  Ta  Ta111  1  0.69692305  0.90585216  0.13081401  1
  Ta  Ta112  1  0.89157961  0.10779486  0.64341484  1
  Ta  Ta113  1  0.59727353  0.19135108  0.75657090  1
  Ta  Ta114  1  0.50316220  0.49167322  0.13902212  1
  Ta  Ta115  1  -0.00074400  0.39783242  0.23905151  1
  Ta  Ta116  1  0.39315674  0.39715810  -0.01665847  1
  Ta  Ta117  1  0.70078381  0.90489895  0.87290890  1
  Ta  Ta118  1  0.59027234  0.00001805  0.26002810  1
  Ta  Ta119  1  0.60801094  0.00241732  -0.01122437  1
  Ti  Ti120  1  0.89668160  0.90240995  0.13490508  1
  Ti  Ti121  1  0.30323878  0.10176819  0.62798269  1
  Ti  Ti122  1  0.10211995  0.90269972  0.64120100  1
  Ti  Ti123  1  0.69101974  0.09754674  0.12595901  1
  Ti  Ti124  1  0.40700276  0.79843749  0.00038850  1
  Ti  Ti125  1  0.60896997  0.60642628  0.75648854  1
  Ti  Ti126  1  0.11353764  0.92073354  0.12263803  1
  Ti  Ti127  1  0.69422267  0.51248794  0.89433075  1
  Ti  Ti128  1  0.49580925  0.50837052  0.86908128  1
  Ti  Ti129  1  0.10431172  0.49929293  0.13808640  1
  Ti  Ti130  1  0.69709482  0.10317482  0.37437590  1
  Ti  Ti131  1  0.20326983  0.59429721  0.01179536  1
  Ti  Ti132  1  0.70149600  0.89314679  0.36170921  1
  Ti  Ti133  1  0.90797335  0.50847629  0.88155665  1
  Ti  Ti134  1  0.38344325  -0.01070911  0.24217854  1
  Ti  Ti135  1  0.39930319  -0.01142825  0.00004246  1
  Ti  Ti136  1  0.59354214  0.79869000  0.25480629  1
  Ti  Ti137  1  0.39292846  0.19780408  0.75186129  1
  Ti  Ti138  1  0.69789559  0.89240640  0.62948193  1
  Ti  Ti139  1  0.29344594  0.08891406  0.11263441  1
  Ti  Ti140  1  0.10526416  0.69263827  0.88366392  1
  Ti  Ti141  1  -0.00097889  0.01221755  0.74576742  1
  Ti  Ti142  1  0.39520858  0.18550998  0.24483050  1
  Ti  Ti143  1  0.19946148  0.40732224  0.47936165  1
  Ti  Ti144  1  0.41126824  0.79193386  0.75523740  1
  Ti  Ti145  1  0.10900398  0.10406867  0.11651678  1
  Ti  Ti146  1  0.28671649  0.09079210  0.86788129  1
  Ti  Ti147  1  0.89150911  0.30011373  0.13124012  1
  Ti  Ti148  1  0.40474772  0.38859318  0.26564062  1
  Ti  Ti149  1  0.40604100  0.59608434  0.48772216  1
  Ti  Ti150  1  0.00130636  0.40683560  0.75234077  1
  Ti  Ti151  1  0.10899595  0.69865781  0.12706330  1
  Ti  Ti152  1  0.40536808  0.60289414  0.25252634  1
  Ti  Ti153  1  0.80307628  0.60071488  0.00887619  1
  Ti  Ti154  1  0.60100415  0.79621535  0.48230801  1
  Ti  Ti155  1  0.79476364  0.18997612  0.76393122  1
  Ti  Ti156  1  0.10984454  0.30155359  0.13653408  1
  Ti  Ti157  1  0.39646400  0.60208919  0.74694034  1
  Ti  Ti158  1  0.09545181  0.30690108  0.62797464  1
  Ti  Ti159  1  0.00658269  0.60170904  0.02056675  1
  Mo  Mo160  1  0.59871971  0.59700175  0.00345000  1
  Mo  Mo161  1  0.69983682  0.08805781  0.85886014  1
  Mo  Mo162  1  0.90315284  0.49858176  0.64251169  1
  Mo  Mo163  1  0.49772225  0.69608301  0.12172201  1
  Mo  Mo164  1  0.19616591  0.40220791  0.76265200  1
  Mo  Mo165  1  0.10764342  0.70557392  0.35924136  1
  Mo  Mo166  1  0.30615173  0.49878496  0.35912779  1
  Mo  Mo167  1  0.39512672  0.19991457  0.52690352  1
  Mo  Mo168  1  0.20256582  0.01050666  0.00256152  1
  Mo  Mo169  1  0.19808697  0.19764307  -0.00825621  1
  Mo  Mo170  1  0.79798083  0.59789965  0.23719220  1
  Mo  Mo171  1  0.09662358  0.30709984  0.86390360  1
  Mo  Mo172  1  0.39986328  -0.00275146  0.52218624  1
  Mo  Mo173  1  0.00902251  0.01011186  0.22729052  1
  Mo  Mo174  1  0.50226878  0.69866247  0.38681316  1
  Mo  Mo175  1  0.59235653  0.18951427  -0.02187610  1
  Mo  Mo176  1  0.80030624  0.80468648  0.23378496  1
  Mo  Mo177  1  0.30715608  0.90192671  0.39081355  1
  Mo  Mo178  1  0.30324940  0.50723308  0.63615856  1
  Mo  Mo179  1  0.00825346  0.59909847  0.23264829  1
  Mo  Mo180  1  0.79168393  -0.00808762  0.01069927  1
  Mo  Mo181  1  0.80142392  0.40067430  0.48229333  1
  Mo  Mo182  1  0.20818001  0.00157017  0.23016029  1
  Mo  Mo183  1  0.39850931  0.00556339  0.74041228  1
  Mo  Mo184  1  0.19653221  0.00658086  0.73617163  1
  Mo  Mo185  1  0.60180171  0.59944388  0.48073841  1
  Mo  Mo186  1  0.09805905  0.10478108  0.64391818  1
  Mo  Mo187  1  -0.00370907  0.20665511  0.73700515  1
  Mo  Mo188  1  0.60278699  -0.00938938  0.75711168  1
  Mo  Mo189  1  0.70132059  0.49739211  0.38017246  1
  Mo  Mo190  1  0.29840919  0.29563139  0.87254831  1
  Mo  Mo191  1  0.50157334  0.89047062  0.86899296  1
  Mo  Mo192  1  0.49635780  0.29966235  0.37549746  1
  Mo  Mo193  1  0.89911075  0.09746353  0.85948090  1
  Mo  Mo194  1  0.10086019  0.10446586  0.37800122  1
  Mo  Mo195  1  0.59325403  0.40171191  0.25612476  1
  Mo  Mo196  1  0.00210781  0.59742290  0.74411922  1
  Mo  Mo197  1  0.30854453  0.90116504  0.11042674  1
  Mo  Mo198  1  0.10977699  0.70329990  0.63044851  1
  Mo  Mo199  1  0.79535048  -0.00124393  0.73792703  1
