# generated using pymatgen
data_HfZrTaTiMo
_symmetry_space_group_name_H-M   'P 1'
_cell_length_a   15.83102305
_cell_length_b   15.84366476
_cell_length_c   15.39210153
_cell_angle_alpha   89.95018287
_cell_angle_beta   90.00487483
_cell_angle_gamma   89.84565926
_symmetry_Int_Tables_number   1
_chemical_formula_structural   HfZrTaTiMo
_chemical_formula_sum   'Hf40 Zr40 Ta40 Ti40 Mo40'
_cell_volume   3860.65331173
_cell_formula_units_Z   40
loop_
 _symmetry_equiv_pos_site_id
 _symmetry_equiv_pos_as_xyz
  1  'x, y, z'
loop_
 _atom_site_type_symbol
 _atom_site_label
 _atom_site_symmetry_multiplicity
 _atom_site_fract_x
 _atom_site_fract_y
 _atom_site_fract_z
 _atom_site_occupancy
  Hf  Hf0  1  0.88273178  0.30886946  0.11085962  1
  Hf  Hf1  1  0.30677550  0.89403340  0.11711639  1
  Hf  Hf2  1  0.81402025  0.78935454  0.25873930  1
  Hf  Hf3  1  0.40455848  0.58969998  0.25237176  1
  Hf  Hf4  1  0.20572864  0.60136999  0.00226939  1
  Hf  Hf5  1  0.38718046  0.20413163  0.24607157  1
  Hf  Hf6  1  0.28940272  0.30487616  0.62071858  1
  Hf  Hf7  1  0.40191888  0.79477467  0.75064882  1
  Hf  Hf8  1  0.80984721  0.38821803  0.75599296  1
  Hf  Hf9  1  0.90499986  0.49780447  0.62870354  1
  Hf  Hf10  1  0.28944631  0.28483361  0.10923394  1
  Hf  Hf11  1  -0.00570029  0.00760483  0.00060786  1
  Hf  Hf12  1  0.11546754  0.70307984  0.62524919  1
  Hf  Hf13  1  0.90768943  0.48719973  0.38627312  1
  Hf  Hf14  1  0.40449433  0.39386015  -0.01454916  1
  Hf  Hf15  1  0.60146064  0.60055796  0.23879943  1
  Hf  Hf16  1  0.59072367  0.40170264  0.24848384  1
  Hf  Hf17  1  0.09225453  0.30831937  0.87428462  1
  Hf  Hf18  1  0.38896420  0.40493134  0.75889783  1
  Hf  Hf19  1  0.79534325  0.20785891  0.25878942  1
  Hf  Hf20  1  0.41401919  0.79302451  0.24902119  1
  Hf  Hf21  1  0.09699552  0.30901769  0.10678087  1
  Hf  Hf22  1  0.30308206  0.48428344  0.12993909  1
  Hf  Hf23  1  0.59473841  0.19748214  0.24789846  1
  Hf  Hf24  1  0.69644954  0.30438693  0.38853365  1
  Hf  Hf25  1  0.30138809  0.10767083  0.38766213  1
  Hf  Hf26  1  0.69954581  0.69537606  0.61561146  1
  Hf  Hf27  1  -0.00727090  0.21800511  0.24788774  1
  Hf  Hf28  1  0.00490555  0.60930849  0.75556863  1
  Hf  Hf29  1  0.41182671  0.00354022  0.23362372  1
  Hf  Hf30  1  0.59608801  0.19358075  0.50727449  1
  Hf  Hf31  1  -0.00330018  0.00225721  0.24161180  1
  Hf  Hf32  1  0.28619416  0.10841195  0.61595373  1
  Hf  Hf33  1  0.09608365  0.50055903  0.12595918  1
  Hf  Hf34  1  0.50390265  0.69357557  0.61498112  1
  Hf  Hf35  1  0.69680581  0.89897049  0.11771933  1
  Hf  Hf36  1  0.70161298  0.88868795  0.62581752  1
  Hf  Hf37  1  0.20907942  0.00844847  0.00096754  1
  Hf  Hf38  1  0.81084525  0.59238141  -0.00889309  1
  Hf  Hf39  1  0.71091404  0.69953338  0.12335708  1
  Zr  Zr40  1  0.51085261  0.28318357  0.86263546  1
  Zr  Zr41  1  0.31668023  0.70695393  0.89131360  1
  Zr  Zr42  1  -0.01088704  0.60666397  0.24928646  1
  Zr  Zr43  1  0.09860020  0.31303218  0.62652070  1
  Zr  Zr44  1  0.10339615  0.11127002  0.86563636  1
  Zr  Zr45  1  0.40311370  0.79113653  0.47871327  1
  Zr  Zr46  1  0.80302118  0.79239734  -0.01681131  1
  Zr  Zr47  1  0.89554535  0.10024506  0.37303646  1
  Zr  Zr48  1  0.47881106  0.90072828  0.89484558  1
  Zr  Zr49  1  0.80574625  0.00508898  0.51715377  1
  Zr  Zr50  1  0.01288101  0.79879966  0.27203664  1
  Zr  Zr51  1  0.89883013  0.70101628  0.61668163  1
  Zr  Zr52  1  -0.01824305  0.21289267  0.74768504  1
  Zr  Zr53  1  0.69029509  0.50415585  0.38574552  1
  Zr  Zr54  1  0.08552913  0.31732611  0.39137209  1
  Zr  Zr55  1  0.11015715  0.12311741  0.12291275  1
  Zr  Zr56  1  0.02641953  0.58917410  0.49758593  1
  Zr  Zr57  1  0.58170796  0.02054165  0.00483885  1
  Zr  Zr58  1  0.09998903  0.90369357  0.87972869  1
  Zr  Zr59  1  0.79289399  0.00674210  -0.00991442  1
  Zr  Zr60  1  0.20728480  0.00654238  0.24527497  1
  Zr  Zr61  1  0.10211220  0.89390139  0.12015429  1
  Zr  Zr62  1  0.09504916  0.50055377  0.88166449  1
  Zr  Zr63  1  0.59114362  -0.00685016  0.75240341  1
  Zr  Zr64  1  0.70610222  0.90439983  0.37834473  1
  Zr  Zr65  1  0.79778542  0.78535758  0.76701557  1
  Zr  Zr66  1  0.00870502  0.80212101  0.48638853  1
  Zr  Zr67  1  0.29170760  0.88392476  0.61058397  1
  Zr  Zr68  1  0.39629768  -0.00828396  0.73844155  1
  Zr  Zr69  1  0.20123129  0.79188942  0.47217255  1
  Zr  Zr70  1  0.40711261  -0.00005325  0.50588919  1
  Zr  Zr71  1  0.39178465  0.58793056  0.48012340  1
  Zr  Zr72  1  0.10233329  0.11107729  0.37247982  1
  Zr  Zr73  1  0.21405447  0.59657372  0.76456796  1
  Zr  Zr74  1  0.20322343  -0.00568260  0.74967514  1
  Zr  Zr75  1  -0.00773088  0.19149554  0.51284881  1
  Zr  Zr76  1  0.90135747  0.88818621  0.11926608  1
  Zr  Zr77  1  0.60873457  0.59336105  -0.00213804  1
  Zr  Zr78  1  0.69084991  0.30699867  0.63207241  1
  Zr  Zr79  1  0.48876376  0.30276753  0.38188156  1
  Ta  Ta80  1  0.10015094  0.70365764  0.12182056  1
  Ta  Ta81  1  0.28537139  0.30568790  0.39121424  1
  Ta  Ta82  1  0.41094476  0.59650774  0.00918418  1
  Ta  Ta83  1  0.79057448  0.40306085  -0.01874114  1
  Ta  Ta84  1  0.60250677  -0.00011587  0.23955252  1
  Ta  Ta85  1  0.00586084  0.80005977  0.75967930  1
  Ta  Ta86  1  0.19808821  0.43587327  0.50595195  1
  Ta  Ta87  1  0.79682284  0.00364785  0.24017568  1
  Ta  Ta88  1  0.70105974  0.10442377  0.64186971  1
  Ta  Ta89  1  0.60596139  0.39545825  -0.00649953  1
  Ta  Ta90  1  -0.00579470  0.00275229  0.73881853  1
  Ta  Ta91  1  0.50035194  0.50137791  0.63777113  1
  Ta  Ta92  1  0.90205385  0.90495772  0.38332455  1
  Ta  Ta93  1  0.79649997  0.19936732  0.50632018  1
  Ta  Ta94  1  0.39164111  0.40936472  0.50151465  1
  Ta  Ta95  1  0.50990949  0.90558323  0.37274246  1
  Ta  Ta96  1  0.30434582  0.90577691  0.36814216  1
  Ta  Ta97  1  0.89083853  0.11092321  0.11929696  1
  Ta  Ta98  1  0.18518989  -0.00527361  0.49589033  1
  Ta  Ta99  1  0.20299450  0.79562724  0.76803137  1
  Ta  Ta100  1  0.70471837  0.69859760  0.38267539  1
  Ta  Ta101  1  0.69743051  0.50560110  0.63412233  1
  Ta  Ta102  1  0.79728615  -0.00128761  0.75351553  1
  Ta  Ta103  1  0.89029752  0.10565321  0.86605445  1
  Ta  Ta104  1  0.30453800  0.68835065  0.62520149  1
  Ta  Ta105  1  0.39273495  0.19559461  0.74641707  1
  Ta  Ta106  1  0.41423604  0.18172450  0.00263661  1
  Ta  Ta107  1  0.68340121  0.11524936  0.86198393  1
  Ta  Ta108  1  0.90217270  0.90458547  0.86534815  1
  Ta  Ta109  1  0.60079542  0.00188770  0.51092521  1
  Ta  Ta110  1  0.50555983  0.49960865  0.86951228  1
  Ta  Ta111  1  0.80450547  0.59368635  0.25264029  1
  Ta  Ta112  1  0.60101117  0.60797242  0.75918278  1
  Ta  Ta113  1  0.70111409  0.11211845  0.12029984  1
  Ta  Ta114  1  0.90262937  0.89409493  0.63173428  1
  Ta  Ta115  1  0.31365079  0.09520038  0.87964684  1
  Ta  Ta116  1  0.49229318  0.30651819  0.63126061  1
  Ta  Ta117  1  -0.01291216  0.20507401  -0.00806225  1
  Ta  Ta118  1  0.60148175  0.79898703  0.25109691  1
  Ta  Ta119  1  0.59510943  0.79150592  0.76916061  1
  Ti  Ti120  1  0.49954971  0.10547294  0.63418974  1
  Ti  Ti121  1  0.80132266  0.40031396  0.25759771  1
  Ti  Ti122  1  0.20357608  0.38399709  0.25019600  1
  Ti  Ti123  1  0.29426297  0.28675575  0.87481714  1
  Ti  Ti124  1  0.49720502  0.29932412  0.11966093  1
  Ti  Ti125  1  0.40457110  0.60020452  0.76245644  1
  Ti  Ti126  1  0.20710970  0.79840833  0.25596575  1
  Ti  Ti127  1  -0.02133383  0.41490002  0.00045510  1
  Ti  Ti128  1  0.79943179  0.40017358  0.50673851  1
  Ti  Ti129  1  0.29935958  0.69612741  0.13235368  1
  Ti  Ti130  1  0.51692127  0.68631731  0.38050858  1
  Ti  Ti131  1  0.59633324  0.79029122  -0.00542335  1
  Ti  Ti132  1  0.50151489  0.48870891  0.11833838  1
  Ti  Ti133  1  0.78864836  0.20723515  -0.01585375  1
  Ti  Ti134  1  -0.00542710  0.60795268  0.00134877  1
  Ti  Ti135  1  0.69529425  0.09451684  0.37657906  1
  Ti  Ti136  1  0.20195454  0.40831410  0.75545066  1
  Ti  Ti137  1  0.40067030  0.20618877  0.50912566  1
  Ti  Ti138  1  0.69404050  0.29703523  0.86013710  1
  Ti  Ti139  1  -0.01440310  0.40377329  0.24092124  1
  Ti  Ti140  1  0.20753207  0.40299798  -0.01400687  1
  Ti  Ti141  1  0.69403276  0.30246147  0.11864290  1
  Ti  Ti142  1  0.58437321  0.41387254  0.50620049  1
  Ti  Ti143  1  0.50632503  0.88674514  0.61624240  1
  Ti  Ti144  1  0.00279723  -0.00133614  0.51529182  1
  Ti  Ti145  1  -0.00205391  0.78811186  -0.01644499  1
  Ti  Ti146  1  0.90115133  0.50039051  0.85880314  1
  Ti  Ti147  1  0.12945189  0.67264486  0.35790593  1
  Ti  Ti148  1  0.20127425  0.79777207  -0.00623286  1
  Ti  Ti149  1  0.80212093  0.59773529  0.49368967  1
  Ti  Ti150  1  0.09958723  0.89568129  0.63189698  1
  Ti  Ti151  1  0.60387112  0.80045164  0.48698070  1
  Ti  Ti152  1  0.69247461  0.90165384  0.87896276  1
  Ti  Ti153  1  0.41516904  0.78910704  0.02311084  1
  Ti  Ti154  1  0.71127199  0.48788498  0.12641960  1
  Ti  Ti155  1  0.11226950  0.49630381  0.35258469  1
  Ti  Ti156  1  0.89549422  0.30153574  0.61420604  1
  Ti  Ti157  1  0.10378478  0.10910320  0.63313361  1
  Ti  Ti158  1  0.69879061  0.49705639  0.85419356  1
  Ti  Ti159  1  0.50263095  0.09473401  0.37541470  1
  Mo  Mo160  1  0.30457369  0.10377119  0.11245531  1
  Mo  Mo161  1  0.20566609  0.20376495  0.76135304  1
  Mo  Mo162  1  0.40019931  0.00094138  0.01718762  1
  Mo  Mo163  1  0.30219690  0.69641588  0.34808874  1
  Mo  Mo164  1  0.49747246  0.49456986  0.37645508  1
  Mo  Mo165  1  0.89415559  0.30458397  0.89049396  1
  Mo  Mo166  1  0.50363300  0.69634277  0.88666608  1
  Mo  Mo167  1  0.59735097  0.40734832  0.75126569  1
  Mo  Mo168  1  0.51046997  0.89223898  0.12405156  1
  Mo  Mo169  1  0.79408754  0.19968651  0.75591948  1
  Mo  Mo170  1  0.89392993  0.09776101  0.64077052  1
  Mo  Mo171  1  0.10322340  0.70386685  0.88843201  1
  Mo  Mo172  1  0.89119316  0.69449168  0.39301391  1
  Mo  Mo173  1  0.59260659  0.20112285  0.73130805  1
  Mo  Mo174  1  0.10169996  0.91473110  0.36994724  1
  Mo  Mo175  1  0.88834589  0.30576825  0.39409004  1
  Mo  Mo176  1  0.39308347  0.39446859  0.25965035  1
  Mo  Mo177  1  0.20123318  0.59805613  0.22459136  1
  Mo  Mo178  1  0.59911708  0.59540135  0.50881292  1
  Mo  Mo179  1  0.91010181  0.69463119  0.11549899  1
  Mo  Mo180  1  0.49416395  0.10160506  0.86053230  1
  Mo  Mo181  1  0.28825709  0.49309678  0.35280544  1
  Mo  Mo182  1  0.50841178  0.69437885  0.12136776  1
  Mo  Mo183  1  0.30497475  0.50465108  0.63434076  1
  Mo  Mo184  1  0.21177478  0.60070562  0.49980118  1
  Mo  Mo185  1  0.00026023  0.40450319  0.51286299  1
  Mo  Mo186  1  0.79718507  0.59370052  0.75836895  1
  Mo  Mo187  1  0.50415464  0.10881497  0.13670639  1
  Mo  Mo188  1  0.80508336  0.79836499  0.49078554  1
  Mo  Mo189  1  0.30930076  0.49724314  0.89062445  1
  Mo  Mo190  1  -0.00033953  0.40672355  0.74583347  1
  Mo  Mo191  1  0.60498984  0.20966369  0.00916274  1
  Mo  Mo192  1  0.30120137  0.89666776  0.89446654  1
  Mo  Mo193  1  0.19594248  0.20139332  0.49605877  1
  Mo  Mo194  1  0.69830730  0.69286773  0.87890597  1
  Mo  Mo195  1  0.10847423  0.50253056  0.64395790  1
  Mo  Mo196  1  0.90673743  0.69578796  0.87167500  1
  Mo  Mo197  1  0.20175689  0.20313412  -0.02096411  1
  Mo  Mo198  1  0.89121925  0.49732864  0.12790234  1
  Mo  Mo199  1  0.19897293  0.21056356  0.26383198  1
