# generated using pymatgen
data_HfZrTaTiMo
_symmetry_space_group_name_H-M   'P 1'
_cell_length_a   15.84849563
_cell_length_b   15.82597830
_cell_length_c   15.40204483
_cell_angle_alpha   90.02142539
_cell_angle_beta   89.98221791
_cell_angle_gamma   90.14827657
_symmetry_Int_Tables_number   1
_chemical_formula_structural   HfZrTaTiMo
_chemical_formula_sum   'Hf40 Zr40 Ta40 Ti40 Mo40'
_cell_volume   3863.09588621
_cell_formula_units_Z   40
loop_
 _symmetry_equiv_pos_site_id
 _symmetry_equiv_pos_as_xyz
  1  'x, y, z'
loop_
 _atom_site_type_symbol
 _atom_site_label
 _atom_site_symmetry_multiplicity
 _atom_site_fract_x
 _atom_site_fract_y
 _atom_site_fract_z
 _atom_site_occupancy
  Hf  Hf0  1  0.20151251  0.39841555  0.25377498  1
  Hf  Hf1  1  0.60390704  0.39667352  0.25297782  1
  Hf  Hf2  1  0.30722653  0.29892709  0.62231606  1
  Hf  Hf3  1  0.28445899  0.49484625  0.88346067  1
  Hf  Hf4  1  0.39873194  0.58877969  0.73973306  1
  Hf  Hf5  1  0.90482214  0.90347089  0.60108196  1
  Hf  Hf6  1  0.59922240  0.00075587  0.24458097  1
  Hf  Hf7  1  -0.00865809  0.02131666  0.77846127  1
  Hf  Hf8  1  0.50407608  0.27907221  0.37255984  1
  Hf  Hf9  1  0.30536564  0.69871677  0.87426137  1
  Hf  Hf10  1  0.01202888  0.19822379  -0.02585506  1
  Hf  Hf11  1  0.30944699  0.69124642  0.13059081  1
  Hf  Hf12  1  0.91325168  0.29460242  0.63750665  1
  Hf  Hf13  1  0.69205843  0.29966895  0.86817398  1
  Hf  Hf14  1  0.09928670  0.29677657  0.12591684  1
  Hf  Hf15  1  0.21067173  0.01313801  0.21875624  1
  Hf  Hf16  1  0.89182047  0.70687114  0.12608673  1
  Hf  Hf17  1  0.19762531  0.20067924  0.77519629  1
  Hf  Hf18  1  0.01060058  0.00974416  0.47866280  1
  Hf  Hf19  1  0.60108671  0.00124290  0.72660943  1
  Hf  Hf20  1  0.59576319  0.80252981  0.73627682  1
  Hf  Hf21  1  0.59773419  0.60858151  0.01546496  1
  Hf  Hf22  1  0.90521127  0.70616529  0.61059789  1
  Hf  Hf23  1  0.50656088  0.51008439  0.87249099  1
  Hf  Hf24  1  0.50499954  0.09590348  0.88589088  1
  Hf  Hf25  1  -0.00267664  0.80154798  0.25535749  1
  Hf  Hf26  1  0.70238935  0.50419534  0.86108437  1
  Hf  Hf27  1  0.29809682  0.50255132  0.38909473  1
  Hf  Hf28  1  0.00532899  0.82412039  0.75685895  1
  Hf  Hf29  1  0.90180115  0.30211236  0.13766637  1
  Hf  Hf30  1  0.71087660  0.49813353  0.38878609  1
  Hf  Hf31  1  0.39919088  0.39539959  0.25646731  1
  Hf  Hf32  1  0.79557955  0.59954508  -0.00106633  1
  Hf  Hf33  1  -0.00185638  0.60024361  0.25956549  1
  Hf  Hf34  1  0.60440062  0.40080815  0.00465596  1
  Hf  Hf35  1  0.29950660  0.10255851  0.63549115  1
  Hf  Hf36  1  0.50224418  0.69580834  0.61662286  1
  Hf  Hf37  1  0.89280070  0.70633721  0.87184639  1
  Hf  Hf38  1  0.78303523  0.20818048  0.50379075  1
  Hf  Hf39  1  0.39903312  0.39252957  -0.01223514  1
  Zr  Zr40  1  0.69565772  0.89903788  0.89000141  1
  Zr  Zr41  1  0.08958156  0.11081099  0.63210466  1
  Zr  Zr42  1  0.58463803  0.39293256  0.74118756  1
  Zr  Zr43  1  0.00330229  0.39321018  0.49428844  1
  Zr  Zr44  1  0.19212548  0.19544783  0.48869459  1
  Zr  Zr45  1  0.03179881  0.80187016  0.48739907  1
  Zr  Zr46  1  0.49216683  0.29663663  0.12428244  1
  Zr  Zr47  1  0.88878081  0.30242939  0.36058658  1
  Zr  Zr48  1  0.01089315  0.41617298  -0.00346861  1
  Zr  Zr49  1  0.49069397  0.89888740  0.37387840  1
  Zr  Zr50  1  0.40300995  -0.00726153  0.74203322  1
  Zr  Zr51  1  0.19960227  0.39725423  0.50303630  1
  Zr  Zr52  1  0.80229493  0.20438267  -0.00289650  1
  Zr  Zr53  1  0.41432001  0.79367596  0.00450284  1
  Zr  Zr54  1  0.90606523  0.30981372  0.85652593  1
  Zr  Zr55  1  0.89490567  0.11113678  0.36031191  1
  Zr  Zr56  1  0.50065138  0.89648055  0.88297166  1
  Zr  Zr57  1  0.90135935  0.50290894  0.12974681  1
  Zr  Zr58  1  0.90305969  0.10197748  0.60934063  1
  Zr  Zr59  1  0.89915264  0.69282037  0.39400168  1
  Zr  Zr60  1  0.20175888  0.80114967  0.01056503  1
  Zr  Zr61  1  0.00925871  0.00905979  0.24216330  1
  Zr  Zr62  1  0.79733613  0.80559058  0.74502705  1
  Zr  Zr63  1  0.59691334  0.59475800  0.26060895  1
  Zr  Zr64  1  0.00846040  0.60785723  0.74696739  1
  Zr  Zr65  1  0.20149838  -0.01670697  0.51142822  1
  Zr  Zr66  1  0.90125230  0.50400919  0.62320910  1
  Zr  Zr67  1  0.58604496  0.01065479  0.49970255  1
  Zr  Zr68  1  0.80119949  0.18382419  0.75117375  1
  Zr  Zr69  1  0.18792985  -0.01113975  0.75566002  1
  Zr  Zr70  1  0.18643165  0.58676563  0.01134469  1
  Zr  Zr71  1  0.60901561  0.78808222  0.27163235  1
  Zr  Zr72  1  0.20254510  0.41390648  0.73273320  1
  Zr  Zr73  1  0.12095973  0.90505813  0.35461691  1
  Zr  Zr74  1  0.68701520  0.50911598  0.62497365  1
  Zr  Zr75  1  0.90542561  0.11052704  0.13067734  1
  Zr  Zr76  1  0.69864233  0.08997232  0.89014487  1
  Zr  Zr77  1  0.60712710  0.37760633  0.50214331  1
  Zr  Zr78  1  0.30648132  0.08615160  0.37280204  1
  Zr  Zr79  1  0.79823514  -0.00775826  0.73988960  1
  Ta  Ta80  1  0.40960732  0.18353376  0.50305665  1
  Ta  Ta81  1  0.79908270  0.39320600  0.51212449  1
  Ta  Ta82  1  0.00225086  0.00209884  0.00522782  1
  Ta  Ta83  1  0.68227819  0.69695169  0.86735662  1
  Ta  Ta84  1  0.30930202  0.89474231  0.35352238  1
  Ta  Ta85  1  0.38933742  0.79784726  0.50361857  1
  Ta  Ta86  1  0.70192744  0.70305500  0.60326069  1
  Ta  Ta87  1  0.29746269  0.70519196  0.36601193  1
  Ta  Ta88  1  0.49339276  0.48976563  0.39231583  1
  Ta  Ta89  1  0.89243030  0.90202285  0.12355986  1
  Ta  Ta90  1  0.30175619  0.90188219  0.88246300  1
  Ta  Ta91  1  0.10417526  0.70275137  0.87455582  1
  Ta  Ta92  1  0.70273263  0.88971589  0.12983806  1
  Ta  Ta93  1  0.80189448  0.40524392  -0.00219296  1
  Ta  Ta94  1  0.19888354  0.62256654  0.50988908  1
  Ta  Ta95  1  0.59626333  0.19358987  0.73435860  1
  Ta  Ta96  1  0.08967615  0.69600818  0.12590616  1
  Ta  Ta97  1  0.78731359  0.00605615  0.48239631  1
  Ta  Ta98  1  0.20550450  0.60652325  0.73611472  1
  Ta  Ta99  1  0.79023085  0.61011917  0.25617720  1
  Ta  Ta100  1  0.10020855  0.51238558  0.38626936  1
  Ta  Ta101  1  -0.00223661  0.60515831  -0.01015736  1
  Ta  Ta102  1  0.59431926  -0.00637238  0.02774526  1
  Ta  Ta103  1  0.60001542  0.19414036  0.23237334  1
  Ta  Ta104  1  0.12055810  0.73091651  0.63745540  1
  Ta  Ta105  1  0.28390824  0.87206625  0.63911907  1
  Ta  Ta106  1  0.20000985  0.79376626  0.23490362  1
  Ta  Ta107  1  0.59471726  0.60563557  0.48568438  1
  Ta  Ta108  1  0.48223742  0.48877151  0.60357965  1
  Ta  Ta109  1  0.69431652  0.89476212  0.59614291  1
  Ta  Ta110  1  0.40065739  0.59477398  0.26460117  1
  Ta  Ta111  1  0.00791324  0.40566157  0.26250659  1
  Ta  Ta112  1  0.79036282  0.79506124  0.00232812  1
  Ta  Ta113  1  0.40633461  0.20639243  0.76899080  1
  Ta  Ta114  1  0.30365627  0.49346884  0.12281918  1
  Ta  Ta115  1  0.19735153  0.59527720  0.24553595  1
  Ta  Ta116  1  0.79227104  -0.00379837  0.25398305  1
  Ta  Ta117  1  0.30365637  0.09169659  0.88716897  1
  Ta  Ta118  1  0.89972788  0.50294386  0.85917276  1
  Ta  Ta119  1  0.39702761  0.39232980  0.76085723  1
  Ti  Ti120  1  0.49009717  0.29336679  0.61881167  1
  Ti  Ti121  1  0.49929368  0.69928979  0.14466266  1
  Ti  Ti122  1  0.20377414  0.00545577  0.01289146  1
  Ti  Ti123  1  0.39915635  0.19970285  -0.00827926  1
  Ti  Ti124  1  0.39200688  0.60489281  0.50089184  1
  Ti  Ti125  1  0.78838897  0.80540149  0.47838534  1
  Ti  Ti126  1  0.39969324  0.00207117  0.02130187  1
  Ti  Ti127  1  0.11306758  0.32987220  0.87256219  1
  Ti  Ti128  1  0.30848709  0.28821599  0.37880407  1
  Ti  Ti129  1  0.79341453  0.61022894  0.74045724  1
  Ti  Ti130  1  0.09788731  0.51288997  0.61208490  1
  Ti  Ti131  1  0.19992876  0.19643530  0.24651197  1
  Ti  Ti132  1  0.49771315  0.89073508  0.14115293  1
  Ti  Ti133  1  0.60073795  0.79176917  0.01272886  1
  Ti  Ti134  1  0.79767775  0.40889952  0.25186546  1
  Ti  Ti135  1  0.31310437  0.89362392  0.13415031  1
  Ti  Ti136  1  -0.00461645  0.79965288  -0.00061226  1
  Ti  Ti137  1  0.20594896  0.20658833  -0.01078872  1
  Ti  Ti138  1  0.40176099  0.79508528  0.74740758  1
  Ti  Ti139  1  0.59725484  0.20003353  0.01260723  1
  Ti  Ti140  1  0.29623469  0.29777690  0.11766580  1
  Ti  Ti141  1  0.79501922  0.80070390  0.26352393  1
  Ti  Ti142  1  0.79427918  0.39883499  0.73455527  1
  Ti  Ti143  1  0.49200440  0.50162548  0.12786047  1
  Ti  Ti144  1  0.89995571  0.50345863  0.39072697  1
  Ti  Ti145  1  0.10403193  0.90169084  0.89634573  1
  Ti  Ti146  1  0.88912438  0.91115583  0.90125323  1
  Ti  Ti147  1  0.60119604  0.19165450  0.51956891  1
  Ti  Ti148  1  0.39503711  -0.01075884  0.51957911  1
  Ti  Ti149  1  0.09340464  0.89718343  0.12014068  1
  Ti  Ti150  1  0.49081475  0.09518111  0.35997262  1
  Ti  Ti151  1  0.89676349  0.90524317  0.37355037  1
  Ti  Ti152  1  0.00708104  0.20704157  0.47723818  1
  Ti  Ti153  1  0.70358974  0.50156148  0.12990440  1
  Ti  Ti154  1  0.70830130  0.30170843  0.12803556  1
  Ti  Ti155  1  0.70602407  0.09675992  0.12115044  1
  Ti  Ti156  1  0.40627615  0.59962006  -0.00070511  1
  Ti  Ti157  1  0.39137527  0.18159701  0.23255211  1
  Ti  Ti158  1  0.68911272  0.11479526  0.36662312  1
  Ti  Ti159  1  0.09486147  0.29837199  0.64120389  1
  Mo  Mo160  1  0.40010502  0.38314571  0.48561204  1
  Mo  Mo161  1  0.20188347  0.39508608  0.01464351  1
  Mo  Mo162  1  0.40208068  0.79169822  0.24992108  1
  Mo  Mo163  1  0.09930022  0.50151065  0.13997852  1
  Mo  Mo164  1  0.10582286  0.30262738  0.35940223  1
  Mo  Mo165  1  0.29938410  0.29827372  0.87868424  1
  Mo  Mo166  1  0.69814953  0.29488198  0.35802157  1
  Mo  Mo167  1  0.77988027  0.20108162  0.24105597  1
  Mo  Mo168  1  0.20246394  0.80098761  0.77824269  1
  Mo  Mo169  1  0.50682456  0.69523531  0.86138190  1
  Mo  Mo170  1  0.30384760  0.11434157  0.10413123  1
  Mo  Mo171  1  0.50448927  0.29284160  0.88106579  1
  Mo  Mo172  1  0.70071063  0.69965885  0.38984129  1
  Mo  Mo173  1  0.11308178  0.08776526  0.89620976  1
  Mo  Mo174  1  0.79793949  -0.00475196  0.02392985  1
  Mo  Mo175  1  0.49030094  0.89250597  0.61172955  1
  Mo  Mo176  1  0.30336858  0.69887566  0.63508444  1
  Mo  Mo177  1  0.10814213  0.10704111  0.10642439  1
  Mo  Mo178  1  0.02120343  0.20549155  0.26029413  1
  Mo  Mo179  1  0.09524752  0.90413764  0.63305586  1
  Mo  Mo180  1  0.21338431  0.80008926  0.48999002  1
  Mo  Mo181  1  0.30355549  0.50209641  0.60666344  1
  Mo  Mo182  1  0.70164785  0.70164593  0.12924833  1
  Mo  Mo183  1  0.40286238  -0.00079787  0.22813017  1
  Mo  Mo184  1  0.09759431  0.51028567  0.86181023  1
  Mo  Mo185  1  0.59460954  0.80025587  0.49374026  1
  Mo  Mo186  1  0.10899580  0.10580767  0.36628078  1
  Mo  Mo187  1  0.69750501  0.09487859  0.61512035  1
  Mo  Mo188  1  0.01060031  0.20641063  0.77230499  1
  Mo  Mo189  1  0.00975188  0.40983552  0.74716733  1
  Mo  Mo190  1  0.01225883  0.60428109  0.50299852  1
  Mo  Mo191  1  0.59757241  0.60405446  0.73593624  1
  Mo  Mo192  1  0.70173538  0.29600033  0.64113976  1
  Mo  Mo193  1  0.48951859  0.10532070  0.63184273  1
  Mo  Mo194  1  0.89667917  0.09459953  0.89596218  1
  Mo  Mo195  1  0.79922178  0.59837519  0.50731028  1
  Mo  Mo196  1  0.11192471  0.69698039  0.36050257  1
  Mo  Mo197  1  0.70071871  0.90752582  0.37748408  1
  Mo  Mo198  1  0.48786305  0.69374496  0.38755257  1
  Mo  Mo199  1  0.49984142  0.09923541  0.11556870  1
