# generated using pymatgen
data_HfZrTaTiMo
_symmetry_space_group_name_H-M   'P 1'
_cell_length_a   15.82444263
_cell_length_b   15.84559729
_cell_length_c   15.43035919
_cell_angle_alpha   90.03056582
_cell_angle_beta   90.02245902
_cell_angle_gamma   90.10319344
_symmetry_Int_Tables_number   1
_chemical_formula_structural   HfZrTaTiMo
_chemical_formula_sum   'Hf40 Zr40 Ta40 Ti40 Mo40'
_cell_volume   3869.12064830
_cell_formula_units_Z   40
loop_
 _symmetry_equiv_pos_site_id
 _symmetry_equiv_pos_as_xyz
  1  'x, y, z'
loop_
 _atom_site_type_symbol
 _atom_site_label
 _atom_site_symmetry_multiplicity
 _atom_site_fract_x
 _atom_site_fract_y
 _atom_site_fract_z
 _atom_site_occupancy
  Hf  Hf0  1  0.50117032  0.50008672  0.85591688  1
  Hf  Hf1  1  -0.00739509  0.80734733  0.23649869  1
  Hf  Hf2  1  0.88401517  0.92091662  0.11831996  1
  Hf  Hf3  1  0.39561883  0.80655642  0.49369521  1
  Hf  Hf4  1  0.80759217  0.20071903  0.24834882  1
  Hf  Hf5  1  0.60468097  0.00142866  0.75531243  1
  Hf  Hf6  1  0.00776953  0.40161594  0.25283594  1
  Hf  Hf7  1  0.02388075  -0.00507757  0.48639761  1
  Hf  Hf8  1  0.49999137  0.50091870  0.62696314  1
  Hf  Hf9  1  0.27853746  0.69202975  0.60206078  1
  Hf  Hf10  1  0.59849879  0.20127168  0.00508725  1
  Hf  Hf11  1  0.20229999  0.20074615  0.73969247  1
  Hf  Hf12  1  0.79452411  0.61049674  0.25727770  1
  Hf  Hf13  1  0.60789280  0.80518240  0.26603049  1
  Hf  Hf14  1  0.59972020  0.01767070  0.51062346  1
  Hf  Hf15  1  0.28482206  0.28232575  0.12946825  1
  Hf  Hf16  1  0.48946607  0.90564224  0.63160947  1
  Hf  Hf17  1  0.40509037  0.39529628  0.00476677  1
  Hf  Hf18  1  0.19065616  0.58530064  0.25748708  1
  Hf  Hf19  1  0.20843935  0.40711633  0.72934380  1
  Hf  Hf20  1  0.17243638  0.39312474  0.01731395  1
  Hf  Hf21  1  0.51662806  0.88526257  0.11722568  1
  Hf  Hf22  1  0.09778097  0.50429102  0.86899396  1
  Hf  Hf23  1  0.39081218  0.01210791  0.49576853  1
  Hf  Hf24  1  0.37957853  0.59960744  0.74686201  1
  Hf  Hf25  1  0.79713846  0.60899199  0.49540281  1
  Hf  Hf26  1  0.30864527  0.29005587  0.60375345  1
  Hf  Hf27  1  0.18169609  0.78183466  0.74412003  1
  Hf  Hf28  1  0.29074932  0.70189065  0.37079252  1
  Hf  Hf29  1  0.60372431  0.79728834  0.49806843  1
  Hf  Hf30  1  0.79395140  0.20114696  0.49813432  1
  Hf  Hf31  1  0.29173765  0.91306136  0.36481836  1
  Hf  Hf32  1  0.10289164  0.70469674  0.89495615  1
  Hf  Hf33  1  0.40379824  0.19114329  0.01436372  1
  Hf  Hf34  1  0.30728749  0.49013093  0.13855616  1
  Hf  Hf35  1  0.39835215  0.00120648  0.01908269  1
  Hf  Hf36  1  0.29593250  0.29434125  0.88481864  1
  Hf  Hf37  1  0.60499277  0.59370397  0.49014655  1
  Hf  Hf38  1  0.08278255  0.70304825  0.38289674  1
  Hf  Hf39  1  0.20099289  0.59819621  0.02251845  1
  Zr  Zr40  1  0.09462299  0.29794136  0.86165929  1
  Zr  Zr41  1  -0.00318834  0.18122476  0.50656868  1
  Zr  Zr42  1  0.90534815  0.50163991  0.39410985  1
  Zr  Zr43  1  0.40329769  0.59787019  -0.00089231  1
  Zr  Zr44  1  0.39328727  0.79027812  0.00019497  1
  Zr  Zr45  1  0.79520190  0.80110879  -0.00304527  1
  Zr  Zr46  1  0.60034356  0.79705648  0.75331248  1
  Zr  Zr47  1  0.71057856  0.11780904  0.64692346  1
  Zr  Zr48  1  0.60567888  0.19148642  0.22682638  1
  Zr  Zr49  1  0.19525633  0.38623041  0.26150859  1
  Zr  Zr50  1  0.90564635  0.89958989  0.37505001  1
  Zr  Zr51  1  0.70076129  0.30072264  0.37494062  1
  Zr  Zr52  1  0.59680690  0.60366828  0.00207664  1
  Zr  Zr53  1  0.81720767  0.81132561  0.76272317  1
  Zr  Zr54  1  0.80246037  0.20258542  -0.00596493  1
  Zr  Zr55  1  -0.00976892  -0.01823537  0.75692951  1
  Zr  Zr56  1  0.60547945  0.39264934  0.73744054  1
  Zr  Zr57  1  0.28158914  0.89603686  0.87503816  1
  Zr  Zr58  1  0.49283277  0.69518946  0.62367494  1
  Zr  Zr59  1  0.90854107  0.69807752  0.87965904  1
  Zr  Zr60  1  0.90696480  0.30555218  0.11917876  1
  Zr  Zr61  1  0.89900712  0.90437981  0.60965874  1
  Zr  Zr62  1  0.29238513  0.49480931  0.87887866  1
  Zr  Zr63  1  0.00537715  0.40511869  0.72923725  1
  Zr  Zr64  1  0.60864730  0.58773228  0.25882109  1
  Zr  Zr65  1  0.28388715  0.90538601  0.62888413  1
  Zr  Zr66  1  0.30233460  0.08864675  0.86756297  1
  Zr  Zr67  1  0.10432419  0.09377878  0.87126154  1
  Zr  Zr68  1  0.60310878  0.40505295  -0.00039652  1
  Zr  Zr69  1  0.49225436  0.90036568  0.87741460  1
  Zr  Zr70  1  0.79708348  0.41270679  0.25644129  1
  Zr  Zr71  1  0.70898869  0.90346843  0.62236441  1
  Zr  Zr72  1  0.49101172  0.69688669  0.36475023  1
  Zr  Zr73  1  0.01281254  0.61918552  0.73200602  1
  Zr  Zr74  1  0.79006235  0.59411610  0.00413534  1
  Zr  Zr75  1  0.50713928  0.28991585  0.37145583  1
  Zr  Zr76  1  -0.00829459  0.59852262  0.24232588  1
  Zr  Zr77  1  -0.00072258  0.58628243  0.01719743  1
  Zr  Zr78  1  0.30481789  0.70278680  0.14900661  1
  Zr  Zr79  1  0.89277334  0.28794390  0.63517509  1
  Ta  Ta80  1  0.01454882  0.20369188  0.25724777  1
  Ta  Ta81  1  0.79766656  0.00273490  0.26054038  1
  Ta  Ta82  1  0.79842559  0.40487119  0.74558620  1
  Ta  Ta83  1  0.40959799  0.39690590  0.49122620  1
  Ta  Ta84  1  0.70626671  0.69695924  0.63443624  1
  Ta  Ta85  1  0.90502106  0.30180413  0.86427873  1
  Ta  Ta86  1  0.89878441  0.50796996  0.61981087  1
  Ta  Ta87  1  0.01170390  0.20492778  0.00248318  1
  Ta  Ta88  1  0.40788388  0.00302107  0.23710231  1
  Ta  Ta89  1  0.50322236  0.91315018  0.37487486  1
  Ta  Ta90  1  0.30140553  0.28541862  0.38332627  1
  Ta  Ta91  1  0.90780283  0.30143357  0.38437440  1
  Ta  Ta92  1  0.39569470  0.19166415  0.24513582  1
  Ta  Ta93  1  0.30293444  0.50112398  0.60111372  1
  Ta  Ta94  1  0.50020515  0.10204695  0.86625202  1
  Ta  Ta95  1  0.11287353  0.51647015  0.60281272  1
  Ta  Ta96  1  0.00815072  0.00952491  0.24369993  1
  Ta  Ta97  1  0.80093817  0.40439408  -0.01821550  1
  Ta  Ta98  1  0.10622120  0.08296137  0.63648710  1
  Ta  Ta99  1  0.49874644  0.69432186  0.14206089  1
  Ta  Ta100  1  0.69428111  0.10010401  0.37255001  1
  Ta  Ta101  1  0.70121856  0.91200819  0.38822799  1
  Ta  Ta102  1  0.49560521  0.30675411  0.14085541  1
  Ta  Ta103  1  0.49712474  0.10611488  0.64384815  1
  Ta  Ta104  1  0.60619492  0.39653644  0.50898610  1
  Ta  Ta105  1  0.10779178  0.29090787  0.60821463  1
  Ta  Ta106  1  0.40263876  0.20549354  0.74953208  1
  Ta  Ta107  1  0.38680592  0.79475017  0.75241548  1
  Ta  Ta108  1  0.10126960  0.29189201  0.39890847  1
  Ta  Ta109  1  0.70478282  0.31330039  0.12240531  1
  Ta  Ta110  1  0.80967780  0.01775638  0.49129841  1
  Ta  Ta111  1  0.70230115  0.90708457  0.88762386  1
  Ta  Ta112  1  0.60253085  0.00525147  0.00217917  1
  Ta  Ta113  1  0.09805691  0.49613688  0.39774577  1
  Ta  Ta114  1  0.68703422  0.71499329  0.12496258  1
  Ta  Ta115  1  0.00258657  0.81220400  0.01940888  1
  Ta  Ta116  1  0.71790643  0.08393298  0.11604706  1
  Ta  Ta117  1  0.79259484  0.80722243  0.25167951  1
  Ta  Ta118  1  0.90452740  0.10822718  0.86425626  1
  Ta  Ta119  1  0.50515964  0.09568767  0.36099625  1
  Ti  Ti120  1  0.60556779  0.40479375  0.25162191  1
  Ti  Ti121  1  0.49946332  0.49928473  0.14195703  1
  Ti  Ti122  1  -0.00021659  0.39652608  0.51373950  1
  Ti  Ti123  1  0.19213403  0.81151305  0.02259410  1
  Ti  Ti124  1  0.00436060  0.00692936  0.00629085  1
  Ti  Ti125  1  0.20877328  0.39828633  0.49285246  1
  Ti  Ti126  1  0.90871742  0.71243884  0.61485004  1
  Ti  Ti127  1  0.70342104  0.10271108  0.87311414  1
  Ti  Ti128  1  0.18003632  0.82126016  0.48694464  1
  Ti  Ti129  1  0.19947235  0.01666616  0.24500212  1
  Ti  Ti130  1  0.80175138  0.59836404  0.74030873  1
  Ti  Ti131  1  0.79259841  0.40336089  0.51563221  1
  Ti  Ti132  1  0.51137604  0.28593208  0.61893276  1
  Ti  Ti133  1  0.90639387  0.10364684  0.36474143  1
  Ti  Ti134  1  0.18573475  0.81041224  0.24667746  1
  Ti  Ti135  1  0.60942513  -0.00518236  0.23849388  1
  Ti  Ti136  1  0.41292869  0.18957813  0.49533390  1
  Ti  Ti137  1  0.40137980  0.40172953  0.27247867  1
  Ti  Ti138  1  0.29371915  0.90402384  0.13727755  1
  Ti  Ti139  1  0.50020323  0.69625296  0.86327155  1
  Ti  Ti140  1  0.39667747  0.39149597  0.73792660  1
  Ti  Ti141  1  0.49951103  0.29653215  0.86954675  1
  Ti  Ti142  1  0.40385538  0.81189139  0.25336112  1
  Ti  Ti143  1  0.80024319  0.79593802  0.48478514  1
  Ti  Ti144  1  0.39874641  0.58702752  0.47801931  1
  Ti  Ti145  1  0.90822104  0.10647165  0.12489767  1
  Ti  Ti146  1  0.30273868  0.09015694  0.63872933  1
  Ti  Ti147  1  0.70038646  0.50651771  0.85826553  1
  Ti  Ti148  1  0.88969288  0.49231438  0.12063557  1
  Ti  Ti149  1  0.09751465  0.70195692  0.12914344  1
  Ti  Ti150  1  0.20586707  0.16769229  0.49389883  1
  Ti  Ti151  1  0.69588806  0.69597925  0.86403930  1
  Ti  Ti152  1  0.28827337  0.69475966  0.87598707  1
  Ti  Ti153  1  0.90239984  0.49782623  0.86476443  1
  Ti  Ti154  1  0.70199543  0.29871268  0.86660749  1
  Ti  Ti155  1  0.09076485  0.88748653  0.62787743  1
  Ti  Ti156  1  0.11353094  0.11940503  0.12607410  1
  Ti  Ti157  1  0.19539121  0.00396672  0.01962984  1
  Ti  Ti158  1  0.09313125  0.89550131  0.88238389  1
  Ti  Ti159  1  0.88952393  0.70455309  0.12109454  1
  Mo  Mo160  1  0.80649381  0.01029201  -0.01639962  1
  Mo  Mo161  1  0.20023612  0.00249734  0.49934276  1
  Mo  Mo162  1  0.50311980  0.48788032  0.37623092  1
  Mo  Mo163  1  0.50797995  0.09535268  0.13199622  1
  Mo  Mo164  1  0.39764929  0.00130856  0.74982977  1
  Mo  Mo165  1  0.09367479  0.29159090  0.12678370  1
  Mo  Mo166  1  0.19835774  0.19703738  0.27050536  1
  Mo  Mo167  1  0.60828300  0.60072736  0.74685062  1
  Mo  Mo168  1  0.59582605  0.20377148  0.76816594  1
  Mo  Mo169  1  0.90851643  0.90951035  0.90057331  1
  Mo  Mo170  1  0.30847254  0.10113371  0.36173504  1
  Mo  Mo171  1  0.19863564  0.59688565  0.74391140  1
  Mo  Mo172  1  0.90174092  0.09487009  0.64469977  1
  Mo  Mo173  1  0.10764807  0.09883697  0.36457795  1
  Mo  Mo174  1  0.09599340  0.70770721  0.59695789  1
  Mo  Mo175  1  0.10099146  0.91363097  0.12920825  1
  Mo  Mo176  1  0.40088280  0.58959277  0.26136808  1
  Mo  Mo177  1  0.69835314  0.30217243  0.62671922  1
  Mo  Mo178  1  0.60009489  0.79373880  -0.01481485  1
  Mo  Mo179  1  -0.00016887  0.79819272  0.75320274  1
  Mo  Mo180  1  0.09351481  0.49445016  0.13051224  1
  Mo  Mo181  1  0.69980366  0.90275691  0.11128025  1
  Mo  Mo182  1  0.00086275  0.19225010  0.73165071  1
  Mo  Mo183  1  0.70322281  0.70960500  0.37148736  1
  Mo  Mo184  1  -0.00260159  0.60323794  0.51076606  1
  Mo  Mo185  1  -0.01393110  0.39804003  -0.00708857  1
  Mo  Mo186  1  0.70011711  0.49325049  0.39346068  1
  Mo  Mo187  1  -0.00236472  0.80165438  0.49348448  1
  Mo  Mo188  1  0.20292104  0.59714043  0.47578996  1
  Mo  Mo189  1  0.70723699  0.50384543  0.62351682  1
  Mo  Mo190  1  0.59595464  0.19677538  0.50280399  1
  Mo  Mo191  1  0.70182079  0.49754510  0.11903595  1
  Mo  Mo192  1  0.80063311  0.00386513  0.77345123  1
  Mo  Mo193  1  0.19562962  0.19021074  -0.00467885  1
  Mo  Mo194  1  0.79880312  0.20613471  0.76880049  1
  Mo  Mo195  1  0.30233040  0.48999120  0.38142487  1
  Mo  Mo196  1  0.89503027  0.70795117  0.37379748  1
  Mo  Mo197  1  0.19262184  -0.01075291  0.74659568  1
  Mo  Mo198  1  0.29655652  0.09583815  0.13468606  1
  Mo  Mo199  1  0.10415461  0.90339939  0.35079831  1
