# generated using pymatgen
data_HfZrTaTiMo
_symmetry_space_group_name_H-M   'P 1'
_cell_length_a   15.84145446
_cell_length_b   15.82711702
_cell_length_c   15.40160931
_cell_angle_alpha   89.96139791
_cell_angle_beta   89.97529055
_cell_angle_gamma   90.04434356
_symmetry_Int_Tables_number   1
_chemical_formula_structural   HfZrTaTiMo
_chemical_formula_sum   'Hf40 Zr40 Ta40 Ti40 Mo40'
_cell_volume   3861.55922573
_cell_formula_units_Z   40
loop_
 _symmetry_equiv_pos_site_id
 _symmetry_equiv_pos_as_xyz
  1  'x, y, z'
loop_
 _atom_site_type_symbol
 _atom_site_label
 _atom_site_symmetry_multiplicity
 _atom_site_fract_x
 _atom_site_fract_y
 _atom_site_fract_z
 _atom_site_occupancy
  Hf  Hf0  1  0.51603983  0.30978741  0.61376167  1
  Hf  Hf1  1  0.59769912  0.21282683  0.76735459  1
  Hf  Hf2  1  0.77640235  0.59078009  0.73437519  1
  Hf  Hf3  1  0.20460555  0.00474331  0.50347740  1
  Hf  Hf4  1  0.09526290  0.69935936  0.12148069  1
  Hf  Hf5  1  0.88811020  0.89364481  0.39590226  1
  Hf  Hf6  1  0.10118600  0.49772393  0.61974079  1
  Hf  Hf7  1  0.10164585  0.72023680  0.86171228  1
  Hf  Hf8  1  0.31298096  0.09848724  0.36045749  1
  Hf  Hf9  1  0.90306255  0.29799788  0.63037439  1
  Hf  Hf10  1  0.49467949  0.90310940  0.61902197  1
  Hf  Hf11  1  0.40911630  0.19246225  0.49667869  1
  Hf  Hf12  1  -0.00050979  0.39670535  0.76084701  1
  Hf  Hf13  1  0.59960463  0.60744198  0.26057668  1
  Hf  Hf14  1  0.70571558  0.09402258  0.87919153  1
  Hf  Hf15  1  0.89450321  0.29701721  0.88370315  1
  Hf  Hf16  1  -0.00007544  0.39303280  0.48668725  1
  Hf  Hf17  1  0.59322203  0.80017555  -0.01348565  1
  Hf  Hf18  1  0.80121714  0.78536336  0.73626304  1
  Hf  Hf19  1  0.79952972  0.20496082  0.23821457  1
  Hf  Hf20  1  0.90724244  0.09654595  0.63026026  1
  Hf  Hf21  1  0.00395252  0.19880398  0.48619533  1
  Hf  Hf22  1  0.78580236  0.00541433  0.50886796  1
  Hf  Hf23  1  0.20450918  0.20102819  0.49002280  1
  Hf  Hf24  1  0.30156804  0.49809314  0.38252766  1
  Hf  Hf25  1  0.00568796  0.39328907  0.26305619  1
  Hf  Hf26  1  0.11521019  0.08248547  0.87615308  1
  Hf  Hf27  1  0.31012836  0.50082638  0.60604447  1
  Hf  Hf28  1  -0.01092455  -0.01560343  0.23915461  1
  Hf  Hf29  1  0.79991461  0.20117868  0.75579937  1
  Hf  Hf30  1  0.20373870  0.60488853  -0.00702480  1
  Hf  Hf31  1  0.60742572  0.20495060  0.49052760  1
  Hf  Hf32  1  0.50178280  0.69904172  0.60670487  1
  Hf  Hf33  1  0.79882312  0.80979670  0.23711135  1
  Hf  Hf34  1  0.21409029  0.61054839  0.74573020  1
  Hf  Hf35  1  0.30049356  0.49632623  0.13314888  1
  Hf  Hf36  1  0.68840904  0.09549409  0.35718651  1
  Hf  Hf37  1  0.19539562  0.80131280  0.51080166  1
  Hf  Hf38  1  0.49999412  0.49755807  0.88319839  1
  Hf  Hf39  1  0.79249574  0.00040557  0.22883838  1
  Zr  Zr40  1  0.08425396  0.88909801  0.38569903  1
  Zr  Zr41  1  0.69872890  0.70049360  0.11491753  1
  Zr  Zr42  1  0.10164327  0.50112111  0.13078930  1
  Zr  Zr43  1  0.10824497  0.09620105  0.11444558  1
  Zr  Zr44  1  0.58629489  0.80591851  0.25373451  1
  Zr  Zr45  1  0.59929842  0.78836462  0.75931781  1
  Zr  Zr46  1  0.78916096  0.39691014  0.47309992  1
  Zr  Zr47  1  0.78916381  0.40855852  0.00247416  1
  Zr  Zr48  1  0.59740353  0.19533449  0.00784985  1
  Zr  Zr49  1  0.60007707  0.38821402  0.00148029  1
  Zr  Zr50  1  0.90942681  0.51750317  0.36959667  1
  Zr  Zr51  1  0.09729248  0.89309433  0.10921384  1
  Zr  Zr52  1  0.40356616  0.20754270  0.74823934  1
  Zr  Zr53  1  0.31918775  0.70514635  0.39228025  1
  Zr  Zr54  1  0.90386867  0.71034889  0.39037975  1
  Zr  Zr55  1  0.20622918  0.39527026  0.75546076  1
  Zr  Zr56  1  0.10980184  0.30022579  0.12006726  1
  Zr  Zr57  1  0.69145445  0.10064238  0.63820380  1
  Zr  Zr58  1  0.30856969  0.10003654  0.13630201  1
  Zr  Zr59  1  0.20195824  0.79902566  0.26026882  1
  Zr  Zr60  1  0.10124125  0.90506043  0.64358770  1
  Zr  Zr61  1  0.89763317  0.08877403  0.37358518  1
  Zr  Zr62  1  0.01173909  0.19957814  0.76645431  1
  Zr  Zr63  1  0.41457280  0.40637615  0.74204881  1
  Zr  Zr64  1  0.10066686  0.50749653  0.86746692  1
  Zr  Zr65  1  0.79236072  0.60215205  0.51051100  1
  Zr  Zr66  1  0.27837461  0.90799050  0.86435909  1
  Zr  Zr67  1  0.89055340  0.48851196  0.62305536  1
  Zr  Zr68  1  -0.01745582  0.61383249  0.74154058  1
  Zr  Zr69  1  0.19647654  -0.00687007  0.25785153  1
  Zr  Zr70  1  0.79357459  0.20200400  0.01805944  1
  Zr  Zr71  1  0.31450952  0.30231602  0.87997336  1
  Zr  Zr72  1  0.30122638  0.89878544  0.11518394  1
  Zr  Zr73  1  0.00125832  0.40406181  -0.00846538  1
  Zr  Zr74  1  0.71011935  0.89514866  0.87844081  1
  Zr  Zr75  1  0.79930943  0.20879633  0.48859743  1
  Zr  Zr76  1  0.39824455  0.79654519  0.75941512  1
  Zr  Zr77  1  0.90105757  0.51021123  0.13662958  1
  Zr  Zr78  1  0.20161789  0.60386155  0.25891668  1
  Zr  Zr79  1  -0.00044006  0.19657735  0.25160271  1
  Ta  Ta80  1  -0.00586604  0.60628153  -0.01262114  1
  Ta  Ta81  1  0.31236915  0.90060328  0.38786064  1
  Ta  Ta82  1  0.49640838  0.50151141  0.37159608  1
  Ta  Ta83  1  0.90448137  0.89245650  0.88510503  1
  Ta  Ta84  1  0.20770190  0.39882999  -0.00932619  1
  Ta  Ta85  1  0.49272801  0.89383208  0.39176596  1
  Ta  Ta86  1  0.10605070  0.50211752  0.38328068  1
  Ta  Ta87  1  0.90043704  0.08748932  0.88565219  1
  Ta  Ta88  1  0.10609867  0.10627758  0.63303822  1
  Ta  Ta89  1  0.69746146  0.49690254  0.14475552  1
  Ta  Ta90  1  0.40730387  0.19936687  0.00936008  1
  Ta  Ta91  1  0.58843817  0.00770867  0.49626752  1
  Ta  Ta92  1  0.49274566  0.89716241  0.11015056  1
  Ta  Ta93  1  0.79883577  0.61394036  0.25463684  1
  Ta  Ta94  1  0.49463102  0.30160325  0.14077444  1
  Ta  Ta95  1  0.21343929  0.19811550  -0.00814596  1
  Ta  Ta96  1  0.58803745  -0.00765881  0.76473713  1
  Ta  Ta97  1  0.60186676  0.58721464  0.00927190  1
  Ta  Ta98  1  0.30531500  0.70443196  0.12117039  1
  Ta  Ta99  1  0.30740594  0.70257847  0.61459545  1
  Ta  Ta100  1  0.49226755  0.70197805  0.11347143  1
  Ta  Ta101  1  0.50090803  0.29630411  0.35719302  1
  Ta  Ta102  1  0.89597014  0.89910499  0.61796488  1
  Ta  Ta103  1  0.60252654  0.59708707  0.48545052  1
  Ta  Ta104  1  0.50032628  0.50009013  0.13722816  1
  Ta  Ta105  1  0.30138262  0.29999966  0.13464846  1
  Ta  Ta106  1  0.70493150  0.68205329  0.88977560  1
  Ta  Ta107  1  0.10841659  0.29964340  0.61599050  1
  Ta  Ta108  1  0.30466484  0.09787026  0.63453121  1
  Ta  Ta109  1  0.68455471  0.90779379  0.11229560  1
  Ta  Ta110  1  0.61409265  0.40857190  0.76276896  1
  Ta  Ta111  1  0.19183653  0.60734643  0.50506652  1
  Ta  Ta112  1  0.70193070  0.71562909  0.38713080  1
  Ta  Ta113  1  0.31123107  0.50745686  0.87990888  1
  Ta  Ta114  1  0.90118811  0.70570422  0.11056825  1
  Ta  Ta115  1  0.49685843  0.68622490  0.88681648  1
  Ta  Ta116  1  0.29978144  0.30158088  0.61305154  1
  Ta  Ta117  1  0.49729466  0.09452211  0.63429644  1
  Ta  Ta118  1  0.40703506  0.61302733  0.25175251  1
  Ta  Ta119  1  0.68924799  0.89634632  0.62471565  1
  Ti  Ti120  1  0.30423801  0.09761345  0.86434500  1
  Ti  Ti121  1  0.39924240  0.59765802  0.00837293  1
  Ti  Ti122  1  0.00142453  0.78268753  0.52857619  1
  Ti  Ti123  1  0.41258626  -0.02249417  0.25063379  1
  Ti  Ti124  1  0.88742214  0.70511861  0.88988884  1
  Ti  Ti125  1  0.40864361  0.39290198  0.48950441  1
  Ti  Ti126  1  0.40018123  0.40188621  0.25414010  1
  Ti  Ti127  1  0.40693427  0.60284544  0.74895610  1
  Ti  Ti128  1  0.90880049  0.09605148  0.10844713  1
  Ti  Ti129  1  0.70669328  0.31928676  0.63175955  1
  Ti  Ti130  1  0.39255391  0.79625609  -0.01854102  1
  Ti  Ti131  1  0.90408324  0.30742330  0.12234029  1
  Ti  Ti132  1  0.80061885  -0.00411234  0.01270989  1
  Ti  Ti133  1  0.39722962  0.00298526  -0.00982151  1
  Ti  Ti134  1  0.87988467  0.51211187  0.87399339  1
  Ti  Ti135  1  0.49995378  0.09328220  0.35671402  1
  Ti  Ti136  1  0.00517032  0.00129241  0.50684289  1
  Ti  Ti137  1  0.20226098  0.20503045  0.75370334  1
  Ti  Ti138  1  -0.00402703  -0.00372482  0.75918755  1
  Ti  Ti139  1  0.19997032  0.80136618  -0.00934375  1
  Ti  Ti140  1  0.08518260  0.69001825  0.37747740  1
  Ti  Ti141  1  0.30351523  0.30191218  0.36707660  1
  Ti  Ti142  1  0.00400551  -0.00988600  -0.00677337  1
  Ti  Ti143  1  0.80378555  -0.00921174  0.74872829  1
  Ti  Ti144  1  0.79403360  0.39812103  0.26073007  1
  Ti  Ti145  1  0.30719592  0.90863264  0.63099049  1
  Ti  Ti146  1  0.00925672  0.19881227  -0.00824486  1
  Ti  Ti147  1  0.51111122  0.49977593  0.60783381  1
  Ti  Ti148  1  0.50390919  0.08700786  0.13617982  1
  Ti  Ti149  1  0.58978276  0.00169240  -0.00793721  1
  Ti  Ti150  1  0.69067588  0.90339026  0.38118774  1
  Ti  Ti151  1  0.59573303  0.59584826  0.74528845  1
  Ti  Ti152  1  0.49153760  0.09844807  0.87128223  1
  Ti  Ti153  1  0.60123372  0.19915798  0.23549209  1
  Ti  Ti154  1  0.19687311  0.20984520  0.26040491  1
  Ti  Ti155  1  0.10022378  0.09326408  0.37013206  1
  Ti  Ti156  1  -0.01016552  0.80294219  0.74430912  1
  Ti  Ti157  1  0.40242844  0.39719095  0.01115880  1
  Ti  Ti158  1  0.60857034  0.40393150  0.47040432  1
  Ti  Ti159  1  -0.00985968  0.79389892  0.24482603  1
  Mo  Mo160  1  0.40646468  0.59563566  0.49573770  1
  Mo  Mo161  1  0.68902091  0.69841609  0.60997572  1
  Mo  Mo162  1  0.90243126  0.29869227  0.36084287  1
  Mo  Mo163  1  0.89634342  0.70104244  0.61861570  1
  Mo  Mo164  1  0.69663745  0.50643375  0.87937134  1
  Mo  Mo165  1  0.20483084  0.80001559  0.73330710  1
  Mo  Mo166  1  0.40225842  0.79806885  0.24326103  1
  Mo  Mo167  1  0.20625586  0.00446791  -0.00030254  1
  Mo  Mo168  1  0.59757722  0.40229454  0.25574779  1
  Mo  Mo169  1  0.20305114  0.00959492  0.73489006  1
  Mo  Mo170  1  0.20520295  0.39449686  0.26736268  1
  Mo  Mo171  1  -0.00303715  0.61130298  0.24751232  1
  Mo  Mo172  1  0.00851090  0.60186918  0.51592691  1
  Mo  Mo173  1  0.79070925  0.80409339  0.52011560  1
  Mo  Mo174  1  0.10787088  0.29294839  0.89139539  1
  Mo  Mo175  1  0.70346379  0.30119162  0.86945735  1
  Mo  Mo176  1  0.40126657  0.00686690  0.49668299  1
  Mo  Mo177  1  0.49205815  0.90469154  0.88908190  1
  Mo  Mo178  1  0.67752556  0.48883770  0.61736377  1
  Mo  Mo179  1  0.40360358  0.00349117  0.75978574  1
  Mo  Mo180  1  0.60138220  0.80544986  0.49246730  1
  Mo  Mo181  1  0.50158729  0.70343858  0.38959577  1
  Mo  Mo182  1  0.79955080  0.59873726  0.00821117  1
  Mo  Mo183  1  0.70085999  0.50902413  0.35620078  1
  Mo  Mo184  1  0.50041849  0.30008803  0.89115149  1
  Mo  Mo185  1  0.89749676  0.89577938  0.10268254  1
  Mo  Mo186  1  0.11258362  0.30032142  0.37854856  1
  Mo  Mo187  1  0.69250354  0.29947059  0.35238143  1
  Mo  Mo188  1  -0.00055201  0.79672182  -0.01210470  1
  Mo  Mo189  1  0.69488228  0.30520608  0.14537940  1
  Mo  Mo190  1  0.59144587  -0.00741732  0.24930808  1
  Mo  Mo191  1  0.68909437  0.09273833  0.12345987  1
  Mo  Mo192  1  0.40597670  0.20032129  0.24369516  1
  Mo  Mo193  1  0.20376802  0.39684549  0.49294446  1
  Mo  Mo194  1  0.10320992  0.70207845  0.63903821  1
  Mo  Mo195  1  0.79350020  0.39909124  0.76417772  1
  Mo  Mo196  1  0.30510071  0.69608798  0.88302665  1
  Mo  Mo197  1  0.39802077  0.80673180  0.51675853  1
  Mo  Mo198  1  0.79822794  0.80293068  0.00728872  1
  Mo  Mo199  1  0.09166476  0.90002185  0.86487636  1
