# generated using pymatgen
data_HfZrTaTiMo
_symmetry_space_group_name_H-M   'P 1'
_cell_length_a   15.82643106
_cell_length_b   15.84733655
_cell_length_c   15.37684069
_cell_angle_alpha   89.99823429
_cell_angle_beta   90.01577115
_cell_angle_gamma   90.13118753
_symmetry_Int_Tables_number   1
_chemical_formula_structural   HfZrTaTiMo
_chemical_formula_sum   'Hf40 Zr40 Ta40 Ti40 Mo40'
_cell_volume   3856.60563342
_cell_formula_units_Z   40
loop_
 _symmetry_equiv_pos_site_id
 _symmetry_equiv_pos_as_xyz
  1  'x, y, z'
loop_
 _atom_site_type_symbol
 _atom_site_label
 _atom_site_symmetry_multiplicity
 _atom_site_fract_x
 _atom_site_fract_y
 _atom_site_fract_z
 _atom_site_occupancy
  Hf  Hf0  1  0.50431272  0.11227090  0.63881359  1
  Hf  Hf1  1  0.20139146  0.00257312  -0.00352930  1
  Hf  Hf2  1  0.00510343  -0.00410489  -0.01636025  1
  Hf  Hf3  1  0.09578619  0.90582995  0.64446991  1
  Hf  Hf4  1  0.19317813  0.60938361  0.50949887  1
  Hf  Hf5  1  0.29652899  0.10573531  0.64048903  1
  Hf  Hf6  1  0.51844325  0.71114602  0.13505466  1
  Hf  Hf7  1  0.20011243  0.59619522  0.73374235  1
  Hf  Hf8  1  0.69829215  0.87680912  0.12708683  1
  Hf  Hf9  1  0.60272211  0.59991743  0.00640246  1
  Hf  Hf10  1  0.49927650  0.10180319  0.11866775  1
  Hf  Hf11  1  0.10316800  0.90744382  0.13884400  1
  Hf  Hf12  1  0.77585251  0.38663398  0.51800779  1
  Hf  Hf13  1  0.02110143  0.00154326  0.48736385  1
  Hf  Hf14  1  0.80371105  -0.00044617  0.75309236  1
  Hf  Hf15  1  0.90154693  0.10108305  0.11483359  1
  Hf  Hf16  1  0.49944119  0.10181904  0.36871865  1
  Hf  Hf17  1  0.40586286  0.59286669  0.01840559  1
  Hf  Hf18  1  0.70047827  0.08566727  0.12090911  1
  Hf  Hf19  1  0.09302905  0.70803328  0.11989633  1
  Hf  Hf20  1  0.60153262  0.20967932  0.00874677  1
  Hf  Hf21  1  0.50740264  0.90077671  0.63142532  1
  Hf  Hf22  1  0.88595347  0.69548348  0.86800088  1
  Hf  Hf23  1  0.90703142  0.29694672  0.61317947  1
  Hf  Hf24  1  0.20177652  0.19221681  0.48727532  1
  Hf  Hf25  1  0.69682741  0.70048179  0.61916853  1
  Hf  Hf26  1  0.10220265  0.11540041  0.13869326  1
  Hf  Hf27  1  0.40433580  0.79584405  -0.00443082  1
  Hf  Hf28  1  0.39763134  0.59136594  0.24141885  1
  Hf  Hf29  1  -0.00074731  0.59217450  0.74645778  1
  Hf  Hf30  1  0.39709283  0.60056986  0.50243485  1
  Hf  Hf31  1  0.80204904  0.00111501  0.49926824  1
  Hf  Hf32  1  0.39918076  -0.00163141  0.75721201  1
  Hf  Hf33  1  0.80382053  0.21718701  0.74853515  1
  Hf  Hf34  1  -0.00790658  0.39491951  0.76715521  1
  Hf  Hf35  1  0.50512993  0.70045737  0.37102777  1
  Hf  Hf36  1  0.69882828  0.10584821  0.37673994  1
  Hf  Hf37  1  0.59782784  0.40613042  0.01564811  1
  Hf  Hf38  1  0.38709648  0.00061996  0.51196492  1
  Hf  Hf39  1  0.79784945  0.78751184  0.26619722  1
  Zr  Zr40  1  0.80187194  0.19692504  0.23769451  1
  Zr  Zr41  1  0.19117612  0.39218266  0.49283965  1
  Zr  Zr42  1  0.89694850  0.89304652  0.12200941  1
  Zr  Zr43  1  0.30531723  0.10407530  0.12217468  1
  Zr  Zr44  1  0.90184419  0.31133553  0.36728357  1
  Zr  Zr45  1  -0.00312269  0.78701320  0.26775545  1
  Zr  Zr46  1  0.38977229  0.39396391  0.75015740  1
  Zr  Zr47  1  0.40382112  0.20281034  0.49153724  1
  Zr  Zr48  1  0.39579585  0.79876800  0.51691427  1
  Zr  Zr49  1  0.90972023  0.10119860  0.62215681  1
  Zr  Zr50  1  0.50830318  0.89386260  0.86939965  1
  Zr  Zr51  1  0.00955273  0.21227652  -0.00775924  1
  Zr  Zr52  1  0.80089497  -0.01661548  -0.01580087  1
  Zr  Zr53  1  0.28388342  0.70915516  0.36626671  1
  Zr  Zr54  1  0.10387350  0.10516625  0.64236385  1
  Zr  Zr55  1  0.20241172  0.80764280  0.52659965  1
  Zr  Zr56  1  0.70045120  0.10850009  0.87704838  1
  Zr  Zr57  1  0.11915130  0.89501878  0.36320937  1
  Zr  Zr58  1  0.50404054  0.49537830  0.86452835  1
  Zr  Zr59  1  0.39563040  0.80805780  0.23719679  1
  Zr  Zr60  1  0.89913344  0.71000421  0.62905470  1
  Zr  Zr61  1  0.21109921  0.22269601  0.77294171  1
  Zr  Zr62  1  0.10083784  0.70543692  0.87115513  1
  Zr  Zr63  1  0.00357073  0.59887954  0.50732852  1
  Zr  Zr64  1  0.70268357  0.31295169  0.87821079  1
  Zr  Zr65  1  0.08907427  0.49261211  0.36752508  1
  Zr  Zr66  1  0.69802702  0.31024372  0.35107263  1
  Zr  Zr67  1  0.29789438  0.49755678  0.88405337  1
  Zr  Zr68  1  0.29913251  0.90946477  0.36845823  1
  Zr  Zr69  1  0.69584104  0.89302623  0.38596501  1
  Zr  Zr70  1  -0.01523561  0.00245526  0.26651228  1
  Zr  Zr71  1  -0.01709135  0.59472720  0.24414294  1
  Zr  Zr72  1  0.90284675  0.89505504  0.62549305  1
  Zr  Zr73  1  0.19573122  0.60057453  0.24214906  1
  Zr  Zr74  1  0.30286384  0.69137968  0.87214465  1
  Zr  Zr75  1  0.50925169  0.90664473  0.11540542  1
  Zr  Zr76  1  0.68898997  0.49573346  0.37664012  1
  Zr  Zr77  1  0.01296689  0.20255431  0.48224778  1
  Zr  Zr78  1  -0.00843525  0.60311146  0.00218499  1
  Zr  Zr79  1  0.70009174  0.10786278  0.62442248  1
  Ta  Ta80  1  0.50403220  0.31120321  0.36075451  1
  Ta  Ta81  1  0.10007581  0.49947707  0.88762073  1
  Ta  Ta82  1  0.30114029  0.49532380  0.37986153  1
  Ta  Ta83  1  0.29786159  0.89483535  0.87324015  1
  Ta  Ta84  1  0.60505986  0.59688576  0.24267961  1
  Ta  Ta85  1  0.88802112  0.49257013  0.38525752  1
  Ta  Ta86  1  0.90135039  0.30898950  0.12796323  1
  Ta  Ta87  1  0.10046808  0.29695431  0.34187218  1
  Ta  Ta88  1  0.40242802  0.39621370  0.49628065  1
  Ta  Ta89  1  -0.00084666  0.40099385  0.00232912  1
  Ta  Ta90  1  0.49930853  0.90202389  0.37848237  1
  Ta  Ta91  1  0.50198638  0.10971364  0.87502438  1
  Ta  Ta92  1  0.79781656  0.59815751  0.24499159  1
  Ta  Ta93  1  0.70325281  0.89402508  0.62403371  1
  Ta  Ta94  1  0.60672089  0.21863697  0.49831071  1
  Ta  Ta95  1  0.60001714  -0.00614405  0.25599260  1
  Ta  Ta96  1  0.39481109  0.79257516  0.74197165  1
  Ta  Ta97  1  0.20726740  0.40316588  0.23588846  1
  Ta  Ta98  1  0.10788150  0.10711185  0.87472011  1
  Ta  Ta99  1  0.50257180  0.29947962  0.63417160  1
  Ta  Ta100  1  0.70580432  0.50035232  0.86938916  1
  Ta  Ta101  1  0.10006448  0.29983761  0.63499860  1
  Ta  Ta102  1  -0.00041776  0.20614391  0.77157541  1
  Ta  Ta103  1  0.88426632  0.49408765  0.88605422  1
  Ta  Ta104  1  0.69671441  0.68916739  0.39088547  1
  Ta  Ta105  1  0.29955908  0.30047812  0.61801230  1
  Ta  Ta106  1  0.31252324  0.11095514  0.88447612  1
  Ta  Ta107  1  0.59317788  0.00426354  0.50185754  1
  Ta  Ta108  1  0.30240289  0.30402981  0.36146349  1
  Ta  Ta109  1  0.79681536  0.58283174  0.73343202  1
  Ta  Ta110  1  0.79424781  0.59050681  0.51215657  1
  Ta  Ta111  1  0.50227745  0.49516962  0.61938111  1
  Ta  Ta112  1  0.50267852  0.68956282  0.85739822  1
  Ta  Ta113  1  0.78692026  0.59929277  0.01199370  1
  Ta  Ta114  1  -0.00123823  0.00366707  0.77535501  1
  Ta  Ta115  1  0.30059923  0.49277434  0.61658839  1
  Ta  Ta116  1  0.29683999  0.09818072  0.35692131  1
  Ta  Ta117  1  0.20496974  0.21410116  -0.00443464  1
  Ta  Ta118  1  0.20029638  0.80736125  0.00206620  1
  Ta  Ta119  1  0.09679372  0.49432718  0.11909838  1
  Ti  Ti120  1  0.59975102  0.20080274  0.23864101  1
  Ti  Ti121  1  0.49921559  0.69084178  0.63187314  1
  Ti  Ti122  1  0.40071477  0.20622842  0.25069928  1
  Ti  Ti123  1  0.50306766  0.49666667  0.37680932  1
  Ti  Ti124  1  0.89553934  0.11158944  0.37914641  1
  Ti  Ti125  1  0.20233494  0.80009012  0.74534811  1
  Ti  Ti126  1  0.11615335  0.09721222  0.34660043  1
  Ti  Ti127  1  -0.00063995  0.80784191  -0.01287994  1
  Ti  Ti128  1  0.61472384  0.39794814  0.73516660  1
  Ti  Ti129  1  0.19490285  0.40378813  0.75361733  1
  Ti  Ti130  1  0.29429637  0.70699715  0.12237519  1
  Ti  Ti131  1  0.89367728  0.11312844  0.88712463  1
  Ti  Ti132  1  0.01621296  0.78839969  0.49385507  1
  Ti  Ti133  1  0.89270342  0.68862099  0.39490551  1
  Ti  Ti134  1  0.79838097  -0.00756465  0.25980864  1
  Ti  Ti135  1  0.39921438  0.40706334  0.24224920  1
  Ti  Ti136  1  0.89947092  0.48782508  0.61578035  1
  Ti  Ti137  1  0.49831359  0.30433046  0.13664700  1
  Ti  Ti138  1  0.40259448  -0.00139050  -0.01036045  1
  Ti  Ti139  1  0.88357387  0.70985741  0.11155123  1
  Ti  Ti140  1  0.88568094  0.30637665  0.89749007  1
  Ti  Ti141  1  0.09244660  0.48269929  0.62085084  1
  Ti  Ti142  1  0.89944205  0.88810024  0.39467715  1
  Ti  Ti143  1  0.70041159  0.68951028  0.85744829  1
  Ti  Ti144  1  0.20172388  -0.00026826  0.77060997  1
  Ti  Ti145  1  0.60708016  0.00256541  0.75359394  1
  Ti  Ti146  1  0.61435099  0.78635878  -0.01557244  1
  Ti  Ti147  1  0.70522409  0.88418507  0.86209408  1
  Ti  Ti148  1  0.30083641  0.29923829  0.12556015  1
  Ti  Ti149  1  0.20169169  0.59773159  0.01103259  1
  Ti  Ti150  1  0.89904927  0.88284133  0.86133313  1
  Ti  Ti151  1  0.60094831  0.59117980  0.73954427  1
  Ti  Ti152  1  0.60161926  0.79306689  0.74707616  1
  Ti  Ti153  1  0.49677845  0.29646916  0.86959685  1
  Ti  Ti154  1  0.60407320  -0.00588401  -0.01406006  1
  Ti  Ti155  1  0.40224561  -0.00135803  0.24080759  1
  Ti  Ti156  1  0.70404584  0.49161740  0.13787042  1
  Ti  Ti157  1  0.19611367  0.39477106  0.00967427  1
  Ti  Ti158  1  0.40122936  0.39522862  0.01062680  1
  Ti  Ti159  1  0.59489953  0.79837409  0.50365491  1
  Mo  Mo160  1  0.58525796  0.39563015  0.50691297  1
  Mo  Mo161  1  0.80103128  0.20673249  0.01535768  1
  Mo  Mo162  1  0.40320416  0.59670980  0.73130547  1
  Mo  Mo163  1  -0.00065145  0.39811954  0.50159464  1
  Mo  Mo164  1  0.80759924  0.41362089  0.23630627  1
  Mo  Mo165  1  0.59238155  0.59761012  0.50562692  1
  Mo  Mo166  1  0.30821263  0.30789756  0.90007807  1
  Mo  Mo167  1  0.29673649  0.90527110  0.65155172  1
  Mo  Mo168  1  0.21084970  0.20641061  0.24992579  1
  Mo  Mo169  1  0.59776884  0.20921414  0.75877959  1
  Mo  Mo170  1  0.00229804  0.80075072  0.76220309  1
  Mo  Mo171  1  0.80080516  0.79234281  0.49199618  1
  Mo  Mo172  1  0.79343580  0.78744762  -0.01930218  1
  Mo  Mo173  1  0.70327157  0.69676615  0.13158685  1
  Mo  Mo174  1  0.79627511  0.40451002  0.01815513  1
  Mo  Mo175  1  0.21443105  0.00144563  0.22841447  1
  Mo  Mo176  1  0.79484653  0.19964355  0.49781065  1
  Mo  Mo177  1  0.10351891  0.31424683  0.87433996  1
  Mo  Mo178  1  0.09722520  0.69975080  0.37121846  1
  Mo  Mo179  1  0.29696783  0.49423023  0.11449024  1
  Mo  Mo180  1  0.60133754  0.79816926  0.26970013  1
  Mo  Mo181  1  0.50039830  0.49862582  0.13251028  1
  Mo  Mo182  1  0.20154859  0.01086643  0.50462319  1
  Mo  Mo183  1  0.00027561  0.40274873  0.22823236  1
  Mo  Mo184  1  0.30203280  0.69448034  0.63784259  1
  Mo  Mo185  1  0.89432475  0.50221140  0.11039506  1
  Mo  Mo186  1  0.69118060  0.49979497  0.62474447  1
  Mo  Mo187  1  0.10221532  0.30509865  0.13458805  1
  Mo  Mo188  1  0.59186189  0.40423319  0.23373687  1
  Mo  Mo189  1  0.79044686  0.79413048  0.75467582  1
  Mo  Mo190  1  0.40609203  0.21142052  -0.00201696  1
  Mo  Mo191  1  0.30375480  0.90182474  0.10371821  1
  Mo  Mo192  1  0.20197060  0.79991815  0.22411717  1
  Mo  Mo193  1  0.69277708  0.29562100  0.63540623  1
  Mo  Mo194  1  0.40322368  0.20538636  0.76246578  1
  Mo  Mo195  1  0.09497550  0.70825823  0.64394618  1
  Mo  Mo196  1  0.10471792  0.90012273  0.86620514  1
  Mo  Mo197  1  0.00016508  0.20049918  0.25252085  1
  Mo  Mo198  1  0.70297936  0.30105654  0.13067936  1
  Mo  Mo199  1  0.80277819  0.40678568  0.73936574  1
