# generated using pymatgen
data_HfZrTaTiMo
_symmetry_space_group_name_H-M   'P 1'
_cell_length_a   15.83182281
_cell_length_b   15.82934060
_cell_length_c   15.38998246
_cell_angle_alpha   89.95731713
_cell_angle_beta   89.93873341
_cell_angle_gamma   90.08512467
_symmetry_Int_Tables_number   1
_chemical_formula_structural   HfZrTaTiMo
_chemical_formula_sum   'Hf40 Zr40 Ta40 Ti40 Mo40'
_cell_volume   3856.83465395
_cell_formula_units_Z   40
loop_
 _symmetry_equiv_pos_site_id
 _symmetry_equiv_pos_as_xyz
  1  'x, y, z'
loop_
 _atom_site_type_symbol
 _atom_site_label
 _atom_site_symmetry_multiplicity
 _atom_site_fract_x
 _atom_site_fract_y
 _atom_site_fract_z
 _atom_site_occupancy
  Hf  Hf0  1  -0.01604507  0.40158876  0.00521565  1
  Hf  Hf1  1  0.30314627  0.28979037  0.35113745  1
  Hf  Hf2  1  0.10507897  0.30302530  0.88410983  1
  Hf  Hf3  1  0.30393067  0.09929770  0.62422676  1
  Hf  Hf4  1  0.50656353  0.30423425  0.12438452  1
  Hf  Hf5  1  0.10084994  0.49994575  0.62869453  1
  Hf  Hf6  1  0.59172232  0.61408648  0.49437278  1
  Hf  Hf7  1  0.31257184  0.30034692  0.90671085  1
  Hf  Hf8  1  -0.00050117  0.80956212  0.51413749  1
  Hf  Hf9  1  0.79979944  0.39946102  0.76938147  1
  Hf  Hf10  1  0.21458074  0.20752514  0.75536547  1
  Hf  Hf11  1  0.50034611  0.30191378  0.62914785  1
  Hf  Hf12  1  0.00931961  0.20136986  0.51119462  1
  Hf  Hf13  1  0.78690907  0.61574139  0.24416561  1
  Hf  Hf14  1  0.11016377  0.08322040  0.87361267  1
  Hf  Hf15  1  0.29786995  0.49933604  0.61235502  1
  Hf  Hf16  1  0.30804972  0.10393176  0.88289982  1
  Hf  Hf17  1  -0.00778145  0.18788229  -0.01336322  1
  Hf  Hf18  1  0.71552828  0.09817665  0.12314593  1
  Hf  Hf19  1  0.09689542  0.70538433  0.36652666  1
  Hf  Hf20  1  0.09861779  0.28773001  0.35373362  1
  Hf  Hf21  1  0.19444967  0.39782661  0.02392522  1
  Hf  Hf22  1  0.49394405  0.49458423  0.88955385  1
  Hf  Hf23  1  0.70216613  0.69898800  0.85994044  1
  Hf  Hf24  1  0.20820800  0.79946058  0.50491686  1
  Hf  Hf25  1  0.80636362  0.41590525  0.24648049  1
  Hf  Hf26  1  0.39453250  0.61860365  0.25383243  1
  Hf  Hf27  1  0.19645207  0.40267826  0.23128410  1
  Hf  Hf28  1  0.00064035  0.00630122  0.26138537  1
  Hf  Hf29  1  0.59854708  0.59007282  0.74332140  1
  Hf  Hf30  1  0.70607243  0.09613963  0.38260820  1
  Hf  Hf31  1  0.70129919  0.30515674  0.61984610  1
  Hf  Hf32  1  0.29643511  0.50641725  0.89759982  1
  Hf  Hf33  1  -0.00899880  0.81596874  -0.01710875  1
  Hf  Hf34  1  0.58834330  0.59219070  0.25472596  1
  Hf  Hf35  1  0.29615384  0.50029226  0.37314900  1
  Hf  Hf36  1  0.20223663  -0.00636103  0.50740274  1
  Hf  Hf37  1  0.50105057  0.70430911  0.86489281  1
  Hf  Hf38  1  0.51036455  0.10501572  0.13357310  1
  Hf  Hf39  1  0.70684027  0.30180477  0.36944105  1
  Zr  Zr40  1  0.89640680  0.48440056  0.61924822  1
  Zr  Zr41  1  -0.00552613  0.20170597  0.75840062  1
  Zr  Zr42  1  0.19567565  0.60375965  0.23356131  1
  Zr  Zr43  1  0.68544211  0.10433248  0.86083750  1
  Zr  Zr44  1  0.81498399  0.20672396  0.51317112  1
  Zr  Zr45  1  0.29441448  0.10374304  0.37029699  1
  Zr  Zr46  1  0.60117504  -0.00621835  -0.00559191  1
  Zr  Zr47  1  0.49059212  0.09520725  0.36047049  1
  Zr  Zr48  1  0.31447102  0.09429188  0.12602686  1
  Zr  Zr49  1  -0.02068955  0.59878614  0.24462312  1
  Zr  Zr50  1  0.10279041  0.30744668  0.63883413  1
  Zr  Zr51  1  0.41352530  0.41952582  0.23922599  1
  Zr  Zr52  1  0.60531601  0.60976530  0.00515565  1
  Zr  Zr53  1  0.69365017  0.48910471  0.60545511  1
  Zr  Zr54  1  0.88962225  0.29113576  0.13180599  1
  Zr  Zr55  1  0.40944679  0.79718505  0.49713182  1
  Zr  Zr56  1  0.19856829  0.38695983  0.48884943  1
  Zr  Zr57  1  -0.00729271  0.39252963  0.49002273  1
  Zr  Zr58  1  0.21477026  0.79499732  0.23331420  1
  Zr  Zr59  1  0.70992748  0.88251268  0.12780142  1
  Zr  Zr60  1  0.81667383  -0.00216736  -0.02366159  1
  Zr  Zr61  1  0.31778066  0.90318368  0.36114665  1
  Zr  Zr62  1  0.09664913  0.50962301  0.88646712  1
  Zr  Zr63  1  0.50041189  0.28188556  0.87789737  1
  Zr  Zr64  1  0.49193547  0.90057094  0.14028647  1
  Zr  Zr65  1  0.49192633  0.49580887  0.61139837  1
  Zr  Zr66  1  0.61363765  -0.01005796  0.26007653  1
  Zr  Zr67  1  0.69129791  0.48983773  0.11990174  1
  Zr  Zr68  1  0.10533174  0.69567193  0.63558709  1
  Zr  Zr69  1  0.10637313  0.70512542  0.87011840  1
  Zr  Zr70  1  0.19853931  0.80157863  0.01843294  1
  Zr  Zr71  1  -0.00259478  0.60446865  0.49461677  1
  Zr  Zr72  1  0.50257257  0.09982360  0.63659805  1
  Zr  Zr73  1  0.38985761  0.39806490  0.75353228  1
  Zr  Zr74  1  0.80316645  -0.00435358  0.74454935  1
  Zr  Zr75  1  0.50688491  0.29599130  0.35198231  1
  Zr  Zr76  1  0.19379766  -0.00490121  0.23828128  1
  Zr  Zr77  1  0.27730871  0.89833723  0.86179317  1
  Zr  Zr78  1  0.80240663  -0.00818285  0.51858771  1
  Zr  Zr79  1  0.59599961  0.19564037  0.49744499  1
  Ta  Ta80  1  0.80019195  0.20586882  0.75506414  1
  Ta  Ta81  1  0.19427447  -0.00733890  0.01538384  1
  Ta  Ta82  1  0.39352870  0.79789908  0.74511935  1
  Ta  Ta83  1  0.90964683  0.09209948  0.12373008  1
  Ta  Ta84  1  0.89329922  0.69844452  0.86305729  1
  Ta  Ta85  1  0.49557078  0.69904223  0.63241615  1
  Ta  Ta86  1  0.69392094  0.89113677  0.85830469  1
  Ta  Ta87  1  0.39411480  0.60000968  0.75316036  1
  Ta  Ta88  1  0.60475327  0.39529285  0.76590297  1
  Ta  Ta89  1  0.31115716  0.50734653  0.11152187  1
  Ta  Ta90  1  0.50211463  0.90421922  0.63458907  1
  Ta  Ta91  1  0.79709150  0.59554230  0.73872917  1
  Ta  Ta92  1  0.60470102  0.80837956  0.51033013  1
  Ta  Ta93  1  0.10723120  0.09886635  0.63255228  1
  Ta  Ta94  1  -0.00153155  0.80258073  0.75176391  1
  Ta  Ta95  1  0.79621901  0.60782678  0.50585253  1
  Ta  Ta96  1  0.40124522  -0.00844041  -0.01046914  1
  Ta  Ta97  1  0.69196090  0.09745051  0.63391897  1
  Ta  Ta98  1  0.09435025  0.49954805  0.36577842  1
  Ta  Ta99  1  0.89816271  0.90430860  0.12783644  1
  Ta  Ta100  1  -0.00841127  0.59430607  0.75549997  1
  Ta  Ta101  1  0.79721452  0.79700888  0.52210440  1
  Ta  Ta102  1  0.50091183  0.89823531  0.85953999  1
  Ta  Ta103  1  0.19852579  0.19403445  0.01754312  1
  Ta  Ta104  1  0.90032880  0.69597452  0.63519600  1
  Ta  Ta105  1  0.90361485  0.29430016  0.35848729  1
  Ta  Ta106  1  0.39524032  -0.00279742  0.75371473  1
  Ta  Ta107  1  0.20023950  0.60315557  0.48874448  1
  Ta  Ta108  1  0.30076564  0.69931879  0.87895073  1
  Ta  Ta109  1  0.90814805  0.10057040  0.38480295  1
  Ta  Ta110  1  0.08520685  0.28598387  0.12945931  1
  Ta  Ta111  1  0.50300319  0.70912550  0.12968351  1
  Ta  Ta112  1  0.88343829  0.72255128  0.12462314  1
  Ta  Ta113  1  0.40211878  0.80553903  -0.00738289  1
  Ta  Ta114  1  0.39296633  0.20367483  0.50046361  1
  Ta  Ta115  1  0.00459203  -0.00076098  0.51451584  1
  Ta  Ta116  1  0.80169147  0.20465568  -0.02080302  1
  Ta  Ta117  1  0.00057890  -0.00608330  0.75211984  1
  Ta  Ta118  1  0.79651411  0.79957352  -0.01686984  1
  Ta  Ta119  1  0.69557455  0.49896233  0.38310223  1
  Ti  Ti120  1  0.07545771  0.71000841  0.12915880  1
  Ti  Ti121  1  0.08033048  0.90527558  0.12627675  1
  Ti  Ti122  1  -0.00866737  0.40263327  0.76843865  1
  Ti  Ti123  1  0.40684205  0.39402291  0.48297252  1
  Ti  Ti124  1  0.81033513  -0.00720272  0.26000599  1
  Ti  Ti125  1  0.79958898  0.79941494  0.73297954  1
  Ti  Ti126  1  0.39616160  0.60978298  0.48284122  1
  Ti  Ti127  1  0.88983593  0.71224795  0.37962424  1
  Ti  Ti128  1  0.60945889  0.20037469  0.00317293  1
  Ti  Ti129  1  0.89094691  0.50294902  0.38391919  1
  Ti  Ti130  1  0.19667395  0.61297473  0.02025089  1
  Ti  Ti131  1  0.60327008  0.79023909  0.26438162  1
  Ti  Ti132  1  0.79459169  0.39399944  -0.00433340  1
  Ti  Ti133  1  0.90592347  0.10120178  0.63309695  1
  Ti  Ti134  1  0.89951689  0.90090961  0.38604701  1
  Ti  Ti135  1  0.59968460  0.80082506  -0.00186487  1
  Ti  Ti136  1  0.10332441  0.10193861  0.38683814  1
  Ti  Ti137  1  0.41207558  -0.00531527  0.50337824  1
  Ti  Ti138  1  0.20760574  0.59836233  0.75261470  1
  Ti  Ti139  1  0.19151269  0.18958560  0.22534337  1
  Ti  Ti140  1  0.70694971  0.89309398  0.38618551  1
  Ti  Ti141  1  0.20389815  0.40726944  0.76168641  1
  Ti  Ti142  1  0.70135727  0.50447247  0.88435258  1
  Ti  Ti143  1  0.40691234  0.61218414  0.00684687  1
  Ti  Ti144  1  0.80851007  0.18540500  0.25504207  1
  Ti  Ti145  1  0.49543129  0.10149023  0.86538183  1
  Ti  Ti146  1  0.69687580  0.29277177  0.13916128  1
  Ti  Ti147  1  0.08308919  0.50884463  0.12117082  1
  Ti  Ti148  1  0.88974596  0.51212890  0.88726404  1
  Ti  Ti149  1  0.11403937  0.90047330  0.64658564  1
  Ti  Ti150  1  -0.00506995  0.40512187  0.24164804  1
  Ti  Ti151  1  0.09972906  0.90008624  0.37658615  1
  Ti  Ti152  1  0.70326240  0.70668144  0.38322859  1
  Ti  Ti153  1  -0.01594555  0.61258133  0.00638249  1
  Ti  Ti154  1  0.60396379  0.79912954  0.73061732  1
  Ti  Ti155  1  0.79865476  0.61022681  0.01252085  1
  Ti  Ti156  1  0.60608715  0.39205492  -0.00971830  1
  Ti  Ti157  1  0.30253101  0.29947728  0.61713193  1
  Ti  Ti158  1  0.30345697  0.69481588  0.62703693  1
  Ti  Ti159  1  -0.01408991  0.80800061  0.25552658  1
  Mo  Mo160  1  0.89697093  0.30473832  0.87664674  1
  Mo  Mo161  1  0.20629677  0.79292478  0.73625202  1
  Mo  Mo162  1  0.50015897  0.50525417  0.10794256  1
  Mo  Mo163  1  0.29651738  0.70066727  0.38332769  1
  Mo  Mo164  1  0.20242399  0.00123835  0.73672445  1
  Mo  Mo165  1  0.89929977  0.09818644  0.86161520  1
  Mo  Mo166  1  0.51471706  0.89894649  0.37823609  1
  Mo  Mo167  1  0.69665122  0.70970626  0.12792263  1
  Mo  Mo168  1  0.89298437  0.51037937  0.10618633  1
  Mo  Mo169  1  0.00089833  -0.00611966  -0.01212102  1
  Mo  Mo170  1  0.61808371  0.19764862  0.24496680  1
  Mo  Mo171  1  0.89778099  0.30104569  0.64374256  1
  Mo  Mo172  1  0.31677421  0.70644594  0.10662635  1
  Mo  Mo173  1  0.40412222  -0.00216802  0.25054272  1
  Mo  Mo174  1  0.69378261  0.90035580  0.63213196  1
  Mo  Mo175  1  0.60739080  0.40553435  0.25716331  1
  Mo  Mo176  1  -0.00095650  0.18887966  0.25217114  1
  Mo  Mo177  1  0.30974364  0.89984496  0.12317128  1
  Mo  Mo178  1  0.40536463  0.40302896  0.01510887  1
  Mo  Mo179  1  0.60311942  0.20368936  0.74279244  1
  Mo  Mo180  1  0.50436707  0.70771254  0.37051403  1
  Mo  Mo181  1  0.09226572  0.09256840  0.11006930  1
  Mo  Mo182  1  0.59672494  -0.01102487  0.49508147  1
  Mo  Mo183  1  0.80286001  0.80699937  0.26966336  1
  Mo  Mo184  1  0.40708749  0.19408161  0.01451046  1
  Mo  Mo185  1  0.39756595  0.20408833  0.23302555  1
  Mo  Mo186  1  0.30778778  0.89930980  0.63162922  1
  Mo  Mo187  1  0.39872731  0.20064149  0.74168176  1
  Mo  Mo188  1  0.69550693  0.30175219  0.87815749  1
  Mo  Mo189  1  0.80295900  0.40006409  0.48008443  1
  Mo  Mo190  1  0.41226755  0.79643007  0.26130341  1
  Mo  Mo191  1  0.49845102  0.50057560  0.38973524  1
  Mo  Mo192  1  0.59598752  -0.00476434  0.75769856  1
  Mo  Mo193  1  0.30068738  0.29680329  0.12736405  1
  Mo  Mo194  1  0.89517955  0.89197668  0.85442702  1
  Mo  Mo195  1  0.90811147  0.89592275  0.63231550  1
  Mo  Mo196  1  0.69896935  0.69851801  0.62995918  1
  Mo  Mo197  1  0.09922366  0.89971615  0.86180590  1
  Mo  Mo198  1  0.20203054  0.19722066  0.50694924  1
  Mo  Mo199  1  0.59304888  0.40048302  0.47945328  1
