# generated using pymatgen
data_HfZrTaTiMo
_symmetry_space_group_name_H-M   'P 1'
_cell_length_a   15.83331234
_cell_length_b   15.84380084
_cell_length_c   15.40623011
_cell_angle_alpha   90.06360600
_cell_angle_beta   90.02299920
_cell_angle_gamma   90.06331383
_symmetry_Int_Tables_number   1
_chemical_formula_structural   HfZrTaTiMo
_chemical_formula_sum   'Hf40 Zr40 Ta40 Ti40 Mo40'
_cell_volume   3864.79947962
_cell_formula_units_Z   40
loop_
 _symmetry_equiv_pos_site_id
 _symmetry_equiv_pos_as_xyz
  1  'x, y, z'
loop_
 _atom_site_type_symbol
 _atom_site_label
 _atom_site_symmetry_multiplicity
 _atom_site_fract_x
 _atom_site_fract_y
 _atom_site_fract_z
 _atom_site_occupancy
  Hf  Hf0  1  -0.00547892  0.39816335  0.25375927  1
  Hf  Hf1  1  0.20539555  0.20746035  0.49840368  1
  Hf  Hf2  1  0.59945903  0.20517252  0.48138434  1
  Hf  Hf3  1  0.80421056  0.00131190  0.01173420  1
  Hf  Hf4  1  -0.00397851  0.18342741  0.75579662  1
  Hf  Hf5  1  0.40271478  0.58177288  0.49642453  1
  Hf  Hf6  1  0.88958675  0.28664241  0.89579893  1
  Hf  Hf7  1  0.09712143  0.71062720  0.38931570  1
  Hf  Hf8  1  0.00002801  0.39410601  0.76394998  1
  Hf  Hf9  1  0.10684016  0.28004546  0.88214977  1
  Hf  Hf10  1  0.59224769  0.40192852  0.77105814  1
  Hf  Hf11  1  0.50091453  0.48344652  0.35341284  1
  Hf  Hf12  1  0.20040608  0.63879383  0.77004763  1
  Hf  Hf13  1  0.80212744  0.60358369  0.74735067  1
  Hf  Hf14  1  0.60647121  0.80559410  -0.00040321  1
  Hf  Hf15  1  0.20533332  0.00989747  0.49970259  1
  Hf  Hf16  1  0.89821837  0.08995076  0.61009411  1
  Hf  Hf17  1  0.58498753  0.80189583  0.74964935  1
  Hf  Hf18  1  0.38775169  0.79770213  0.75077610  1
  Hf  Hf19  1  0.09899763  0.51409761  0.11756047  1
  Hf  Hf20  1  0.30168623  0.70565027  0.12695680  1
  Hf  Hf21  1  0.29665982  0.70350169  0.60573844  1
  Hf  Hf22  1  0.49918281  0.89975729  0.13447152  1
  Hf  Hf23  1  0.30890479  0.70508218  0.37766802  1
  Hf  Hf24  1  0.70861416  0.90705380  0.85934555  1
  Hf  Hf25  1  0.88944247  0.49739151  0.12167802  1
  Hf  Hf26  1  0.40254824  0.20373142  0.01599518  1
  Hf  Hf27  1  0.29849035  0.50823558  0.87343755  1
  Hf  Hf28  1  0.30367015  0.10527150  0.36128558  1
  Hf  Hf29  1  0.28486996  0.89880881  0.87975981  1
  Hf  Hf30  1  0.79805566  0.19488921  0.75139011  1
  Hf  Hf31  1  0.79480946  0.60517869  -0.00542892  1
  Hf  Hf32  1  -0.00002302  0.40200674  0.48736656  1
  Hf  Hf33  1  0.50078362  0.09370241  0.60481474  1
  Hf  Hf34  1  0.89526908  0.29766340  0.61764951  1
  Hf  Hf35  1  0.09875726  0.07375119  0.87944281  1
  Hf  Hf36  1  0.68745414  0.29149462  0.90396624  1
  Hf  Hf37  1  0.00228355  0.20573451  0.25142342  1
  Hf  Hf38  1  0.40680042  0.20317705  0.74205598  1
  Hf  Hf39  1  0.80958639  0.80723128  0.01106877  1
  Zr  Zr40  1  0.79170499  0.79969524  0.50906721  1
  Zr  Zr41  1  0.90408077  0.09189074  0.37345618  1
  Zr  Zr42  1  0.30519932  0.49165382  0.35608254  1
  Zr  Zr43  1  0.49428898  0.09149400  0.36756926  1
  Zr  Zr44  1  -0.00548402  0.17884502  0.00982966  1
  Zr  Zr45  1  0.00409924  0.40049094  -0.00375764  1
  Zr  Zr46  1  0.78658243  0.39720762  0.76121295  1
  Zr  Zr47  1  0.09959671  0.70035383  0.60716895  1
  Zr  Zr48  1  0.30484085  0.29698303  0.87723749  1
  Zr  Zr49  1  0.70741152  0.70956576  0.86552790  1
  Zr  Zr50  1  0.20368533  0.40323993  -0.00234731  1
  Zr  Zr51  1  0.89757064  0.89752425  0.36917520  1
  Zr  Zr52  1  0.69887127  0.09488047  0.62070432  1
  Zr  Zr53  1  0.20509523  0.18706089  0.73261869  1
  Zr  Zr54  1  0.00982648  0.80145202  0.23869248  1
  Zr  Zr55  1  0.19540580  0.39418258  0.24163519  1
  Zr  Zr56  1  0.59734907  0.20699779  0.74478995  1
  Zr  Zr57  1  0.69925295  0.69891811  0.13719555  1
  Zr  Zr58  1  0.30012142  0.50345415  0.64104557  1
  Zr  Zr59  1  0.91183537  0.89676801  0.86783052  1
  Zr  Zr60  1  0.59495682  0.59452326  0.75976197  1
  Zr  Zr61  1  0.69566937  0.29538183  0.12571159  1
  Zr  Zr62  1  0.31215002  0.90304398  0.37457815  1
  Zr  Zr63  1  0.00334993  -0.01523254  0.02137256  1
  Zr  Zr64  1  0.90017300  0.50585211  0.88107924  1
  Zr  Zr65  1  0.60709864  0.59620797  0.49537079  1
  Zr  Zr66  1  0.79205036  0.20332974  0.48447528  1
  Zr  Zr67  1  0.09895313  0.30475059  0.62396425  1
  Zr  Zr68  1  0.10421781  0.50596510  0.63635316  1
  Zr  Zr69  1  0.19560408  -0.00906626  0.72904013  1
  Zr  Zr70  1  0.00122007  0.59538360  0.25939919  1
  Zr  Zr71  1  0.39872144  -0.00096239  0.73683057  1
  Zr  Zr72  1  0.71331633  0.50868226  0.35406158  1
  Zr  Zr73  1  0.90210508  0.50075564  0.63057557  1
  Zr  Zr74  1  0.50908832  0.09925626  0.14037624  1
  Zr  Zr75  1  0.88548760  0.69452380  0.36626453  1
  Zr  Zr76  1  0.29851927  0.09593856  0.88530173  1
  Zr  Zr77  1  0.30973593  0.31524359  0.62559883  1
  Zr  Zr78  1  0.69269385  0.49038456  0.12714469  1
  Zr  Zr79  1  0.50373531  0.10635198  0.88773745  1
  Ta  Ta80  1  0.68912541  0.30963793  0.35358289  1
  Ta  Ta81  1  0.19870530  0.60831067  0.25337371  1
  Ta  Ta82  1  0.69813432  0.90250651  0.63728541  1
  Ta  Ta83  1  0.69815968  0.90827580  0.14773106  1
  Ta  Ta84  1  0.09716908  0.89209361  0.59753748  1
  Ta  Ta85  1  0.40629075  0.60864732  0.76047823  1
  Ta  Ta86  1  0.79217561  0.40674927  0.49081245  1
  Ta  Ta87  1  0.90301717  0.69380496  0.12909907  1
  Ta  Ta88  1  0.09367167  0.90663850  0.38473388  1
  Ta  Ta89  1  -0.00841497  0.59602214  0.49189783  1
  Ta  Ta90  1  0.49853509  0.69866163  0.11674174  1
  Ta  Ta91  1  0.49797558  0.69856697  0.61262494  1
  Ta  Ta92  1  0.00993996  0.79445857  0.01692419  1
  Ta  Ta93  1  0.69409561  0.70171240  0.62990342  1
  Ta  Ta94  1  0.69422234  0.49468213  0.62080055  1
  Ta  Ta95  1  0.59380594  0.59366406  -0.01023901  1
  Ta  Ta96  1  -0.00254339  -0.01343376  0.73171290  1
  Ta  Ta97  1  0.59483554  0.00061655  0.75392274  1
  Ta  Ta98  1  0.70473089  0.09711084  0.87551866  1
  Ta  Ta99  1  0.20069034  0.18817344  0.02368164  1
  Ta  Ta100  1  0.20172017  0.80071635  0.25449774  1
  Ta  Ta101  1  0.49710391  0.50166148  0.12385604  1
  Ta  Ta102  1  0.61119284  -0.01748910  0.48333101  1
  Ta  Ta103  1  0.30214678  0.89324743  0.60324711  1
  Ta  Ta104  1  0.30336223  0.50832996  0.12499490  1
  Ta  Ta105  1  0.01421151  0.79355684  0.73822055  1
  Ta  Ta106  1  0.79887409  0.20222151  0.25255209  1
  Ta  Ta107  1  0.20160670  -0.00400947  0.02415651  1
  Ta  Ta108  1  0.60842826  0.00270357  0.00029248  1
  Ta  Ta109  1  0.49424795  0.90621438  0.88646520  1
  Ta  Ta110  1  0.49956941  0.89029339  0.37485926  1
  Ta  Ta111  1  0.30340436  0.09599404  0.14530532  1
  Ta  Ta112  1  0.49198010  0.70753668  0.88954640  1
  Ta  Ta113  1  0.69750417  0.71016414  0.36410183  1
  Ta  Ta114  1  0.88769418  0.30118798  0.12057753  1
  Ta  Ta115  1  0.39558678  0.60339257  -0.00336890  1
  Ta  Ta116  1  0.09979994  0.09706647  0.36985108  1
  Ta  Ta117  1  0.19497177  0.61864187  -0.00653660  1
  Ta  Ta118  1  0.50214244  0.70489967  0.38250703  1
  Ta  Ta119  1  0.19894977  0.59180762  0.48471559  1
  Ti  Ti120  1  0.09059965  0.09861110  0.60882530  1
  Ti  Ti121  1  0.19532058  0.40085255  0.76483159  1
  Ti  Ti122  1  0.31683424  0.30906473  0.36855786  1
  Ti  Ti123  1  0.30224497  0.30572489  0.12533063  1
  Ti  Ti124  1  0.50000731  0.49345504  0.62570279  1
  Ti  Ti125  1  0.50304868  0.89383256  0.60475063  1
  Ti  Ti126  1  0.81829638  0.80098487  0.73092167  1
  Ti  Ti127  1  0.89684121  0.90213289  0.14728215  1
  Ti  Ti128  1  0.19203410  0.80964566  0.01360289  1
  Ti  Ti129  1  0.79502321  -0.01100833  0.49402372  1
  Ti  Ti130  1  0.20108330  0.20543813  0.24442336  1
  Ti  Ti131  1  0.69459858  0.09654488  0.14511957  1
  Ti  Ti132  1  0.88896452  0.30764059  0.37098544  1
  Ti  Ti133  1  0.09581369  0.29649453  0.11696413  1
  Ti  Ti134  1  0.10422493  0.49784699  0.37292629  1
  Ti  Ti135  1  0.50325476  0.31148711  0.61331124  1
  Ti  Ti136  1  0.10173155  0.09258885  0.14368624  1
  Ti  Ti137  1  0.40711494  0.21591303  0.24574445  1
  Ti  Ti138  1  0.69456923  0.30848565  0.61593182  1
  Ti  Ti139  1  0.41193463  0.40471429  0.76621766  1
  Ti  Ti140  1  0.10948230  0.29928082  0.37535578  1
  Ti  Ti141  1  0.51296401  0.30627949  0.12754730  1
  Ti  Ti142  1  0.30337291  0.90025210  0.14070324  1
  Ti  Ti143  1  0.00254040  0.20218051  0.48686749  1
  Ti  Ti144  1  0.79396368  0.18125962  0.01400996  1
  Ti  Ti145  1  0.59428291  0.79873903  0.25407623  1
  Ti  Ti146  1  0.80109200  0.60015718  0.51104398  1
  Ti  Ti147  1  0.09118557  0.52440859  0.87134801  1
  Ti  Ti148  1  0.89605702  0.09539032  0.14901433  1
  Ti  Ti149  1  0.70005960  0.08944802  0.35637819  1
  Ti  Ti150  1  0.39362537  0.80621072  0.00102638  1
  Ti  Ti151  1  0.40788352  0.40534511  0.00216227  1
  Ti  Ti152  1  0.21101170  0.40529874  0.49352566  1
  Ti  Ti153  1  0.39611798  -0.00119653  0.01458271  1
  Ti  Ti154  1  0.59587146  0.40005061  0.48882241  1
  Ti  Ti155  1  0.91984446  0.69975003  0.87499413  1
  Ti  Ti156  1  0.59303841  0.60485792  0.24998862  1
  Ti  Ti157  1  0.19493733  -0.00655599  0.25198920  1
  Ti  Ti158  1  0.40483959  0.60787067  0.24663392  1
  Ti  Ti159  1  0.40087656  0.20888091  0.49534978  1
  Mo  Mo160  1  0.00023758  0.61206249  -0.00040446  1
  Mo  Mo161  1  0.79453121  0.40007705  -0.00630611  1
  Mo  Mo162  1  0.10752048  0.70076651  0.12409688  1
  Mo  Mo163  1  0.80483695  0.39611946  0.25591359  1
  Mo  Mo164  1  0.59537348  0.39995613  0.24258437  1
  Mo  Mo165  1  0.39972037  0.39669185  0.22152390  1
  Mo  Mo166  1  0.79894966  0.60189305  0.23954873  1
  Mo  Mo167  1  0.00211606  0.61134850  0.75702860  1
  Mo  Mo168  1  0.40801896  0.79207659  0.24471796  1
  Mo  Mo169  1  0.39708110  -0.00665770  0.24321606  1
  Mo  Mo170  1  0.90209559  0.69744154  0.62155397  1
  Mo  Mo171  1  0.30216190  0.71323031  0.89452226  1
  Mo  Mo172  1  0.49209324  0.50383923  0.88913685  1
  Mo  Mo173  1  0.30909203  0.10115965  0.60370048  1
  Mo  Mo174  1  0.60132300  0.18873558  0.01128118  1
  Mo  Mo175  1  0.79960688  0.00262768  0.24629244  1
  Mo  Mo176  1  0.09987625  0.89297630  0.87450708  1
  Mo  Mo177  1  0.60022303  -0.00752617  0.26715297  1
  Mo  Mo178  1  0.60346373  0.79904686  0.50282496  1
  Mo  Mo179  1  0.90028295  0.89707264  0.62431271  1
  Mo  Mo180  1  0.49444188  0.30316821  0.89517431  1
  Mo  Mo181  1  0.69895452  0.89418609  0.36044900  1
  Mo  Mo182  1  0.80285059  0.00022562  0.74715789  1
  Mo  Mo183  1  0.58812706  0.39937985  -0.00393856  1
  Mo  Mo184  1  0.00681336  0.00201535  0.24546757  1
  Mo  Mo185  1  0.40841525  0.79624395  0.50539292  1
  Mo  Mo186  1  0.79867036  0.79991929  0.23916650  1
  Mo  Mo187  1  0.11139209  0.90030793  0.14156779  1
  Mo  Mo188  1  0.49529423  0.29883260  0.36557204  1
  Mo  Mo189  1  0.40638045  -0.00150972  0.50432972  1
  Mo  Mo190  1  0.60014320  0.20019200  0.25996332  1
  Mo  Mo191  1  0.69841527  0.49617552  0.89224855  1
  Mo  Mo192  1  0.20199800  0.80482811  0.48012857  1
  Mo  Mo193  1  0.00035912  0.00037093  0.50652909  1
  Mo  Mo194  1  0.89041405  0.08492239  0.86684277  1
  Mo  Mo195  1  0.89849395  0.49797639  0.38240188  1
  Mo  Mo196  1  0.09819979  0.72201709  0.88630819  1
  Mo  Mo197  1  0.19632614  0.81327705  0.74499590  1
  Mo  Mo198  1  -0.01098009  0.79922628  0.50888799  1
  Mo  Mo199  1  0.40989912  0.39400780  0.50051156  1
