# generated using pymatgen
data_HfZrTaTiMo
_symmetry_space_group_name_H-M   'P 1'
_cell_length_a   15.83919899
_cell_length_b   15.83662181
_cell_length_c   15.40069176
_cell_angle_alpha   89.93509879
_cell_angle_beta   89.98754027
_cell_angle_gamma   90.05453961
_symmetry_Int_Tables_number   1
_chemical_formula_structural   HfZrTaTiMo
_chemical_formula_sum   'Hf40 Zr40 Ta40 Ti40 Mo40'
_cell_volume   3863.09602668
_cell_formula_units_Z   40
loop_
 _symmetry_equiv_pos_site_id
 _symmetry_equiv_pos_as_xyz
  1  'x, y, z'
loop_
 _atom_site_type_symbol
 _atom_site_label
 _atom_site_symmetry_multiplicity
 _atom_site_fract_x
 _atom_site_fract_y
 _atom_site_fract_z
 _atom_site_occupancy
  Hf  Hf0  1  -0.00454075  0.78260806  0.00600341  1
  Hf  Hf1  1  0.59227996  0.39802724  0.74667703  1
  Hf  Hf2  1  0.90010531  0.70535318  0.38633637  1
  Hf  Hf3  1  0.70043375  0.89737159  0.64107551  1
  Hf  Hf4  1  0.50251873  0.50222843  0.90108322  1
  Hf  Hf5  1  0.39399489  0.61081054  0.48971881  1
  Hf  Hf6  1  0.49384037  0.90069287  0.88828080  1
  Hf  Hf7  1  -0.00246224  0.00165173  0.23959967  1
  Hf  Hf8  1  0.39414358  0.20908335  0.24173501  1
  Hf  Hf9  1  0.19737511  -0.01491327  0.51903941  1
  Hf  Hf10  1  0.81441705  0.38995957  0.25381806  1
  Hf  Hf11  1  0.38192330  0.59301172  0.24963819  1
  Hf  Hf12  1  0.30305735  0.10538407  0.62992070  1
  Hf  Hf13  1  0.49984706  0.50323191  0.36890421  1
  Hf  Hf14  1  0.70887530  0.10623060  0.64858298  1
  Hf  Hf15  1  0.89680631  0.67695042  0.13262950  1
  Hf  Hf16  1  0.50453651  0.70262947  0.13869010  1
  Hf  Hf17  1  0.39684916  0.60217048  0.74232960  1
  Hf  Hf18  1  0.70924113  0.89082823  0.86869014  1
  Hf  Hf19  1  0.09717192  0.10392704  0.10606610  1
  Hf  Hf20  1  0.01719074  0.79995027  0.52191039  1
  Hf  Hf21  1  0.60199379  0.20430423  0.23684700  1
  Hf  Hf22  1  0.60715007  0.19400318  0.50094711  1
  Hf  Hf23  1  0.89092658  0.69300837  0.86190377  1
  Hf  Hf24  1  0.69038155  0.49187524  0.38967428  1
  Hf  Hf25  1  0.28678957  0.71291761  0.37431638  1
  Hf  Hf26  1  0.38818440  0.01681804  0.00479252  1
  Hf  Hf27  1  0.89828390  0.29256138  0.63314292  1
  Hf  Hf28  1  0.80402865  0.00709001  0.50672695  1
  Hf  Hf29  1  0.41041988  0.21326056  0.75947971  1
  Hf  Hf30  1  0.39911448  0.00891271  0.76463949  1
  Hf  Hf31  1  0.21233965  0.20376674  0.76628091  1
  Hf  Hf32  1  0.10351957  0.88472677  0.87856892  1
  Hf  Hf33  1  0.50188685  0.31485245  0.37067021  1
  Hf  Hf34  1  0.21285050  0.40792643  0.26955087  1
  Hf  Hf35  1  0.49529217  0.49440288  0.59784246  1
  Hf  Hf36  1  0.70803521  0.51428739  0.87938799  1
  Hf  Hf37  1  0.90083636  0.89926421  0.64774484  1
  Hf  Hf38  1  -0.00002093  0.39985869  -0.02147326  1
  Hf  Hf39  1  0.90124771  0.89976457  0.38092710  1
  Zr  Zr40  1  0.40606249  -0.00393066  0.50837365  1
  Zr  Zr41  1  0.30116059  0.90116780  0.36731002  1
  Zr  Zr42  1  0.10636203  0.29916448  0.62851001  1
  Zr  Zr43  1  0.39416927  0.40932221  0.75556598  1
  Zr  Zr44  1  0.20229055  0.00416717  0.22930191  1
  Zr  Zr45  1  0.50164109  0.09787921  0.36730973  1
  Zr  Zr46  1  0.19716428  0.19395818  0.49522598  1
  Zr  Zr47  1  0.79831150  -0.00083018  -0.00849736  1
  Zr  Zr48  1  0.60047950  0.79866030  -0.00012144  1
  Zr  Zr49  1  0.80213732  0.59192725  0.27029177  1
  Zr  Zr50  1  0.38415560  0.80192213  0.74934128  1
  Zr  Zr51  1  0.70630483  0.89188678  0.37015904  1
  Zr  Zr52  1  0.59492101  0.59441324  0.74042454  1
  Zr  Zr53  1  0.60031033  0.01193182  0.77012605  1
  Zr  Zr54  1  0.70954582  0.29922066  0.38199129  1
  Zr  Zr55  1  0.11087814  0.88807988  0.36461567  1
  Zr  Zr56  1  0.00519067  0.00047454  0.51126103  1
  Zr  Zr57  1  0.69159830  0.30149068  0.87224845  1
  Zr  Zr58  1  0.70599369  0.09927221  0.12069755  1
  Zr  Zr59  1  0.90279710  0.88777840  0.86681233  1
  Zr  Zr60  1  0.81378897  0.40184598  -0.00920952  1
  Zr  Zr61  1  0.20878996  -0.00577495  0.76502296  1
  Zr  Zr62  1  -0.00428786  0.20609949  0.26255000  1
  Zr  Zr63  1  0.59709286  -0.00430141  0.24527123  1
  Zr  Zr64  1  0.20783250  0.59719499  0.74181030  1
  Zr  Zr65  1  -0.00362213  0.19083717  0.49610129  1
  Zr  Zr66  1  0.39725098  0.00868780  0.22367263  1
  Zr  Zr67  1  0.60319247  -0.00155583  0.50108056  1
  Zr  Zr68  1  0.59963363  0.78269719  0.75449569  1
  Zr  Zr69  1  0.40273674  0.20239193  0.49603809  1
  Zr  Zr70  1  0.49851984  0.50082870  0.12372230  1
  Zr  Zr71  1  -0.00443899  0.79759622  0.24178817  1
  Zr  Zr72  1  0.79172777  0.61070645  0.71883615  1
  Zr  Zr73  1  0.48993275  0.69133589  0.89006356  1
  Zr  Zr74  1  0.19510440  0.40134677  -0.02477137  1
  Zr  Zr75  1  0.20498797  0.19395803  -0.01922705  1
  Zr  Zr76  1  0.58778501  0.79845051  0.49397280  1
  Zr  Zr77  1  0.69698910  0.89241188  0.12679058  1
  Zr  Zr78  1  0.09663959  0.30919286  0.12319266  1
  Zr  Zr79  1  0.20039843  0.20551966  0.25441493  1
  Ta  Ta80  1  0.79507789  0.60433609  0.50108148  1
  Ta  Ta81  1  0.00074603  0.59070353  -0.00646013  1
  Ta  Ta82  1  0.80714859  0.20406966  -0.01397609  1
  Ta  Ta83  1  0.79108299  0.77205377  0.00961951  1
  Ta  Ta84  1  0.49782676  0.90112581  0.63907110  1
  Ta  Ta85  1  0.89641801  0.48949190  0.39902482  1
  Ta  Ta86  1  0.28762333  0.49884206  0.11613363  1
  Ta  Ta87  1  0.00239010  0.60000606  0.50541005  1
  Ta  Ta88  1  0.71801137  0.50508855  0.12728099  1
  Ta  Ta89  1  0.10398752  0.69765102  0.37850322  1
  Ta  Ta90  1  0.20593567  0.40226132  0.75809140  1
  Ta  Ta91  1  0.30167165  0.31405657  0.61265193  1
  Ta  Ta92  1  0.09321671  0.69720595  0.85682448  1
  Ta  Ta93  1  0.71320597  0.30239853  0.11917071  1
  Ta  Ta94  1  0.79875479  0.40717248  0.74113165  1
  Ta  Ta95  1  0.28573553  0.70417774  0.88587741  1
  Ta  Ta96  1  0.90218279  0.10114726  0.86657010  1
  Ta  Ta97  1  0.49767824  0.30870131  0.89819532  1
  Ta  Ta98  1  0.00458175  0.58608507  0.27412780  1
  Ta  Ta99  1  0.69888726  0.29888931  0.62819900  1
  Ta  Ta100  1  0.60324098  0.20246215  0.00994965  1
  Ta  Ta101  1  -0.00240709  0.60143657  0.72161566  1
  Ta  Ta102  1  0.30201090  0.31194627  0.11279490  1
  Ta  Ta103  1  0.10035727  0.68633395  0.13892920  1
  Ta  Ta104  1  0.09641921  0.09968384  0.64978456  1
  Ta  Ta105  1  0.00030743  0.40647996  0.74296878  1
  Ta  Ta106  1  0.69345325  0.49198061  0.60203350  1
  Ta  Ta107  1  0.09777154  0.89605239  0.10931887  1
  Ta  Ta108  1  0.18607261  0.60117187  -0.00312059  1
  Ta  Ta109  1  0.60870315  0.40278499  0.23332480  1
  Ta  Ta110  1  0.00692320  0.40293852  0.27609303  1
  Ta  Ta111  1  0.10706232  0.49592882  0.61432598  1
  Ta  Ta112  1  0.90380744  0.10691190  0.10992148  1
  Ta  Ta113  1  0.00279511  0.39605880  0.50042939  1
  Ta  Ta114  1  0.91583386  0.48902342  0.13135367  1
  Ta  Ta115  1  0.81074444  0.00036083  0.24115486  1
  Ta  Ta116  1  0.09672245  0.50037984  0.12945765  1
  Ta  Ta117  1  0.71228477  0.09805284  0.36313392  1
  Ta  Ta118  1  0.29800875  0.09807807  0.37613875  1
  Ta  Ta119  1  0.62793483  0.61194418  0.01678940  1
  Ti  Ti120  1  0.90243545  0.50578841  0.85586051  1
  Ti  Ti121  1  0.79729062  0.79667676  0.24202139  1
  Ti  Ti122  1  0.79929204  0.20469573  0.76888734  1
  Ti  Ti123  1  0.08921470  0.29728424  0.85480015  1
  Ti  Ti124  1  0.30590205  0.50964400  0.88898238  1
  Ti  Ti125  1  0.29327962  0.89401932  0.89703363  1
  Ti  Ti126  1  0.38461464  0.60854278  0.01742614  1
  Ti  Ti127  1  0.28597132  0.89766384  0.11053473  1
  Ti  Ti128  1  0.38639277  0.80388428  0.23010661  1
  Ti  Ti129  1  0.29433246  0.49637758  0.60141048  1
  Ti  Ti130  1  0.90819951  0.29537657  0.12027755  1
  Ti  Ti131  1  0.80561805  0.19668632  0.50143300  1
  Ti  Ti132  1  0.00774579  0.00033588  0.76284127  1
  Ti  Ti133  1  -0.00425351  0.20392996  -0.02392995  1
  Ti  Ti134  1  0.89671533  0.09875999  0.37055185  1
  Ti  Ti135  1  0.51060024  0.11547076  0.88948825  1
  Ti  Ti136  1  0.49751166  0.30730913  0.11805486  1
  Ti  Ti137  1  0.49995518  0.30317112  0.61378499  1
  Ti  Ti138  1  0.39048868  0.79543876  0.01421482  1
  Ti  Ti139  1  0.89813103  0.89989225  0.11282068  1
  Ti  Ti140  1  0.00238124  0.00250785  -0.01202552  1
  Ti  Ti141  1  0.50849228  0.10522733  0.63534605  1
  Ti  Ti142  1  0.68488171  0.69518418  0.36925610  1
  Ti  Ti143  1  0.89822168  0.49468871  0.61094787  1
  Ti  Ti144  1  0.61053569  0.40322053  0.01461218  1
  Ti  Ti145  1  0.39108443  0.81065783  0.50931999  1
  Ti  Ti146  1  0.49729089  0.70176710  0.61683868  1
  Ti  Ti147  1  0.49795543  0.70309450  0.35557192  1
  Ti  Ti148  1  0.19556165  0.59552225  0.25885226  1
  Ti  Ti149  1  0.19425548  0.78468081  0.01231252  1
  Ti  Ti150  1  0.09493117  0.50889289  0.85526169  1
  Ti  Ti151  1  0.80859110  0.19819922  0.24663854  1
  Ti  Ti152  1  0.90211840  0.09972101  0.65209344  1
  Ti  Ti153  1  0.10383524  0.08772577  0.37152334  1
  Ti  Ti154  1  0.39887246  0.20658390  0.00221395  1
  Ti  Ti155  1  0.28865606  0.70604308  0.61363097  1
  Ti  Ti156  1  0.79682877  0.79412012  0.51815382  1
  Ti  Ti157  1  0.10535828  0.30471093  0.38683544  1
  Ti  Ti158  1  0.50069149  0.90495718  0.11394816  1
  Ti  Ti159  1  0.49141536  0.89046801  0.36054538  1
  Mo  Mo160  1  0.90120281  0.30461054  0.85259816  1
  Mo  Mo161  1  0.59717071  0.39029073  0.50735915  1
  Mo  Mo162  1  0.19910796  0.79584374  0.74362334  1
  Mo  Mo163  1  0.39766805  0.40483230  0.00741981  1
  Mo  Mo164  1  0.89773661  0.69917905  0.61105551  1
  Mo  Mo165  1  0.70011413  0.10749718  0.87902554  1
  Mo  Mo166  1  0.10314656  0.69589193  0.63202176  1
  Mo  Mo167  1  0.30474008  0.30449969  0.38556289  1
  Mo  Mo168  1  0.31032059  0.10555690  0.87828425  1
  Mo  Mo169  1  0.80349745  0.39438077  0.51681663  1
  Mo  Mo170  1  0.59554275  0.60646028  0.49379462  1
  Mo  Mo171  1  0.28914579  0.69558845  0.12289455  1
  Mo  Mo172  1  0.80472208  0.00597963  0.76253486  1
  Mo  Mo173  1  0.39701018  0.39986056  0.23633297  1
  Mo  Mo174  1  0.59032019  0.79910372  0.25879694  1
  Mo  Mo175  1  0.50224386  0.11012255  0.10938424  1
  Mo  Mo176  1  0.68827552  0.69711916  0.60078370  1
  Mo  Mo177  1  0.29829503  0.50492475  0.38701343  1
  Mo  Mo178  1  0.19459210  0.60489125  0.50545715  1
  Mo  Mo179  1  0.19570788  -0.00684897  -0.00523703  1
  Mo  Mo180  1  0.10406703  0.89666609  0.65449802  1
  Mo  Mo181  1  0.30488290  0.89650529  0.62763859  1
  Mo  Mo182  1  0.59343923  0.00894277  -0.00582687  1
  Mo  Mo183  1  0.70531959  0.69579657  0.87679598  1
  Mo  Mo184  1  0.10188044  0.50488098  0.39610660  1
  Mo  Mo185  1  0.19930074  0.79306815  0.22669378  1
  Mo  Mo186  1  0.59333892  0.21004811  0.74898482  1
  Mo  Mo187  1  0.00360424  0.79071804  0.73919382  1
  Mo  Mo188  1  0.29676925  0.11502150  0.11527826  1
  Mo  Mo189  1  0.00177175  0.19835898  0.75639795  1
  Mo  Mo190  1  0.79734410  0.79372998  0.73432812  1
  Mo  Mo191  1  0.60329790  0.59715046  0.24407280  1
  Mo  Mo192  1  0.09484982  0.09490056  0.87394278  1
  Mo  Mo193  1  0.39375073  0.40138906  0.49177287  1
  Mo  Mo194  1  0.30946212  0.31054722  0.88501391  1
  Mo  Mo195  1  0.90320046  0.29725792  0.38913533  1
  Mo  Mo196  1  0.70118411  0.69442115  0.15055751  1
  Mo  Mo197  1  0.20185670  0.40173411  0.48601171  1
  Mo  Mo198  1  0.81346008  0.59425301  0.00415785  1
  Mo  Mo199  1  0.20266110  0.80221686  0.51905762  1
