# generated using pymatgen
data_HfZrTaTiMo
_symmetry_space_group_name_H-M   'P 1'
_cell_length_a   15.82996154
_cell_length_b   15.84790552
_cell_length_c   15.39536327
_cell_angle_alpha   90.00740379
_cell_angle_beta   90.11897128
_cell_angle_gamma   90.17389017
_symmetry_Int_Tables_number   1
_chemical_formula_structural   HfZrTaTiMo
_chemical_formula_sum   'Hf40 Zr40 Ta40 Ti40 Mo40'
_cell_volume   3862.23534193
_cell_formula_units_Z   40
loop_
 _symmetry_equiv_pos_site_id
 _symmetry_equiv_pos_as_xyz
  1  'x, y, z'
loop_
 _atom_site_type_symbol
 _atom_site_label
 _atom_site_symmetry_multiplicity
 _atom_site_fract_x
 _atom_site_fract_y
 _atom_site_fract_z
 _atom_site_occupancy
  Hf  Hf0  1  0.90448729  0.52338795  0.87200481  1
  Hf  Hf1  1  0.61205651  0.61495245  0.50479955  1
  Hf  Hf2  1  0.36574565  0.40640258  0.73371272  1
  Hf  Hf3  1  0.30577153  0.70772725  0.62294691  1
  Hf  Hf4  1  0.59436909  0.18193507  0.74103676  1
  Hf  Hf5  1  0.08795681  0.10233816  0.88387717  1
  Hf  Hf6  1  -0.00370457  0.38647947  0.51039512  1
  Hf  Hf7  1  0.00816477  0.38908677  0.75095287  1
  Hf  Hf8  1  0.19347970  0.40018304  0.00503894  1
  Hf  Hf9  1  0.89412610  0.49627429  0.61992315  1
  Hf  Hf10  1  0.30191186  0.90230498  0.87176096  1
  Hf  Hf11  1  0.31193975  0.11358644  0.62696112  1
  Hf  Hf12  1  0.10756591  0.29556912  0.36837031  1
  Hf  Hf13  1  0.39997509  0.60563574  0.49319059  1
  Hf  Hf14  1  0.71561340  0.69648251  0.88122676  1
  Hf  Hf15  1  0.81334853  0.60064659  0.02197903  1
  Hf  Hf16  1  0.09999774  0.09473547  0.37328600  1
  Hf  Hf17  1  0.00891876  0.79924191  0.25023291  1
  Hf  Hf18  1  0.39131936  0.60295580  0.26149742  1
  Hf  Hf19  1  -0.01162201  -0.00761095  0.74401994  1
  Hf  Hf20  1  0.19828435  0.22698115  0.74514799  1
  Hf  Hf21  1  0.58818796  0.58906725  0.24747855  1
  Hf  Hf22  1  0.60624352  0.79638874  0.75591517  1
  Hf  Hf23  1  0.70088494  0.49786607  0.62625507  1
  Hf  Hf24  1  0.09659011  0.50224696  0.12609789  1
  Hf  Hf25  1  -0.00493880  0.19600838  0.50325992  1
  Hf  Hf26  1  0.51728223  0.10554600  0.12171956  1
  Hf  Hf27  1  0.10454169  0.89159784  0.10797785  1
  Hf  Hf28  1  0.50349210  0.50288529  0.63084900  1
  Hf  Hf29  1  0.09923442  0.69933304  0.62068541  1
  Hf  Hf30  1  0.20795708  0.58931009  0.74748913  1
  Hf  Hf31  1  0.19841683  0.61489735  0.24838907  1
  Hf  Hf32  1  0.70556110  0.90167990  0.60993885  1
  Hf  Hf33  1  0.49831326  0.89859408  0.61931377  1
  Hf  Hf34  1  0.70315870  0.29985612  0.64177873  1
  Hf  Hf35  1  0.40621281  0.21403564  0.25601258  1
  Hf  Hf36  1  0.39927263  0.00707363  0.24426378  1
  Hf  Hf37  1  -0.00579468  0.79630321  0.74110231  1
  Hf  Hf38  1  0.20232497  -0.01024080  0.24049018  1
  Hf  Hf39  1  0.50001791  0.90150851  0.38210064  1
  Zr  Zr40  1  0.39655207  0.40353049  0.49855703  1
  Zr  Zr41  1  0.28482078  0.49298763  0.37758863  1
  Zr  Zr42  1  0.38411200  0.80047798  0.24400076  1
  Zr  Zr43  1  0.20700866  0.00764942  0.00305948  1
  Zr  Zr44  1  -0.00765742  0.60590979  0.24068580  1
  Zr  Zr45  1  0.20763928  0.19708629  0.23798187  1
  Zr  Zr46  1  0.61146964  0.21335190  0.49156976  1
  Zr  Zr47  1  0.70522364  0.10048341  0.12409401  1
  Zr  Zr48  1  0.19223160  0.00166885  0.75092859  1
  Zr  Zr49  1  0.40812518  0.21121130  0.00683367  1
  Zr  Zr50  1  0.09837950  0.10472172  0.62533241  1
  Zr  Zr51  1  0.79432208  0.40003412  0.23542702  1
  Zr  Zr52  1  0.79605072  0.39925520  0.00331851  1
  Zr  Zr53  1  0.89361061  0.49605798  0.38055323  1
  Zr  Zr54  1  0.49249397  0.91257785  0.86868941  1
  Zr  Zr55  1  0.49145611  0.70015182  0.11771080  1
  Zr  Zr56  1  0.90350403  0.89396606  0.88991771  1
  Zr  Zr57  1  0.30655585  0.90404961  0.63822713  1
  Zr  Zr58  1  0.61372522  -0.00194128  0.74636137  1
  Zr  Zr59  1  0.69322893  0.29274663  0.87559248  1
  Zr  Zr60  1  0.69078933  0.49186516  0.38222432  1
  Zr  Zr61  1  0.49614969  0.49888583  0.87809062  1
  Zr  Zr62  1  0.49650629  0.29960726  0.62914108  1
  Zr  Zr63  1  0.60483617  0.80899071  -0.01151196  1
  Zr  Zr64  1  0.08487602  0.68895097  0.87470492  1
  Zr  Zr65  1  0.09165131  0.49419087  0.37224437  1
  Zr  Zr66  1  0.80728253  0.39892751  0.76423485  1
  Zr  Zr67  1  0.81524999  0.79990101  0.24915200  1
  Zr  Zr68  1  0.81445325  0.00034902  0.47979003  1
  Zr  Zr69  1  0.49298505  0.30655567  0.85755371  1
  Zr  Zr70  1  0.40465086  0.40664646  0.25304069  1
  Zr  Zr71  1  0.69355133  0.90290472  0.13984490  1
  Zr  Zr72  1  -0.00904739  0.40352513  -0.00070405  1
  Zr  Zr73  1  0.30274198  0.89865845  0.39057335  1
  Zr  Zr74  1  0.90604468  0.09388980  0.12104543  1
  Zr  Zr75  1  0.29597531  0.10486634  0.38609226  1
  Zr  Zr76  1  0.80591690  0.80653422  0.74027802  1
  Zr  Zr77  1  0.50434856  0.71577622  0.37739739  1
  Zr  Zr78  1  0.79507626  0.79011779  0.49516059  1
  Zr  Zr79  1  0.31439597  0.10689957  0.86441586  1
  Ta  Ta80  1  0.60294604  0.20620400  0.26375720  1
  Ta  Ta81  1  0.51062964  0.10470514  0.88826720  1
  Ta  Ta82  1  0.60591347  0.00676218  0.49336188  1
  Ta  Ta83  1  0.30369836  0.51083204  0.11295061  1
  Ta  Ta84  1  0.90504384  0.29447868  0.35861543  1
  Ta  Ta85  1  0.60017419  0.00536532  0.26679053  1
  Ta  Ta86  1  0.80662765  0.20105770  0.48257815  1
  Ta  Ta87  1  -0.00608388  0.78026618  0.01378914  1
  Ta  Ta88  1  0.80847576  -0.00615542  0.26315242  1
  Ta  Ta89  1  0.20371363  0.39760763  0.23445417  1
  Ta  Ta90  1  0.19677041  0.79657557  0.76031987  1
  Ta  Ta91  1  0.50100970  0.10524216  0.38255339  1
  Ta  Ta92  1  0.09320107  0.28954186  0.12430737  1
  Ta  Ta93  1  0.50209778  0.90354517  0.12544143  1
  Ta  Ta94  1  0.79555790  0.59634645  0.23923132  1
  Ta  Ta95  1  0.19843114  0.80028398  0.49837950  1
  Ta  Ta96  1  0.69329996  0.50099554  0.87712572  1
  Ta  Ta97  1  0.40236934  0.60588907  0.75673135  1
  Ta  Ta98  1  0.59465966  0.39570141  0.23716534  1
  Ta  Ta99  1  0.80397313  0.79604060  0.01714209  1
  Ta  Ta100  1  0.30487418  0.30941273  0.11347462  1
  Ta  Ta101  1  0.79247956  0.37918215  0.49487299  1
  Ta  Ta102  1  0.19573097  0.39107959  0.52366310  1
  Ta  Ta103  1  0.89962469  0.28456036  0.12388531  1
  Ta  Ta104  1  0.19808451  0.59624476  0.50482005  1
  Ta  Ta105  1  0.19698584  -0.00089360  0.51103877  1
  Ta  Ta106  1  0.69198732  0.69969077  0.13335751  1
  Ta  Ta107  1  0.29585858  0.31015503  0.88598794  1
  Ta  Ta108  1  0.69988242  0.69852832  0.35628823  1
  Ta  Ta109  1  0.69230979  0.88946181  0.37076803  1
  Ta  Ta110  1  0.90014082  0.69202668  0.38438503  1
  Ta  Ta111  1  0.09754215  0.89357019  0.88789817  1
  Ta  Ta112  1  0.90100595  0.27723110  0.88321341  1
  Ta  Ta113  1  0.19278809  0.60485900  0.00041687  1
  Ta  Ta114  1  0.60073080  0.60666585  0.75459316  1
  Ta  Ta115  1  0.69300210  0.28694668  0.11964195  1
  Ta  Ta116  1  0.79494789  -0.01208347  0.00003138  1
  Ta  Ta117  1  0.29894241  0.50163847  0.89098391  1
  Ta  Ta118  1  0.71231484  0.10439546  0.61410801  1
  Ta  Ta119  1  0.70452085  0.09796197  0.89002801  1
  Ti  Ti120  1  0.29896657  0.69727846  0.88095776  1
  Ti  Ti121  1  0.80089281  0.00200776  0.75804248  1
  Ti  Ti122  1  0.51292752  0.31824689  0.38190242  1
  Ti  Ti123  1  0.10088847  0.49609263  0.62965133  1
  Ti  Ti124  1  0.00088842  -0.00587662  0.50538676  1
  Ti  Ti125  1  0.39804308  0.21156493  0.48863215  1
  Ti  Ti126  1  0.80003997  0.61169729  0.74290970  1
  Ti  Ti127  1  0.09255514  0.09886727  0.12086738  1
  Ti  Ti128  1  0.10175387  0.49778237  0.87369049  1
  Ti  Ti129  1  0.88934940  0.09630248  0.62744450  1
  Ti  Ti130  1  0.09539470  0.29438577  0.88677237  1
  Ti  Ti131  1  0.40848108  0.00172075  0.00983217  1
  Ti  Ti132  1  0.30319675  0.89199813  0.10602625  1
  Ti  Ti133  1  0.28896178  0.70798522  0.10431938  1
  Ti  Ti134  1  0.89869344  0.09717153  0.89090320  1
  Ti  Ti135  1  0.40308256  0.79550620  -0.01126299  1
  Ti  Ti136  1  0.19891504  0.79693222  0.26083299  1
  Ti  Ti137  1  0.40579228  0.78651125  0.76222448  1
  Ti  Ti138  1  0.00052240  0.59498921  0.50219098  1
  Ti  Ti139  1  0.59534477  0.60630851  -0.00620418  1
  Ti  Ti140  1  0.10240520  0.89555005  0.62395632  1
  Ti  Ti141  1  0.91379230  0.10006436  0.35899346  1
  Ti  Ti142  1  0.58713054  0.38784632  0.00882526  1
  Ti  Ti143  1  0.09931057  0.90208498  0.38164479  1
  Ti  Ti144  1  0.89451174  0.69324161  0.60653290  1
  Ti  Ti145  1  -0.00254567  -0.01356252  0.24639242  1
  Ti  Ti146  1  0.48946673  0.49908909  0.10486410  1
  Ti  Ti147  1  0.50462390  0.70759983  0.62193904  1
  Ti  Ti148  1  0.88870306  0.28348325  0.63635211  1
  Ti  Ti149  1  0.09892312  0.70082426  0.39044485  1
  Ti  Ti150  1  0.30678472  0.10522796  0.11982571  1
  Ti  Ti151  1  0.19998043  0.20097027  0.00439777  1
  Ti  Ti152  1  -0.00351556  0.80724378  0.49986627  1
  Ti  Ti153  1  0.40470237  0.00888030  0.50606683  1
  Ti  Ti154  1  -0.00541031  0.60060451  0.73603917  1
  Ti  Ti155  1  0.68536443  0.50004742  0.11202739  1
  Ti  Ti156  1  -0.00315516  0.39254176  0.23801154  1
  Ti  Ti157  1  -0.00835807  0.19454318  0.74952789  1
  Ti  Ti158  1  0.70367530  0.10048140  0.37158354  1
  Ti  Ti159  1  0.80077224  0.19679291  0.25702814  1
  Mo  Mo160  1  0.42937352  0.03236565  0.73457040  1
  Mo  Mo161  1  0.00200523  0.59813344  0.01450263  1
  Mo  Mo162  1  0.39866935  0.80345297  0.50676007  1
  Mo  Mo163  1  0.08913891  0.29852284  0.62822189  1
  Mo  Mo164  1  0.60224894  0.40378792  0.49807948  1
  Mo  Mo165  1  0.19163205  0.40477186  0.75090383  1
  Mo  Mo166  1  0.59807860  0.80150718  0.24178932  1
  Mo  Mo167  1  0.28857628  0.70358278  0.39011646  1
  Mo  Mo168  1  0.89706431  0.49237827  0.13374599  1
  Mo  Mo169  1  0.00423249  0.19699819  0.00280780  1
  Mo  Mo170  1  0.29546132  0.29729338  0.61199726  1
  Mo  Mo171  1  0.90783541  0.90195423  0.60982722  1
  Mo  Mo172  1  0.70672463  0.90307556  0.88071120  1
  Mo  Mo173  1  0.00025265  0.19660296  0.24705440  1
  Mo  Mo174  1  0.89859478  0.69752452  0.87702441  1
  Mo  Mo175  1  0.50611024  0.30277843  0.13066568  1
  Mo  Mo176  1  0.90332282  0.90067034  0.11653154  1
  Mo  Mo177  1  0.50471411  0.10258400  0.60029778  1
  Mo  Mo178  1  0.50461940  0.50054293  0.38486571  1
  Mo  Mo179  1  0.70688707  0.29906751  0.35709017  1
  Mo  Mo180  1  0.60356376  0.20462643  -0.00497784  1
  Mo  Mo181  1  0.91329582  0.89859580  0.38331066  1
  Mo  Mo182  1  0.10684737  0.70218809  0.11656420  1
  Mo  Mo183  1  0.39430851  0.60723250  -0.01163214  1
  Mo  Mo184  1  0.39795527  0.40521173  0.00696090  1
  Mo  Mo185  1  0.60393692  0.41037680  0.75390780  1
  Mo  Mo186  1  0.39916233  0.20622649  0.75443430  1
  Mo  Mo187  1  0.29390226  0.30057778  0.38958359  1
  Mo  Mo188  1  0.60041461  -0.00000666  -0.00505667  1
  Mo  Mo189  1  0.69903871  0.69609584  0.63714469  1
  Mo  Mo190  1  0.80378625  0.18066312  0.75851743  1
  Mo  Mo191  1  0.29486707  0.50923779  0.61615894  1
  Mo  Mo192  1  0.49814075  0.69913983  0.87623490  1
  Mo  Mo193  1  0.20012802  0.20549803  0.50589979  1
  Mo  Mo194  1  0.89952677  0.69970994  0.13491455  1
  Mo  Mo195  1  0.60299907  0.80332165  0.50758123  1
  Mo  Mo196  1  0.80290474  0.19615767  -0.00172729  1
  Mo  Mo197  1  0.80241154  0.59809229  0.49888578  1
  Mo  Mo198  1  -0.00143875  -0.00772883  0.00433954  1
  Mo  Mo199  1  0.20264137  0.79697006  -0.02029379  1
