# generated using pymatgen
data_HfZrTaTiMo
_symmetry_space_group_name_H-M   'P 1'
_cell_length_a   15.83438243
_cell_length_b   15.83706635
_cell_length_c   15.40372822
_cell_angle_alpha   89.99883634
_cell_angle_beta   90.00189495
_cell_angle_gamma   90.01752679
_symmetry_Int_Tables_number   1
_chemical_formula_structural   HfZrTaTiMo
_chemical_formula_sum   'Hf40 Zr40 Ta40 Ti40 Mo40'
_cell_volume   3862.79528599
_cell_formula_units_Z   40
loop_
 _symmetry_equiv_pos_site_id
 _symmetry_equiv_pos_as_xyz
  1  'x, y, z'
loop_
 _atom_site_type_symbol
 _atom_site_label
 _atom_site_symmetry_multiplicity
 _atom_site_fract_x
 _atom_site_fract_y
 _atom_site_fract_z
 _atom_site_occupancy
  Hf  Hf0  1  0.60416053  0.00818198  0.51212261  1
  Hf  Hf1  1  0.09649844  0.10331970  0.37732291  1
  Hf  Hf2  1  0.80966834  0.59394106  0.76283214  1
  Hf  Hf3  1  0.20346656  0.00601235  0.50930730  1
  Hf  Hf4  1  0.48899215  0.29837999  0.89259592  1
  Hf  Hf5  1  0.92152353  0.70080712  0.87281416  1
  Hf  Hf6  1  0.48731412  0.48458838  0.11608883  1
  Hf  Hf7  1  0.38301767  0.39286853  0.76132488  1
  Hf  Hf8  1  0.29710698  0.10811930  0.36021662  1
  Hf  Hf9  1  0.80620956  0.80725805  0.75250304  1
  Hf  Hf10  1  0.30212183  0.69959204  0.37585743  1
  Hf  Hf11  1  0.50310202  0.90305625  0.36553050  1
  Hf  Hf12  1  0.69559040  0.71134423  0.88214884  1
  Hf  Hf13  1  0.40076492  0.19348624  0.50584742  1
  Hf  Hf14  1  0.32752687  0.30513075  0.09991463  1
  Hf  Hf15  1  -0.00343939  0.60655530  0.25689376  1
  Hf  Hf16  1  0.00325597  0.00179591  0.01921418  1
  Hf  Hf17  1  0.59084919  0.38527078  0.23774321  1
  Hf  Hf18  1  0.89467618  0.91054731  0.37159330  1
  Hf  Hf19  1  0.61502733  0.19771471  0.24378793  1
  Hf  Hf20  1  0.29973179  0.50836331  0.88706534  1
  Hf  Hf21  1  0.89682497  0.30196870  0.11311603  1
  Hf  Hf22  1  0.29011459  0.89195748  0.13046079  1
  Hf  Hf23  1  0.00404659  0.19785845  0.23856946  1
  Hf  Hf24  1  0.09456868  0.29791813  0.85951959  1
  Hf  Hf25  1  0.79558881  0.00008570  0.72926598  1
  Hf  Hf26  1  0.49095736  0.90606141  0.62819144  1
  Hf  Hf27  1  0.18814852  -0.00343109  0.24989434  1
  Hf  Hf28  1  0.61713043  0.59124096  0.74392289  1
  Hf  Hf29  1  0.29257221  0.70416972  0.87681047  1
  Hf  Hf30  1  0.09589698  0.49738208  0.12701553  1
  Hf  Hf31  1  0.72271485  0.70285554  0.60724729  1
  Hf  Hf32  1  0.38215396  0.81143535  0.74588027  1
  Hf  Hf33  1  0.59398162  0.60877038  0.01106620  1
  Hf  Hf34  1  0.50088535  0.09743889  0.13541836  1
  Hf  Hf35  1  0.20272087  0.60397457  0.24183663  1
  Hf  Hf36  1  0.40026125  0.79449365  0.01354395  1
  Hf  Hf37  1  0.50350596  0.89558782  0.87652961  1
  Hf  Hf38  1  0.30107996  0.69417421  0.60619316  1
  Hf  Hf39  1  0.69632881  0.70438818  0.37245449  1
  Zr  Zr40  1  0.49213847  0.69367016  0.86205675  1
  Zr  Zr41  1  0.09477884  0.52272575  0.87760393  1
  Zr  Zr42  1  0.60252492  0.39887868  0.75646523  1
  Zr  Zr43  1  0.89618080  0.28533468  0.87403176  1
  Zr  Zr44  1  0.89313990  0.50373753  0.61482711  1
  Zr  Zr45  1  0.60835541  0.40823156  -0.01109844  1
  Zr  Zr46  1  0.20782063  0.18812488  -0.00885210  1
  Zr  Zr47  1  0.18828071  0.80381877  0.72865192  1
  Zr  Zr48  1  0.09507623  0.08705229  0.85811225  1
  Zr  Zr49  1  0.79819264  0.59605038  0.00147217  1
  Zr  Zr50  1  0.29419592  0.49553303  0.38178404  1
  Zr  Zr51  1  0.60810978  0.00242771  0.75424065  1
  Zr  Zr52  1  0.48374346  0.50223730  0.64003377  1
  Zr  Zr53  1  -0.00179000  0.61508872  0.02480389  1
  Zr  Zr54  1  0.60585274  0.80358335  0.24093739  1
  Zr  Zr55  1  0.08956376  0.50745315  0.61448822  1
  Zr  Zr56  1  0.30436643  0.09939827  0.13717669  1
  Zr  Zr57  1  0.70358189  0.28194867  0.39468432  1
  Zr  Zr58  1  0.21009799  0.20419994  0.74431173  1
  Zr  Zr59  1  -0.00276118  0.39737384  0.25845784  1
  Zr  Zr60  1  0.60761808  0.20034948  0.76260171  1
  Zr  Zr61  1  -0.00024827  0.20402057  0.50891333  1
  Zr  Zr62  1  0.79419534  0.38693396  0.25529890  1
  Zr  Zr63  1  0.29836470  0.30234782  0.38439060  1
  Zr  Zr64  1  0.19335558  0.39644744  -0.00083418  1
  Zr  Zr65  1  0.41256226  0.22021625  0.25242603  1
  Zr  Zr66  1  0.39775674  0.00311376  0.49645031  1
  Zr  Zr67  1  0.60274416  0.59427012  0.50684947  1
  Zr  Zr68  1  0.11303751  0.29660590  0.37374567  1
  Zr  Zr69  1  0.91523969  0.69685523  0.61660824  1
  Zr  Zr70  1  0.61437347  0.80719677  0.73569367  1
  Zr  Zr71  1  0.78800337  0.40294758  0.76328399  1
  Zr  Zr72  1  0.49530574  0.70066977  0.62821083  1
  Zr  Zr73  1  0.00589849  0.19377057  0.01141459  1
  Zr  Zr74  1  0.39888341  0.01043808  -0.01319846  1
  Zr  Zr75  1  0.90359499  0.30076123  0.63411575  1
  Zr  Zr76  1  0.69165358  0.49136687  0.37094584  1
  Zr  Zr77  1  0.80818309  0.79913145  0.01635354  1
  Zr  Zr78  1  0.90523587  0.90580730  0.88129560  1
  Zr  Zr79  1  0.19843684  0.60183857  0.73772730  1
  Ta  Ta80  1  0.70251001  0.29823467  0.61556592  1
  Ta  Ta81  1  0.59509886  0.18426940  -0.00291377  1
  Ta  Ta82  1  0.70236959  0.29094307  0.10225578  1
  Ta  Ta83  1  -0.00675146  0.41611105  0.76163193  1
  Ta  Ta84  1  0.80198813  0.59950343  0.25297297  1
  Ta  Ta85  1  0.49879272  0.49541159  0.37149521  1
  Ta  Ta86  1  0.80353190  0.00565573  0.01835513  1
  Ta  Ta87  1  0.90030336  0.90002230  0.13937873  1
  Ta  Ta88  1  0.80178767  0.18876554  0.23452485  1
  Ta  Ta89  1  0.88943316  0.89136299  0.60003339  1
  Ta  Ta90  1  0.40449958  0.59892022  0.24521014  1
  Ta  Ta91  1  0.89377607  0.49822008  0.12883529  1
  Ta  Ta92  1  -0.00554424  0.40077400  0.48455064  1
  Ta  Ta93  1  -0.00326808  -0.01233674  0.72964748  1
  Ta  Ta94  1  -0.00590305  0.40538303  -0.00761990  1
  Ta  Ta95  1  0.40429752  0.40006752  0.50542016  1
  Ta  Ta96  1  -0.01195465  0.00986410  0.50862980  1
  Ta  Ta97  1  0.09338264  0.90420066  0.38384193  1
  Ta  Ta98  1  0.09510886  0.10183677  0.63482908  1
  Ta  Ta99  1  0.49624604  0.90918619  0.13700290  1
  Ta  Ta100  1  0.49081839  0.10352102  0.64783173  1
  Ta  Ta101  1  0.81252424  0.59900621  0.47058726  1
  Ta  Ta102  1  0.01486624  0.80383638  0.02480340  1
  Ta  Ta103  1  0.50743912  0.30223474  0.39265691  1
  Ta  Ta104  1  0.59694410  0.39918525  0.51685694  1
  Ta  Ta105  1  0.08812414  0.89588786  0.60160182  1
  Ta  Ta106  1  0.20015234  0.80523702  0.49233605  1
  Ta  Ta107  1  0.39892328  0.79359031  0.24471184  1
  Ta  Ta108  1  0.09897831  0.89522981  0.87600236  1
  Ta  Ta109  1  0.28398849  0.90236806  0.88508717  1
  Ta  Ta110  1  0.60128351  0.80629572  0.50122712  1
  Ta  Ta111  1  0.80356407  0.80041906  0.25093713  1
  Ta  Ta112  1  0.50977890  0.10015677  0.36273862  1
  Ta  Ta113  1  0.20153248  0.19977984  0.52600525  1
  Ta  Ta114  1  0.49665321  0.29448374  0.62963486  1
  Ta  Ta115  1  0.19932727  0.62510877  0.02279887  1
  Ta  Ta116  1  0.20860485  -0.00997508  0.73075258  1
  Ta  Ta117  1  0.40361516  0.59567977  0.48738811  1
  Ta  Ta118  1  0.20608424  0.39047633  0.23182851  1
  Ta  Ta119  1  0.10786181  0.49797389  0.37817872  1
  Ti  Ti120  1  0.59885692  0.80460067  0.02240184  1
  Ti  Ti121  1  0.70874232  0.28591895  0.89311779  1
  Ti  Ti122  1  0.19008789  -0.00436945  0.01034895  1
  Ti  Ti123  1  0.79649251  0.19081219  0.74093311  1
  Ti  Ti124  1  0.78108516  -0.00100196  0.23212449  1
  Ti  Ti125  1  -0.00297876  0.00386752  0.24190083  1
  Ti  Ti126  1  0.89060401  0.09816537  0.36717636  1
  Ti  Ti127  1  0.80137874  0.40139617  0.49323699  1
  Ti  Ti128  1  0.19368285  0.40213764  0.74310629  1
  Ti  Ti129  1  0.89459412  0.28604882  0.37887962  1
  Ti  Ti130  1  0.50225751  0.69699853  0.37032323  1
  Ti  Ti131  1  0.30019365  0.49993425  0.11810490  1
  Ti  Ti132  1  0.10437585  0.71296324  0.87703396  1
  Ti  Ti133  1  0.29891157  0.89965887  0.36739763  1
  Ti  Ti134  1  0.49267915  0.50977267  0.87365784  1
  Ti  Ti135  1  0.59359880  0.59628169  0.23796452  1
  Ti  Ti136  1  0.60278512  -0.00330337  0.00419609  1
  Ti  Ti137  1  0.70657235  0.09176736  0.37839474  1
  Ti  Ti138  1  0.39537429  0.19086554  0.77095042  1
  Ti  Ti139  1  0.70391667  0.49335893  0.12920027  1
  Ti  Ti140  1  0.39843407  0.40343344  0.25695501  1
  Ti  Ti141  1  0.80353230  0.40759447  -0.01209452  1
  Ti  Ti142  1  0.80433009  0.17666376  0.51671935  1
  Ti  Ti143  1  0.00352946  0.80091716  0.73782232  1
  Ti  Ti144  1  0.29671302  0.50234519  0.61548641  1
  Ti  Ti145  1  0.09756816  0.69728748  0.60012014  1
  Ti  Ti146  1  0.19073034  0.39382427  0.51766767  1
  Ti  Ti147  1  0.70562431  0.69689848  0.13346869  1
  Ti  Ti148  1  -0.00797792  0.79422666  0.47961588  1
  Ti  Ti149  1  0.71343313  0.09698447  0.89085175  1
  Ti  Ti150  1  0.59557743  0.19412169  0.51274059  1
  Ti  Ti151  1  0.10664116  0.70388144  0.37530034  1
  Ti  Ti152  1  0.70350272  0.90750393  0.38301130  1
  Ti  Ti153  1  0.40320655  0.80320452  0.49264828  1
  Ti  Ti154  1  0.90010157  0.09709703  0.86390882  1
  Ti  Ti155  1  0.30544070  0.30306962  0.62276296  1
  Ti  Ti156  1  -0.00182507  0.59763799  0.47067725  1
  Ti  Ti157  1  0.70583779  0.90415776  0.89293770  1
  Ti  Ti158  1  0.39659053  0.60811656  0.01834911  1
  Ti  Ti159  1  0.00922723  0.80517144  0.24863562  1
  Mo  Mo160  1  0.69740542  0.90098065  0.11700641  1
  Mo  Mo161  1  0.10819206  0.71498440  0.14771495  1
  Mo  Mo162  1  0.30567084  0.09958364  0.64082819  1
  Mo  Mo163  1  0.29592012  0.08844421  0.86156252  1
  Mo  Mo164  1  0.39213942  0.59995368  0.75045184  1
  Mo  Mo165  1  0.50118459  0.69818778  0.13714499  1
  Mo  Mo166  1  0.00585965  0.61299154  0.74868469  1
  Mo  Mo167  1  0.40163325  -0.00572788  0.26098138  1
  Mo  Mo168  1  0.89790590  0.09419345  0.13986524  1
  Mo  Mo169  1  0.30171935  0.70135146  0.13695877  1
  Mo  Mo170  1  0.80078436  0.79985680  0.47072559  1
  Mo  Mo171  1  0.19528309  0.80563745  0.00025021  1
  Mo  Mo172  1  0.40198848  0.19022683  -0.01497614  1
  Mo  Mo173  1  0.10521378  0.10014282  0.13540333  1
  Mo  Mo174  1  -0.00271712  0.19684355  0.74146852  1
  Mo  Mo175  1  0.60772347  0.00149221  0.25399692  1
  Mo  Mo176  1  0.29716806  0.89817215  0.60727089  1
  Mo  Mo177  1  0.69802630  0.51053501  0.88664415  1
  Mo  Mo178  1  0.70739501  0.49751912  0.60515425  1
  Mo  Mo179  1  0.90441163  0.50053120  0.88631596  1
  Mo  Mo180  1  0.70420473  0.89796160  0.60196878  1
  Mo  Mo181  1  0.39801168  0.41166847  -0.01626160  1
  Mo  Mo182  1  0.09949386  0.31023459  0.63700690  1
  Mo  Mo183  1  0.09857958  0.90011998  0.13634460  1
  Mo  Mo184  1  0.50953261  0.29457865  0.10306225  1
  Mo  Mo185  1  0.69617045  0.10923942  0.62028128  1
  Mo  Mo186  1  0.19654655  0.80328849  0.27517618  1
  Mo  Mo187  1  0.39305732  0.00099128  0.76329798  1
  Mo  Mo188  1  0.10609801  0.30130625  0.12524164  1
  Mo  Mo189  1  0.90107708  0.09734204  0.63748957  1
  Mo  Mo190  1  0.29742728  0.29802059  0.88203002  1
  Mo  Mo191  1  0.89983946  0.49567899  0.37106148  1
  Mo  Mo192  1  0.19604984  0.60009213  0.49545797  1
  Mo  Mo193  1  0.80011598  0.18827377  0.00664038  1
  Mo  Mo194  1  0.90010976  0.70447727  0.14789060  1
  Mo  Mo195  1  0.20010971  0.20649628  0.22697035  1
  Mo  Mo196  1  0.69785029  0.09565417  0.11402778  1
  Mo  Mo197  1  0.79955018  0.00253195  0.50591003  1
  Mo  Mo198  1  0.90355155  0.70663981  0.36349890  1
  Mo  Mo199  1  0.50322862  0.09598130  0.86766149  1
