# generated using pymatgen
data_HfZrTaTiMo
_symmetry_space_group_name_H-M   'P 1'
_cell_length_a   15.82215578
_cell_length_b   15.83471762
_cell_length_c   15.38599601
_cell_angle_alpha   90.08187759
_cell_angle_beta   89.98935944
_cell_angle_gamma   89.91300407
_symmetry_Int_Tables_number   1
_chemical_formula_structural   HfZrTaTiMo
_chemical_formula_sum   'Hf40 Zr40 Ta40 Ti40 Mo40'
_cell_volume   3854.78928203
_cell_formula_units_Z   40
loop_
 _symmetry_equiv_pos_site_id
 _symmetry_equiv_pos_as_xyz
  1  'x, y, z'
loop_
 _atom_site_type_symbol
 _atom_site_label
 _atom_site_symmetry_multiplicity
 _atom_site_fract_x
 _atom_site_fract_y
 _atom_site_fract_z
 _atom_site_occupancy
  Hf  Hf0  1  0.10275019  0.10952624  0.37964320  1
  Hf  Hf1  1  0.30120461  0.89501446  0.11224150  1
  Hf  Hf2  1  -0.00302751  0.00233905  0.50451139  1
  Hf  Hf3  1  0.30217043  0.69048358  0.86185387  1
  Hf  Hf4  1  0.29355716  0.09210256  0.10412923  1
  Hf  Hf5  1  0.20257195  0.20411675  0.24138287  1
  Hf  Hf6  1  0.89335546  0.10242979  0.36311979  1
  Hf  Hf7  1  0.00121072  0.80195572  -0.01298743  1
  Hf  Hf8  1  0.00225848  0.79877716  0.26113567  1
  Hf  Hf9  1  0.59928927  0.39659053  0.26469641  1
  Hf  Hf10  1  0.39549800  0.39545596  0.47357426  1
  Hf  Hf11  1  0.89794073  0.52161073  0.38453564  1
  Hf  Hf12  1  0.39695432  0.18073647  0.52030036  1
  Hf  Hf13  1  0.49941827  0.70398863  0.12493122  1
  Hf  Hf14  1  0.30621548  0.11046423  0.37924275  1
  Hf  Hf15  1  0.10396317  0.90442600  0.38664200  1
  Hf  Hf16  1  0.61346580  0.79725079  0.25309988  1
  Hf  Hf17  1  0.49440044  0.09979981  0.10021474  1
  Hf  Hf18  1  0.49222027  0.50718172  0.63690104  1
  Hf  Hf19  1  0.39310347  0.39719164  0.26126170  1
  Hf  Hf20  1  0.79397056  0.79603932  0.50295080  1
  Hf  Hf21  1  0.19928593  -0.00315470  0.24867524  1
  Hf  Hf22  1  0.10873308  0.49408421  0.86992661  1
  Hf  Hf23  1  0.49582677  0.50658368  0.13223796  1
  Hf  Hf24  1  0.60753429  0.19816066  0.74378726  1
  Hf  Hf25  1  -0.00060973  0.20666649  0.50378990  1
  Hf  Hf26  1  0.79414644  0.00672020  0.50923849  1
  Hf  Hf27  1  -0.00340449  0.58195828  0.73515825  1
  Hf  Hf28  1  0.68745960  0.10492941  0.38044281  1
  Hf  Hf29  1  0.70507637  0.88106136  0.11384327  1
  Hf  Hf30  1  0.69692466  0.49183760  0.11566842  1
  Hf  Hf31  1  0.61625749  0.40957666  0.75901575  1
  Hf  Hf32  1  0.01929007  0.79879178  0.75004796  1
  Hf  Hf33  1  0.30651058  0.90192684  0.38895075  1
  Hf  Hf34  1  0.90179433  0.29863350  0.12706894  1
  Hf  Hf35  1  0.58817350  -0.00242716  0.50661840  1
  Hf  Hf36  1  0.89021242  0.70148146  0.11470404  1
  Hf  Hf37  1  0.42709891  0.79407286  0.50349165  1
  Hf  Hf38  1  0.59714010  0.62339377  0.51197193  1
  Hf  Hf39  1  0.10013952  0.70538923  0.12401776  1
  Zr  Zr40  1  0.49777191  0.30794949  0.63361819  1
  Zr  Zr41  1  0.31391749  0.90860907  0.62644758  1
  Zr  Zr42  1  0.29489643  0.49274452  0.62186424  1
  Zr  Zr43  1  0.22287622  0.59308200  0.01722394  1
  Zr  Zr44  1  0.59800956  -0.01320899  -0.00928357  1
  Zr  Zr45  1  0.70483411  0.29304022  0.39442041  1
  Zr  Zr46  1  0.89947554  0.90741637  0.86574892  1
  Zr  Zr47  1  0.00621479  0.40269677  0.27173894  1
  Zr  Zr48  1  0.79515448  0.40542169  0.26090034  1
  Zr  Zr49  1  0.90063634  0.90034380  0.63323470  1
  Zr  Zr50  1  0.69010885  0.89669560  0.63702472  1
  Zr  Zr51  1  0.19288409  -0.00812582  0.75321587  1
  Zr  Zr52  1  0.49565814  0.89543766  0.12193745  1
  Zr  Zr53  1  0.31007815  0.69537151  0.62962716  1
  Zr  Zr54  1  0.09416685  0.10702736  0.88408445  1
  Zr  Zr55  1  0.90119354  0.49910680  0.12319503  1
  Zr  Zr56  1  0.39318072  0.22571793  0.00503120  1
  Zr  Zr57  1  0.49947450  0.51133107  0.86970289  1
  Zr  Zr58  1  0.20235104  0.39731934  0.01702607  1
  Zr  Zr59  1  0.78180766  0.19825069  0.23210555  1
  Zr  Zr60  1  0.29747701  0.09943629  0.88385330  1
  Zr  Zr61  1  0.69320190  0.68760883  0.86843060  1
  Zr  Zr62  1  0.70489732  0.10366449  0.88159356  1
  Zr  Zr63  1  0.58761988  0.41098362  0.48448599  1
  Zr  Zr64  1  0.50281642  0.69704465  0.35592746  1
  Zr  Zr65  1  0.50094112  0.26076940  0.37307684  1
  Zr  Zr66  1  0.29225172  0.31066092  0.85627611  1
  Zr  Zr67  1  0.20080712  0.79143550  0.51206696  1
  Zr  Zr68  1  0.10982956  0.69380680  0.87340499  1
  Zr  Zr69  1  0.79444267  0.58575712  0.74376377  1
  Zr  Zr70  1  0.29499616  0.30537866  0.62543677  1
  Zr  Zr71  1  0.49896616  0.10472767  0.87691590  1
  Zr  Zr72  1  -0.00599671  0.20310113  0.73976727  1
  Zr  Zr73  1  0.19853820  0.59684159  0.24492768  1
  Zr  Zr74  1  0.10052612  0.68703290  0.38526132  1
  Zr  Zr75  1  0.81268728  0.40007526  0.75218522  1
  Zr  Zr76  1  0.40453264  0.01061548  0.25395464  1
  Zr  Zr77  1  0.60883680  0.01048056  0.23748457  1
  Zr  Zr78  1  0.39164668  0.42006168  0.00309618  1
  Zr  Zr79  1  0.90416535  0.89921749  0.12921508  1
  Ta  Ta80  1  -0.00603127  0.60404362  0.24907917  1
  Ta  Ta81  1  0.09012218  0.10175545  0.12009079  1
  Ta  Ta82  1  0.10354587  0.89930048  0.61654202  1
  Ta  Ta83  1  0.19721164  0.19630176  0.73702607  1
  Ta  Ta84  1  0.00211692  0.00355314  0.74926816  1
  Ta  Ta85  1  0.59981258  0.60385152  0.00707238  1
  Ta  Ta86  1  0.00298427  0.40200315  0.48837379  1
  Ta  Ta87  1  0.69701481  0.89751737  0.86603587  1
  Ta  Ta88  1  0.49805126  0.69552391  0.86651699  1
  Ta  Ta89  1  0.49371015  0.08056581  0.64659121  1
  Ta  Ta90  1  0.00495054  0.59440796  0.00247495  1
  Ta  Ta91  1  -0.00762621  0.79462670  0.50016804  1
  Ta  Ta92  1  0.18781351  0.21109146  0.00995068  1
  Ta  Ta93  1  0.80297642  -0.00039806  0.00326024  1
  Ta  Ta94  1  0.89610407  0.90345551  0.37268309  1
  Ta  Ta95  1  0.80395713  0.79269585  0.26312544  1
  Ta  Ta96  1  0.10340371  0.31095052  0.62506440  1
  Ta  Ta97  1  0.08904417  0.29671395  0.13686055  1
  Ta  Ta98  1  0.80085197  0.79269123  0.75434441  1
  Ta  Ta99  1  0.70417069  0.30683286  0.61484152  1
  Ta  Ta100  1  0.90558112  0.10133480  0.12419916  1
  Ta  Ta101  1  0.90361563  0.68912361  0.86986335  1
  Ta  Ta102  1  0.20081662  0.39706054  0.26223154  1
  Ta  Ta103  1  0.10356065  0.90555641  0.11602474  1
  Ta  Ta104  1  0.29189076  0.89116042  0.87850959  1
  Ta  Ta105  1  0.70229794  0.29982750  0.88434852  1
  Ta  Ta106  1  0.90088916  0.69954923  0.63098298  1
  Ta  Ta107  1  0.40457486  0.59477864  0.48882444  1
  Ta  Ta108  1  0.79892484  0.39598180  -0.00701008  1
  Ta  Ta109  1  0.70061949  0.49732161  0.60865694  1
  Ta  Ta110  1  0.79345425  0.01288608  0.74756106  1
  Ta  Ta111  1  0.50633182  0.90381961  0.37110742  1
  Ta  Ta112  1  0.70245698  0.90226470  0.37610339  1
  Ta  Ta113  1  -0.00123470  0.00347856  -0.00345157  1
  Ta  Ta114  1  0.79875505  0.20618361  0.74087359  1
  Ta  Ta115  1  0.79535850  0.79476895  -0.01985177  1
  Ta  Ta116  1  0.09560377  0.30337594  0.86214598  1
  Ta  Ta117  1  0.40368010  0.79385147  -0.01427388  1
  Ta  Ta118  1  0.90793556  0.49465512  0.88646476  1
  Ta  Ta119  1  0.90424421  0.29437820  0.88281008  1
  Ti  Ti120  1  0.00214236  0.00233242  0.24951143  1
  Ti  Ti121  1  0.69791786  0.51290055  0.38586447  1
  Ti  Ti122  1  0.10272376  0.48923521  0.60991372  1
  Ti  Ti123  1  0.20263118  0.79605156  -0.00039111  1
  Ti  Ti124  1  0.50274065  0.89432196  0.63929539  1
  Ti  Ti125  1  0.30313249  0.50525611  0.84605547  1
  Ti  Ti126  1  0.39872090  0.20552194  0.23151763  1
  Ti  Ti127  1  0.39036522  0.79949236  0.25354840  1
  Ti  Ti128  1  0.18834829  0.60533560  0.72615195  1
  Ti  Ti129  1  0.28531432  0.50772000  0.38386634  1
  Ti  Ti130  1  0.00500798  0.39312318  -0.00049941  1
  Ti  Ti131  1  0.39763784  0.19775689  0.74710496  1
  Ti  Ti132  1  0.40158801  0.79981792  0.75612828  1
  Ti  Ti133  1  0.90494680  0.31501887  0.62182880  1
  Ti  Ti134  1  0.89811677  0.10725938  0.87842644  1
  Ti  Ti135  1  0.50794946  0.31424894  0.12039577  1
  Ti  Ti136  1  0.61369704  0.59915744  0.24476904  1
  Ti  Ti137  1  0.80033098  0.19894975  0.01021441  1
  Ti  Ti138  1  0.10370248  0.10141432  0.62104141  1
  Ti  Ti139  1  0.50039214  0.30858966  0.86977239  1
  Ti  Ti140  1  0.29946388  0.69795880  0.38545356  1
  Ti  Ti141  1  0.80810509  0.40342444  0.49604436  1
  Ti  Ti142  1  0.90127929  0.29106096  0.37071392  1
  Ti  Ti143  1  0.20541239  0.79784423  0.25172645  1
  Ti  Ti144  1  0.59673561  0.79513879  0.75638064  1
  Ti  Ti145  1  0.79509177  -0.00254358  0.23789307  1
  Ti  Ti146  1  0.00268766  0.60170897  0.51517541  1
  Ti  Ti147  1  0.59720679  0.18982725  0.52509072  1
  Ti  Ti148  1  0.21459060  0.01693443  0.51459502  1
  Ti  Ti149  1  0.40393325  -0.00867050  0.77156969  1
  Ti  Ti150  1  0.79887742  0.59559246  -0.00739439  1
  Ti  Ti151  1  0.89712862  0.10156613  0.63129981  1
  Ti  Ti152  1  0.60527543  0.21289335  0.00605642  1
  Ti  Ti153  1  0.79675777  0.60978423  0.24816768  1
  Ti  Ti154  1  0.80147292  0.60694862  0.51585493  1
  Ti  Ti155  1  0.38675647  0.60023455  0.25288143  1
  Ti  Ti156  1  0.59810858  0.19815567  0.22363761  1
  Ti  Ti157  1  0.80207951  0.20027557  0.51738804  1
  Ti  Ti158  1  0.09514285  0.49513451  0.12938547  1
  Ti  Ti159  1  0.70741544  0.69741900  0.37949785  1
  Mo  Mo160  1  0.19723831  0.19782665  0.51836357  1
  Mo  Mo161  1  0.59702269  -0.00396049  0.75643024  1
  Mo  Mo162  1  0.19139186  -0.00553318  -0.00252715  1
  Mo  Mo163  1  0.70149270  0.70103253  0.63781860  1
  Mo  Mo164  1  0.10289674  0.29588552  0.37822775  1
  Mo  Mo165  1  0.89709550  0.70022075  0.38474845  1
  Mo  Mo166  1  0.69413955  0.30327127  0.10713388  1
  Mo  Mo167  1  0.30772017  0.70777649  0.12645525  1
  Mo  Mo168  1  0.00025877  0.39964331  0.74662158  1
  Mo  Mo169  1  0.20144636  0.80101941  0.74136894  1
  Mo  Mo170  1  0.60015842  0.79120201  -0.01750507  1
  Mo  Mo171  1  0.70376748  0.09725514  0.10505825  1
  Mo  Mo172  1  0.49793360  0.51443052  0.35989112  1
  Mo  Mo173  1  0.29549864  0.30184695  0.13742910  1
  Mo  Mo174  1  0.09646159  0.69665831  0.61961879  1
  Mo  Mo175  1  0.40529795  -0.00331827  0.50022023  1
  Mo  Mo176  1  0.70136641  0.49768742  0.89293517  1
  Mo  Mo177  1  0.39431051  -0.01233294  -0.02030858  1
  Mo  Mo178  1  0.60335711  0.60331679  0.73222088  1
  Mo  Mo179  1  0.10019975  0.50237651  0.38929441  1
  Mo  Mo180  1  0.40057870  0.60350338  0.74258600  1
  Mo  Mo181  1  0.30019061  0.50063738  0.14727550  1
  Mo  Mo182  1  0.49755559  0.88971349  0.86558682  1
  Mo  Mo183  1  0.29362716  0.29264557  0.37932266  1
  Mo  Mo184  1  0.10442808  0.90179300  0.88839497  1
  Mo  Mo185  1  0.59846875  0.39977551  -0.01222090  1
  Mo  Mo186  1  0.60618919  0.80477803  0.48828363  1
  Mo  Mo187  1  0.40278004  0.39981554  0.76108508  1
  Mo  Mo188  1  -0.00347008  0.20547440  -0.00009804  1
  Mo  Mo189  1  0.50172073  0.09487770  0.37690453  1
  Mo  Mo190  1  0.18974381  0.40570301  0.74712373  1
  Mo  Mo191  1  0.20195905  0.59284693  0.50554878  1
  Mo  Mo192  1  0.19306593  0.39203227  0.47726773  1
  Mo  Mo193  1  -0.00135518  0.19524983  0.25355563  1
  Mo  Mo194  1  0.70420862  0.69372246  0.11463276  1
  Mo  Mo195  1  0.90001818  0.49678712  0.60201623  1
  Mo  Mo196  1  0.30391130  0.09712057  0.64549480  1
  Mo  Mo197  1  0.40142398  0.60932825  0.00929084  1
  Mo  Mo198  1  0.69814093  0.10514278  0.62782470  1
  Mo  Mo199  1  0.50533670  0.70762083  0.64318100  1
