# generated using pymatgen
data_HfZrTaTiMo
_symmetry_space_group_name_H-M   'P 1'
_cell_length_a   15.83891601
_cell_length_b   15.83373325
_cell_length_c   15.40297372
_cell_angle_alpha   89.94538845
_cell_angle_beta   89.90740955
_cell_angle_gamma   90.14770217
_symmetry_Int_Tables_number   1
_chemical_formula_structural   HfZrTaTiMo
_chemical_formula_sum   'Hf40 Zr40 Ta40 Ti40 Mo40'
_cell_volume   3862.87936139
_cell_formula_units_Z   40
loop_
 _symmetry_equiv_pos_site_id
 _symmetry_equiv_pos_as_xyz
  1  'x, y, z'
loop_
 _atom_site_type_symbol
 _atom_site_label
 _atom_site_symmetry_multiplicity
 _atom_site_fract_x
 _atom_site_fract_y
 _atom_site_fract_z
 _atom_site_occupancy
  Hf  Hf0  1  0.89790590  0.50592254  0.38035630  1
  Hf  Hf1  1  0.82354694  0.18739137  -0.01810841  1
  Hf  Hf2  1  0.09095577  0.51255661  0.36498005  1
  Hf  Hf3  1  0.61121792  0.80853081  0.74596881  1
  Hf  Hf4  1  0.91044553  0.08752805  0.40217960  1
  Hf  Hf5  1  0.39572154  0.80465756  0.75339624  1
  Hf  Hf6  1  0.29927568  0.50710588  0.13358973  1
  Hf  Hf7  1  0.30306399  0.31093023  0.38863100  1
  Hf  Hf8  1  0.61058298  0.40096398  -0.00341966  1
  Hf  Hf9  1  0.42255310  0.01590180  0.48165528  1
  Hf  Hf10  1  0.38919054  0.59882726  0.74996065  1
  Hf  Hf11  1  0.60195816  0.39814347  0.74483382  1
  Hf  Hf12  1  0.20971792  0.20743553  0.74380448  1
  Hf  Hf13  1  0.28890343  0.50371600  0.61705168  1
  Hf  Hf14  1  0.11081958  0.31132273  0.87008530  1
  Hf  Hf15  1  0.00593750  0.19136593  0.75843812  1
  Hf  Hf16  1  0.69908432  0.30203786  0.39533368  1
  Hf  Hf17  1  0.29563681  0.90475797  0.11488098  1
  Hf  Hf18  1  0.71257352  0.30581164  0.86582991  1
  Hf  Hf19  1  0.39001219  0.79039447  -0.00661718  1
  Hf  Hf20  1  0.19798813  0.20218822  0.50705410  1
  Hf  Hf21  1  0.80783592  0.79455355  0.24827874  1
  Hf  Hf22  1  0.61284612  -0.00375802  -0.01431237  1
  Hf  Hf23  1  -0.01440244  0.58787299  0.74199186  1
  Hf  Hf24  1  0.59837303  0.39124793  0.24784522  1
  Hf  Hf25  1  0.21562287  0.22002713  -0.00011558  1
  Hf  Hf26  1  0.19888653  0.60183852  -0.00326781  1
  Hf  Hf27  1  0.19430738  0.80735088  0.23952740  1
  Hf  Hf28  1  0.60550819  -0.00451353  0.26702543  1
  Hf  Hf29  1  0.72398904  0.09504789  0.12779062  1
  Hf  Hf30  1  0.70138732  0.49798364  0.38340241  1
  Hf  Hf31  1  -0.00116934  0.00116963  0.24221402  1
  Hf  Hf32  1  0.40217809  0.60812089  0.26220385  1
  Hf  Hf33  1  -0.00368412  0.80680557  0.23024547  1
  Hf  Hf34  1  0.40709439  -0.01332782  0.25467185  1
  Hf  Hf35  1  0.59900765  0.80408555  0.49876922  1
  Hf  Hf36  1  0.08444616  0.09410362  0.60980162  1
  Hf  Hf37  1  0.09640611  0.90935195  0.88752419  1
  Hf  Hf38  1  0.00357171  0.41167328  0.51357734  1
  Hf  Hf39  1  -0.01266695  0.60718464  0.22684863  1
  Zr  Zr40  1  0.49167181  0.48972545  0.87466646  1
  Zr  Zr41  1  0.19487127  0.39814892  0.24644278  1
  Zr  Zr42  1  0.50124643  0.29241157  0.11364534  1
  Zr  Zr43  1  0.81666643  0.19682769  0.26579928  1
  Zr  Zr44  1  0.49889660  0.48797112  0.39293445  1
  Zr  Zr45  1  0.38498403  0.59298622  -0.01169131  1
  Zr  Zr46  1  0.70105850  0.49703619  0.60697241  1
  Zr  Zr47  1  0.58852536  0.79560579  0.26725908  1
  Zr  Zr48  1  0.49481766  0.28980511  0.61281179  1
  Zr  Zr49  1  0.19766413  0.01732973  0.75004120  1
  Zr  Zr50  1  0.29536739  0.90977871  0.87711958  1
  Zr  Zr51  1  0.09249294  0.11309182  0.11371177  1
  Zr  Zr52  1  0.60797562  0.59590430  -0.00455666  1
  Zr  Zr53  1  0.41059192  0.20677748  0.26261336  1
  Zr  Zr54  1  0.61718761  0.19393710  -0.01059035  1
  Zr  Zr55  1  -0.01225568  0.59537404  0.00145218  1
  Zr  Zr56  1  0.49499802  0.10066860  0.86613872  1
  Zr  Zr57  1  0.80715007  -0.01256376  0.27398935  1
  Zr  Zr58  1  0.09507283  0.70162793  0.86921205  1
  Zr  Zr59  1  0.81478204  0.81370071  0.49336066  1
  Zr  Zr60  1  0.50363182  0.92680874  0.63385150  1
  Zr  Zr61  1  0.39530025  0.61693144  0.50018524  1
  Zr  Zr62  1  0.69730664  0.89368686  0.11833690  1
  Zr  Zr63  1  0.09635307  0.09394539  0.38605095  1
  Zr  Zr64  1  0.28708216  0.50831463  0.38384725  1
  Zr  Zr65  1  0.49577849  0.69785176  0.11926528  1
  Zr  Zr66  1  0.30243286  0.10689689  0.12739621  1
  Zr  Zr67  1  0.70810588  0.69003786  0.37891396  1
  Zr  Zr68  1  0.50989303  0.09538512  0.12486259  1
  Zr  Zr69  1  0.49076580  0.29647205  0.87681186  1
  Zr  Zr70  1  0.50444491  0.70116743  0.87199563  1
  Zr  Zr71  1  0.80947867  0.39381854  0.24668880  1
  Zr  Zr72  1  0.79845193  0.18769685  0.50955483  1
  Zr  Zr73  1  0.29561244  0.10139666  0.36990263  1
  Zr  Zr74  1  0.11029245  0.88408743  0.64019197  1
  Zr  Zr75  1  0.39739246  0.81436858  0.49566169  1
  Zr  Zr76  1  0.27363765  0.72064442  0.62830938  1
  Zr  Zr77  1  0.60265365  0.59727462  0.74016767  1
  Zr  Zr78  1  0.80054927  0.18714832  0.74767795  1
  Zr  Zr79  1  0.20776283  -0.01026194  0.50719424  1
  Ta  Ta80  1  0.09809586  0.91041253  0.09578072  1
  Ta  Ta81  1  0.59473973  0.60859178  0.50475981  1
  Ta  Ta82  1  0.50130896  0.90067190  0.87853815  1
  Ta  Ta83  1  0.09482940  0.49401539  0.86798090  1
  Ta  Ta84  1  0.28060928  0.70830588  0.37686441  1
  Ta  Ta85  1  0.61717224  -0.00298498  0.48070994  1
  Ta  Ta86  1  0.61514777  0.00252411  0.76404458  1
  Ta  Ta87  1  0.80052435  0.59933631  0.23306084  1
  Ta  Ta88  1  0.09419810  0.49880713  0.12613266  1
  Ta  Ta89  1  0.89166741  0.70565825  0.63902570  1
  Ta  Ta90  1  0.19217995  0.20729694  0.25263418  1
  Ta  Ta91  1  0.69689634  0.69749557  0.12094926  1
  Ta  Ta92  1  0.01068509  0.77949228  0.51757449  1
  Ta  Ta93  1  0.61470688  0.19758040  0.26291872  1
  Ta  Ta94  1  0.00013332  0.40002408  0.00234934  1
  Ta  Ta95  1  0.49815426  0.49576503  0.12153025  1
  Ta  Ta96  1  -0.01252590  0.80406178  0.75897274  1
  Ta  Ta97  1  0.59905563  0.59406067  0.25097964  1
  Ta  Ta98  1  0.49952016  0.89440083  0.10723736  1
  Ta  Ta99  1  0.38703945  0.39532815  0.73834570  1
  Ta  Ta100  1  0.49322893  0.49454963  0.61455860  1
  Ta  Ta101  1  0.81202344  0.41127602  0.73850092  1
  Ta  Ta102  1  0.89628617  0.91221776  0.10220143  1
  Ta  Ta103  1  0.91247493  0.28385165  0.11344302  1
  Ta  Ta104  1  0.70498552  0.69805982  0.87108826  1
  Ta  Ta105  1  0.16574573  0.61462995  0.51177444  1
  Ta  Ta106  1  0.40182376  0.40147315  0.24458150  1
  Ta  Ta107  1  0.88493796  0.68870351  0.86644713  1
  Ta  Ta108  1  0.81088918  0.40309631  0.00524749  1
  Ta  Ta109  1  0.09098447  0.70439569  0.36803391  1
  Ta  Ta110  1  0.69913470  0.49572136  0.12935095  1
  Ta  Ta111  1  0.79835756  0.79614328  -0.00843784  1
  Ta  Ta112  1  0.69847916  0.29497238  0.62071251  1
  Ta  Ta113  1  0.59037840  0.17881381  0.49457794  1
  Ta  Ta114  1  0.32791930  0.10335758  0.62172667  1
  Ta  Ta115  1  0.37702973  0.38441528  0.00899848  1
  Ta  Ta116  1  -0.01259923  0.02229260  -0.01291645  1
  Ta  Ta117  1  0.90240872  0.29730652  0.63283788  1
  Ta  Ta118  1  0.40127956  0.00448396  -0.00374288  1
  Ta  Ta119  1  0.71287409  0.29265096  0.12007096  1
  Ti  Ti120  1  0.30165708  0.11021749  0.88245100  1
  Ti  Ti121  1  0.19136057  0.59840581  0.75064706  1
  Ti  Ti122  1  -0.01409608  0.79958991  -0.00460701  1
  Ti  Ti123  1  0.89504061  0.07868072  0.62764974  1
  Ti  Ti124  1  0.19375760  0.61469886  0.23721346  1
  Ti  Ti125  1  0.20340755  0.79241254  -0.00414521  1
  Ti  Ti126  1  0.19780206  0.40776900  0.01001631  1
  Ti  Ti127  1  0.69245194  0.08670314  0.62588014  1
  Ti  Ti128  1  0.00012183  0.40343188  0.73969495  1
  Ti  Ti129  1  0.10176743  0.30555825  0.63314042  1
  Ti  Ti130  1  0.72514958  0.50808650  0.86846478  1
  Ti  Ti131  1  -0.00522200  -0.00191514  0.76078756  1
  Ti  Ti132  1  0.30556348  0.91270745  0.63806615  1
  Ti  Ti133  1  -0.00423002  0.21690268  0.50489823  1
  Ti  Ti134  1  0.60278902  0.19512289  0.74482668  1
  Ti  Ti135  1  0.30337592  0.30353718  0.61120841  1
  Ti  Ti136  1  -0.00549481  0.39128122  0.24581907  1
  Ti  Ti137  1  -0.00021467  0.20470505  0.26171933  1
  Ti  Ti138  1  0.70619789  0.70423119  0.62747333  1
  Ti  Ti139  1  -0.01707887  -0.03673197  0.51418166  1
  Ti  Ti140  1  0.39674688  0.79803104  0.25695193  1
  Ti  Ti141  1  0.81130127  0.60700189  0.51272132  1
  Ti  Ti142  1  0.09412864  0.30552365  0.37857187  1
  Ti  Ti143  1  0.09520676  0.89209740  0.38469698  1
  Ti  Ti144  1  0.90839764  0.31053890  0.86751805  1
  Ti  Ti145  1  0.80461084  -0.01803365  0.76960008  1
  Ti  Ti146  1  0.49830458  0.70395447  0.63003617  1
  Ti  Ti147  1  0.28257914  0.48207966  0.86400422  1
  Ti  Ti148  1  0.81312455  0.39059018  0.50830856  1
  Ti  Ti149  1  0.18788134  0.40572732  0.50648382  1
  Ti  Ti150  1  0.71952865  0.90651352  0.62491562  1
  Ti  Ti151  1  0.09710703  0.30176195  0.12061947  1
  Ti  Ti152  1  0.80441077  0.59611644  0.01423678  1
  Ti  Ti153  1  0.39721180  0.20148222  0.74886867  1
  Ti  Ti154  1  0.49881388  0.30001190  0.39597865  1
  Ti  Ti155  1  0.91125690  0.69734169  0.37887150  1
  Ti  Ti156  1  0.18941246  -0.00013999  0.24541522  1
  Ti  Ti157  1  0.29180157  0.89966567  0.37127569  1
  Ti  Ti158  1  0.80383608  -0.00204812  -0.02599332  1
  Ti  Ti159  1  0.09819780  0.70763587  0.11074687  1
  Mo  Mo160  1  0.00674460  0.20958302  -0.02147314  1
  Mo  Mo161  1  0.49837666  0.89699587  0.38006078  1
  Mo  Mo162  1  0.50781435  0.10360766  0.35923781  1
  Mo  Mo163  1  0.90156066  0.89433272  0.88337557  1
  Mo  Mo164  1  0.10722020  0.10714133  0.88882775  1
  Mo  Mo165  1  0.60241888  0.39397435  0.50907913  1
  Mo  Mo166  1  0.19775816  0.01229128  -0.00227308  1
  Mo  Mo167  1  0.19521577  0.80304196  0.77230876  1
  Mo  Mo168  1  0.92095633  0.88459854  0.37651592  1
  Mo  Mo169  1  0.19674805  0.40290613  0.73505844  1
  Mo  Mo170  1  0.30395183  0.30808204  0.86423940  1
  Mo  Mo171  1  0.40118109  0.19971318  0.49259891  1
  Mo  Mo172  1  0.29677393  0.30419307  0.14217616  1
  Mo  Mo173  1  0.60092767  0.79717036  -0.00861982  1
  Mo  Mo174  1  0.70786782  0.89368195  0.37984327  1
  Mo  Mo175  1  0.09941869  0.50083114  0.63921252  1
  Mo  Mo176  1  0.80067164  -0.00579507  0.50245454  1
  Mo  Mo177  1  0.29023976  0.69688941  0.85919001  1
  Mo  Mo178  1  -0.00819090  0.60603797  0.51453283  1
  Mo  Mo179  1  0.70585607  0.10041957  0.37967169  1
  Mo  Mo180  1  0.19241759  0.80034911  0.48719653  1
  Mo  Mo181  1  0.91181733  0.30104490  0.39027929  1
  Mo  Mo182  1  0.70603537  0.09883591  0.86350550  1
  Mo  Mo183  1  0.90520164  0.10043316  0.12531313  1
  Mo  Mo184  1  0.39403183  0.40272868  0.51365545  1
  Mo  Mo185  1  0.40044513  0.00800623  0.76262194  1
  Mo  Mo186  1  0.70078212  0.89091424  0.88103120  1
  Mo  Mo187  1  0.79761050  0.79919846  0.75928524  1
  Mo  Mo188  1  0.89808320  0.48917215  0.12703279  1
  Mo  Mo189  1  0.49562281  0.69706286  0.37910531  1
  Mo  Mo190  1  0.51050737  0.10090774  0.63968402  1
  Mo  Mo191  1  0.90093632  0.89771105  0.64570764  1
  Mo  Mo192  1  0.09156696  0.69995851  0.64774007  1
  Mo  Mo193  1  0.29118683  0.70596139  0.13856597  1
  Mo  Mo194  1  0.90619818  0.09431008  0.85696512  1
  Mo  Mo195  1  0.89647851  0.49002531  0.87715130  1
  Mo  Mo196  1  0.79526635  0.59873579  0.73976129  1
  Mo  Mo197  1  0.39841147  0.20037649  -0.00074632  1
  Mo  Mo198  1  0.89595778  0.49983501  0.61136141  1
  Mo  Mo199  1  0.88986607  0.70610998  0.10800191  1
