# generated using pymatgen
data_HfZrTaTiMo
_symmetry_space_group_name_H-M   'P 1'
_cell_length_a   15.82367648
_cell_length_b   15.83632007
_cell_length_c   15.39075802
_cell_angle_alpha   89.92013236
_cell_angle_beta   90.02932074
_cell_angle_gamma   90.08539596
_symmetry_Int_Tables_number   1
_chemical_formula_structural   HfZrTaTiMo
_chemical_formula_sum   'Hf40 Zr40 Ta40 Ti40 Mo40'
_cell_volume   3856.74313493
_cell_formula_units_Z   40
loop_
 _symmetry_equiv_pos_site_id
 _symmetry_equiv_pos_as_xyz
  1  'x, y, z'
loop_
 _atom_site_type_symbol
 _atom_site_label
 _atom_site_symmetry_multiplicity
 _atom_site_fract_x
 _atom_site_fract_y
 _atom_site_fract_z
 _atom_site_occupancy
  Hf  Hf0  1  -0.00090466  0.20334658  0.25037152  1
  Hf  Hf1  1  0.28461297  0.31856665  0.38322936  1
  Hf  Hf2  1  0.50993251  0.68793589  0.62273488  1
  Hf  Hf3  1  0.20199634  0.57328870  0.50195527  1
  Hf  Hf4  1  0.38778476  -0.01382469  0.73644963  1
  Hf  Hf5  1  0.79704276  0.60514993  0.24210963  1
  Hf  Hf6  1  0.19498281  0.20403485  0.24099183  1
  Hf  Hf7  1  0.50611895  0.70653941  0.88328619  1
  Hf  Hf8  1  0.60949851  0.79652800  0.49823187  1
  Hf  Hf9  1  0.60447471  0.80080257  0.25452296  1
  Hf  Hf10  1  0.50213638  0.11328956  0.37214744  1
  Hf  Hf11  1  0.20818416  -0.00592863  0.25956143  1
  Hf  Hf12  1  0.49522376  0.49323616  0.64072567  1
  Hf  Hf13  1  0.60828577  0.81930304  0.00498969  1
  Hf  Hf14  1  0.00265850  0.61293306  -0.00502652  1
  Hf  Hf15  1  0.19904013  0.60214105  -0.00387315  1
  Hf  Hf16  1  0.79266997  0.19937273  0.49859563  1
  Hf  Hf17  1  0.31100741  0.90215314  0.13178638  1
  Hf  Hf18  1  0.30375754  0.10787403  0.38299873  1
  Hf  Hf19  1  0.70171987  0.49640412  0.10024919  1
  Hf  Hf20  1  0.50333358  0.29396008  0.10403280  1
  Hf  Hf21  1  0.79642201  0.40725643  0.25201574  1
  Hf  Hf22  1  0.50189450  0.89864703  0.61680358  1
  Hf  Hf23  1  0.40576839  0.79865190  0.26418324  1
  Hf  Hf24  1  0.80290823  0.80651034  0.50241249  1
  Hf  Hf25  1  0.00679917  0.58949167  0.50662776  1
  Hf  Hf26  1  0.80928051  0.80790229  0.73269051  1
  Hf  Hf27  1  0.59727923  0.60003435  0.23618210  1
  Hf  Hf28  1  -0.00669978  -0.03133801  0.02282439  1
  Hf  Hf29  1  0.29936835  0.70993216  0.87732380  1
  Hf  Hf30  1  0.40728144  0.59587533  0.24625575  1
  Hf  Hf31  1  -0.00820572  0.20141578  0.48623736  1
  Hf  Hf32  1  0.19818115  0.20010785  -0.00927184  1
  Hf  Hf33  1  0.39650256  0.59329747  0.76438009  1
  Hf  Hf34  1  -0.00845032  0.18457410  0.76486729  1
  Hf  Hf35  1  0.18815707  0.80534028  0.01474249  1
  Hf  Hf36  1  0.50078732  0.09145538  0.86166517  1
  Hf  Hf37  1  0.80092297  0.61253211  0.75823604  1
  Hf  Hf38  1  0.00120920  0.60363241  0.75636379  1
  Hf  Hf39  1  0.10065513  0.89127993  0.37948489  1
  Zr  Zr40  1  0.90063399  0.50495868  0.37739356  1
  Zr  Zr41  1  0.59770626  0.40838953  0.50999824  1
  Zr  Zr42  1  0.00106527  0.58802587  0.24470339  1
  Zr  Zr43  1  0.48484019  0.30620841  0.38938731  1
  Zr  Zr44  1  0.60944119  0.80169211  0.74337706  1
  Zr  Zr45  1  0.01028168  0.81576868  0.72514254  1
  Zr  Zr46  1  0.39047777  0.21495036  0.23897388  1
  Zr  Zr47  1  0.29992122  0.08512568  0.87674290  1
  Zr  Zr48  1  0.50812308  0.49714471  0.08810590  1
  Zr  Zr49  1  0.81282267  0.82763419  0.00329406  1
  Zr  Zr50  1  0.60584129  0.00650466  0.00231434  1
  Zr  Zr51  1  0.21347102  0.80823441  0.73025636  1
  Zr  Zr52  1  0.30935818  0.09580665  0.12067349  1
  Zr  Zr53  1  0.39771043  0.40958929  0.23789282  1
  Zr  Zr54  1  0.08301755  0.08955922  0.61883946  1
  Zr  Zr55  1  0.90547546  0.71997482  0.13431597  1
  Zr  Zr56  1  0.88863768  0.30225068  0.11156117  1
  Zr  Zr57  1  0.80087729  0.61826309  -0.00778437  1
  Zr  Zr58  1  0.88054413  0.08759470  0.12653779  1
  Zr  Zr59  1  0.19246170  0.19192347  0.76598928  1
  Zr  Zr60  1  0.18898308  0.21549421  0.50363570  1
  Zr  Zr61  1  0.90227434  0.29637329  0.63690812  1
  Zr  Zr62  1  0.68552505  0.11097062  0.14610165  1
  Zr  Zr63  1  0.79503721  0.39610155  0.49267363  1
  Zr  Zr64  1  0.82192208  0.01244287  0.72272640  1
  Zr  Zr65  1  0.78378843  0.60309253  0.51309537  1
  Zr  Zr66  1  0.77001712  0.20048134  -0.01068085  1
  Zr  Zr67  1  0.89270943  0.49444189  0.63699982  1
  Zr  Zr68  1  0.39374133  0.58618551  0.50477514  1
  Zr  Zr69  1  0.79799133  0.20362030  0.27351450  1
  Zr  Zr70  1  0.31369817  0.69855733  0.11606738  1
  Zr  Zr71  1  0.21276486  0.58671923  0.24372674  1
  Zr  Zr72  1  0.28706259  0.09440616  0.61548839  1
  Zr  Zr73  1  0.60080462  0.20492326  0.51906596  1
  Zr  Zr74  1  0.01960252  0.39711956  0.51378853  1
  Zr  Zr75  1  0.09424521  0.09277711  0.12466137  1
  Zr  Zr76  1  0.00347025  0.39929641  0.77062689  1
  Zr  Zr77  1  0.40057584  -0.00529709  0.49436804  1
  Zr  Zr78  1  0.10291043  0.68955704  0.37493807  1
  Zr  Zr79  1  0.20230065  0.39184480  0.21751603  1
  Ta  Ta80  1  0.69151353  0.50493489  0.65083677  1
  Ta  Ta81  1  0.88919912  0.30005077  0.88278161  1
  Ta  Ta82  1  0.59249463  0.40382735  0.24750318  1
  Ta  Ta83  1  0.88762517  0.08631455  0.89113784  1
  Ta  Ta84  1  0.91246933  0.91024527  0.86494196  1
  Ta  Ta85  1  0.08879745  0.30478065  0.09950098  1
  Ta  Ta86  1  0.49913057  0.09594858  0.14199049  1
  Ta  Ta87  1  0.10144059  0.89629353  0.87409641  1
  Ta  Ta88  1  0.69675312  0.50182617  0.87738330  1
  Ta  Ta89  1  0.70608655  0.91114688  0.61435264  1
  Ta  Ta90  1  0.70130674  0.69564783  0.37294639  1
  Ta  Ta91  1  0.10676736  0.46854797  0.36147638  1
  Ta  Ta92  1  0.90376316  0.90122670  0.37792421  1
  Ta  Ta93  1  0.61238003  0.00769399  0.49445877  1
  Ta  Ta94  1  0.90392928  0.70588357  0.38277182  1
  Ta  Ta95  1  0.90128250  0.49363153  0.10566419  1
  Ta  Ta96  1  0.68488356  0.50669938  0.37154397  1
  Ta  Ta97  1  0.30546942  0.49132907  0.09124490  1
  Ta  Ta98  1  0.09884090  0.70710076  0.13946014  1
  Ta  Ta99  1  0.30148604  0.89751043  0.88575496  1
  Ta  Ta100  1  0.28224013  0.47927921  0.65249155  1
  Ta  Ta101  1  -0.00625632  0.19353801  -0.01081254  1
  Ta  Ta102  1  0.71722453  0.91614933  0.14722858  1
  Ta  Ta103  1  0.69590331  0.09743185  0.85670042  1
  Ta  Ta104  1  0.19554023  -0.00972813  0.00799793  1
  Ta  Ta105  1  0.10214202  0.71210436  0.86653457  1
  Ta  Ta106  1  0.39449498  0.20035602  0.74316755  1
  Ta  Ta107  1  0.50943147  0.68735169  0.38723417  1
  Ta  Ta108  1  0.71310863  0.91708260  0.86006388  1
  Ta  Ta109  1  0.21037794  0.79017506  0.50109559  1
  Ta  Ta110  1  0.60462190  -0.00088745  0.27363065  1
  Ta  Ta111  1  0.59679765  0.20079373  0.74025251  1
  Ta  Ta112  1  0.68843444  0.30458777  0.13055703  1
  Ta  Ta113  1  0.49913203  0.28826530  0.87131039  1
  Ta  Ta114  1  0.11789125  0.31383639  0.64925569  1
  Ta  Ta115  1  0.90959152  0.70367562  0.61271834  1
  Ta  Ta116  1  0.39786099  0.79076642  0.49674275  1
  Ta  Ta117  1  0.10688189  0.69340789  0.62079723  1
  Ta  Ta118  1  0.79683136  0.20023996  0.75182253  1
  Ta  Ta119  1  0.70256802  0.31462718  0.64708215  1
  Ti  Ti120  1  0.40285351  0.19265635  -0.00783354  1
  Ti  Ti121  1  0.91835513  0.31962087  0.36437897  1
  Ti  Ti122  1  0.89354053  0.49656944  0.88969690  1
  Ti  Ti123  1  0.50690868  0.70077105  0.10583092  1
  Ti  Ti124  1  0.18947067  -0.01074451  0.74957851  1
  Ti  Ti125  1  0.91258612  0.72535943  0.87397865  1
  Ti  Ti126  1  0.60627254  0.00441679  0.72955496  1
  Ti  Ti127  1  0.50231709  0.89877374  0.38087053  1
  Ti  Ti128  1  0.20635729  0.79535368  0.25418721  1
  Ti  Ti129  1  0.39257674  0.39370719  -0.02957638  1
  Ti  Ti130  1  0.49448123  0.10145489  0.62089614  1
  Ti  Ti131  1  0.40450587  0.59342781  -0.02071101  1
  Ti  Ti132  1  0.37710524  0.39879471  0.51778895  1
  Ti  Ti133  1  0.50368938  0.90128505  0.86219222  1
  Ti  Ti134  1  0.40984150  0.81229350  0.00228185  1
  Ti  Ti135  1  0.70005214  0.71103008  0.12012066  1
  Ti  Ti136  1  0.60948498  0.38196202  -0.02467910  1
  Ti  Ti137  1  0.70329381  0.71717297  0.87909623  1
  Ti  Ti138  1  0.39386018  0.39313425  0.77084301  1
  Ti  Ti139  1  0.09867950  0.09649953  0.37606914  1
  Ti  Ti140  1  0.92198416  0.91806650  0.59647199  1
  Ti  Ti141  1  0.11148720  0.90744506  0.59378626  1
  Ti  Ti142  1  0.20657446  0.39030753  0.79059948  1
  Ti  Ti143  1  0.40043080  0.79833220  0.73935843  1
  Ti  Ti144  1  0.60146885  0.60306023  0.76775062  1
  Ti  Ti145  1  0.09403842  0.49461534  0.10921331  1
  Ti  Ti146  1  0.19619237  0.59437850  0.75990957  1
  Ti  Ti147  1  -0.00555566  -0.00471355  0.25618826  1
  Ti  Ti148  1  0.08492924  0.07533525  0.88467905  1
  Ti  Ti149  1  0.30445957  0.69029596  0.37695200  1
  Ti  Ti150  1  0.30148093  0.68759737  0.62777013  1
  Ti  Ti151  1  0.80053171  0.80851081  0.26558975  1
  Ti  Ti152  1  0.41041969  -0.00634832  -0.00128419  1
  Ti  Ti153  1  0.49614528  0.49874498  0.38334329  1
  Ti  Ti154  1  0.10113822  0.49615621  0.88727890  1
  Ti  Ti155  1  0.80106186  0.01268938  0.48887519  1
  Ti  Ti156  1  0.48695405  0.30326843  0.63300778  1
  Ti  Ti157  1  0.50501360  0.91167873  0.14207426  1
  Ti  Ti158  1  0.67850681  0.30194157  0.36564335  1
  Ti  Ti159  1  0.59329342  0.39920322  0.76494274  1
  Mo  Mo160  1  0.30229703  0.49633640  0.37142407  1
  Mo  Mo161  1  -0.00078798  0.00265070  0.47756022  1
  Mo  Mo162  1  0.50558915  0.49335734  0.87383936  1
  Mo  Mo163  1  0.09651199  0.30075413  0.36148576  1
  Mo  Mo164  1  0.00530003  0.79589133  0.50421499  1
  Mo  Mo165  1  0.59017240  0.19688409  -0.01509316  1
  Mo  Mo166  1  0.41079860  -0.00530326  0.26502221  1
  Mo  Mo167  1  0.19937552  -0.00418000  0.47988626  1
  Mo  Mo168  1  0.30564094  0.29043001  0.87643358  1
  Mo  Mo169  1  -0.00028370  0.39923422  0.22582144  1
  Mo  Mo170  1  0.89929479  0.90118462  0.15855594  1
  Mo  Mo171  1  0.30066519  0.30224444  0.09123474  1
  Mo  Mo172  1  0.00579220  0.79919515  -0.00185897  1
  Mo  Mo173  1  0.29776379  0.49894508  0.87618619  1
  Mo  Mo174  1  0.30011116  0.30208243  0.64523303  1
  Mo  Mo175  1  0.79729265  0.00024709  0.27994095  1
  Mo  Mo176  1  0.89885141  0.10345965  0.60381923  1
  Mo  Mo177  1  0.69339615  0.29870001  0.85422618  1
  Mo  Mo178  1  0.69839849  0.10506636  0.63200715  1
  Mo  Mo179  1  0.00095112  0.79815072  0.26858955  1
  Mo  Mo180  1  0.29848204  0.89224401  0.60379850  1
  Mo  Mo181  1  0.90202719  0.09678551  0.37551435  1
  Mo  Mo182  1  0.09951812  0.88837436  0.15531301  1
  Mo  Mo183  1  0.79352251  -0.00159478  -0.00026029  1
  Mo  Mo184  1  0.69575851  0.10593857  0.37184047  1
  Mo  Mo185  1  0.59164458  0.21212073  0.25391239  1
  Mo  Mo186  1  0.79281336  0.40024064  -0.01393478  1
  Mo  Mo187  1  0.30210170  0.88870569  0.38124809  1
  Mo  Mo188  1  -0.00362957  0.40173666  -0.01033705  1
  Mo  Mo189  1  0.39680416  0.20808695  0.52555476  1
  Mo  Mo190  1  0.70391775  0.70019546  0.63217465  1
  Mo  Mo191  1  0.79469694  0.40434493  0.76953824  1
  Mo  Mo192  1  0.60471011  0.61408859  -0.01059759  1
  Mo  Mo193  1  0.00752107  0.00006021  0.74987337  1
  Mo  Mo194  1  0.70260196  0.90135103  0.38187262  1
  Mo  Mo195  1  0.60081477  0.59591430  0.50112141  1
  Mo  Mo196  1  0.19765004  0.40276798  0.51058836  1
  Mo  Mo197  1  0.10788528  0.49936983  0.65480303  1
  Mo  Mo198  1  0.19894657  0.39871177  -0.00659386  1
  Mo  Mo199  1  0.09210711  0.29501793  0.88387764  1
