# generated using pymatgen
data_HfZrTaTiMo
_symmetry_space_group_name_H-M   'P 1'
_cell_length_a   15.83343744
_cell_length_b   15.82722185
_cell_length_c   15.39982945
_cell_angle_alpha   89.93998841
_cell_angle_beta   89.97482820
_cell_angle_gamma   89.83637577
_symmetry_Int_Tables_number   1
_chemical_formula_structural   HfZrTaTiMo
_chemical_formula_sum   'Hf40 Zr40 Ta40 Ti40 Mo40'
_cell_volume   3859.16867618
_cell_formula_units_Z   40
loop_
 _symmetry_equiv_pos_site_id
 _symmetry_equiv_pos_as_xyz
  1  'x, y, z'
loop_
 _atom_site_type_symbol
 _atom_site_label
 _atom_site_symmetry_multiplicity
 _atom_site_fract_x
 _atom_site_fract_y
 _atom_site_fract_z
 _atom_site_occupancy
  Hf  Hf0  1  0.49560059  0.30012710  0.39239927  1
  Hf  Hf1  1  0.00308376  0.59834019  0.01274701  1
  Hf  Hf2  1  0.28397442  0.31568951  0.11056518  1
  Hf  Hf3  1  0.20066267  0.19220884  0.51496939  1
  Hf  Hf4  1  0.81416465  0.58781931  0.75245265  1
  Hf  Hf5  1  0.09024172  0.31290876  0.88005449  1
  Hf  Hf6  1  0.60071260  -0.00131161  0.22760416  1
  Hf  Hf7  1  0.10890334  0.49906333  0.88283952  1
  Hf  Hf8  1  0.00022302  0.81755084  0.48380355  1
  Hf  Hf9  1  -0.01125518  0.40585572  0.73339135  1
  Hf  Hf10  1  0.29235742  0.30281006  0.38426499  1
  Hf  Hf11  1  0.01293682  0.59377623  0.73802425  1
  Hf  Hf12  1  0.08990489  0.29110641  0.62371140  1
  Hf  Hf13  1  0.60117563  0.79740216  0.24773015  1
  Hf  Hf14  1  0.29610670  0.10484021  0.11571510  1
  Hf  Hf15  1  0.49192731  0.50966261  0.13125553  1
  Hf  Hf16  1  0.81441656  0.79237233  0.24442001  1
  Hf  Hf17  1  0.49564066  0.30445577  0.87171207  1
  Hf  Hf18  1  0.60644238  0.00018310  0.00796253  1
  Hf  Hf19  1  0.48568687  0.30805513  0.10609832  1
  Hf  Hf20  1  0.81995335  -0.00761434  0.49041357  1
  Hf  Hf21  1  0.70229081  0.68881195  0.13215935  1
  Hf  Hf22  1  0.40497318  0.79978808  0.26392664  1
  Hf  Hf23  1  0.00422429  0.80074136  0.75762991  1
  Hf  Hf24  1  0.48679207  0.89200409  0.62112923  1
  Hf  Hf25  1  0.60580708  0.80148371  0.73666980  1
  Hf  Hf26  1  0.29864386  0.69302888  0.38474616  1
  Hf  Hf27  1  0.38637837  0.00916646  0.51590276  1
  Hf  Hf28  1  -0.02419411  0.19515505  0.76807722  1
  Hf  Hf29  1  0.59073936  0.40286439  0.25519694  1
  Hf  Hf30  1  0.88796249  0.29661260  0.61392150  1
  Hf  Hf31  1  0.60836528  0.59769465  0.74087826  1
  Hf  Hf32  1  0.38790363  -0.01418339  0.75237085  1
  Hf  Hf33  1  0.70181377  0.10194966  0.87300703  1
  Hf  Hf34  1  0.39321976  0.19767803  0.75419630  1
  Hf  Hf35  1  0.29391112  0.50509157  0.15113982  1
  Hf  Hf36  1  0.09476503  0.10772787  0.12172514  1
  Hf  Hf37  1  0.11858263  0.69786506  0.87670660  1
  Hf  Hf38  1  0.40004126  0.00602827  -0.01792253  1
  Hf  Hf39  1  0.70724169  0.89127203  0.87757051  1
  Zr  Zr40  1  0.90349205  0.09640896  0.62775051  1
  Zr  Zr41  1  0.10840945  0.70919884  0.61196697  1
  Zr  Zr42  1  0.11508703  0.69487622  0.13285260  1
  Zr  Zr43  1  0.79847148  0.40174487  0.01122500  1
  Zr  Zr44  1  0.49532518  0.50057843  0.85741279  1
  Zr  Zr45  1  0.38309244  0.62195260  0.74096775  1
  Zr  Zr46  1  0.28976000  0.90058183  0.11666629  1
  Zr  Zr47  1  0.49761188  0.49804626  0.62540444  1
  Zr  Zr48  1  0.61651199  0.00436488  0.51566507  1
  Zr  Zr49  1  0.90711460  0.28627860  0.13875901  1
  Zr  Zr50  1  0.60946603  0.80569426  0.49432673  1
  Zr  Zr51  1  0.71487064  0.69800051  0.61980847  1
  Zr  Zr52  1  0.80664647  0.80299231  0.47859312  1
  Zr  Zr53  1  0.59350877  0.19929235  0.23361178  1
  Zr  Zr54  1  0.22510534  0.80215588  0.74585116  1
  Zr  Zr55  1  0.31351391  0.69417771  0.14276218  1
  Zr  Zr56  1  0.29404774  0.09778733  0.36673686  1
  Zr  Zr57  1  0.49681068  0.91437760  0.37763560  1
  Zr  Zr58  1  0.10480205  0.49627506  0.37743354  1
  Zr  Zr59  1  -0.01327028  0.60212903  0.25457934  1
  Zr  Zr60  1  0.49745391  0.10561238  0.38095339  1
  Zr  Zr61  1  0.19487143  0.80456272  0.26603495  1
  Zr  Zr62  1  0.39621799  0.79105786  -0.01358118  1
  Zr  Zr63  1  0.09237438  0.08982890  0.87482553  1
  Zr  Zr64  1  0.90902396  0.49105462  0.88910755  1
  Zr  Zr65  1  0.79573504  0.19061677  0.48761031  1
  Zr  Zr66  1  0.40030390  0.59836461  -0.01191586  1
  Zr  Zr67  1  0.80759209  0.40885967  0.25944382  1
  Zr  Zr68  1  0.60914247  0.59421375  0.49898929  1
  Zr  Zr69  1  0.50522426  0.30075036  0.63154762  1
  Zr  Zr70  1  0.39248868  0.20644954  0.24335585  1
  Zr  Zr71  1  0.70716741  0.70010388  0.87624977  1
  Zr  Zr72  1  0.48598059  0.89920787  0.12346285  1
  Zr  Zr73  1  0.09077365  0.92605208  0.36564627  1
  Zr  Zr74  1  0.90862742  0.28963195  0.37344800  1
  Zr  Zr75  1  0.69850887  0.30216171  0.12914663  1
  Zr  Zr76  1  0.70514682  0.09810648  0.35628668  1
  Zr  Zr77  1  -0.00022118  0.79990473  0.00752871  1
  Zr  Zr78  1  0.90480673  0.69524674  0.60975125  1
  Zr  Zr79  1  0.81351674  0.00317605  0.76268104  1
  Ta  Ta80  1  0.69560697  0.29716599  0.37067876  1
  Ta  Ta81  1  0.01689408  0.38946347  0.24678366  1
  Ta  Ta82  1  0.19558002  0.20690611  -0.01237124  1
  Ta  Ta83  1  0.59064643  0.60152149  0.26063159  1
  Ta  Ta84  1  0.59659121  0.40922994  -0.00447511  1
  Ta  Ta85  1  0.20021673  0.59538341  0.50976591  1
  Ta  Ta86  1  -0.00897716  0.19964720  -0.00546006  1
  Ta  Ta87  1  0.59959604  0.60035619  -0.00043915  1
  Ta  Ta88  1  0.80270348  0.60192127  0.00707541  1
  Ta  Ta89  1  0.90032096  0.70170858  0.88039210  1
  Ta  Ta90  1  0.70504424  0.10907334  0.64199673  1
  Ta  Ta91  1  0.10952436  0.90344427  0.88481319  1
  Ta  Ta92  1  0.59511231  0.19759995  0.00113653  1
  Ta  Ta93  1  0.91527871  0.08532450  0.34695398  1
  Ta  Ta94  1  0.49013737  0.50051808  0.38823705  1
  Ta  Ta95  1  0.60140211  -0.00187616  0.74470012  1
  Ta  Ta96  1  0.50665059  0.70592575  0.86339226  1
  Ta  Ta97  1  0.79798148  0.40118304  0.48628718  1
  Ta  Ta98  1  0.59788067  0.79393134  0.01087036  1
  Ta  Ta99  1  0.61315955  0.39880989  0.75300690  1
  Ta  Ta100  1  0.91076555  0.89776732  0.63517953  1
  Ta  Ta101  1  0.71595578  0.48897759  0.61786962  1
  Ta  Ta102  1  0.30073799  0.50001553  0.37828211  1
  Ta  Ta103  1  0.39272746  0.20090861  0.52393302  1
  Ta  Ta104  1  0.28392590  0.09663593  0.87122866  1
  Ta  Ta105  1  0.50206123  0.10100224  0.63654273  1
  Ta  Ta106  1  0.50736120  0.89661725  0.87011373  1
  Ta  Ta107  1  0.09952958  0.29693260  0.39123097  1
  Ta  Ta108  1  0.80512640  -0.00514464  0.01426184  1
  Ta  Ta109  1  0.49188783  0.70314341  0.60984943  1
  Ta  Ta110  1  0.69723689  0.30018828  0.88383144  1
  Ta  Ta111  1  0.79671057  0.18859035  0.00831679  1
  Ta  Ta112  1  0.80575902  -0.00506852  0.22156749  1
  Ta  Ta113  1  0.18655602  0.00321853  0.51222149  1
  Ta  Ta114  1  0.18400767  0.22093367  0.24306815  1
  Ta  Ta115  1  0.38960704  0.40046210  0.51261017  1
  Ta  Ta116  1  0.70958711  0.69006719  0.36493902  1
  Ta  Ta117  1  0.11070025  0.48693844  0.12843859  1
  Ta  Ta118  1  0.28872628  0.31453865  0.86548697  1
  Ta  Ta119  1  0.79757676  0.39229506  0.75320784  1
  Ti  Ti120  1  0.49645547  0.69596918  0.39501413  1
  Ti  Ti121  1  0.48650450  0.10195148  0.11879073  1
  Ti  Ti122  1  0.28479854  0.09429766  0.64710233  1
  Ti  Ti123  1  0.09961304  0.10759096  0.36063726  1
  Ti  Ti124  1  0.50292463  0.09920313  0.86510350  1
  Ti  Ti125  1  0.70733629  0.90450767  0.35874396  1
  Ti  Ti126  1  0.38664838  0.41280760  -0.01395865  1
  Ti  Ti127  1  0.70319506  0.49773307  0.87937081  1
  Ti  Ti128  1  0.09982746  0.69784172  0.38359815  1
  Ti  Ti129  1  0.60609085  0.39568328  0.50102197  1
  Ti  Ti130  1  0.29589544  0.90468348  0.38837217  1
  Ti  Ti131  1  0.09043731  0.08915283  0.64687858  1
  Ti  Ti132  1  0.60174833  0.19763525  0.50873004  1
  Ti  Ti133  1  0.88859404  0.29954328  0.88842237  1
  Ti  Ti134  1  0.10458933  0.90256703  0.11727068  1
  Ti  Ti135  1  0.28816130  0.89833399  0.88720976  1
  Ti  Ti136  1  0.90596974  0.90045158  0.87882200  1
  Ti  Ti137  1  -0.00873136  -0.00061015  0.01125731  1
  Ti  Ti138  1  0.18720180  0.41484345  0.73311395  1
  Ti  Ti139  1  0.29660259  0.30607312  0.64285308  1
  Ti  Ti140  1  0.29707809  0.50428644  0.62777394  1
  Ti  Ti141  1  0.29044029  0.50725183  0.85205009  1
  Ti  Ti142  1  0.60489328  0.20296628  0.75459023  1
  Ti  Ti143  1  0.80523524  0.80188933  0.01839568  1
  Ti  Ti144  1  0.10217052  0.90534911  0.62848800  1
  Ti  Ti145  1  -0.00319026  0.80261360  0.24887511  1
  Ti  Ti146  1  0.72245548  0.90156885  0.63579804  1
  Ti  Ti147  1  0.30926360  0.72291969  0.59355901  1
  Ti  Ti148  1  0.69652879  0.50379656  0.13354858  1
  Ti  Ti149  1  0.21445035  0.59853284  0.00332787  1
  Ti  Ti150  1  0.00333932  0.17510806  0.49466916  1
  Ti  Ti151  1  0.20209830  0.00585382  0.24123958  1
  Ti  Ti152  1  0.70206577  0.29667036  0.62647352  1
  Ti  Ti153  1  -0.00445454  0.40997259  0.50538769  1
  Ti  Ti154  1  0.19865052  0.39965931  0.51654012  1
  Ti  Ti155  1  0.39661362  0.39917809  0.26069853  1
  Ti  Ti156  1  0.39165678  0.20221860  -0.01837866  1
  Ti  Ti157  1  0.19010945  0.20272592  0.75746013  1
  Ti  Ti158  1  0.90172294  0.49970612  0.12933159  1
  Ti  Ti159  1  0.70030658  0.50005279  0.37347484  1
  Mo  Mo160  1  0.00311782  0.39786273  0.02173032  1
  Mo  Mo161  1  0.29108079  0.89937139  0.60707652  1
  Mo  Mo162  1  0.40803710  0.59647811  0.27298727  1
  Mo  Mo163  1  0.79253672  0.20981987  0.76425218  1
  Mo  Mo164  1  0.90150268  0.09912502  0.12671430  1
  Mo  Mo165  1  0.20100318  0.79691220  -0.00367562  1
  Mo  Mo166  1  0.38973714  0.40099923  0.74335344  1
  Mo  Mo167  1  0.00430375  0.00597516  0.50371215  1
  Mo  Mo168  1  0.80082788  0.19321030  0.25227467  1
  Mo  Mo169  1  0.09896569  0.49834387  0.60725442  1
  Mo  Mo170  1  0.90934306  0.89534890  0.12820632  1
  Mo  Mo171  1  0.50781701  0.69363023  0.12627019  1
  Mo  Mo172  1  0.70297783  0.89228803  0.11704875  1
  Mo  Mo173  1  0.38977976  0.00331087  0.24913050  1
  Mo  Mo174  1  0.40546501  0.80419163  0.75986713  1
  Mo  Mo175  1  0.00462152  -0.00245790  0.22210664  1
  Mo  Mo176  1  0.90475896  0.49632099  0.38301754  1
  Mo  Mo177  1  0.19982476  0.59905718  0.72647579  1
  Mo  Mo178  1  0.19571474  0.00173150  0.00339997  1
  Mo  Mo179  1  0.19742201  0.59568883  0.26825631  1
  Mo  Mo180  1  0.19566029  -0.00518129  0.74163383  1
  Mo  Mo181  1  0.80851974  0.59063549  0.47546933  1
  Mo  Mo182  1  0.89629984  0.09490524  0.89864994  1
  Mo  Mo183  1  0.29943837  0.69649045  0.87618398  1
  Mo  Mo184  1  0.00057534  0.60081655  0.48902013  1
  Mo  Mo185  1  0.90048751  0.69310023  0.11412564  1
  Mo  Mo186  1  0.39606419  0.59701111  0.50692891  1
  Mo  Mo187  1  0.81423553  0.79893718  0.75551136  1
  Mo  Mo188  1  0.90818654  0.69641456  0.38145665  1
  Mo  Mo189  1  0.20657825  0.41213980  -0.01020994  1
  Mo  Mo190  1  0.09963398  0.30224817  0.10584242  1
  Mo  Mo191  1  0.19794259  0.81006290  0.48960608  1
  Mo  Mo192  1  0.19780509  0.39449405  0.26045589  1
  Mo  Mo193  1  0.70076119  0.10131989  0.12169430  1
  Mo  Mo194  1  0.90265057  0.90543131  0.34690381  1
  Mo  Mo195  1  0.89489788  0.49870458  0.60385721  1
  Mo  Mo196  1  0.00770837  0.20013868  0.25661951  1
  Mo  Mo197  1  0.40126046  0.80499600  0.48153035  1
  Mo  Mo198  1  0.00364420  -0.01077698  0.76021454  1
  Mo  Mo199  1  0.79818476  0.59410870  0.25548666  1
