# generated using pymatgen
data_HfZrTaTiMo
_symmetry_space_group_name_H-M   'P 1'
_cell_length_a   15.83964596
_cell_length_b   15.83499937
_cell_length_c   15.41453473
_cell_angle_alpha   90.03071888
_cell_angle_beta   89.93331123
_cell_angle_gamma   89.86047638
_symmetry_Int_Tables_number   1
_chemical_formula_structural   HfZrTaTiMo
_chemical_formula_sum   'Hf40 Zr40 Ta40 Ti40 Mo40'
_cell_volume   3866.27103799
_cell_formula_units_Z   40
loop_
 _symmetry_equiv_pos_site_id
 _symmetry_equiv_pos_as_xyz
  1  'x, y, z'
loop_
 _atom_site_type_symbol
 _atom_site_label
 _atom_site_symmetry_multiplicity
 _atom_site_fract_x
 _atom_site_fract_y
 _atom_site_fract_z
 _atom_site_occupancy
  Hf  Hf0  1  0.60597063  0.80668193  0.25094673  1
  Hf  Hf1  1  0.38805813  0.20362580  0.24195502  1
  Hf  Hf2  1  0.89754384  0.89965661  0.87809563  1
  Hf  Hf3  1  0.28794120  0.30509314  0.63066919  1
  Hf  Hf4  1  0.39733116  0.39344433  0.00292245  1
  Hf  Hf5  1  0.30328016  0.90290664  0.61485747  1
  Hf  Hf6  1  0.19041998  0.78516957  0.51176553  1
  Hf  Hf7  1  0.59485070  0.80475569  0.50334217  1
  Hf  Hf8  1  0.81244668  0.60549851  0.25447448  1
  Hf  Hf9  1  0.49618813  0.89590342  0.88044664  1
  Hf  Hf10  1  0.09828848  0.09945779  0.12824822  1
  Hf  Hf11  1  0.80204165  0.80412368  0.24310936  1
  Hf  Hf12  1  0.69036838  0.10396140  0.37461826  1
  Hf  Hf13  1  0.29426893  0.09713342  0.36641219  1
  Hf  Hf14  1  0.10452542  0.90105655  0.11550675  1
  Hf  Hf15  1  0.78452718  0.21663932  0.25109802  1
  Hf  Hf16  1  0.69943819  0.10144244  0.63456500  1
  Hf  Hf17  1  0.70015371  0.90361665  0.63630172  1
  Hf  Hf18  1  0.19643918  0.40317196  0.25301481  1
  Hf  Hf19  1  0.59017819  0.00515379  0.50751284  1
  Hf  Hf20  1  0.09202273  0.50018420  0.86807443  1
  Hf  Hf21  1  0.29438891  0.89335216  0.11462645  1
  Hf  Hf22  1  0.68580458  0.11006829  0.11574363  1
  Hf  Hf23  1  0.80649539  0.21810946  0.74068577  1
  Hf  Hf24  1  0.50195151  0.09248598  0.12433659  1
  Hf  Hf25  1  -0.00823297  0.40726670  0.01590282  1
  Hf  Hf26  1  0.69587211  0.69498944  0.62483201  1
  Hf  Hf27  1  0.39884543  0.79041656  0.75484587  1
  Hf  Hf28  1  0.38966403  0.20403001  0.49720078  1
  Hf  Hf29  1  0.08638586  0.90487578  0.62264304  1
  Hf  Hf30  1  0.20458411  0.39562274  0.01447940  1
  Hf  Hf31  1  0.28765004  0.09290501  0.12649191  1
  Hf  Hf32  1  0.89962079  0.11240858  0.88315962  1
  Hf  Hf33  1  0.10909117  0.70124594  0.13397892  1
  Hf  Hf34  1  0.79552558  0.40135534  0.50812863  1
  Hf  Hf35  1  0.49643049  0.50158804  0.14017884  1
  Hf  Hf36  1  0.09379095  0.89017613  0.38222407  1
  Hf  Hf37  1  0.41092462  0.80351016  0.24267047  1
  Hf  Hf38  1  0.59538386  0.21181623  0.50506630  1
  Hf  Hf39  1  0.89188685  0.09329534  0.38851727  1
  Zr  Zr40  1  -0.01656969  0.20806165  0.25455593  1
  Zr  Zr41  1  0.51495287  0.29145298  0.13987808  1
  Zr  Zr42  1  0.60508403  0.39173785  0.00584770  1
  Zr  Zr43  1  0.62288134  0.39307436  0.26915628  1
  Zr  Zr44  1  0.60320636  0.60240441  0.26953920  1
  Zr  Zr45  1  0.10361487  0.68571949  0.36201512  1
  Zr  Zr46  1  0.59764585  0.59862749  0.75383045  1
  Zr  Zr47  1  -0.01321058  0.79616496  0.23819867  1
  Zr  Zr48  1  0.92614025  0.49816077  0.38814150  1
  Zr  Zr49  1  0.80038929  0.57358385  0.74814387  1
  Zr  Zr50  1  0.11554388  0.48109889  0.63090961  1
  Zr  Zr51  1  0.20704200  0.59460556  -0.00628334  1
  Zr  Zr52  1  0.29594622  0.48065770  0.85618575  1
  Zr  Zr53  1  0.40678890  0.59398399  0.75051166  1
  Zr  Zr54  1  0.19412325  0.00502297  0.75778331  1
  Zr  Zr55  1  0.50413715  0.69469312  0.11528071  1
  Zr  Zr56  1  0.89197292  0.10048383  0.10924511  1
  Zr  Zr57  1  0.40463848  0.20315665  -0.00667439  1
  Zr  Zr58  1  0.90472368  0.08919499  0.61860687  1
  Zr  Zr59  1  0.48304887  0.10283947  0.63222314  1
  Zr  Zr60  1  0.79536409  -0.00349344  0.24173409  1
  Zr  Zr61  1  0.70403074  0.69933448  0.11343869  1
  Zr  Zr62  1  0.69869045  0.11047895  0.87807591  1
  Zr  Zr63  1  -0.00904173  -0.00678038  0.25075448  1
  Zr  Zr64  1  0.39358024  0.00415800  0.76190983  1
  Zr  Zr65  1  0.42024771  0.39056829  0.73436254  1
  Zr  Zr66  1  0.70644238  0.90552367  0.38829079  1
  Zr  Zr67  1  0.20381426  0.20565829  0.00067988  1
  Zr  Zr68  1  0.58236526  0.21837160  0.74981527  1
  Zr  Zr69  1  0.09786814  0.30062294  0.87229845  1
  Zr  Zr70  1  0.49589664  0.30444024  0.37194293  1
  Zr  Zr71  1  0.30194238  0.69956995  0.36971168  1
  Zr  Zr72  1  0.20180741  0.79813171  0.74947795  1
  Zr  Zr73  1  -0.01671462  0.39557725  0.74541019  1
  Zr  Zr74  1  0.70701720  0.32634160  0.86431246  1
  Zr  Zr75  1  0.90832557  0.70613846  0.39689402  1
  Zr  Zr76  1  0.30419030  0.68840804  0.13650952  1
  Zr  Zr77  1  0.30193492  0.89542263  0.37985241  1
  Zr  Zr78  1  0.70680347  0.49971218  0.12415848  1
  Zr  Zr79  1  0.90885365  0.69468452  0.86483639  1
  Ta  Ta80  1  0.89804667  0.90014441  0.62873753  1
  Ta  Ta81  1  0.79558917  0.79829080  0.75642986  1
  Ta  Ta82  1  0.90163762  0.90190455  0.40868722  1
  Ta  Ta83  1  0.82033124  0.40179230  0.24871628  1
  Ta  Ta84  1  0.40393793  0.58895045  -0.01699403  1
  Ta  Ta85  1  0.89478009  0.89952722  0.09699958  1
  Ta  Ta86  1  0.09859171  0.69750318  0.86136243  1
  Ta  Ta87  1  0.09782205  0.29755638  0.14195401  1
  Ta  Ta88  1  0.20823029  0.60010563  0.74107444  1
  Ta  Ta89  1  0.31001126  0.69297718  0.61412032  1
  Ta  Ta90  1  0.39462002  0.40800211  0.50100750  1
  Ta  Ta91  1  0.21013418  0.58685601  0.50733049  1
  Ta  Ta92  1  0.08856776  0.31068814  0.37095048  1
  Ta  Ta93  1  0.09880119  0.10539812  0.62157377  1
  Ta  Ta94  1  0.30626451  0.50303794  0.36294881  1
  Ta  Ta95  1  0.39740838  0.00107778  -0.00443153  1
  Ta  Ta96  1  0.20223938  0.39888042  0.48364544  1
  Ta  Ta97  1  0.49759388  0.70366558  0.38644118  1
  Ta  Ta98  1  0.00575361  0.19924765  0.49160957  1
  Ta  Ta99  1  0.19245403  0.00993088  0.49730664  1
  Ta  Ta100  1  0.02090001  0.60583702  0.52216318  1
  Ta  Ta101  1  0.00470613  0.59883545  0.73576774  1
  Ta  Ta102  1  0.00028667  0.60168292  0.00848541  1
  Ta  Ta103  1  0.90856891  0.29639204  0.60916131  1
  Ta  Ta104  1  0.70514373  0.70223837  0.39048827  1
  Ta  Ta105  1  0.90487223  0.70577970  0.63104433  1
  Ta  Ta106  1  0.59575157  -0.00049812  0.76372497  1
  Ta  Ta107  1  0.81237866  0.58738627  -0.01002414  1
  Ta  Ta108  1  0.49452059  0.09563735  0.36282326  1
  Ta  Ta109  1  0.69760066  0.90872510  0.09868903  1
  Ta  Ta110  1  0.79457502  0.20319401  0.50271922  1
  Ta  Ta111  1  -0.00161619  0.00217665  0.76341819  1
  Ta  Ta112  1  0.00482379  0.00011412  -0.01079084  1
  Ta  Ta113  1  0.61695384  0.41120431  0.72067366  1
  Ta  Ta114  1  0.70148943  0.69458116  0.87453843  1
  Ta  Ta115  1  0.60395323  0.79950493  -0.01401136  1
  Ta  Ta116  1  0.79174525  0.22343817  0.00705972  1
  Ta  Ta117  1  0.29447832  0.89683419  0.88929105  1
  Ta  Ta118  1  0.79810388  0.79516030  -0.01138541  1
  Ta  Ta119  1  0.19694283  0.78922454  -0.01614800  1
  Ti  Ti120  1  0.79798830  -0.00027602  0.76290535  1
  Ti  Ti121  1  0.19317667  0.20256422  0.48673228  1
  Ti  Ti122  1  0.90762347  0.49889790  0.61055856  1
  Ti  Ti123  1  0.89964281  0.30531000  0.38963997  1
  Ti  Ti124  1  0.29395194  0.09902962  0.88411705  1
  Ti  Ti125  1  0.39464802  0.78664480  -0.00587779  1
  Ti  Ti126  1  -0.00127016  0.20996182  0.00745946  1
  Ti  Ti127  1  0.70810780  0.50611063  0.38704511  1
  Ti  Ti128  1  0.39744639  0.00365227  0.49875994  1
  Ti  Ti129  1  0.40355200  0.59624251  0.49311362  1
  Ti  Ti130  1  0.40156110  -0.00777185  0.24112712  1
  Ti  Ti131  1  0.09621119  0.10273936  0.36790600  1
  Ti  Ti132  1  0.49571329  0.89880190  0.63377346  1
  Ti  Ti133  1  0.89617685  0.31328986  0.88336021  1
  Ti  Ti134  1  0.10041045  0.29198321  0.62043079  1
  Ti  Ti135  1  0.09846148  0.10192058  0.88252278  1
  Ti  Ti136  1  0.50433469  0.89884094  0.10642612  1
  Ti  Ti137  1  0.59990363  0.80015857  0.75917038  1
  Ti  Ti138  1  0.39299680  0.20255483  0.76542646  1
  Ti  Ti139  1  0.00079784  0.79100354  0.00166758  1
  Ti  Ti140  1  0.19550289  -0.01036774  0.25896180  1
  Ti  Ti141  1  0.09424197  0.89270389  0.87520009  1
  Ti  Ti142  1  0.00251271  0.19603523  0.74784948  1
  Ti  Ti143  1  0.19909715  0.20098240  0.75754810  1
  Ti  Ti144  1  0.59701011  0.00410413  -0.01777167  1
  Ti  Ti145  1  0.59921557  0.40670011  0.49917814  1
  Ti  Ti146  1  0.80397358  0.60231650  0.50738230  1
  Ti  Ti147  1  0.00059206  0.58934057  0.23931599  1
  Ti  Ti148  1  0.80068860  0.80123477  0.51649410  1
  Ti  Ti149  1  0.60424251  0.59261367  -0.01382050  1
  Ti  Ti150  1  0.50103526  0.69511855  0.88312485  1
  Ti  Ti151  1  0.49428773  0.90304013  0.37952817  1
  Ti  Ti152  1  0.28695240  0.10471602  0.62240701  1
  Ti  Ti153  1  0.50792197  0.50995649  0.60520094  1
  Ti  Ti154  1  0.59547888  -0.00788287  0.24719115  1
  Ti  Ti155  1  0.10435635  0.50362339  0.13111965  1
  Ti  Ti156  1  0.51571856  0.48174397  0.87281002  1
  Ti  Ti157  1  0.29390048  0.30187722  0.36522800  1
  Ti  Ti158  1  0.30982676  0.50036161  0.14529274  1
  Ti  Ti159  1  0.49727400  0.70135599  0.61171093  1
  Mo  Mo160  1  0.29755841  0.30569336  0.14236201  1
  Mo  Mo161  1  0.90175416  0.69902051  0.10714122  1
  Mo  Mo162  1  0.50346211  0.30219092  0.87581007  1
  Mo  Mo163  1  0.80657475  0.40489065  0.01513559  1
  Mo  Mo164  1  0.70691557  0.30568995  0.39161242  1
  Mo  Mo165  1  0.70215123  0.50188632  0.88351783  1
  Mo  Mo166  1  0.00607417  0.00415017  0.49520569  1
  Mo  Mo167  1  0.59624827  0.19142635  0.26308987  1
  Mo  Mo168  1  0.19516168  -0.00371665  -0.01650701  1
  Mo  Mo169  1  0.80054976  0.40182347  0.72342258  1
  Mo  Mo170  1  0.29924512  0.29462457  0.85818067  1
  Mo  Mo171  1  0.89815586  0.49346437  0.87515517  1
  Mo  Mo172  1  0.30793387  0.50025465  0.62078917  1
  Mo  Mo173  1  0.79753047  0.00293034  -0.00650566  1
  Mo  Mo174  1  0.30274849  0.69409131  0.87765278  1
  Mo  Mo175  1  0.10524305  0.69517005  0.64103463  1
  Mo  Mo176  1  -0.00413288  0.80342710  0.74498726  1
  Mo  Mo177  1  0.18992649  0.20064509  0.26018427  1
  Mo  Mo178  1  0.49579370  0.30933389  0.60461480  1
  Mo  Mo179  1  0.10628884  0.50010664  0.38377248  1
  Mo  Mo180  1  0.40747504  0.59981073  0.26709772  1
  Mo  Mo181  1  0.19927313  0.80488751  0.25015609  1
  Mo  Mo182  1  0.90475785  0.50725364  0.13379517  1
  Mo  Mo183  1  0.79628225  0.00059419  0.51329995  1
  Mo  Mo184  1  0.49631701  0.09946080  0.87717718  1
  Mo  Mo185  1  0.59902123  0.60220667  0.48905209  1
  Mo  Mo186  1  0.20066084  0.59417377  0.24797024  1
  Mo  Mo187  1  -0.00138831  0.79595042  0.51800284  1
  Mo  Mo188  1  0.69711746  0.50878498  0.60095372  1
  Mo  Mo189  1  0.70001735  0.30448441  0.61920870  1
  Mo  Mo190  1  0.70313876  0.29994703  0.12639424  1
  Mo  Mo191  1  0.49764639  0.50418314  0.38323461  1
  Mo  Mo192  1  0.00729130  0.39542244  0.50945252  1
  Mo  Mo193  1  0.59785455  0.20310840  -0.01841888  1
  Mo  Mo194  1  0.39912998  0.40213328  0.25620445  1
  Mo  Mo195  1  0.40432227  0.80092569  0.51023721  1
  Mo  Mo196  1  -0.00041871  0.40609657  0.23906118  1
  Mo  Mo197  1  0.19846754  0.38974252  0.74881616  1
  Mo  Mo198  1  0.69772809  0.89857464  0.87424358  1
  Mo  Mo199  1  0.89800090  0.30514946  0.12082113  1
