# generated using pymatgen
data_HfZrTaTiMo
_symmetry_space_group_name_H-M   'P 1'
_cell_length_a   15.83737147
_cell_length_b   15.83740803
_cell_length_c   15.40871151
_cell_angle_alpha   90.02170808
_cell_angle_beta   89.98309974
_cell_angle_gamma   90.06471547
_symmetry_Int_Tables_number   1
_chemical_formula_structural   HfZrTaTiMo
_chemical_formula_sum   'Hf40 Zr40 Ta40 Ti40 Mo40'
_cell_volume   3864.85501443
_cell_formula_units_Z   40
loop_
 _symmetry_equiv_pos_site_id
 _symmetry_equiv_pos_as_xyz
  1  'x, y, z'
loop_
 _atom_site_type_symbol
 _atom_site_label
 _atom_site_symmetry_multiplicity
 _atom_site_fract_x
 _atom_site_fract_y
 _atom_site_fract_z
 _atom_site_occupancy
  Hf  Hf0  1  0.90664994  0.28381822  0.11793444  1
  Hf  Hf1  1  0.38827578  0.79353508  0.26197813  1
  Hf  Hf2  1  0.00160592  0.19965791  0.76965115  1
  Hf  Hf3  1  0.10923228  0.48920147  0.38350458  1
  Hf  Hf4  1  0.60865752  0.00733801  0.00755617  1
  Hf  Hf5  1  -0.00835265  0.79253359  0.49296872  1
  Hf  Hf6  1  0.40147157  0.00319364  0.00653101  1
  Hf  Hf7  1  0.89646053  0.69716133  0.86548845  1
  Hf  Hf8  1  0.79030375  -0.00159654  0.49844877  1
  Hf  Hf9  1  0.49548609  0.89191931  0.12531590  1
  Hf  Hf10  1  0.60105501  0.60012766  0.49937413  1
  Hf  Hf11  1  0.19484182  0.79463917  -0.00779028  1
  Hf  Hf12  1  0.60391505  0.60590521  0.74142334  1
  Hf  Hf13  1  0.31088105  0.09508835  0.61527687  1
  Hf  Hf14  1  0.11215951  0.71197579  0.13680444  1
  Hf  Hf15  1  0.69749432  0.90199700  0.86716935  1
  Hf  Hf16  1  0.00046690  0.59886470  0.49759971  1
  Hf  Hf17  1  0.89766028  0.48793844  0.63180143  1
  Hf  Hf18  1  0.29967269  0.10143014  0.87876416  1
  Hf  Hf19  1  0.49988543  0.70410370  0.61567454  1
  Hf  Hf20  1  0.70232482  0.49376360  0.62200588  1
  Hf  Hf21  1  0.89233348  0.07831219  0.11151925  1
  Hf  Hf22  1  0.49285391  0.90537673  0.63200275  1
  Hf  Hf23  1  0.20148442  0.60053615  0.50808674  1
  Hf  Hf24  1  0.09767570  0.90038628  0.87221499  1
  Hf  Hf25  1  0.50735699  0.10443356  0.86718854  1
  Hf  Hf26  1  0.68933232  0.10494425  0.35759945  1
  Hf  Hf27  1  0.31853644  0.48853978  0.61939111  1
  Hf  Hf28  1  0.30561363  0.30686110  0.12063621  1
  Hf  Hf29  1  0.41272777  0.38835768  0.48874709  1
  Hf  Hf30  1  0.79887117  0.80412373  0.51798293  1
  Hf  Hf31  1  0.08485574  0.10213150  0.11669615  1
  Hf  Hf32  1  0.89117954  0.90080874  0.86763497  1
  Hf  Hf33  1  -0.00872629  0.38220433  0.48726588  1
  Hf  Hf34  1  0.29313544  0.88906092  0.12078764  1
  Hf  Hf35  1  0.19709052  0.20334262  0.00477695  1
  Hf  Hf36  1  0.20072622  0.21154576  0.51813285  1
  Hf  Hf37  1  -0.00828237  0.19141701  0.47774074  1
  Hf  Hf38  1  0.60681267  0.80950069  0.49951162  1
  Hf  Hf39  1  0.20341807  -0.00726316  0.74315265  1
  Zr  Zr40  1  0.31483532  0.51440909  0.12912054  1
  Zr  Zr41  1  0.41219796  0.41232146  -0.00817361  1
  Zr  Zr42  1  0.59934377  0.00533926  0.49905346  1
  Zr  Zr43  1  0.20679061  0.01564369  0.23854793  1
  Zr  Zr44  1  0.00838640  0.60278619  -0.00680791  1
  Zr  Zr45  1  0.01089001  0.59388968  0.74028478  1
  Zr  Zr46  1  0.08813310  0.09483565  0.61853159  1
  Zr  Zr47  1  0.10094762  0.51195666  0.13637781  1
  Zr  Zr48  1  0.60168674  0.79328175  0.00735733  1
  Zr  Zr49  1  0.11235827  0.89782257  0.37653713  1
  Zr  Zr50  1  0.20688278  0.60138371  0.72819795  1
  Zr  Zr51  1  0.71063922  0.71397090  0.36010488  1
  Zr  Zr52  1  0.20049327  0.39561459  0.24082309  1
  Zr  Zr53  1  0.88823953  0.09587701  0.63864474  1
  Zr  Zr54  1  0.39701268  0.21710298  0.74782350  1
  Zr  Zr55  1  0.30289112  0.28248378  0.37444897  1
  Zr  Zr56  1  0.59690449  0.59956017  0.00933334  1
  Zr  Zr57  1  0.00198895  0.60336351  0.27511373  1
  Zr  Zr58  1  0.79896301  0.39225288  0.23301535  1
  Zr  Zr59  1  0.79838837  0.20570996  0.48983861  1
  Zr  Zr60  1  -0.00112776  0.40563519  0.00895378  1
  Zr  Zr61  1  0.19643911  0.19874360  0.74670402  1
  Zr  Zr62  1  0.29728821  0.50014883  0.86545827  1
  Zr  Zr63  1  0.60180781  0.39948008  0.00750558  1
  Zr  Zr64  1  0.90952639  0.70654269  0.13479460  1
  Zr  Zr65  1  0.70003004  0.49384236  0.37644577  1
  Zr  Zr66  1  0.78183208  0.38680489  0.76633721  1
  Zr  Zr67  1  0.30128292  0.91159679  0.38751046  1
  Zr  Zr68  1  0.80610500  0.59752173  0.01386044  1
  Zr  Zr69  1  0.30363866  0.69709578  0.87726792  1
  Zr  Zr70  1  0.08177797  0.90342622  0.12772960  1
  Zr  Zr71  1  -0.01233377  -0.00383981  0.48105173  1
  Zr  Zr72  1  0.90084516  0.29789800  0.63855641  1
  Zr  Zr73  1  0.80615122  0.60778978  0.49982321  1
  Zr  Zr74  1  -0.00125900  0.19469320  0.26716041  1
  Zr  Zr75  1  0.70083051  0.50613898  0.87571859  1
  Zr  Zr76  1  0.48718781  0.10565024  0.36705741  1
  Zr  Zr77  1  0.39386197  0.79717815  0.75053781  1
  Zr  Zr78  1  0.21262458  0.62073966  0.27285078  1
  Zr  Zr79  1  0.59076292  0.21027616  0.50759995  1
  Ta  Ta80  1  0.87809669  0.88793102  0.35989918  1
  Ta  Ta81  1  0.50432199  0.29717278  0.35188657  1
  Ta  Ta82  1  0.60012941  0.40244836  0.23845270  1
  Ta  Ta83  1  0.49955526  0.89812282  0.87344046  1
  Ta  Ta84  1  0.39712683  0.00318649  0.24230716  1
  Ta  Ta85  1  0.50507057  0.70481786  0.37518184  1
  Ta  Ta86  1  0.50256329  0.10594425  0.13157420  1
  Ta  Ta87  1  0.70963404  0.90465753  0.12933356  1
  Ta  Ta88  1  0.78815226  0.19312334  -0.00356563  1
  Ta  Ta89  1  0.30497600  0.49033489  0.38445041  1
  Ta  Ta90  1  0.59979534  0.59964056  0.24533794  1
  Ta  Ta91  1  0.20129339  0.80302286  0.73476237  1
  Ta  Ta92  1  0.19411292  0.00262019  -0.00082287  1
  Ta  Ta93  1  -0.00668361  0.80335126  -0.00615988  1
  Ta  Ta94  1  -0.00204216  0.19332981  -0.01750425  1
  Ta  Ta95  1  0.89363286  0.48900466  0.37153271  1
  Ta  Ta96  1  0.49874065  0.30169022  0.13739087  1
  Ta  Ta97  1  0.70564430  0.70645036  0.86281171  1
  Ta  Ta98  1  0.80175950  0.59897838  0.24368208  1
  Ta  Ta99  1  0.48833106  0.69255331  0.13537632  1
  Ta  Ta100  1  0.38674075  0.19118380  0.23438250  1
  Ta  Ta101  1  0.40834818  0.20472862  0.00504488  1
  Ta  Ta102  1  0.79935754  0.39512747  0.00502428  1
  Ta  Ta103  1  0.29868624  0.30671799  0.88375767  1
  Ta  Ta104  1  0.00174883  0.79971937  0.27203949  1
  Ta  Ta105  1  0.89621605  0.30097410  0.88315223  1
  Ta  Ta106  1  0.70019541  0.09726799  0.86528500  1
  Ta  Ta107  1  0.69042925  0.90917452  0.64895355  1
  Ta  Ta108  1  0.19581594  0.40595617  0.00752962  1
  Ta  Ta109  1  0.30261856  0.89851334  0.88490883  1
  Ta  Ta110  1  -0.00119779  0.39247493  0.24966069  1
  Ta  Ta111  1  0.80110338  0.80267475  0.01282666  1
  Ta  Ta112  1  0.10381972  0.30847819  0.87970958  1
  Ta  Ta113  1  0.10147188  0.70165845  0.86119082  1
  Ta  Ta114  1  0.20197403  0.38676406  0.73390957  1
  Ta  Ta115  1  -0.00909992  0.00176684  0.26963270  1
  Ta  Ta116  1  0.79718497  0.79759707  0.73534724  1
  Ta  Ta117  1  0.50439338  0.10440440  0.63917571  1
  Ta  Ta118  1  0.40677781  0.59541712  0.27196645  1
  Ta  Ta119  1  0.90231940  0.49537764  0.85987087  1
  Ti  Ti120  1  0.20234791  0.80777064  0.51775812  1
  Ti  Ti121  1  0.00093446  0.00547642  0.76111468  1
  Ti  Ti122  1  0.09793498  0.47512328  0.61648895  1
  Ti  Ti123  1  0.09726662  0.70765357  0.62367202  1
  Ti  Ti124  1  0.60789659  0.21754057  0.75112954  1
  Ti  Ti125  1  0.60130344  0.79604454  0.23819996  1
  Ti  Ti126  1  0.50428929  0.30411244  0.87573975  1
  Ti  Ti127  1  0.31385348  0.70820805  0.60838069  1
  Ti  Ti128  1  0.69302679  0.90243126  0.35459735  1
  Ti  Ti129  1  0.41265303  0.60425177  -0.00699956  1
  Ti  Ti130  1  0.60275168  0.20156311  0.01068368  1
  Ti  Ti131  1  0.41261189  0.59216121  0.74417097  1
  Ti  Ti132  1  0.59682308  0.00216877  0.23750639  1
  Ti  Ti133  1  0.69821688  0.30132699  0.36823747  1
  Ti  Ti134  1  0.19725584  0.19987502  0.23488579  1
  Ti  Ti135  1  0.79833571  -0.00037212  0.24731981  1
  Ti  Ti136  1  0.40469533  0.00214070  0.49775984  1
  Ti  Ti137  1  0.10390321  0.49567152  0.86446452  1
  Ti  Ti138  1  0.70164761  0.50163910  0.12763188  1
  Ti  Ti139  1  0.59633731  0.40132088  0.49537728  1
  Ti  Ti140  1  0.69412435  0.10127647  0.64577426  1
  Ti  Ti141  1  0.50196134  0.89989286  0.36576773  1
  Ti  Ti142  1  0.30706520  0.70062001  0.11598727  1
  Ti  Ti143  1  0.89030919  0.08912741  0.88283182  1
  Ti  Ti144  1  0.90266890  0.90611745  0.63765521  1
  Ti  Ti145  1  0.79432593  0.20015069  0.76653596  1
  Ti  Ti146  1  0.13115740  0.09817793  0.38499431  1
  Ti  Ti147  1  0.58571901  0.40612987  0.75472548  1
  Ti  Ti148  1  0.30396155  0.70902948  0.40096603  1
  Ti  Ti149  1  0.50644151  0.70332763  0.87108726  1
  Ti  Ti150  1  0.89855315  0.69349669  0.63981414  1
  Ti  Ti151  1  0.11018969  0.29846005  0.37559737  1
  Ti  Ti152  1  0.79216882  0.19556203  0.23759654  1
  Ti  Ti153  1  0.09318661  0.90292345  0.62179794  1
  Ti  Ti154  1  0.49484602  0.31426228  0.63335489  1
  Ti  Ti155  1  0.19837915  0.59743513  -0.00406154  1
  Ti  Ti156  1  0.00244747  0.80165559  0.74489276  1
  Ti  Ti157  1  0.39610334  -0.00160879  0.75576007  1
  Ti  Ti158  1  0.70161317  0.30444722  0.61767243  1
  Ti  Ti159  1  0.41267234  0.59183344  0.48905689  1
  Mo  Mo160  1  0.89690818  0.69932837  0.36736643  1
  Mo  Mo161  1  0.30073635  0.10029264  0.39066418  1
  Mo  Mo162  1  0.49907509  0.50243554  0.14518588  1
  Mo  Mo163  1  0.00693506  0.39633466  0.76311365  1
  Mo  Mo164  1  0.60098429  0.20594332  0.23724770  1
  Mo  Mo165  1  0.69131262  0.28932489  0.89102963  1
  Mo  Mo166  1  0.89081927  0.29773175  0.35650991  1
  Mo  Mo167  1  0.19998983  -0.00034815  0.51707940  1
  Mo  Mo168  1  0.40980738  0.20094586  0.51398741  1
  Mo  Mo169  1  -0.00549037  -0.00365462  -0.01587264  1
  Mo  Mo170  1  0.09769563  0.29927107  0.11511559  1
  Mo  Mo171  1  0.50454116  0.49711996  0.36474810  1
  Mo  Mo172  1  0.59182168  0.00675099  0.75531435  1
  Mo  Mo173  1  0.09765430  0.09652563  0.88464267  1
  Mo  Mo174  1  0.69777871  0.10045649  0.13453320  1
  Mo  Mo175  1  0.69778959  0.70167009  0.13723426  1
  Mo  Mo176  1  0.50406503  0.49602405  0.62927335  1
  Mo  Mo177  1  0.40832569  0.80288000  0.48883630  1
  Mo  Mo178  1  0.30554074  0.30276237  0.61894323  1
  Mo  Mo179  1  0.90129585  0.89832555  0.13688074  1
  Mo  Mo180  1  0.69963377  0.29407707  0.11195327  1
  Mo  Mo181  1  0.40351824  0.79430790  -0.00759367  1
  Mo  Mo182  1  0.09312681  0.30177804  0.62753962  1
  Mo  Mo183  1  0.30221268  0.10052760  0.10926065  1
  Mo  Mo184  1  0.10989120  0.70655941  0.39268279  1
  Mo  Mo185  1  0.79427666  -0.00631078  -0.00022611  1
  Mo  Mo186  1  0.70079402  0.70548472  0.63587932  1
  Mo  Mo187  1  0.20147065  0.39611180  0.51209338  1
  Mo  Mo188  1  0.79876301  0.00359809  0.74715706  1
  Mo  Mo189  1  0.59630084  0.80110939  0.75514970  1
  Mo  Mo190  1  0.87863526  0.09247094  0.36168749  1
  Mo  Mo191  1  0.79879767  0.80271335  0.23307827  1
  Mo  Mo192  1  0.40357496  0.40288773  0.76290821  1
  Mo  Mo193  1  0.80189798  0.60051489  0.74467903  1
  Mo  Mo194  1  0.79515086  0.39322351  0.49046363  1
  Mo  Mo195  1  0.89944261  0.49767202  0.14171513  1
  Mo  Mo196  1  0.49964957  0.50819994  0.85894213  1
  Mo  Mo197  1  0.20219843  0.79961870  0.25720293  1
  Mo  Mo198  1  0.40345896  0.39895041  0.26343282  1
  Mo  Mo199  1  0.30213821  0.89941878  0.61185263  1
