# generated using pymatgen
data_HfZrTaTiMo
_symmetry_space_group_name_H-M   'P 1'
_cell_length_a   16.45213448
_cell_length_b   16.53916206
_cell_length_c   14.10644772
_cell_angle_alpha   90.12848885
_cell_angle_beta   89.77009295
_cell_angle_gamma   89.52935472
_symmetry_Int_Tables_number   1
_chemical_formula_structural   HfZrTaTiMo
_chemical_formula_sum   'Hf40 Zr40 Ta40 Ti40 Mo40'
_cell_volume   3838.25782716
_cell_formula_units_Z   40
loop_
 _symmetry_equiv_pos_site_id
 _symmetry_equiv_pos_as_xyz
  1  'x, y, z'
loop_
 _atom_site_type_symbol
 _atom_site_label
 _atom_site_symmetry_multiplicity
 _atom_site_fract_x
 _atom_site_fract_y
 _atom_site_fract_z
 _atom_site_occupancy
  Hf  Hf0  1  -0.00130930  -0.01195174  0.50389442  1
  Hf  Hf1  1  0.40285507  -0.01002219  -0.01317423  1
  Hf  Hf2  1  0.38576858  0.20631639  0.00118312  1
  Hf  Hf3  1  0.19392148  0.59860449  0.25965920  1
  Hf  Hf4  1  0.31218122  0.29840566  0.36380722  1
  Hf  Hf5  1  0.40433146  0.60025926  0.50049056  1
  Hf  Hf6  1  0.00311051  -0.00408457  0.75588465  1
  Hf  Hf7  1  0.30951256  0.90159822  0.38546666  1
  Hf  Hf8  1  0.50427045  0.50302698  0.63320187  1
  Hf  Hf9  1  0.30425554  0.09576160  0.61230986  1
  Hf  Hf10  1  0.88927488  0.69751305  0.88868044  1
  Hf  Hf11  1  0.20152397  0.20489797  0.49408400  1
  Hf  Hf12  1  0.60693155  0.20305612  0.72690749  1
  Hf  Hf13  1  0.19614157  0.59979067  0.49437901  1
  Hf  Hf14  1  0.60562950  0.40072143  0.74273597  1
  Hf  Hf15  1  0.20152552  0.39352036  0.00854123  1
  Hf  Hf16  1  0.29583717  0.90543153  0.12857968  1
  Hf  Hf17  1  -0.00041964  0.80546199  -0.00325521  1
  Hf  Hf18  1  0.89544036  0.69427904  0.63541217  1
  Hf  Hf19  1  0.69887637  0.30382355  0.87739329  1
  Hf  Hf20  1  0.69739068  0.30575136  0.37052364  1
  Hf  Hf21  1  0.79817697  0.40861554  0.01025127  1
  Hf  Hf22  1  0.50518170  0.70182757  0.36652916  1
  Hf  Hf23  1  0.20083315  0.79964637  -0.00640282  1
  Hf  Hf24  1  0.70368975  0.09805444  0.87673283  1
  Hf  Hf25  1  0.50525934  0.90269200  0.37883687  1
  Hf  Hf26  1  -0.00043307  0.40466446  0.74998515  1
  Hf  Hf27  1  0.00061124  0.20194423  0.74478625  1
  Hf  Hf28  1  0.41331519  0.39683166  0.49258289  1
  Hf  Hf29  1  0.89838084  0.09300521  0.10456892  1
  Hf  Hf30  1  0.79341250  0.20167853  0.50451884  1
  Hf  Hf31  1  0.10075980  0.69331712  0.87024411  1
  Hf  Hf32  1  0.30799083  0.49897938  0.14056329  1
  Hf  Hf33  1  0.79344054  0.60620679  0.48303171  1
  Hf  Hf34  1  0.00328862  -0.01007715  -0.01880547  1
  Hf  Hf35  1  0.10071216  0.09821697  0.38176735  1
  Hf  Hf36  1  0.89555593  0.09398029  0.62624476  1
  Hf  Hf37  1  0.30987688  0.69943922  0.37094867  1
  Hf  Hf38  1  0.40063064  -0.00310594  0.75263896  1
  Hf  Hf39  1  0.39709146  0.40066839  0.00474244  1
  Zr  Zr40  1  0.61142374  0.79075920  0.51164421  1
  Zr  Zr41  1  0.70280444  0.89528400  0.36678391  1
  Zr  Zr42  1  0.50157614  0.89623245  0.62730834  1
  Zr  Zr43  1  0.89735019  0.70897192  0.34922547  1
  Zr  Zr44  1  0.41107000  0.80114245  0.22981411  1
  Zr  Zr45  1  0.69023692  0.09162353  0.37967818  1
  Zr  Zr46  1  0.80232446  0.40610403  0.75451969  1
  Zr  Zr47  1  0.59542410  -0.01199920  -0.00850146  1
  Zr  Zr48  1  0.79818303  0.79884412  0.50868247  1
  Zr  Zr49  1  0.19792593  -0.00138072  -0.01938229  1
  Zr  Zr50  1  -0.00075634  0.19971655  0.25849848  1
  Zr  Zr51  1  0.48493813  0.30466629  0.15439779  1
  Zr  Zr52  1  0.59403974  0.80145483  0.00069629  1
  Zr  Zr53  1  0.19622134  0.79456759  0.50654975  1
  Zr  Zr54  1  0.49253806  0.10140139  0.38453262  1
  Zr  Zr55  1  0.09682780  0.10334099  0.11724460  1
  Zr  Zr56  1  0.49976191  0.30766562  0.87410916  1
  Zr  Zr57  1  0.59722089  0.21146964  0.01567210  1
  Zr  Zr58  1  0.29686446  0.49750807  0.62446721  1
  Zr  Zr59  1  0.00113061  0.40354437  0.00135444  1
  Zr  Zr60  1  -0.00550843  0.80940705  0.75525087  1
  Zr  Zr61  1  0.20705239  0.59895361  0.00061577  1
  Zr  Zr62  1  0.79490805  0.20832133  0.00750342  1
  Zr  Zr63  1  0.79571858  0.40953413  0.49745072  1
  Zr  Zr64  1  0.29938811  0.10175938  0.13172876  1
  Zr  Zr65  1  0.40304491  0.20698235  0.73598751  1
  Zr  Zr66  1  -0.00884434  0.00028829  0.25597780  1
  Zr  Zr67  1  0.69602006  0.09128946  0.13216829  1
  Zr  Zr68  1  0.72022076  0.69077418  0.11280036  1
  Zr  Zr69  1  0.60705518  0.59811030  0.49164758  1
  Zr  Zr70  1  0.80471125  0.19696096  0.25863329  1
  Zr  Zr71  1  0.09315590  0.68830236  0.63301823  1
  Zr  Zr72  1  0.49705565  0.09728339  0.13786094  1
  Zr  Zr73  1  0.50372533  0.10380393  0.86672601  1
  Zr  Zr74  1  0.08691373  0.69969605  0.13027737  1
  Zr  Zr75  1  0.39859596  0.79803636  -0.00953361  1
  Zr  Zr76  1  -0.00571310  0.20055199  0.49722611  1
  Zr  Zr77  1  0.19710359  0.79546861  0.25417427  1
  Zr  Zr78  1  0.90885814  0.29817269  0.12550271  1
  Zr  Zr79  1  0.39462786  0.60823438  0.75317139  1
  Ta  Ta80  1  0.80450011  -0.00348806  0.25308403  1
  Ta  Ta81  1  0.10713949  0.09675169  0.62624290  1
  Ta  Ta82  1  0.79903957  0.20425501  0.74094815  1
  Ta  Ta83  1  0.19621185  0.21039823  0.00156408  1
  Ta  Ta84  1  0.19819548  -0.00658323  0.49976063  1
  Ta  Ta85  1  0.09765031  0.90303635  0.13726521  1
  Ta  Ta86  1  0.10058585  0.30579003  0.61703094  1
  Ta  Ta87  1  0.78999299  0.80853918  0.76212158  1
  Ta  Ta88  1  0.79964010  -0.00576005  0.75966780  1
  Ta  Ta89  1  0.60207005  0.40754438  0.02381798  1
  Ta  Ta90  1  0.60708878  0.79586189  0.23389275  1
  Ta  Ta91  1  0.19652052  0.39949476  0.74371599  1
  Ta  Ta92  1  0.09056748  0.49528710  0.37304388  1
  Ta  Ta93  1  0.79581310  0.41076216  0.24500441  1
  Ta  Ta94  1  0.09531418  0.89210373  0.37094514  1
  Ta  Ta95  1  0.09611292  0.49950152  0.13182873  1
  Ta  Ta96  1  0.90474071  0.31627395  0.37832093  1
  Ta  Ta97  1  0.50533850  0.69601501  0.87465973  1
  Ta  Ta98  1  0.19845377  0.40298748  0.49315442  1
  Ta  Ta99  1  0.60194843  0.40317717  0.49829901  1
  Ta  Ta100  1  0.70503919  0.50943884  0.62915181  1
  Ta  Ta101  1  0.19904686  0.00126858  0.26337631  1
  Ta  Ta102  1  -0.00014009  0.79783348  0.49851092  1
  Ta  Ta103  1  0.90348656  0.50803787  0.61783127  1
  Ta  Ta104  1  0.90303484  0.29550700  0.87549158  1
  Ta  Ta105  1  0.50303309  0.50286204  0.88403226  1
  Ta  Ta106  1  0.10108786  0.29918290  0.87052501  1
  Ta  Ta107  1  0.59375083  0.21319602  0.50899916  1
  Ta  Ta108  1  0.29998950  0.49501578  0.86936908  1
  Ta  Ta109  1  0.69873303  0.69888592  0.88269540  1
  Ta  Ta110  1  0.70878028  0.89975982  0.12083180  1
  Ta  Ta111  1  0.90132301  0.30849252  0.62080809  1
  Ta  Ta112  1  0.10461407  0.49859054  0.87407516  1
  Ta  Ta113  1  0.89707955  0.10342362  0.87548860  1
  Ta  Ta114  1  0.09606709  0.31161493  0.37389634  1
  Ta  Ta115  1  0.30030307  0.30262369  0.61602049  1
  Ta  Ta116  1  0.19826784  0.20633405  0.24658724  1
  Ta  Ta117  1  0.60545787  0.59798900  0.76142025  1
  Ta  Ta118  1  0.60820028  0.59669727  0.24644656  1
  Ta  Ta119  1  0.19961095  0.20499576  0.74178199  1
  Ti  Ti120  1  0.29105873  0.89712572  0.85565277  1
  Ti  Ti121  1  0.49814792  0.09534704  0.61326955  1
  Ti  Ti122  1  0.59711477  0.20532587  0.25817679  1
  Ti  Ti123  1  0.29333491  0.30268638  0.86028708  1
  Ti  Ti124  1  -0.00160113  0.60494522  0.48659017  1
  Ti  Ti125  1  0.09233331  0.49819242  0.61722594  1
  Ti  Ti126  1  0.40107702  -0.00128853  0.25298873  1
  Ti  Ti127  1  0.39843129  0.60074518  -0.00792505  1
  Ti  Ti128  1  0.89162580  0.52080621  0.12751900  1
  Ti  Ti129  1  0.49788519  0.50827101  0.13169820  1
  Ti  Ti130  1  0.29808045  0.90069538  0.62696323  1
  Ti  Ti131  1  0.70409470  0.08627296  0.62442318  1
  Ti  Ti132  1  0.50359079  0.68548322  0.11725696  1
  Ti  Ti133  1  0.60790369  -0.01486949  0.75256631  1
  Ti  Ti134  1  0.29207206  0.10611097  0.86365618  1
  Ti  Ti135  1  0.69548411  0.50918698  0.89307249  1
  Ti  Ti136  1  0.39791084  0.79541190  0.75348441  1
  Ti  Ti137  1  0.60732327  -0.00618071  0.51451790  1
  Ti  Ti138  1  0.10456620  0.10759469  0.86643197  1
  Ti  Ti139  1  -0.00706011  0.58816701  0.76265282  1
  Ti  Ti140  1  0.90200195  0.50101078  0.37118978  1
  Ti  Ti141  1  0.39853213  0.79140230  0.51995704  1
  Ti  Ti142  1  0.19667395  0.39655659  0.24856947  1
  Ti  Ti143  1  0.89350422  0.89169191  0.12154088  1
  Ti  Ti144  1  0.39963607  0.39972209  0.74750706  1
  Ti  Ti145  1  0.10998225  0.90071613  0.63391655  1
  Ti  Ti146  1  0.88847849  0.90089406  0.62613259  1
  Ti  Ti147  1  0.80029506  0.59230168  0.76495239  1
  Ti  Ti148  1  0.59772815  0.41040374  0.25739706  1
  Ti  Ti149  1  0.70136166  0.69787181  0.65157357  1
  Ti  Ti150  1  -0.00232604  0.40559321  0.24287960  1
  Ti  Ti151  1  0.89590256  0.89576178  0.37231068  1
  Ti  Ti152  1  0.30692340  0.49790520  0.36705182  1
  Ti  Ti153  1  -0.00449618  0.59349143  -0.00054175  1
  Ti  Ti154  1  0.30582620  0.09858397  0.37989189  1
  Ti  Ti155  1  0.50878740  0.70029117  0.63884855  1
  Ti  Ti156  1  -0.00272498  0.59930270  0.25025440  1
  Ti  Ti157  1  0.20957249  0.78902059  0.74564851  1
  Ti  Ti158  1  0.30795941  0.69116328  0.13095129  1
  Ti  Ti159  1  0.20404032  0.59706044  0.74848198  1
  Mo  Mo160  1  0.80271537  -0.00544443  -0.00512324  1
  Mo  Mo161  1  0.30111364  0.70338131  0.62713919  1
  Mo  Mo162  1  0.40925883  0.59920833  0.25096283  1
  Mo  Mo163  1  0.80109841  0.59555740  0.25020877  1
  Mo  Mo164  1  0.39756117  -0.00468632  0.50693469  1
  Mo  Mo165  1  0.69923106  0.89687444  0.87805464  1
  Mo  Mo166  1  0.49853997  0.88772251  0.85156965  1
  Mo  Mo167  1  0.00624738  0.19934633  -0.01982519  1
  Mo  Mo168  1  0.59594854  0.59680932  0.00094479  1
  Mo  Mo169  1  0.50695006  0.30081728  0.37717633  1
  Mo  Mo170  1  0.89048305  0.08682943  0.39219500  1
  Mo  Mo171  1  0.80108372  -0.00314695  0.49954675  1
  Mo  Mo172  1  0.80137988  0.59361892  -0.00411422  1
  Mo  Mo173  1  0.40348855  0.20003901  0.49831076  1
  Mo  Mo174  1  0.50316716  0.50170638  0.36414693  1
  Mo  Mo175  1  0.80026530  0.80399081  -0.00353104  1
  Mo  Mo176  1  0.10267680  0.30363833  0.13385148  1
  Mo  Mo177  1  0.20091128  0.00341935  0.74208782  1
  Mo  Mo178  1  0.39458291  0.19355481  0.25871153  1
  Mo  Mo179  1  0.90351331  0.69708424  0.12004703  1
  Mo  Mo180  1  0.40478347  0.41007189  0.26041719  1
  Mo  Mo181  1  0.08773078  0.69681838  0.37727306  1
  Mo  Mo182  1  0.00013116  0.40956997  0.50275296  1
  Mo  Mo183  1  0.80374574  0.80383266  0.23321133  1
  Mo  Mo184  1  0.49928515  0.30574204  0.61889088  1
  Mo  Mo185  1  0.29471768  0.30109308  0.14016551  1
  Mo  Mo186  1  0.69335277  0.30940019  0.14325586  1
  Mo  Mo187  1  0.30025828  0.69769322  0.86652373  1
  Mo  Mo188  1  0.70293485  0.30739904  0.61851524  1
  Mo  Mo189  1  0.60086828  -0.00968932  0.24441680  1
  Mo  Mo190  1  -0.00360627  0.80706909  0.24630973  1
  Mo  Mo191  1  0.70354501  0.90455731  0.63780136  1
  Mo  Mo192  1  0.50526710  0.90604479  0.14036507  1
  Mo  Mo193  1  0.69842481  0.50167209  0.36427921  1
  Mo  Mo194  1  0.60202799  0.79259392  0.75811621  1
  Mo  Mo195  1  0.70211903  0.70115531  0.34656672  1
  Mo  Mo196  1  0.69593469  0.50080235  0.12947639  1
  Mo  Mo197  1  0.89070440  0.90210081  0.88188842  1
  Mo  Mo198  1  0.90191407  0.50229763  0.87901920  1
  Mo  Mo199  1  0.11090298  0.89338902  0.85477762  1
