# generated using pymatgen
data_HfZrTaTiMo
_symmetry_space_group_name_H-M   'P 1'
_cell_length_a   15.83155959
_cell_length_b   15.83728946
_cell_length_c   15.41707493
_cell_angle_alpha   89.96874695
_cell_angle_beta   90.00451670
_cell_angle_gamma   89.93870339
_symmetry_Int_Tables_number   1
_chemical_formula_structural   HfZrTaTiMo
_chemical_formula_sum   'Hf40 Zr40 Ta40 Ti40 Mo40'
_cell_volume   3865.50485410
_cell_formula_units_Z   40
loop_
 _symmetry_equiv_pos_site_id
 _symmetry_equiv_pos_as_xyz
  1  'x, y, z'
loop_
 _atom_site_type_symbol
 _atom_site_label
 _atom_site_symmetry_multiplicity
 _atom_site_fract_x
 _atom_site_fract_y
 _atom_site_fract_z
 _atom_site_occupancy
  Hf  Hf0  1  0.09802019  0.89818872  0.62946954  1
  Hf  Hf1  1  0.59147530  0.41058291  -0.00996975  1
  Hf  Hf2  1  0.68804975  0.51013503  0.12663807  1
  Hf  Hf3  1  0.89426623  0.30118551  0.11830984  1
  Hf  Hf4  1  0.10887157  0.30301380  0.12855231  1
  Hf  Hf5  1  0.81237063  0.41555638  0.74117180  1
  Hf  Hf6  1  0.11149084  0.10614779  0.87191458  1
  Hf  Hf7  1  0.80054483  0.00894781  -0.01779909  1
  Hf  Hf8  1  0.31279502  0.66709873  0.13862804  1
  Hf  Hf9  1  -0.00091307  0.79151894  0.75549642  1
  Hf  Hf10  1  0.89325375  0.69685627  0.62067424  1
  Hf  Hf11  1  0.90331702  0.50207015  0.88598680  1
  Hf  Hf12  1  0.10834830  0.89408910  0.35788845  1
  Hf  Hf13  1  0.00745340  0.40384014  0.25715826  1
  Hf  Hf14  1  0.79342600  0.80692208  0.24115223  1
  Hf  Hf15  1  0.19823247  0.19543938  0.26463441  1
  Hf  Hf16  1  0.20311635  0.77944363  0.01415931  1
  Hf  Hf17  1  -0.00116176  0.59592217  0.74986232  1
  Hf  Hf18  1  0.59107923  0.20755148  -0.01032499  1
  Hf  Hf19  1  0.21683236  0.20872973  0.00963770  1
  Hf  Hf20  1  0.60588915  0.79565645  -0.01333044  1
  Hf  Hf21  1  0.80049537  0.80218322  0.76853542  1
  Hf  Hf22  1  0.30367866  0.88714857  0.35973731  1
  Hf  Hf23  1  0.30239029  0.08424099  0.37666293  1
  Hf  Hf24  1  0.59471320  0.00818424  0.75168712  1
  Hf  Hf25  1  0.58961547  0.20600612  0.26509114  1
  Hf  Hf26  1  0.19998504  0.60105995  0.50944700  1
  Hf  Hf27  1  0.69451266  0.31006049  0.85450274  1
  Hf  Hf28  1  0.20523661  0.42544207  -0.00154521  1
  Hf  Hf29  1  0.31266975  0.09781587  0.86680832  1
  Hf  Hf30  1  -0.00305968  0.00386130  0.76538404  1
  Hf  Hf31  1  0.10189663  0.10167051  0.62096368  1
  Hf  Hf32  1  0.59985457  0.01175252  -0.01928738  1
  Hf  Hf33  1  0.70221549  0.90198981  0.63672672  1
  Hf  Hf34  1  0.30325925  0.30148103  0.85718357  1
  Hf  Hf35  1  0.60431092  -0.00256059  0.50661165  1
  Hf  Hf36  1  0.90045452  0.70591378  0.37146907  1
  Hf  Hf37  1  0.48954880  0.90410115  0.87201870  1
  Hf  Hf38  1  0.59697951  0.20342430  0.51086236  1
  Hf  Hf39  1  0.68554785  0.71509125  0.38102030  1
  Zr  Zr40  1  0.68829915  0.51989975  0.63663409  1
  Zr  Zr41  1  0.80160430  0.41721840  0.50835975  1
  Zr  Zr42  1  0.29519416  0.89297239  0.86749863  1
  Zr  Zr43  1  0.69289753  0.30788316  0.12736192  1
  Zr  Zr44  1  0.39790048  0.59815837  0.51693284  1
  Zr  Zr45  1  0.69724510  0.10531944  0.12508787  1
  Zr  Zr46  1  0.19896360  -0.01443692  0.49800044  1
  Zr  Zr47  1  0.41235166  0.58293430  0.74426678  1
  Zr  Zr48  1  0.39811033  0.79267774  0.50601437  1
  Zr  Zr49  1  0.78371010  0.60617359  -0.01459412  1
  Zr  Zr50  1  0.09504142  0.68855905  0.14424268  1
  Zr  Zr51  1  0.80726743  -0.00088532  0.24760412  1
  Zr  Zr52  1  0.40757581  0.19259011  0.72997988  1
  Zr  Zr53  1  0.70464715  0.10262969  0.38353799  1
  Zr  Zr54  1  0.39106904  0.38804053  0.00565030  1
  Zr  Zr55  1  0.90835058  0.10008433  0.62073426  1
  Zr  Zr56  1  0.40109492  0.78382342  0.74076038  1
  Zr  Zr57  1  0.80066790  0.80923195  0.50604513  1
  Zr  Zr58  1  0.90384847  0.50925408  0.12531648  1
  Zr  Zr59  1  0.10975995  0.89188633  0.87680985  1
  Zr  Zr60  1  0.42411618  0.78343517  0.24560370  1
  Zr  Zr61  1  0.19834351  0.39484573  0.49770077  1
  Zr  Zr62  1  0.59695004  -0.00208108  0.25783339  1
  Zr  Zr63  1  0.31491622  0.48535255  0.37300923  1
  Zr  Zr64  1  0.19525410  0.40158219  0.74018738  1
  Zr  Zr65  1  -0.00011357  0.19728652  0.26068397  1
  Zr  Zr66  1  0.01111445  0.40081852  -0.00175136  1
  Zr  Zr67  1  0.50155033  0.90851869  0.11373334  1
  Zr  Zr68  1  0.89838686  0.69928929  0.12231244  1
  Zr  Zr69  1  0.58276392  0.61446358  0.25722201  1
  Zr  Zr70  1  0.69233990  0.31151039  0.63517630  1
  Zr  Zr71  1  0.20935989  -0.00017732  0.01218717  1
  Zr  Zr72  1  0.79614658  0.40905163  0.25989259  1
  Zr  Zr73  1  0.39905804  0.78635327  0.00386209  1
  Zr  Zr74  1  0.10072598  0.89712174  0.13349543  1
  Zr  Zr75  1  0.80381371  0.20386755  0.25753282  1
  Zr  Zr76  1  0.00068544  0.19216624  -0.00219309  1
  Zr  Zr77  1  0.68942213  0.31762538  0.38840146  1
  Zr  Zr78  1  0.89858286  0.29454760  0.86770747  1
  Zr  Zr79  1  0.10114287  0.69993717  0.36494542  1
  Ta  Ta80  1  0.30920514  0.09772166  0.14266298  1
  Ta  Ta81  1  0.00602864  0.80250651  0.50197470  1
  Ta  Ta82  1  0.79873474  0.60962553  0.76819608  1
  Ta  Ta83  1  0.39685014  0.20007065  0.49590091  1
  Ta  Ta84  1  0.00865763  0.20286674  0.48571548  1
  Ta  Ta85  1  -0.00673489  0.59931031  0.49892690  1
  Ta  Ta86  1  0.80249203  0.20371926  0.51355788  1
  Ta  Ta87  1  0.69927725  0.90122885  0.38190851  1
  Ta  Ta88  1  0.39628529  0.20730092  0.26518720  1
  Ta  Ta89  1  0.19764546  0.59685981  0.72814261  1
  Ta  Ta90  1  0.79494666  0.20156571  -0.01002852  1
  Ta  Ta91  1  0.19744204  0.57738804  0.25514690  1
  Ta  Ta92  1  0.91540428  0.30843641  0.61558277  1
  Ta  Ta93  1  0.00065838  0.00463615  0.25443653  1
  Ta  Ta94  1  0.08246595  0.49409355  0.61434528  1
  Ta  Ta95  1  0.02544447  0.59501890  -0.00560239  1
  Ta  Ta96  1  0.90194177  0.30601911  0.39295787  1
  Ta  Ta97  1  0.50273437  0.89364524  0.62468061  1
  Ta  Ta98  1  0.79069652  0.60413226  0.26222109  1
  Ta  Ta99  1  0.48496657  0.51091910  0.12359826  1
  Ta  Ta100  1  0.70265836  0.11598072  0.85661537  1
  Ta  Ta101  1  0.60315688  0.80611675  0.23765963  1
  Ta  Ta102  1  0.80146083  0.00380329  0.75888287  1
  Ta  Ta103  1  0.90438254  0.89966891  0.88664273  1
  Ta  Ta104  1  0.48518014  0.31646224  0.38773062  1
  Ta  Ta105  1  0.79683811  0.80335139  -0.01203632  1
  Ta  Ta106  1  0.19689063  0.19693364  0.48557441  1
  Ta  Ta107  1  0.11046109  0.68929447  0.87468247  1
  Ta  Ta108  1  0.00226358  0.00262541  -0.00485660  1
  Ta  Ta109  1  0.59589827  0.79119684  0.76062075  1
  Ta  Ta110  1  0.29864314  0.29414217  0.61585439  1
  Ta  Ta111  1  0.49392028  0.30165426  0.85552131  1
  Ta  Ta112  1  0.30040177  0.09366181  0.61024566  1
  Ta  Ta113  1  0.38644165  0.58145286  -0.01656821  1
  Ta  Ta114  1  0.30101825  0.69215938  0.35995001  1
  Ta  Ta115  1  0.49393188  0.30356562  0.13683730  1
  Ta  Ta116  1  0.50662125  0.49847468  0.39144361  1
  Ta  Ta117  1  0.29269000  0.68301207  0.86539653  1
  Ta  Ta118  1  0.90247361  0.90422334  0.10778076  1
  Ta  Ta119  1  0.79266997  0.60341672  0.48924241  1
  Ti  Ti120  1  0.58768828  0.41261561  0.25620205  1
  Ti  Ti121  1  0.20031802  0.19906494  0.73806303  1
  Ti  Ti122  1  0.00016826  0.79168483  -0.00552144  1
  Ti  Ti123  1  0.10388573  0.09479557  0.12948873  1
  Ti  Ti124  1  0.69268626  0.70345548  0.63397452  1
  Ti  Ti125  1  0.21151340  0.38740190  0.25599243  1
  Ti  Ti126  1  -0.01237817  0.80871896  0.24683397  1
  Ti  Ti127  1  0.90054265  0.10022543  0.38706739  1
  Ti  Ti128  1  0.49665082  0.10872935  0.13094766  1
  Ti  Ti129  1  0.49271964  0.08943227  0.60857028  1
  Ti  Ti130  1  0.30300827  0.89848267  0.62377460  1
  Ti  Ti131  1  0.59403107  0.19608160  0.73731944  1
  Ti  Ti132  1  0.00399595  0.40161760  0.75151515  1
  Ti  Ti133  1  0.80552228  0.19768503  0.73372452  1
  Ti  Ti134  1  0.89866596  0.90524414  0.37978950  1
  Ti  Ti135  1  0.30046440  0.89733593  0.14490490  1
  Ti  Ti136  1  0.78934428  0.40149816  -0.00855756  1
  Ti  Ti137  1  0.10578925  0.30168726  0.87419893  1
  Ti  Ti138  1  0.09468256  0.29716604  0.61554189  1
  Ti  Ti139  1  0.90233865  0.09776412  0.12129753  1
  Ti  Ti140  1  0.09587343  0.49730507  0.38326033  1
  Ti  Ti141  1  0.49710797  0.31531941  0.62146354  1
  Ti  Ti142  1  0.80096738  0.00644863  0.51053592  1
  Ti  Ti143  1  0.00400467  0.20606169  0.75030942  1
  Ti  Ti144  1  0.19842993  0.78563318  0.73430776  1
  Ti  Ti145  1  0.69154087  0.70015931  0.12119956  1
  Ti  Ti146  1  0.70265996  0.90594631  0.11328650  1
  Ti  Ti147  1  0.59827375  0.60731530  0.49723631  1
  Ti  Ti148  1  0.90524227  0.90407463  0.62717873  1
  Ti  Ti149  1  0.39983266  -0.00254545  0.73629721  1
  Ti  Ti150  1  0.20136044  0.78728474  0.51170793  1
  Ti  Ti151  1  0.00248297  -0.00250092  0.48555514  1
  Ti  Ti152  1  0.41016363  -0.00128398  0.25242503  1
  Ti  Ti153  1  0.49433808  0.09476953  0.38823587  1
  Ti  Ti154  1  0.20660929  0.00030616  0.74178984  1
  Ti  Ti155  1  0.50853809  0.88757968  0.38866116  1
  Ti  Ti156  1  0.90083743  0.50546840  0.37616920  1
  Ti  Ti157  1  0.40101769  0.01124925  0.00294501  1
  Ti  Ti158  1  0.40499398  0.19830649  0.00296844  1
  Ti  Ti159  1  0.57661286  0.42500847  0.75545314  1
  Mo  Mo160  1  0.49682045  0.10945726  0.87251103  1
  Mo  Mo161  1  0.29813610  0.49171988  0.62919676  1
  Mo  Mo162  1  0.39982587  0.39850176  0.51993609  1
  Mo  Mo163  1  0.69449653  0.50232371  0.86198120  1
  Mo  Mo164  1  0.21242397  0.78801884  0.23712449  1
  Mo  Mo165  1  0.70349615  0.10536457  0.63540013  1
  Mo  Mo166  1  0.59680179  0.41003501  0.50227562  1
  Mo  Mo167  1  0.69926855  0.90638107  0.86411093  1
  Mo  Mo168  1  0.49745317  0.70495023  0.39294794  1
  Mo  Mo169  1  0.51833219  0.69471694  0.62051334  1
  Mo  Mo170  1  0.10492084  0.50380371  0.85862730  1
  Mo  Mo171  1  0.40531856  0.39538903  0.24380859  1
  Mo  Mo172  1  0.30590145  0.28988641  0.13495683  1
  Mo  Mo173  1  0.20495721  -0.00184718  0.24106993  1
  Mo  Mo174  1  0.89980656  0.50677146  0.62104504  1
  Mo  Mo175  1  0.09607163  0.09123165  0.37956766  1
  Mo  Mo176  1  0.09490175  0.69929949  0.61374062  1
  Mo  Mo177  1  0.20339953  0.59440764  0.00360990  1
  Mo  Mo178  1  0.69577378  0.70162462  0.86852909  1
  Mo  Mo179  1  0.69496878  0.51320409  0.37407306  1
  Mo  Mo180  1  0.50738213  0.49745953  0.61028430  1
  Mo  Mo181  1  0.40446233  -0.00694965  0.50392107  1
  Mo  Mo182  1  0.50745257  0.68550084  0.10410753  1
  Mo  Mo183  1  0.30364212  0.29389461  0.38639144  1
  Mo  Mo184  1  0.58577055  0.60105175  -0.01390142  1
  Mo  Mo185  1  0.60017369  0.79843023  0.51946693  1
  Mo  Mo186  1  0.10100192  0.30164845  0.37343559  1
  Mo  Mo187  1  0.59661170  0.60718303  0.76983161  1
  Mo  Mo188  1  0.29671703  0.69823598  0.63654938  1
  Mo  Mo189  1  0.40575206  0.58920882  0.26565847  1
  Mo  Mo190  1  0.29575980  0.50092223  0.85457432  1
  Mo  Mo191  1  0.30121415  0.48572782  0.14632886  1
  Mo  Mo192  1  0.49117110  0.49354748  0.88327560  1
  Mo  Mo193  1  -0.00409106  0.59332737  0.26971144  1
  Mo  Mo194  1  0.90023302  0.10442801  0.86477994  1
  Mo  Mo195  1  0.39869898  0.39717877  0.73188665  1
  Mo  Mo196  1  0.00047036  0.40236771  0.49048290  1
  Mo  Mo197  1  0.49384545  0.69355127  0.88644672  1
  Mo  Mo198  1  0.10633010  0.49824598  0.14146500  1
  Mo  Mo199  1  0.90743659  0.70165356  0.88985757  1
