# generated using pymatgen
data_HfZrTaTiMo
_symmetry_space_group_name_H-M   'P 1'
_cell_length_a   15.83597877
_cell_length_b   15.84130333
_cell_length_c   15.38496496
_cell_angle_alpha   90.04499549
_cell_angle_beta   89.99891112
_cell_angle_gamma   89.86047964
_symmetry_Int_Tables_number   1
_chemical_formula_structural   HfZrTaTiMo
_chemical_formula_sum   'Hf40 Zr40 Ta40 Ti40 Mo40'
_cell_volume   3859.49880447
_cell_formula_units_Z   40
loop_
 _symmetry_equiv_pos_site_id
 _symmetry_equiv_pos_as_xyz
  1  'x, y, z'
loop_
 _atom_site_type_symbol
 _atom_site_label
 _atom_site_symmetry_multiplicity
 _atom_site_fract_x
 _atom_site_fract_y
 _atom_site_fract_z
 _atom_site_occupancy
  Hf  Hf0  1  0.90115398  0.49521612  0.11489663  1
  Hf  Hf1  1  0.79244728  0.60447446  -0.00111505  1
  Hf  Hf2  1  0.69557714  0.48266925  0.88006942  1
  Hf  Hf3  1  0.70803964  0.10476593  0.14499898  1
  Hf  Hf4  1  0.67834633  0.91253731  0.62147569  1
  Hf  Hf5  1  0.81499175  -0.00192500  0.73910369  1
  Hf  Hf6  1  0.50714233  0.09694411  0.13585454  1
  Hf  Hf7  1  0.39358846  0.21064389  0.74633675  1
  Hf  Hf8  1  0.39861970  0.60018072  -0.00950863  1
  Hf  Hf9  1  0.60287503  0.38886619  0.23493512  1
  Hf  Hf10  1  0.79655395  0.20803286  0.50764490  1
  Hf  Hf11  1  0.10277544  0.89998652  0.37054972  1
  Hf  Hf12  1  0.09921605  0.10316159  0.36523034  1
  Hf  Hf13  1  0.19835216  0.21158864  0.23741420  1
  Hf  Hf14  1  0.89804871  0.69556524  0.38515004  1
  Hf  Hf15  1  0.00473634  0.59557497  0.24460117  1
  Hf  Hf16  1  0.70270662  0.90243534  0.86139877  1
  Hf  Hf17  1  0.00572625  0.59702167  0.49663012  1
  Hf  Hf18  1  0.01043540  0.00193528  0.76557943  1
  Hf  Hf19  1  0.59976621  0.59138976  0.25609146  1
  Hf  Hf20  1  0.60070820  0.00048015  -0.00747554  1
  Hf  Hf21  1  0.00509681  0.40140850  0.49601877  1
  Hf  Hf22  1  -0.00029377  0.19706045  0.75916684  1
  Hf  Hf23  1  0.70924100  0.29550621  0.87241423  1
  Hf  Hf24  1  0.30931871  0.30635529  0.37288309  1
  Hf  Hf25  1  0.11394100  0.51200415  0.64622935  1
  Hf  Hf26  1  0.58997254  0.57987111  0.50739722  1
  Hf  Hf27  1  0.59566475  0.79232412  0.74693717  1
  Hf  Hf28  1  0.31032736  0.10235361  0.36784088  1
  Hf  Hf29  1  0.38475104  0.79904678  0.50873017  1
  Hf  Hf30  1  0.90367212  0.49846374  0.88341116  1
  Hf  Hf31  1  0.47714196  0.68578112  0.38500282  1
  Hf  Hf32  1  0.60337062  0.20070592  0.00319861  1
  Hf  Hf33  1  0.30898238  0.50806490  0.36315432  1
  Hf  Hf34  1  0.80083033  0.79959138  0.50972537  1
  Hf  Hf35  1  0.59433557  0.60170210  0.75569669  1
  Hf  Hf36  1  0.00263377  0.79219926  0.24763684  1
  Hf  Hf37  1  0.79208454  0.60376077  0.75285266  1
  Hf  Hf38  1  0.79687215  0.39974017  0.50642208  1
  Hf  Hf39  1  0.89827788  0.50970506  0.62691033  1
  Zr  Zr40  1  0.20257888  0.81370902  0.00872893  1
  Zr  Zr41  1  0.90333926  0.09903292  0.14172721  1
  Zr  Zr42  1  -0.00002679  0.39705354  0.75602288  1
  Zr  Zr43  1  0.50379184  0.69911030  0.11973550  1
  Zr  Zr44  1  0.89907772  0.10853205  0.36756805  1
  Zr  Zr45  1  0.89659160  0.70261570  0.88314871  1
  Zr  Zr46  1  0.80585644  0.79692161  0.73079943  1
  Zr  Zr47  1  0.49532015  0.48425733  0.37755197  1
  Zr  Zr48  1  0.80297343  0.00472313  -0.00147606  1
  Zr  Zr49  1  0.29680045  0.70172985  0.87601457  1
  Zr  Zr50  1  0.09436823  0.69027739  0.89192310  1
  Zr  Zr51  1  -0.00787258  0.80973118  0.00823222  1
  Zr  Zr52  1  0.40730669  0.20059221  0.52145765  1
  Zr  Zr53  1  0.69667099  0.68611622  0.39776195  1
  Zr  Zr54  1  0.50785257  0.50124616  0.11171022  1
  Zr  Zr55  1  0.79058688  0.80767113  0.00679595  1
  Zr  Zr56  1  0.28534039  0.68562497  0.63574287  1
  Zr  Zr57  1  0.09503943  0.91623398  0.13496358  1
  Zr  Zr58  1  0.19716095  0.19449590  0.76445759  1
  Zr  Zr59  1  0.21425880  -0.00170192  0.48951238  1
  Zr  Zr60  1  0.39867265  0.39724737  -0.00336334  1
  Zr  Zr61  1  0.50569335  0.89560558  0.12740456  1
  Zr  Zr62  1  0.10401259  0.29346762  0.62517393  1
  Zr  Zr63  1  0.59865637  0.79397306  0.26856582  1
  Zr  Zr64  1  0.19334987  0.59200620  0.23969277  1
  Zr  Zr65  1  0.01776473  0.39976601  0.24202309  1
  Zr  Zr66  1  0.79113756  0.79824070  0.25528942  1
  Zr  Zr67  1  0.50026435  0.10153290  0.36885688  1
  Zr  Zr68  1  0.79187877  0.59722345  0.23855913  1
  Zr  Zr69  1  0.10688655  0.91113539  0.61204692  1
  Zr  Zr70  1  0.39870918  0.19549162  0.00368463  1
  Zr  Zr71  1  0.51042087  0.30717868  0.86484541  1
  Zr  Zr72  1  0.79543547  0.00651570  0.49885085  1
  Zr  Zr73  1  -0.00197254  0.19846316  0.00302867  1
  Zr  Zr74  1  0.20661946  0.41042148  0.50460653  1
  Zr  Zr75  1  0.08540032  0.71342157  0.62081036  1
  Zr  Zr76  1  0.29354135  0.09567529  0.62910640  1
  Zr  Zr77  1  0.48774306  0.90820190  0.86511706  1
  Zr  Zr78  1  0.50471081  0.29291204  0.37568243  1
  Zr  Zr79  1  0.18957131  0.80931069  0.76397905  1
  Ta  Ta80  1  0.69961247  0.10180381  0.63503795  1
  Ta  Ta81  1  0.41267991  -0.01068150  0.51176605  1
  Ta  Ta82  1  0.69645712  0.90425285  0.13318176  1
  Ta  Ta83  1  0.00027161  0.00073068  -0.01373845  1
  Ta  Ta84  1  0.89980892  0.30509695  0.36817074  1
  Ta  Ta85  1  -0.00712049  0.81467893  0.76350217  1
  Ta  Ta86  1  0.21592900  0.38916280  0.75546103  1
  Ta  Ta87  1  0.50205108  0.10031228  0.86054855  1
  Ta  Ta88  1  0.28295049  0.31532639  0.11511263  1
  Ta  Ta89  1  0.19960539  -0.00007403  0.77362014  1
  Ta  Ta90  1  0.00520658  0.39667602  0.00242708  1
  Ta  Ta91  1  0.39972296  0.79902912  0.74565450  1
  Ta  Ta92  1  0.89023929  0.10860576  0.87559059  1
  Ta  Ta93  1  0.89548710  0.91059771  0.14825746  1
  Ta  Ta94  1  0.69224896  0.11306228  0.36904244  1
  Ta  Ta95  1  0.39218568  0.79310419  0.24225164  1
  Ta  Ta96  1  0.60384917  -0.00553924  0.26458424  1
  Ta  Ta97  1  0.70031129  0.29642278  0.36806633  1
  Ta  Ta98  1  0.92534822  0.89961044  0.60191759  1
  Ta  Ta99  1  0.89546232  0.49786790  0.37389308  1
  Ta  Ta100  1  0.29695580  0.49997255  0.86229655  1
  Ta  Ta101  1  0.20018936  0.79334281  0.23850143  1
  Ta  Ta102  1  0.30384453  0.89522696  0.35957132  1
  Ta  Ta103  1  0.70067614  0.10582672  0.85664767  1
  Ta  Ta104  1  0.39651862  0.80723353  0.00140223  1
  Ta  Ta105  1  0.49028981  0.69260137  0.61769593  1
  Ta  Ta106  1  0.58226581  0.80592027  0.50521750  1
  Ta  Ta107  1  0.69387371  0.69028147  0.61141215  1
  Ta  Ta108  1  0.20305846  0.20542514  0.49518235  1
  Ta  Ta109  1  0.20376477  0.19542049  0.00068782  1
  Ta  Ta110  1  0.48948449  0.89952555  0.37265874  1
  Ta  Ta111  1  0.29802499  0.69309971  0.11933763  1
  Ta  Ta112  1  0.39741423  0.20853763  0.22499724  1
  Ta  Ta113  1  0.39635176  0.40095315  0.22767198  1
  Ta  Ta114  1  0.91458588  0.09895888  0.61385744  1
  Ta  Ta115  1  0.10610527  0.30405661  0.88685084  1
  Ta  Ta116  1  0.38680274  -0.00261709  0.01231947  1
  Ta  Ta117  1  0.90670173  0.90269360  0.37791960  1
  Ta  Ta118  1  0.80114640  0.39811137  0.24576350  1
  Ta  Ta119  1  0.10381048  0.50183300  0.88011153  1
  Ti  Ti120  1  0.00409034  0.21241642  0.24082909  1
  Ti  Ti121  1  0.59697283  0.79510985  -0.02024246  1
  Ti  Ti122  1  0.89935420  0.70035633  0.12163121  1
  Ti  Ti123  1  0.39518414  -0.00378916  0.23618859  1
  Ti  Ti124  1  0.51279696  0.07879669  0.63862974  1
  Ti  Ti125  1  0.79883294  0.39303759  0.73894412  1
  Ti  Ti126  1  0.29568253  0.69855974  0.36646073  1
  Ti  Ti127  1  0.20606968  0.59796188  0.49243561  1
  Ti  Ti128  1  0.70074248  0.48975990  0.10533497  1
  Ti  Ti129  1  0.20327715  0.00525464  -0.00527192  1
  Ti  Ti130  1  0.89187872  0.29694811  0.12196019  1
  Ti  Ti131  1  0.49026090  0.49671672  0.63939242  1
  Ti  Ti132  1  0.50581349  0.31066191  0.63650827  1
  Ti  Ti133  1  -0.00527666  0.61591277  0.74794066  1
  Ti  Ti134  1  0.89232068  0.30142488  0.88508424  1
  Ti  Ti135  1  0.60470994  0.19646724  0.51745825  1
  Ti  Ti136  1  0.50006730  0.49269284  0.86773588  1
  Ti  Ti137  1  0.10562315  0.69755743  0.37864362  1
  Ti  Ti138  1  0.90626053  0.29863352  0.62264813  1
  Ti  Ti139  1  0.10597006  0.30616000  0.37455636  1
  Ti  Ti140  1  0.09716435  0.09703180  0.61024218  1
  Ti  Ti141  1  0.70382023  0.48975194  0.38030142  1
  Ti  Ti142  1  0.20932676  0.00431745  0.24131913  1
  Ti  Ti143  1  0.80768594  0.20224148  0.73544891  1
  Ti  Ti144  1  0.30284309  0.90422736  0.64239640  1
  Ti  Ti145  1  0.60550129  0.38484213  0.51313436  1
  Ti  Ti146  1  0.31205153  0.09142129  0.87336499  1
  Ti  Ti147  1  0.69009660  0.90412351  0.39172148  1
  Ti  Ti148  1  0.69387401  0.49288661  0.63208992  1
  Ti  Ti149  1  0.20061407  0.79699745  0.49332510  1
  Ti  Ti150  1  0.59847772  0.60695507  -0.02306040  1
  Ti  Ti151  1  0.60313602  0.20329038  0.73999302  1
  Ti  Ti152  1  0.12265545  0.48684169  0.10138332  1
  Ti  Ti153  1  0.10065589  0.10082852  0.12624416  1
  Ti  Ti154  1  0.68799490  0.70348004  0.11754454  1
  Ti  Ti155  1  0.39660505  0.40556083  0.52341496  1
  Ti  Ti156  1  0.79464053  -0.00450339  0.26891504  1
  Ti  Ti157  1  0.70940995  0.29710963  0.11723019  1
  Ti  Ti158  1  0.00328895  0.20366608  0.49311339  1
  Ti  Ti159  1  0.40015714  0.60165175  0.75703239  1
  Mo  Mo160  1  0.60260213  0.20225668  0.23810713  1
  Mo  Mo161  1  0.20179287  0.39909012  0.25367479  1
  Mo  Mo162  1  0.79860695  0.19819603  -0.00416881  1
  Mo  Mo163  1  0.60256977  0.00558576  0.75966015  1
  Mo  Mo164  1  0.00503278  0.59640613  0.02017064  1
  Mo  Mo165  1  0.20469452  0.59339866  0.00498988  1
  Mo  Mo166  1  0.00161278  0.00293781  0.26136722  1
  Mo  Mo167  1  0.80020931  0.21429605  0.25713359  1
  Mo  Mo168  1  0.38832558  0.58905088  0.51710945  1
  Mo  Mo169  1  0.19324963  0.59823341  0.76523082  1
  Mo  Mo170  1  0.60373289  0.39602909  0.01000139  1
  Mo  Mo171  1  0.00408983  0.79898845  0.47945941  1
  Mo  Mo172  1  0.39864536  0.00334942  0.73925134  1
  Mo  Mo173  1  0.49212451  0.89681720  0.63135329  1
  Mo  Mo174  1  0.30195065  0.50089906  0.12728293  1
  Mo  Mo175  1  0.20592147  0.40065926  -0.02038686  1
  Mo  Mo176  1  0.69349067  0.70048092  0.87790933  1
  Mo  Mo177  1  0.40017234  0.40287800  0.74779168  1
  Mo  Mo178  1  0.30552041  0.49968549  0.64667897  1
  Mo  Mo179  1  0.59363574  0.00514338  0.48687601  1
  Mo  Mo180  1  0.10240065  0.50246292  0.37717015  1
  Mo  Mo181  1  0.70074288  0.29805190  0.63998029  1
  Mo  Mo182  1  0.10049628  0.30127080  0.10725351  1
  Mo  Mo183  1  0.30310461  0.30210613  0.61634415  1
  Mo  Mo184  1  0.89933382  0.70472889  0.61898087  1
  Mo  Mo185  1  0.49472609  0.70329741  0.87669459  1
  Mo  Mo186  1  0.80407686  0.39171299  0.00717359  1
  Mo  Mo187  1  0.60311228  0.40267457  0.73791249  1
  Mo  Mo188  1  0.29523018  0.09875340  0.12683808  1
  Mo  Mo189  1  0.50101721  0.29775363  0.12323419  1
  Mo  Mo190  1  0.89898732  0.90674172  0.87115281  1
  Mo  Mo191  1  0.10223236  0.10189595  0.89231350  1
  Mo  Mo192  1  0.00238146  0.00774041  0.48458371  1
  Mo  Mo193  1  0.30063188  0.29752515  0.88652739  1
  Mo  Mo194  1  0.30330859  0.90830450  0.87209414  1
  Mo  Mo195  1  0.39661335  0.60256174  0.23422369  1
  Mo  Mo196  1  0.79679825  0.58990275  0.51066700  1
  Mo  Mo197  1  0.29984936  0.89890849  0.13957470  1
  Mo  Mo198  1  0.09802763  0.69372774  0.11296859  1
  Mo  Mo199  1  0.10060672  0.90273364  0.89051800  1
