# generated using pymatgen
data_HfZrTaTiMo
_symmetry_space_group_name_H-M   'P 1'
_cell_length_a   15.84798518
_cell_length_b   15.83758658
_cell_length_c   15.43304377
_cell_angle_alpha   89.96471598
_cell_angle_beta   90.01293329
_cell_angle_gamma   89.83858378
_symmetry_Int_Tables_number   1
_chemical_formula_structural   HfZrTaTiMo
_chemical_formula_sum   'Hf40 Zr40 Ta40 Ti40 Mo40'
_cell_volume   3873.58267033
_cell_formula_units_Z   40
loop_
 _symmetry_equiv_pos_site_id
 _symmetry_equiv_pos_as_xyz
  1  'x, y, z'
loop_
 _atom_site_type_symbol
 _atom_site_label
 _atom_site_symmetry_multiplicity
 _atom_site_fract_x
 _atom_site_fract_y
 _atom_site_fract_z
 _atom_site_occupancy
  Hf  Hf0  1  0.38081625  0.38508222  0.73436986  1
  Hf  Hf1  1  0.89818778  0.29964113  0.61573886  1
  Hf  Hf2  1  0.60312331  0.80526657  0.74075482  1
  Hf  Hf3  1  0.11849462  0.09733165  0.63647130  1
  Hf  Hf4  1  0.59987961  0.79848077  0.49659710  1
  Hf  Hf5  1  0.16600068  0.80447921  0.49583139  1
  Hf  Hf6  1  0.89795198  0.48380131  0.10644785  1
  Hf  Hf7  1  0.79444669  0.39300209  0.25280750  1
  Hf  Hf8  1  0.02045159  0.20409442  0.51036461  1
  Hf  Hf9  1  0.10797991  0.70049144  0.12797332  1
  Hf  Hf10  1  0.29680443  0.51197735  0.12489437  1
  Hf  Hf11  1  0.39636667  0.80091023  0.26996727  1
  Hf  Hf12  1  0.79022750  0.40672425  0.48566933  1
  Hf  Hf13  1  0.19803022  0.80438382  0.26188451  1
  Hf  Hf14  1  0.89466288  0.50867836  0.62184963  1
  Hf  Hf15  1  -0.01631790  0.02045527  -0.00961966  1
  Hf  Hf16  1  0.29585053  0.90312324  0.88329482  1
  Hf  Hf17  1  0.60311600  0.19881129  0.74913519  1
  Hf  Hf18  1  0.29881219  0.47815876  0.87417146  1
  Hf  Hf19  1  0.18379874  -0.00785888  0.00988863  1
  Hf  Hf20  1  0.79653017  0.39557692  0.75952845  1
  Hf  Hf21  1  0.80058854  0.19262784  0.75380488  1
  Hf  Hf22  1  0.71020939  0.71808039  0.86870913  1
  Hf  Hf23  1  0.29658657  0.10198989  0.12126200  1
  Hf  Hf24  1  0.09675021  0.90606550  0.65197112  1
  Hf  Hf25  1  0.70268145  0.30109839  0.89183066  1
  Hf  Hf26  1  0.49402036  0.10581319  0.88113498  1
  Hf  Hf27  1  0.30104275  0.10813597  0.38074031  1
  Hf  Hf28  1  0.59727512  0.80353909  0.24957724  1
  Hf  Hf29  1  0.79921119  0.59309846  0.23275857  1
  Hf  Hf30  1  0.61301181  -0.00689123  0.00130176  1
  Hf  Hf31  1  -0.00148103  0.39551628  0.74570718  1
  Hf  Hf32  1  0.89795544  0.49353559  0.88432376  1
  Hf  Hf33  1  0.00824545  0.80578750  0.00016217  1
  Hf  Hf34  1  0.88914106  0.92322927  0.12305702  1
  Hf  Hf35  1  0.70146037  0.68806729  0.36657912  1
  Hf  Hf36  1  0.08578917  0.11537574  0.12931270  1
  Hf  Hf37  1  0.30707947  0.71016361  0.60926680  1
  Hf  Hf38  1  0.10731952  0.09866284  0.37204977  1
  Hf  Hf39  1  0.79819071  0.80385000  0.23923262  1
  Zr  Zr40  1  0.48921750  0.30374663  0.87507239  1
  Zr  Zr41  1  0.68375541  0.50796190  0.88347699  1
  Zr  Zr42  1  0.39172102  0.60234353  0.27077349  1
  Zr  Zr43  1  0.50217976  0.49620138  0.62001602  1
  Zr  Zr44  1  0.48798540  0.89875141  0.61859047  1
  Zr  Zr45  1  0.90401184  0.29510978  0.38566709  1
  Zr  Zr46  1  0.69380332  0.30339815  0.62142892  1
  Zr  Zr47  1  0.49128026  0.69405075  0.13373746  1
  Zr  Zr48  1  0.90850991  0.89289785  0.62369533  1
  Zr  Zr49  1  0.40424480  -0.00206289  0.25605461  1
  Zr  Zr50  1  0.50334819  0.30277822  0.36459909  1
  Zr  Zr51  1  0.70916036  0.30369725  0.11191196  1
  Zr  Zr52  1  0.81142875  0.77951619  0.49256916  1
  Zr  Zr53  1  0.79175794  -0.00095896  0.76242796  1
  Zr  Zr54  1  0.19862216  0.40006451  0.01000039  1
  Zr  Zr55  1  0.69693848  0.50353657  0.62843109  1
  Zr  Zr56  1  0.20942124  0.59647209  0.74409251  1
  Zr  Zr57  1  0.39157601  0.39830545  0.25297569  1
  Zr  Zr58  1  0.41336815  0.58774692  -0.01608915  1
  Zr  Zr59  1  0.29150621  0.90574116  0.62051194  1
  Zr  Zr60  1  0.11073863  0.10278535  0.86455024  1
  Zr  Zr61  1  0.00561553  0.60539259  -0.01177855  1
  Zr  Zr62  1  -0.00721185  0.61921578  0.49967523  1
  Zr  Zr63  1  0.50213447  0.09884725  0.12676888  1
  Zr  Zr64  1  0.29710153  0.70216195  0.11127506  1
  Zr  Zr65  1  0.29029925  0.49468513  0.39536210  1
  Zr  Zr66  1  0.79542252  0.61492068  0.00803871  1
  Zr  Zr67  1  0.28941975  0.90933531  0.39563030  1
  Zr  Zr68  1  0.80326568  0.18360666  0.24629828  1
  Zr  Zr69  1  0.70831019  0.90316064  0.60948907  1
  Zr  Zr70  1  0.09127177  0.50427368  0.37629490  1
  Zr  Zr71  1  0.38684919  0.01471568  0.75650824  1
  Zr  Zr72  1  -0.00992582  0.40467392  0.25113290  1
  Zr  Zr73  1  0.88035032  0.88891512  0.88390639  1
  Zr  Zr74  1  0.30070955  0.88928283  0.11201208  1
  Zr  Zr75  1  0.90812523  0.08724461  0.62015137  1
  Zr  Zr76  1  0.60240744  0.00594611  0.75251498  1
  Zr  Zr77  1  0.40273977  0.59310634  0.74835575  1
  Zr  Zr78  1  0.59992002  0.79536616  0.01290558  1
  Zr  Zr79  1  0.91170656  0.89331877  0.37783069  1
  Ta  Ta80  1  0.01154987  0.38852978  -0.00660517  1
  Ta  Ta81  1  0.90804655  0.09730726  0.38263889  1
  Ta  Ta82  1  -0.00431699  0.00681710  0.24903832  1
  Ta  Ta83  1  0.81543821  0.17825567  -0.00272424  1
  Ta  Ta84  1  0.09023978  0.70354357  0.64459369  1
  Ta  Ta85  1  0.50100241  0.89476901  0.87514484  1
  Ta  Ta86  1  0.10115684  0.49632843  0.85767879  1
  Ta  Ta87  1  -0.00623328  0.79265225  0.77119228  1
  Ta  Ta88  1  0.20516580  0.20833464  0.25046342  1
  Ta  Ta89  1  0.80304921  0.60170428  0.76448928  1
  Ta  Ta90  1  0.50485017  0.69692260  0.62292124  1
  Ta  Ta91  1  0.00423063  0.20091732  0.74890305  1
  Ta  Ta92  1  0.50707153  0.49469624  0.14317991  1
  Ta  Ta93  1  0.89764007  0.69831884  0.64576117  1
  Ta  Ta94  1  0.19862060  0.60640748  -0.02331947  1
  Ta  Ta95  1  0.19822106  0.40275508  0.24580395  1
  Ta  Ta96  1  0.60001271  0.19731045  0.50073406  1
  Ta  Ta97  1  0.70663519  0.69135776  0.62841542  1
  Ta  Ta98  1  0.10639422  0.30228523  0.36776034  1
  Ta  Ta99  1  0.39961852  0.79340218  0.76186430  1
  Ta  Ta100  1  0.23438705  0.20126689  0.75915273  1
  Ta  Ta101  1  0.60349746  0.01043296  0.48924253  1
  Ta  Ta102  1  0.61838871  0.00905325  0.25369925  1
  Ta  Ta103  1  0.09518331  0.30160364  0.13780150  1
  Ta  Ta104  1  0.40675937  0.20546582  0.50079751  1
  Ta  Ta105  1  0.20554365  0.79389837  0.76384219  1
  Ta  Ta106  1  0.50569525  0.30249522  0.13183045  1
  Ta  Ta107  1  0.41032089  0.00687718  0.49261050  1
  Ta  Ta108  1  0.51503660  0.68980108  0.86220373  1
  Ta  Ta109  1  0.60348343  0.19538521  0.00685085  1
  Ta  Ta110  1  0.70538668  0.90475443  0.37322976  1
  Ta  Ta111  1  0.40209709  0.39573644  0.01342988  1
  Ta  Ta112  1  0.09733798  0.50704145  0.13166734  1
  Ta  Ta113  1  0.30206655  0.10175869  0.60610584  1
  Ta  Ta114  1  0.49945237  0.10343555  0.62069396  1
  Ta  Ta115  1  0.19036778  0.60289342  0.51256829  1
  Ta  Ta116  1  0.09686653  0.50149430  0.63212561  1
  Ta  Ta117  1  0.11545344  0.30478074  0.85784958  1
  Ta  Ta118  1  0.39811754  0.20258804  0.24724983  1
  Ta  Ta119  1  0.09705375  0.90422765  0.86403571  1
  Ti  Ti120  1  0.60889926  0.19722849  0.23862453  1
  Ti  Ti121  1  0.59919057  0.60422669  0.01458173  1
  Ti  Ti122  1  0.58590894  0.40589211  0.00005568  1
  Ti  Ti123  1  0.50698144  0.50083060  0.36979559  1
  Ti  Ti124  1  0.39823257  0.39800100  0.50521406  1
  Ti  Ti125  1  0.40329827  0.59641704  0.50055232  1
  Ti  Ti126  1  0.40238283  -0.00059362  -0.00115076  1
  Ti  Ti127  1  0.19346557  -0.00405334  0.23778587  1
  Ti  Ti128  1  0.59068498  0.40524904  0.75826420  1
  Ti  Ti129  1  0.49869255  0.29687153  0.62455625  1
  Ti  Ti130  1  0.40283037  0.78854704  -0.02127344  1
  Ti  Ti131  1  0.89220088  0.51477187  0.37880801  1
  Ti  Ti132  1  0.79243559  0.19149039  0.49959875  1
  Ti  Ti133  1  0.69318973  0.29167511  0.37169680  1
  Ti  Ti134  1  0.29578661  0.70212015  0.39955639  1
  Ti  Ti135  1  0.79861165  0.00573313  0.48798866  1
  Ti  Ti136  1  0.59465219  0.39632583  0.49125265  1
  Ti  Ti137  1  0.69239746  0.49364401  0.11940427  1
  Ti  Ti138  1  0.28902624  0.28956479  0.60783728  1
  Ti  Ti139  1  0.39803975  0.20712750  0.00979278  1
  Ti  Ti140  1  0.19674978  0.60246967  0.26470068  1
  Ti  Ti141  1  0.00363333  0.40412589  0.50454381  1
  Ti  Ti142  1  0.91392030  0.28266359  0.11239358  1
  Ti  Ti143  1  0.50546910  0.90511383  0.38022655  1
  Ti  Ti144  1  0.90518267  0.69536102  0.35181036  1
  Ti  Ti145  1  0.02385309  -0.01693013  0.49055678  1
  Ti  Ti146  1  0.29362557  0.30026344  0.38531778  1
  Ti  Ti147  1  0.00362362  0.81071347  0.23293719  1
  Ti  Ti148  1  0.60708269  0.59634209  0.49848854  1
  Ti  Ti149  1  0.90899058  0.28973016  0.88499953  1
  Ti  Ti150  1  0.50285036  0.69251472  0.38315812  1
  Ti  Ti151  1  0.19698916  0.20785381  -0.00296390  1
  Ti  Ti152  1  0.78167322  0.81213941  0.02597698  1
  Ti  Ti153  1  0.29757549  0.29948375  0.12641357  1
  Ti  Ti154  1  0.18564844  0.39317374  0.51705404  1
  Ti  Ti155  1  0.90750276  0.70067335  0.12772028  1
  Ti  Ti156  1  0.50667956  0.10782898  0.36789511  1
  Ti  Ti157  1  0.68583960  0.49885719  0.36280733  1
  Ti  Ti158  1  0.08318353  0.70463418  0.36197869  1
  Ti  Ti159  1  0.49733108  0.90159732  0.12542176  1
  Mo  Mo160  1  0.40205337  0.20078964  0.72936198  1
  Mo  Mo161  1  0.30604709  0.69899088  0.87923677  1
  Mo  Mo162  1  0.49963871  0.49421408  0.86611520  1
  Mo  Mo163  1  0.70175188  0.10602326  0.38633719  1
  Mo  Mo164  1  0.60646616  0.39894055  0.25078271  1
  Mo  Mo165  1  0.69964588  0.10423963  0.89120451  1
  Mo  Mo166  1  0.60275953  0.60455053  0.74374332  1
  Mo  Mo167  1  0.29524376  0.49662138  0.60214285  1
  Mo  Mo168  1  0.79226481  0.00343074  -0.00971366  1
  Mo  Mo169  1  0.79553492  0.59601874  0.48815346  1
  Mo  Mo170  1  -0.00072087  0.59747543  0.75749889  1
  Mo  Mo171  1  0.09462277  0.90442903  0.13348088  1
  Mo  Mo172  1  0.89889135  0.69739380  0.86873325  1
  Mo  Mo173  1  0.90394271  0.10212116  0.85847817  1
  Mo  Mo174  1  0.20702528  0.00210343  0.76264110  1
  Mo  Mo175  1  0.00237452  0.20299122  0.26369102  1
  Mo  Mo176  1  0.80205009  0.00236152  0.27107346  1
  Mo  Mo177  1  0.80588864  0.39036907  -0.00397109  1
  Mo  Mo178  1  0.00030644  0.79530216  0.50441138  1
  Mo  Mo179  1  0.30119168  0.29136774  0.88730560  1
  Mo  Mo180  1  0.09520366  0.90395125  0.35537433  1
  Mo  Mo181  1  0.79932515  0.79730182  0.74013250  1
  Mo  Mo182  1  0.69946145  0.10104761  0.60519264  1
  Mo  Mo183  1  0.19057965  0.79340360  -0.02078845  1
  Mo  Mo184  1  0.90142272  0.10653585  0.13320680  1
  Mo  Mo185  1  0.10793959  0.29575393  0.64195238  1
  Mo  Mo186  1  0.59963691  0.59498823  0.24494794  1
  Mo  Mo187  1  0.71079623  0.09339293  0.11500059  1
  Mo  Mo188  1  0.69703776  0.69654158  0.13896761  1
  Mo  Mo189  1  0.19784955  0.00518885  0.50214350  1
  Mo  Mo190  1  0.69792826  0.90748899  0.14558087  1
  Mo  Mo191  1  0.10310503  0.69979983  0.86221513  1
  Mo  Mo192  1  0.69113843  0.89811369  0.87539231  1
  Mo  Mo193  1  0.20049699  0.39288260  0.73175992  1
  Mo  Mo194  1  -0.00390348  0.60542030  0.24268162  1
  Mo  Mo195  1  0.30522231  0.10700357  0.90211899  1
  Mo  Mo196  1  -0.00401019  0.00122202  0.76534392  1
  Mo  Mo197  1  0.20364537  0.20767999  0.49167548  1
  Mo  Mo198  1  0.41048973  0.79566195  0.48608208  1
  Mo  Mo199  1  0.01107835  0.20899366  -0.01665470  1
