# generated using pymatgen
data_HfZrTaTiMo
_symmetry_space_group_name_H-M   'P 1'
_cell_length_a   15.84420835
_cell_length_b   15.84887959
_cell_length_c   15.37028475
_cell_angle_alpha   90.01572959
_cell_angle_beta   90.01090545
_cell_angle_gamma   90.10527415
_symmetry_Int_Tables_number   1
_chemical_formula_structural   HfZrTaTiMo
_chemical_formula_sum   'Hf40 Zr40 Ta40 Ti40 Mo40'
_cell_volume   3859.67082099
_cell_formula_units_Z   40
loop_
 _symmetry_equiv_pos_site_id
 _symmetry_equiv_pos_as_xyz
  1  'x, y, z'
loop_
 _atom_site_type_symbol
 _atom_site_label
 _atom_site_symmetry_multiplicity
 _atom_site_fract_x
 _atom_site_fract_y
 _atom_site_fract_z
 _atom_site_occupancy
  Hf  Hf0  1  0.59811103  0.39546690  0.48420252  1
  Hf  Hf1  1  0.60775872  0.40382607  0.25866961  1
  Hf  Hf2  1  0.10339292  0.70673326  0.12884980  1
  Hf  Hf3  1  0.10163301  0.49533143  0.37300221  1
  Hf  Hf4  1  0.49332282  0.90010840  0.88930587  1
  Hf  Hf5  1  0.80220001  0.59267752  0.25439236  1
  Hf  Hf6  1  0.70724711  0.88537089  0.37849144  1
  Hf  Hf7  1  0.08821915  0.09765366  0.09129611  1
  Hf  Hf8  1  0.69636904  0.89946235  0.61220593  1
  Hf  Hf9  1  0.20370480  0.40607850  -0.00351705  1
  Hf  Hf10  1  0.78816645  -0.00699717  -0.01160674  1
  Hf  Hf11  1  0.30165234  0.09993149  0.63554550  1
  Hf  Hf12  1  0.50061833  0.89748254  0.13555561  1
  Hf  Hf13  1  0.70637565  0.28591012  0.12828097  1
  Hf  Hf14  1  0.40823446  -0.00822236  0.74545753  1
  Hf  Hf15  1  -0.00506943  0.59932424  -0.00291562  1
  Hf  Hf16  1  0.79063730  0.60323317  0.00781880  1
  Hf  Hf17  1  0.50149603  0.29564040  0.13992274  1
  Hf  Hf18  1  0.50040187  0.30525148  0.86910569  1
  Hf  Hf19  1  0.60349294  0.40680069  0.01009530  1
  Hf  Hf20  1  0.90376222  0.70680496  0.13567969  1
  Hf  Hf21  1  0.40265771  0.60063960  0.73375007  1
  Hf  Hf22  1  0.20329688  0.60116890  -0.00851192  1
  Hf  Hf23  1  0.30601553  0.30557399  0.63599394  1
  Hf  Hf24  1  0.89504905  0.30089637  0.87106080  1
  Hf  Hf25  1  0.09088049  0.90143646  0.10344149  1
  Hf  Hf26  1  0.79507531  0.40474592  0.74214292  1
  Hf  Hf27  1  0.72069520  0.09116955  0.35608320  1
  Hf  Hf28  1  0.09218006  0.09737940  0.87498922  1
  Hf  Hf29  1  0.89758181  0.88889266  0.86574375  1
  Hf  Hf30  1  0.20972048  0.21221873  -0.01319369  1
  Hf  Hf31  1  0.20073695  0.20066872  0.76079286  1
  Hf  Hf32  1  0.89594186  0.70280158  0.86113417  1
  Hf  Hf33  1  0.39243292  0.40167602  0.02148818  1
  Hf  Hf34  1  0.92082020  0.11389942  0.37986555  1
  Hf  Hf35  1  0.60466936  0.61276330  0.48465745  1
  Hf  Hf36  1  0.19712340  0.60612875  0.75678866  1
  Hf  Hf37  1  0.31433300  0.09638168  0.87384338  1
  Hf  Hf38  1  0.49969570  0.29998567  0.62848430  1
  Hf  Hf39  1  0.40001541  0.00437792  0.50192811  1
  Zr  Zr40  1  0.17250001  0.18163869  0.25614401  1
  Zr  Zr41  1  0.19628420  0.41656567  0.75694146  1
  Zr  Zr42  1  0.28867606  0.29545720  0.36708682  1
  Zr  Zr43  1  0.90861396  0.67304438  0.64086102  1
  Zr  Zr44  1  0.30004937  0.90592309  0.37397376  1
  Zr  Zr45  1  0.10189288  0.50795113  0.13617093  1
  Zr  Zr46  1  -0.01210655  0.39254479  0.24167748  1
  Zr  Zr47  1  0.48536544  0.09612134  0.35818662  1
  Zr  Zr48  1  0.09671970  0.30016268  0.62773311  1
  Zr  Zr49  1  0.79571216  0.18817434  0.50956356  1
  Zr  Zr50  1  0.23163696  0.60531101  0.25674065  1
  Zr  Zr51  1  0.68742194  0.28961199  0.63227037  1
  Zr  Zr52  1  0.59768208  0.59725472  0.26723147  1
  Zr  Zr53  1  0.79941219  0.38981447  0.49815277  1
  Zr  Zr54  1  0.90318988  0.89225478  0.39173501  1
  Zr  Zr55  1  0.40575039  0.20322695  0.00816117  1
  Zr  Zr56  1  0.40276155  0.79631188  0.73907274  1
  Zr  Zr57  1  0.70816843  0.51433354  0.61463330  1
  Zr  Zr58  1  0.50526431  0.69118445  0.88478906  1
  Zr  Zr59  1  0.79949079  0.41098634  0.01101345  1
  Zr  Zr60  1  0.08153822  0.51867403  0.61401377  1
  Zr  Zr61  1  0.80397030  0.39271371  0.25623478  1
  Zr  Zr62  1  0.20898990  0.79679246  0.76215933  1
  Zr  Zr63  1  0.00459403  -0.00170875  0.52066651  1
  Zr  Zr64  1  0.01648504  0.00986827  0.25119828  1
  Zr  Zr65  1  0.89762674  0.10009789  0.11001605  1
  Zr  Zr66  1  0.39696654  0.20088959  0.49537235  1
  Zr  Zr67  1  0.09332063  0.28951096  0.11736976  1
  Zr  Zr68  1  0.06944226  0.28774088  0.39067920  1
  Zr  Zr69  1  0.70216999  0.90284574  0.14448461  1
  Zr  Zr70  1  0.60071826  0.80521441  0.75393105  1
  Zr  Zr71  1  0.39205461  0.42555797  0.25620332  1
  Zr  Zr72  1  0.20212768  0.40106209  0.50016860  1
  Zr  Zr73  1  0.61222924  0.80052822  -0.00156587  1
  Zr  Zr74  1  0.19203818  0.80289744  0.49713864  1
  Zr  Zr75  1  -0.00234008  0.40642956  -0.00080079  1
  Zr  Zr76  1  0.29181827  0.09535487  0.12464419  1
  Zr  Zr77  1  0.39825539  0.60321536  0.48296646  1
  Zr  Zr78  1  0.08848229  0.70813920  0.36103934  1
  Zr  Zr79  1  0.49835076  0.50346254  0.87794776  1
  Ta  Ta80  1  0.60525298  0.00843999  0.48712502  1
  Ta  Ta81  1  0.09103685  0.89285010  0.87216343  1
  Ta  Ta82  1  0.91066014  0.49748038  0.39603873  1
  Ta  Ta83  1  0.50305406  0.50024659  0.61525335  1
  Ta  Ta84  1  0.69614474  0.70617091  0.14838475  1
  Ta  Ta85  1  0.70957626  0.70776971  0.62163601  1
  Ta  Ta86  1  0.60168128  0.19539576  0.47847464  1
  Ta  Ta87  1  0.29311149  0.89538176  0.11816048  1
  Ta  Ta88  1  0.20269454  0.79641438  -0.01238041  1
  Ta  Ta89  1  -0.00342048  -0.00512577  0.74826472  1
  Ta  Ta90  1  0.79321232  0.19229354  0.75170768  1
  Ta  Ta91  1  0.51040959  0.09659694  0.13442801  1
  Ta  Ta92  1  0.19924535  0.81123644  0.24832695  1
  Ta  Ta93  1  0.50750246  0.90213060  0.60505548  1
  Ta  Ta94  1  0.90244280  0.29924766  0.62799526  1
  Ta  Ta95  1  0.50147154  0.70418429  0.13958517  1
  Ta  Ta96  1  0.40209168  0.79819564  0.50046217  1
  Ta  Ta97  1  0.80282334  0.79933156  0.01096283  1
  Ta  Ta98  1  0.89476805  0.50841785  0.85947202  1
  Ta  Ta99  1  0.10035468  0.89102994  0.64164490  1
  Ta  Ta100  1  0.31542128  0.31298068  0.85766608  1
  Ta  Ta101  1  0.19835092  0.60951203  0.49030406  1
  Ta  Ta102  1  0.20565213  -0.01007753  -0.02081787  1
  Ta  Ta103  1  0.29967709  0.89927839  0.61889589  1
  Ta  Ta104  1  0.60298715  0.00135255  0.75987413  1
  Ta  Ta105  1  0.60650302  0.19829131  0.26111780  1
  Ta  Ta106  1  0.50131147  0.89460773  0.37513968  1
  Ta  Ta107  1  0.40169577  0.40393143  0.48998395  1
  Ta  Ta108  1  0.60277793  0.00744283  -0.00310457  1
  Ta  Ta109  1  0.78957725  -0.00327328  0.74990361  1
  Ta  Ta110  1  0.70159862  0.09852776  0.13815012  1
  Ta  Ta111  1  0.39758233  0.60209208  0.02624850  1
  Ta  Ta112  1  0.59755627  0.41073832  0.74853670  1
  Ta  Ta113  1  0.49523446  0.29914110  0.36338480  1
  Ta  Ta114  1  0.69422248  0.30342543  0.87202088  1
  Ta  Ta115  1  0.51896670  0.10085413  0.62258575  1
  Ta  Ta116  1  -0.00667490  0.19863378  0.75069286  1
  Ta  Ta117  1  0.89553034  0.09561112  0.86968628  1
  Ta  Ta118  1  0.20413176  -0.01053982  0.75991875  1
  Ta  Ta119  1  0.19195753  0.18584402  0.50379391  1
  Ti  Ti120  1  0.89605395  0.88468501  0.63357196  1
  Ti  Ti121  1  0.20353601  0.39678510  0.24081497  1
  Ti  Ti122  1  0.60522248  0.60154817  0.01683638  1
  Ti  Ti123  1  0.60381341  0.60241720  0.74044613  1
  Ti  Ti124  1  0.31420761  0.50275105  0.87354577  1
  Ti  Ti125  1  0.40281834  -0.00026282  0.01070595  1
  Ti  Ti126  1  0.50474292  0.10056506  0.88219451  1
  Ti  Ti127  1  0.89931415  0.28140149  0.11018176  1
  Ti  Ti128  1  0.38906350  -0.00481621  0.24190234  1
  Ti  Ti129  1  0.29201862  0.70092582  0.61530017  1
  Ti  Ti130  1  0.71053674  0.70499641  0.85959029  1
  Ti  Ti131  1  0.10231249  0.91258902  0.37622220  1
  Ti  Ti132  1  0.71025470  0.50295485  0.38647838  1
  Ti  Ti133  1  0.60482307  0.19409702  -0.00007249  1
  Ti  Ti134  1  0.08526908  0.70480629  0.87320843  1
  Ti  Ti135  1  0.60378638  0.19166839  0.76107082  1
  Ti  Ti136  1  -0.00399541  0.41124474  0.74734859  1
  Ti  Ti137  1  0.30127220  0.50404471  0.61575331  1
  Ti  Ti138  1  -0.00520233  0.78208875  0.51218803  1
  Ti  Ti139  1  -0.00932379  0.59506374  0.25651201  1
  Ti  Ti140  1  -0.00981779  0.81834815  0.24748328  1
  Ti  Ti141  1  0.51299117  0.70659194  0.61274932  1
  Ti  Ti142  1  0.89675277  0.09657408  0.63979687  1
  Ti  Ti143  1  0.31667441  0.69827426  0.88228133  1
  Ti  Ti144  1  0.49765247  0.71152891  0.36431856  1
  Ti  Ti145  1  0.78716176  0.19227166  -0.01881199  1
  Ti  Ti146  1  0.09300129  0.30726466  0.87044224  1
  Ti  Ti147  1  0.19701042  0.00099971  0.51326414  1
  Ti  Ti148  1  0.59804509  -0.00281449  0.26115689  1
  Ti  Ti149  1  0.41206053  0.19532953  0.75085367  1
  Ti  Ti150  1  0.82533790  -0.01249646  0.24415815  1
  Ti  Ti151  1  0.10089816  0.09516997  0.64104718  1
  Ti  Ti152  1  0.69671168  0.50899384  0.86980384  1
  Ti  Ti153  1  0.28331431  0.09137458  0.36732545  1
  Ti  Ti154  1  0.80393261  -0.00002737  0.51135973  1
  Ti  Ti155  1  0.38653514  0.78847953  0.24964407  1
  Ti  Ti156  1  0.50321939  0.50932137  0.13342027  1
  Ti  Ti157  1  0.81555106  0.61985220  0.48292118  1
  Ti  Ti158  1  0.38729208  0.20130553  0.24252857  1
  Ti  Ti159  1  0.39651452  0.79557663  0.01246243  1
  Mo  Mo160  1  0.90015093  0.70454038  0.36378928  1
  Mo  Mo161  1  -0.00941054  0.20298158  -0.02933202  1
  Mo  Mo162  1  0.29399953  0.30123723  0.14206933  1
  Mo  Mo163  1  0.00182827  0.60620064  0.48205610  1
  Mo  Mo164  1  0.40465771  0.60922769  0.24932364  1
  Mo  Mo165  1  0.00590224  0.59371087  0.76701028  1
  Mo  Mo166  1  0.89799599  0.29687400  0.39379714  1
  Mo  Mo167  1  0.29979171  0.70948235  0.11649400  1
  Mo  Mo168  1  -0.01297928  0.20013168  0.24500612  1
  Mo  Mo169  1  0.81077846  0.19810038  0.25092020  1
  Mo  Mo170  1  0.50170963  0.49963900  0.38415259  1
  Mo  Mo171  1  -0.00644958  -0.00569383  -0.02611052  1
  Mo  Mo172  1  0.30666292  0.89513016  0.89131816  1
  Mo  Mo173  1  0.70193730  0.28919386  0.36736411  1
  Mo  Mo174  1  0.79811844  0.80025378  0.73464288  1
  Mo  Mo175  1  0.90361764  0.90001035  0.10880598  1
  Mo  Mo176  1  0.69350296  0.50698413  0.12788541  1
  Mo  Mo177  1  0.59673392  0.79992836  0.26321663  1
  Mo  Mo178  1  0.29663039  0.50162361  0.38854972  1
  Mo  Mo179  1  0.19826977  -0.00862365  0.24086002  1
  Mo  Mo180  1  0.90072554  0.49642000  0.61903313  1
  Mo  Mo181  1  -0.00651472  0.40085959  0.51222828  1
  Mo  Mo182  1  0.70090491  0.89733417  0.87052940  1
  Mo  Mo183  1  0.40443104  0.41081881  0.73629200  1
  Mo  Mo184  1  -0.00257337  0.79741832  0.00069216  1
  Mo  Mo185  1  0.80575067  0.80091023  0.24124030  1
  Mo  Mo186  1  0.29841074  0.50405841  0.11956010  1
  Mo  Mo187  1  0.69548171  0.09238131  0.63208616  1
  Mo  Mo188  1  0.09531197  0.50235833  0.87281148  1
  Mo  Mo189  1  -0.00176552  0.19332095  0.53483500  1
  Mo  Mo190  1  0.89757308  0.50575892  0.12666585  1
  Mo  Mo191  1  0.10334030  0.70305748  0.62633924  1
  Mo  Mo192  1  0.78859551  0.59785092  0.75563957  1
  Mo  Mo193  1  0.80668320  0.79437033  0.51508929  1
  Mo  Mo194  1  0.00566964  0.79484627  0.73797717  1
  Mo  Mo195  1  0.10464948  0.09290380  0.39429147  1
  Mo  Mo196  1  0.30160320  0.71133381  0.37870066  1
  Mo  Mo197  1  0.71101795  0.70635290  0.37070867  1
  Mo  Mo198  1  0.69515526  0.10224151  0.86996347  1
  Mo  Mo199  1  0.59859257  0.79910403  0.48842353  1
