# generated using pymatgen
data_HfZrTaTiMo
_symmetry_space_group_name_H-M   'P 1'
_cell_length_a   15.83961151
_cell_length_b   15.83575291
_cell_length_c   15.41646537
_cell_angle_alpha   89.99261322
_cell_angle_beta   89.94955167
_cell_angle_gamma   90.05620538
_symmetry_Int_Tables_number   1
_chemical_formula_structural   HfZrTaTiMo
_chemical_formula_sum   'Hf40 Zr40 Ta40 Ti40 Mo40'
_cell_volume   3866.94213380
_cell_formula_units_Z   40
loop_
 _symmetry_equiv_pos_site_id
 _symmetry_equiv_pos_as_xyz
  1  'x, y, z'
loop_
 _atom_site_type_symbol
 _atom_site_label
 _atom_site_symmetry_multiplicity
 _atom_site_fract_x
 _atom_site_fract_y
 _atom_site_fract_z
 _atom_site_occupancy
  Hf  Hf0  1  0.29626490  0.49617761  0.87407840  1
  Hf  Hf1  1  0.90621284  0.90073817  0.89127846  1
  Hf  Hf2  1  0.49485581  0.90610187  0.64677179  1
  Hf  Hf3  1  0.59792715  0.80838110  0.00491192  1
  Hf  Hf4  1  0.59755391  0.00326300  0.22570013  1
  Hf  Hf5  1  0.09391280  0.09408082  0.36784828  1
  Hf  Hf6  1  -0.00238978  0.60572409  0.48826351  1
  Hf  Hf7  1  0.40142474  0.20107925  -0.00336092  1
  Hf  Hf8  1  0.40384786  0.39849404  -0.00471212  1
  Hf  Hf9  1  0.60735238  0.79476548  0.75818815  1
  Hf  Hf10  1  0.50189602  0.69096930  0.87662926  1
  Hf  Hf11  1  0.40494417  0.79967700  0.49477487  1
  Hf  Hf12  1  0.80194399  0.79636101  0.49513234  1
  Hf  Hf13  1  0.27964058  0.10168501  0.87263184  1
  Hf  Hf14  1  0.00422716  0.80958177  0.47774141  1
  Hf  Hf15  1  0.60947030  0.40935692  -0.01019329  1
  Hf  Hf16  1  0.38617553  0.20707266  0.75754123  1
  Hf  Hf17  1  -0.00949848  0.20237438  0.23832806  1
  Hf  Hf18  1  0.71134058  0.69204982  0.35919918  1
  Hf  Hf19  1  -0.00876861  0.18331631  0.74351379  1
  Hf  Hf20  1  -0.00512575  0.59864562  0.26429723  1
  Hf  Hf21  1  0.70895479  0.90776353  0.88886454  1
  Hf  Hf22  1  0.10958820  0.48965373  0.37853518  1
  Hf  Hf23  1  0.29133790  0.10625479  0.36449274  1
  Hf  Hf24  1  0.79777862  0.21749786  0.24933547  1
  Hf  Hf25  1  0.51312411  0.70121181  0.37181993  1
  Hf  Hf26  1  0.49457670  0.69099608  0.12152937  1
  Hf  Hf27  1  0.90206159  0.10321545  0.89733840  1
  Hf  Hf28  1  0.59447777  0.39267865  0.24667756  1
  Hf  Hf29  1  0.49694882  0.30235361  0.63539910  1
  Hf  Hf30  1  0.59884070  0.40614553  0.51646617  1
  Hf  Hf31  1  0.10283834  0.49357790  0.86592992  1
  Hf  Hf32  1  0.70301731  0.11175469  0.64078035  1
  Hf  Hf33  1  0.40274405  0.20681058  0.48776410  1
  Hf  Hf34  1  0.29628940  0.89474469  0.63017715  1
  Hf  Hf35  1  0.40445974  0.21425962  0.25356855  1
  Hf  Hf36  1  0.61603208  0.60601303  0.52529418  1
  Hf  Hf37  1  0.59404787  0.00933232  0.00728265  1
  Hf  Hf38  1  0.89864441  0.10093290  0.37587334  1
  Hf  Hf39  1  0.80033150  0.58518740  0.00428124  1
  Zr  Zr40  1  0.50210059  0.10393565  0.64188126  1
  Zr  Zr41  1  0.10048446  0.29165865  0.87778072  1
  Zr  Zr42  1  0.30004025  0.50214690  0.12325909  1
  Zr  Zr43  1  0.18830491  -0.01572346  0.49761601  1
  Zr  Zr44  1  0.19324360  0.59700903  -0.00018293  1
  Zr  Zr45  1  0.59978763  0.80563808  0.22814905  1
  Zr  Zr46  1  0.50730859  0.50438010  0.37950680  1
  Zr  Zr47  1  0.79775353  0.40079563  0.74534963  1
  Zr  Zr48  1  0.80602663  0.79949672  0.75691125  1
  Zr  Zr49  1  0.19491150  0.79301683  0.75166155  1
  Zr  Zr50  1  0.10713410  0.69497408  0.14295674  1
  Zr  Zr51  1  0.59948622  0.00294449  0.49711124  1
  Zr  Zr52  1  0.10638193  0.49715144  0.60934652  1
  Zr  Zr53  1  0.39368039  0.80061615  -0.00331301  1
  Zr  Zr54  1  0.31183793  0.09783313  0.13039816  1
  Zr  Zr55  1  0.10948881  0.48799959  0.15155367  1
  Zr  Zr56  1  -0.00042811  0.39595081  0.73415043  1
  Zr  Zr57  1  0.60356440  0.80669538  0.50807832  1
  Zr  Zr58  1  0.38704451  0.79560595  0.25492973  1
  Zr  Zr59  1  0.29982358  0.90603659  0.85707070  1
  Zr  Zr60  1  0.89830767  0.29755553  0.88629997  1
  Zr  Zr61  1  0.92552392  0.91495739  0.62644777  1
  Zr  Zr62  1  0.70457900  0.50428656  0.36767689  1
  Zr  Zr63  1  0.88802199  0.32310379  0.11056069  1
  Zr  Zr64  1  0.79839389  -0.00181146  0.49612032  1
  Zr  Zr65  1  0.90361014  0.49904139  0.87502089  1
  Zr  Zr66  1  0.09324183  0.29142973  0.60674812  1
  Zr  Zr67  1  0.90304807  0.70428260  0.62068120  1
  Zr  Zr68  1  0.81741510  0.01263404  0.75157229  1
  Zr  Zr69  1  0.80451595  0.00093072  0.22729972  1
  Zr  Zr70  1  0.40267842  -0.00135779  -0.01206572  1
  Zr  Zr71  1  -0.00288267  0.00116660  0.03242862  1
  Zr  Zr72  1  0.20491785  -0.01159725  0.23841965  1
  Zr  Zr73  1  0.10133279  0.91320670  0.88549574  1
  Zr  Zr74  1  0.10328539  0.28898515  0.37368360  1
  Zr  Zr75  1  0.29845361  0.09392350  0.62865547  1
  Zr  Zr76  1  0.59984863  0.20575616  0.48875578  1
  Zr  Zr77  1  0.40629268  -0.00107127  0.48530643  1
  Zr  Zr78  1  0.39025391  0.40238016  0.26510293  1
  Zr  Zr79  1  0.69923434  0.90066190  0.35946899  1
  Ta  Ta80  1  0.30644403  0.49424023  0.61180013  1
  Ta  Ta81  1  0.59855409  0.40778903  0.75350500  1
  Ta  Ta82  1  0.00272650  0.60633995  0.73967375  1
  Ta  Ta83  1  0.79384371  0.20882120  0.49013414  1
  Ta  Ta84  1  0.72333642  0.71247913  0.11971768  1
  Ta  Ta85  1  0.60688558  -0.00174255  0.76424643  1
  Ta  Ta86  1  0.29823261  0.69066821  0.86746342  1
  Ta  Ta87  1  0.69718634  0.10681974  0.35783350  1
  Ta  Ta88  1  0.29619633  0.30481021  0.61194213  1
  Ta  Ta89  1  0.19936600  0.79140425  0.48688766  1
  Ta  Ta90  1  0.30218943  0.69423753  0.61881326  1
  Ta  Ta91  1  -0.01447782  0.39526123  0.48948717  1
  Ta  Ta92  1  0.79453951  0.60199821  0.74321005  1
  Ta  Ta93  1  0.09958206  0.88300405  0.13294703  1
  Ta  Ta94  1  0.50539026  0.10143440  0.35237225  1
  Ta  Ta95  1  0.00744442  0.80091820  0.76009650  1
  Ta  Ta96  1  0.22022848  0.60295596  0.27789393  1
  Ta  Ta97  1  0.39880927  0.59604478  0.74194130  1
  Ta  Ta98  1  0.19971530  0.79747487  -0.00448924  1
  Ta  Ta99  1  0.01265942  0.40672208  0.01143899  1
  Ta  Ta100  1  0.70410018  0.11189339  0.87363001  1
  Ta  Ta101  1  -0.01419643  0.78997164  0.25928607  1
  Ta  Ta102  1  0.88694832  0.86621138  0.11853347  1
  Ta  Ta103  1  0.18805693  0.19733787  0.73618097  1
  Ta  Ta104  1  0.29721393  0.89553812  0.37106670  1
  Ta  Ta105  1  0.40032508  0.59980023  0.26117883  1
  Ta  Ta106  1  -0.02145569  0.39879671  0.26521755  1
  Ta  Ta107  1  0.10585608  0.10576519  0.13521984  1
  Ta  Ta108  1  0.59642734  0.20479558  -0.00985416  1
  Ta  Ta109  1  0.07724943  0.08384442  0.60542428  1
  Ta  Ta110  1  0.50231017  0.10341522  0.86163871  1
  Ta  Ta111  1  0.00704439  0.78540838  0.00000716  1
  Ta  Ta112  1  0.69422260  0.30577898  0.11797155  1
  Ta  Ta113  1  0.10322527  0.70561670  0.61720360  1
  Ta  Ta114  1  0.90697303  0.69301575  0.87972190  1
  Ta  Ta115  1  0.49708757  0.70094596  0.63553233  1
  Ta  Ta116  1  0.70565086  0.90415156  0.63519600  1
  Ta  Ta117  1  0.28732915  0.30316914  0.87844687  1
  Ta  Ta118  1  0.20247488  0.59579381  0.73632992  1
  Ta  Ta119  1  0.39645677  0.40486891  0.74975157  1
  Ti  Ti120  1  0.69093227  0.12013025  0.12702744  1
  Ti  Ti121  1  0.09698932  0.89530589  0.35047998  1
  Ti  Ti122  1  0.79077930  0.20356149  0.00854290  1
  Ti  Ti123  1  0.39856892  0.59762093  -0.00307362  1
  Ti  Ti124  1  0.89864994  0.10669665  0.60318410  1
  Ti  Ti125  1  0.89180019  0.29079468  0.61239625  1
  Ti  Ti126  1  0.69974369  0.31025850  0.37300632  1
  Ti  Ti127  1  0.70472390  0.69025233  0.88465120  1
  Ti  Ti128  1  0.88215109  0.50311282  0.38546952  1
  Ti  Ti129  1  0.89640867  0.50295308  0.61721509  1
  Ti  Ti130  1  -0.00955287  -0.00666460  0.23515332  1
  Ti  Ti131  1  0.10879721  0.30617695  0.14295600  1
  Ti  Ti132  1  0.50145357  0.30269791  0.86608591  1
  Ti  Ti133  1  0.17392706  0.00471288  0.73676462  1
  Ti  Ti134  1  0.79179486  0.40341521  0.51060349  1
  Ti  Ti135  1  0.20405734  -0.00797399  0.02012832  1
  Ti  Ti136  1  0.20455929  0.39193105  0.73769730  1
  Ti  Ti137  1  0.19963118  0.19180020  0.50659255  1
  Ti  Ti138  1  0.19660330  0.20438837  0.01505983  1
  Ti  Ti139  1  0.60412458  0.59771406  0.74140659  1
  Ti  Ti140  1  0.50280532  0.50510040  0.86922335  1
  Ti  Ti141  1  0.09665598  0.10133380  0.89126543  1
  Ti  Ti142  1  0.60717240  0.59868787  0.22886767  1
  Ti  Ti143  1  0.09865032  0.68941220  0.87180195  1
  Ti  Ti144  1  0.41143193  0.59552995  0.50800719  1
  Ti  Ti145  1  0.28795894  0.30997137  0.12381743  1
  Ti  Ti146  1  0.71791649  0.48751242  0.13487817  1
  Ti  Ti147  1  0.50499547  0.29482887  0.11833507  1
  Ti  Ti148  1  0.00063299  0.59367726  0.01409794  1
  Ti  Ti149  1  0.29479448  0.70129806  0.12725490  1
  Ti  Ti150  1  0.81812982  0.60282464  0.23148436  1
  Ti  Ti151  1  0.69942618  0.29537292  0.63703409  1
  Ti  Ti152  1  0.20819803  0.60267513  0.49276319  1
  Ti  Ti153  1  0.60758888  0.59576793  0.00880917  1
  Ti  Ti154  1  0.00493532  0.20496031  0.02224588  1
  Ti  Ti155  1  0.46928269  0.91266235  0.13524158  1
  Ti  Ti156  1  0.40106400  0.79304208  0.75725869  1
  Ti  Ti157  1  0.49916684  0.49963588  0.12559176  1
  Ti  Ti158  1  0.79518619  0.00589753  0.02258165  1
  Ti  Ti159  1  0.70304165  0.29960860  0.87008281  1
  Mo  Mo160  1  0.69164217  0.50993376  0.86177411  1
  Mo  Mo161  1  0.00797984  0.00483531  0.75910649  1
  Mo  Mo162  1  0.19626810  0.78918830  0.26871680  1
  Mo  Mo163  1  0.89350549  0.69166649  0.38315423  1
  Mo  Mo164  1  0.49565461  0.90771133  0.35752482  1
  Mo  Mo165  1  0.28964975  0.88694794  0.12579833  1
  Mo  Mo166  1  0.80282405  0.20432103  0.74675956  1
  Mo  Mo167  1  0.49837149  0.50328595  0.63814827  1
  Mo  Mo168  1  0.90747509  0.69317424  0.11085750  1
  Mo  Mo169  1  0.60278264  0.20886744  0.76885715  1
  Mo  Mo170  1  -0.00178658  -0.00524839  0.47375211  1
  Mo  Mo171  1  0.70689581  0.89691193  0.10790150  1
  Mo  Mo172  1  0.79948017  0.59418542  0.51859051  1
  Mo  Mo173  1  0.40250126  0.40261255  0.50262856  1
  Mo  Mo174  1  0.79841302  0.40783874  0.25754952  1
  Mo  Mo175  1  0.50391721  0.11361156  0.13079360  1
  Mo  Mo176  1  0.60094453  0.20821219  0.25156047  1
  Mo  Mo177  1  0.29536083  0.30346023  0.39398015  1
  Mo  Mo178  1  0.31000756  0.69344015  0.39620294  1
  Mo  Mo179  1  0.88944463  0.30664910  0.38738487  1
  Mo  Mo180  1  0.10417164  0.69701475  0.37339613  1
  Mo  Mo181  1  0.50444939  0.90103641  0.86186013  1
  Mo  Mo182  1  0.70187962  0.70558470  0.63555414  1
  Mo  Mo183  1  0.50489981  0.30262954  0.38357469  1
  Mo  Mo184  1  0.89693987  0.11472740  0.11686390  1
  Mo  Mo185  1  0.80575456  0.79152779  0.25453303  1
  Mo  Mo186  1  0.09728119  0.89266690  0.62566286  1
  Mo  Mo187  1  -0.00833471  0.19679814  0.49786891  1
  Mo  Mo188  1  0.79186890  0.40083849  -0.01381138  1
  Mo  Mo189  1  0.90543218  0.50008969  0.12711372  1
  Mo  Mo190  1  0.19620972  0.38933815  0.00205903  1
  Mo  Mo191  1  0.90064691  0.89990833  0.35277251  1
  Mo  Mo192  1  0.40217608  0.00129670  0.76261191  1
  Mo  Mo193  1  0.20267817  0.20590660  0.23787512  1
  Mo  Mo194  1  0.30726341  0.50066699  0.39998443  1
  Mo  Mo195  1  0.20883674  0.39431952  0.27236353  1
  Mo  Mo196  1  0.70355065  0.49826120  0.63918119  1
  Mo  Mo197  1  0.80263074  0.78757936  -0.01884330  1
  Mo  Mo198  1  0.40228647  -0.00085243  0.26042491  1
  Mo  Mo199  1  0.20336868  0.39566743  0.49345771  1
