# generated using pymatgen
data_HfZrTaTiMo
_symmetry_space_group_name_H-M   'P 1'
_cell_length_a   15.83082943
_cell_length_b   15.83860153
_cell_length_c   15.42556289
_cell_angle_alpha   89.97351341
_cell_angle_beta   89.96898677
_cell_angle_gamma   89.84592983
_symmetry_Int_Tables_number   1
_chemical_formula_structural   HfZrTaTiMo
_chemical_formula_sum   'Hf40 Zr40 Ta40 Ti40 Mo40'
_cell_volume   3867.76289813
_cell_formula_units_Z   40
loop_
 _symmetry_equiv_pos_site_id
 _symmetry_equiv_pos_as_xyz
  1  'x, y, z'
loop_
 _atom_site_type_symbol
 _atom_site_label
 _atom_site_symmetry_multiplicity
 _atom_site_fract_x
 _atom_site_fract_y
 _atom_site_fract_z
 _atom_site_occupancy
  Hf  Hf0  1  0.09862647  0.30651897  0.13997305  1
  Hf  Hf1  1  0.71231381  0.11150792  0.86796621  1
  Hf  Hf2  1  0.48016611  0.51524592  0.87503527  1
  Hf  Hf3  1  0.70368418  0.49857448  0.12870309  1
  Hf  Hf4  1  0.89871076  0.09988520  0.38551033  1
  Hf  Hf5  1  0.50813046  0.70578767  0.84986236  1
  Hf  Hf6  1  0.30955761  0.08962327  0.88717584  1
  Hf  Hf7  1  0.01320314  0.20420376  0.51248517  1
  Hf  Hf8  1  0.20157484  -0.00574367  0.49887678  1
  Hf  Hf9  1  0.60465199  0.40645232  -0.00864064  1
  Hf  Hf10  1  0.60683660  0.00577800  0.24301589  1
  Hf  Hf11  1  0.00808298  0.39726750  0.74691701  1
  Hf  Hf12  1  0.10551302  0.10350368  0.86928246  1
  Hf  Hf13  1  0.81346527  0.59785586  0.24180553  1
  Hf  Hf14  1  0.60587807  0.79998891  0.00782068  1
  Hf  Hf15  1  0.19771201  0.19813793  0.00826676  1
  Hf  Hf16  1  0.50150405  0.10852217  0.62218426  1
  Hf  Hf17  1  -0.00723557  0.80381117  0.75413383  1
  Hf  Hf18  1  0.30689157  0.70191080  0.37665072  1
  Hf  Hf19  1  0.79473594  0.60522632  0.00218490  1
  Hf  Hf20  1  0.09185013  0.49810226  0.13325108  1
  Hf  Hf21  1  0.80727436  0.00503726  0.24171253  1
  Hf  Hf22  1  0.48553433  0.50543784  0.11842465  1
  Hf  Hf23  1  0.90423583  0.50432367  0.87374149  1
  Hf  Hf24  1  0.89549331  0.30657653  0.63126919  1
  Hf  Hf25  1  0.49262769  0.90896046  0.62627095  1
  Hf  Hf26  1  0.39684054  0.00613683  0.48384407  1
  Hf  Hf27  1  0.29319159  0.49526958  0.13814041  1
  Hf  Hf28  1  0.00362476  0.40196241  0.50104081  1
  Hf  Hf29  1  0.28862771  0.69472426  0.61863682  1
  Hf  Hf30  1  0.89227731  0.70239561  0.86962413  1
  Hf  Hf31  1  0.80659776  0.81176743  0.24421210  1
  Hf  Hf32  1  0.39944079  0.20449133  0.75641542  1
  Hf  Hf33  1  0.61900900  -0.00481251  0.49873371  1
  Hf  Hf34  1  0.00466238  0.61046735  0.48903002  1
  Hf  Hf35  1  0.49270909  0.90393824  0.87764492  1
  Hf  Hf36  1  0.20355627  0.58704981  0.48112476  1
  Hf  Hf37  1  0.60877438  0.00383622  0.00325114  1
  Hf  Hf38  1  0.38948281  0.81063511  0.73643947  1
  Hf  Hf39  1  0.00057033  0.20647919  -0.00054138  1
  Zr  Zr40  1  0.40576238  0.77801862  0.01381759  1
  Zr  Zr41  1  0.59471295  0.40218090  0.25284021  1
  Zr  Zr42  1  0.69607265  0.30688642  0.64032795  1
  Zr  Zr43  1  0.08887909  0.06813691  0.13125737  1
  Zr  Zr44  1  0.19766335  0.79311112  0.76333055  1
  Zr  Zr45  1  0.89773498  0.89561805  0.61475376  1
  Zr  Zr46  1  0.39710979  0.00217906  0.25098277  1
  Zr  Zr47  1  0.11092248  0.69883373  0.13211251  1
  Zr  Zr48  1  0.18693724  0.39511817  -0.01499136  1
  Zr  Zr49  1  0.21045800  0.58990132  -0.01084747  1
  Zr  Zr50  1  0.59941581  0.78953530  0.51620698  1
  Zr  Zr51  1  0.09934060  0.08810803  0.36134084  1
  Zr  Zr52  1  0.50753731  0.49738842  0.62764381  1
  Zr  Zr53  1  0.79500945  0.20470681  0.50907670  1
  Zr  Zr54  1  0.60143036  0.00147301  0.75524596  1
  Zr  Zr55  1  -0.01650749  0.40768233  0.25990210  1
  Zr  Zr56  1  0.11069624  0.49768036  0.63212841  1
  Zr  Zr57  1  0.00407882  0.81476048  0.23899270  1
  Zr  Zr58  1  0.60243838  0.80860310  0.24512768  1
  Zr  Zr59  1  0.08707228  0.69024708  0.63754937  1
  Zr  Zr60  1  0.49788403  0.10451157  0.89407351  1
  Zr  Zr61  1  0.20910780  0.18686196  0.24620630  1
  Zr  Zr62  1  0.60592808  0.40527030  0.49446025  1
  Zr  Zr63  1  0.59332021  0.40355972  0.76674164  1
  Zr  Zr64  1  0.00976314  0.00650706  0.51852643  1
  Zr  Zr65  1  0.70363680  0.10349344  0.37335101  1
  Zr  Zr66  1  0.27910617  0.89103246  0.13455618  1
  Zr  Zr67  1  0.89375182  0.29445788  0.86905146  1
  Zr  Zr68  1  0.89402184  0.52292445  0.62829879  1
  Zr  Zr69  1  -0.01767349  0.20012919  0.24687612  1
  Zr  Zr70  1  0.30802688  0.09023792  0.63424031  1
  Zr  Zr71  1  0.50370699  0.89484882  0.37829910  1
  Zr  Zr72  1  0.58937398  0.21540670  0.49989512  1
  Zr  Zr73  1  0.00366149  0.00313546  0.74504499  1
  Zr  Zr74  1  0.59184327  0.61334720  0.00629407  1
  Zr  Zr75  1  0.21125063  -0.01876944  0.74987710  1
  Zr  Zr76  1  0.20203580  0.78542149  -0.01210321  1
  Zr  Zr77  1  0.30045635  0.48739954  0.62916543  1
  Zr  Zr78  1  0.40931404  0.38612581  0.49107279  1
  Zr  Zr79  1  0.89989234  0.71224011  0.38319543  1
  Ta  Ta80  1  0.80246285  -0.00517772  0.74727589  1
  Ta  Ta81  1  0.70310253  0.70446794  0.13688619  1
  Ta  Ta82  1  0.40054138  0.39619296  0.26275885  1
  Ta  Ta83  1  0.49162073  0.29909074  0.89621691  1
  Ta  Ta84  1  0.20275753  0.38729698  0.48521881  1
  Ta  Ta85  1  0.71186599  0.90678816  0.11430154  1
  Ta  Ta86  1  0.49401661  0.30578286  0.11208289  1
  Ta  Ta87  1  0.89281076  0.90828251  0.39637640  1
  Ta  Ta88  1  0.88850867  0.50536571  0.39062865  1
  Ta  Ta89  1  0.10176572  0.29411054  0.37144765  1
  Ta  Ta90  1  0.30327947  0.09101587  0.11624684  1
  Ta  Ta91  1  0.70439275  0.51159693  0.37085422  1
  Ta  Ta92  1  0.89363822  0.90297119  0.88202209  1
  Ta  Ta93  1  0.09204063  0.90126236  0.88955126  1
  Ta  Ta94  1  0.29438581  0.28697178  0.61748736  1
  Ta  Ta95  1  0.01233858  0.20672682  0.74152948  1
  Ta  Ta96  1  -0.00046348  0.79553812  -0.00148031  1
  Ta  Ta97  1  0.69899298  0.70866062  0.85376786  1
  Ta  Ta98  1  0.18346262  0.79071761  0.48621525  1
  Ta  Ta99  1  0.49632425  0.11638481  0.37106064  1
  Ta  Ta100  1  0.79674831  0.40436917  -0.00975584  1
  Ta  Ta101  1  0.40301372  0.79292523  0.24652208  1
  Ta  Ta102  1  0.30991168  0.28240246  0.37423995  1
  Ta  Ta103  1  0.49836453  0.10574176  0.11390862  1
  Ta  Ta104  1  0.89387674  0.31487522  0.11135472  1
  Ta  Ta105  1  0.30375531  0.30413937  0.12598810  1
  Ta  Ta106  1  0.29029767  0.89418744  0.36869673  1
  Ta  Ta107  1  0.40476246  0.59363319  0.26696035  1
  Ta  Ta108  1  0.89484096  0.10213793  0.11073058  1
  Ta  Ta109  1  0.70605215  0.30544383  0.36342693  1
  Ta  Ta110  1  0.78623846  0.79675769  0.51388973  1
  Ta  Ta111  1  0.31533281  0.67833866  0.86280646  1
  Ta  Ta112  1  0.59774257  0.60522031  0.24817409  1
  Ta  Ta113  1  0.59412781  0.20788472  0.75487500  1
  Ta  Ta114  1  0.40606769  0.20244422  0.23671285  1
  Ta  Ta115  1  0.91349497  0.91527311  0.10140012  1
  Ta  Ta116  1  0.70110678  0.70081456  0.36979284  1
  Ta  Ta117  1  0.20158926  0.59532259  0.26828956  1
  Ta  Ta118  1  0.60140038  0.20290676  0.23484586  1
  Ta  Ta119  1  0.41241285  0.60143235  0.49922289  1
  Ti  Ti120  1  0.70560722  0.89128802  0.86815991  1
  Ti  Ti121  1  0.79097649  0.41408079  0.50452701  1
  Ti  Ti122  1  0.19995625  0.37619485  0.75640791  1
  Ti  Ti123  1  0.61560215  0.60358734  0.51549529  1
  Ti  Ti124  1  0.40211928  0.60186443  0.72692581  1
  Ti  Ti125  1  0.30842440  0.89714147  0.89136900  1
  Ti  Ti126  1  0.20812211  0.39663016  0.27233191  1
  Ti  Ti127  1  0.79666788  0.20518737  0.23764242  1
  Ti  Ti128  1  0.08907717  0.89399132  0.37558874  1
  Ti  Ti129  1  0.29857784  0.29293098  0.88322576  1
  Ti  Ti130  1  0.90605147  0.69921690  0.11772506  1
  Ti  Ti131  1  0.00308142  0.59495933  0.00064777  1
  Ti  Ti132  1  0.10140182  0.50014479  0.86224674  1
  Ti  Ti133  1  0.90105219  0.10201467  0.86957708  1
  Ti  Ti134  1  0.80089819  0.00679918  -0.00638139  1
  Ti  Ti135  1  0.70165441  0.29771647  0.86995751  1
  Ti  Ti136  1  0.50703088  0.50683032  0.38129186  1
  Ti  Ti137  1  0.69682002  0.52032483  0.86367595  1
  Ti  Ti138  1  0.89225967  0.30342669  0.38482192  1
  Ti  Ti139  1  -0.00132259  0.60368105  0.25762250  1
  Ti  Ti140  1  0.70360867  0.10061668  0.63562575  1
  Ti  Ti141  1  0.60800933  0.20681000  0.00867715  1
  Ti  Ti142  1  0.09220524  0.68658115  0.86803080  1
  Ti  Ti143  1  0.21033307  0.19010812  0.48759949  1
  Ti  Ti144  1  0.39558534  0.79871248  0.50734487  1
  Ti  Ti145  1  0.80009253  0.80085168  0.00636824  1
  Ti  Ti146  1  0.10669968  0.88501652  0.62024539  1
  Ti  Ti147  1  0.79381900  0.41279088  0.75584275  1
  Ti  Ti148  1  0.09546591  0.49448642  0.36792197  1
  Ti  Ti149  1  0.30661331  0.68636736  0.14136021  1
  Ti  Ti150  1  0.38275915  0.40891063  -0.00925691  1
  Ti  Ti151  1  0.80387788  0.40085796  0.25102569  1
  Ti  Ti152  1  0.50720458  0.69693427  0.37766866  1
  Ti  Ti153  1  0.70167665  0.30532420  0.12655165  1
  Ti  Ti154  1  0.89339480  0.10534541  0.63268999  1
  Ti  Ti155  1  0.49520909  0.90405508  0.12066061  1
  Ti  Ti156  1  0.39685515  0.38958285  0.75324050  1
  Ti  Ti157  1  0.79390143  0.20531021  0.00860631  1
  Ti  Ti158  1  0.19480420  -0.00823102  -0.00133646  1
  Ti  Ti159  1  0.12329973  0.11725170  0.63941546  1
  Mo  Mo160  1  0.60156977  0.80369862  0.73690968  1
  Mo  Mo161  1  0.09739369  0.29844738  0.87441548  1
  Mo  Mo162  1  0.80224028  0.19413453  0.74359318  1
  Mo  Mo163  1  0.19201514  -0.01497421  0.25787151  1
  Mo  Mo164  1  0.70480117  0.10901239  0.11791878  1
  Mo  Mo165  1  0.30260423  0.09603904  0.36179090  1
  Mo  Mo166  1  0.39505013  0.20669053  0.01415191  1
  Mo  Mo167  1  0.60149754  0.60374953  0.73627478  1
  Mo  Mo168  1  0.89316132  0.70292446  0.62401538  1
  Mo  Mo169  1  0.39810224  -0.00826821  0.01864458  1
  Mo  Mo170  1  -0.00613917  0.00543651  -0.02148328  1
  Mo  Mo171  1  0.90379820  0.50067300  0.10454593  1
  Mo  Mo172  1  0.10092356  0.70000356  0.36000874  1
  Mo  Mo173  1  0.09607198  0.89561625  0.10585304  1
  Mo  Mo174  1  0.71584658  0.89280590  0.38010099  1
  Mo  Mo175  1  -0.00458586  0.40651795  -0.00263464  1
  Mo  Mo176  1  0.69924894  0.90015984  0.64126989  1
  Mo  Mo177  1  0.20331511  0.20583276  0.76060236  1
  Mo  Mo178  1  0.79749959  0.00064431  0.51963704  1
  Mo  Mo179  1  0.49642677  0.69805330  0.14436019  1
  Mo  Mo180  1  0.79712978  0.80375969  0.73991108  1
  Mo  Mo181  1  0.39710955  -0.00276117  0.75147099  1
  Mo  Mo182  1  -0.01299231  -0.00958687  0.25497830  1
  Mo  Mo183  1  0.30542781  0.49231591  0.37438457  1
  Mo  Mo184  1  0.50464441  0.29571182  0.35489989  1
  Mo  Mo185  1  0.70553195  0.69545682  0.64479843  1
  Mo  Mo186  1  0.19870575  0.79528537  0.26402132  1
  Mo  Mo187  1  0.00060266  0.60149378  0.75900742  1
  Mo  Mo188  1  0.49755506  0.69914896  0.62714133  1
  Mo  Mo189  1  0.48971091  0.29968203  0.63961216  1
  Mo  Mo190  1  0.78970094  0.60770429  0.49626081  1
  Mo  Mo191  1  0.79758405  0.60234722  0.75674964  1
  Mo  Mo192  1  0.20400609  0.58990616  0.76385473  1
  Mo  Mo193  1  0.70465590  0.50571615  0.63725945  1
  Mo  Mo194  1  0.39629006  0.19898323  0.49570117  1
  Mo  Mo195  1  0.00090424  0.80136831  0.50036728  1
  Mo  Mo196  1  0.39150580  0.59730603  0.00179348  1
  Mo  Mo197  1  0.29194527  0.88869525  0.59839552  1
  Mo  Mo198  1  0.29985837  0.49216950  0.85022595  1
  Mo  Mo199  1  0.11527127  0.29696116  0.61225202  1
