# generated using pymatgen
data_HfZrTaTiMo
_symmetry_space_group_name_H-M   'P 1'
_cell_length_a   15.83504095
_cell_length_b   15.84275950
_cell_length_c   15.41255094
_cell_angle_alpha   89.97730458
_cell_angle_beta   90.01692753
_cell_angle_gamma   89.98125924
_symmetry_Int_Tables_number   1
_chemical_formula_structural   HfZrTaTiMo
_chemical_formula_sum   'Hf40 Zr40 Ta40 Ti40 Mo40'
_cell_volume   3866.55746365
_cell_formula_units_Z   40
loop_
 _symmetry_equiv_pos_site_id
 _symmetry_equiv_pos_as_xyz
  1  'x, y, z'
loop_
 _atom_site_type_symbol
 _atom_site_label
 _atom_site_symmetry_multiplicity
 _atom_site_fract_x
 _atom_site_fract_y
 _atom_site_fract_z
 _atom_site_occupancy
  Hf  Hf0  1  0.29940457  0.89511028  0.85615462  1
  Hf  Hf1  1  0.29889868  0.49065261  0.62502518  1
  Hf  Hf2  1  0.09124794  0.71106955  0.61983177  1
  Hf  Hf3  1  0.89155491  0.50236922  0.87155387  1
  Hf  Hf4  1  0.09529748  0.30641450  0.37718511  1
  Hf  Hf5  1  0.10491937  0.50727783  0.39725337  1
  Hf  Hf6  1  0.28394205  0.29756035  0.87093800  1
  Hf  Hf7  1  0.80381335  0.80516764  0.24972504  1
  Hf  Hf8  1  0.00997772  0.39382690  0.75990468  1
  Hf  Hf9  1  0.90423702  0.89948947  0.86926329  1
  Hf  Hf10  1  0.89168683  0.49861713  0.64372826  1
  Hf  Hf11  1  0.39689236  0.19180009  0.00123587  1
  Hf  Hf12  1  0.09827608  0.31815099  0.12617624  1
  Hf  Hf13  1  0.21860233  0.20293879  0.49959033  1
  Hf  Hf14  1  0.60672331  0.20151482  -0.00082131  1
  Hf  Hf15  1  -0.00676526  0.19592264  0.25824298  1
  Hf  Hf16  1  0.19804120  0.81650489  0.49470539  1
  Hf  Hf17  1  0.90342787  0.69754354  0.12606513  1
  Hf  Hf18  1  0.59981959  0.40406714  0.24379096  1
  Hf  Hf19  1  -0.00260437  0.00636951  0.73299377  1
  Hf  Hf20  1  0.30535126  0.90216400  0.13482484  1
  Hf  Hf21  1  0.10877290  0.08655395  0.38203729  1
  Hf  Hf22  1  0.89684964  0.70109147  0.87428706  1
  Hf  Hf23  1  0.10677626  0.70963471  0.87047838  1
  Hf  Hf24  1  0.10208564  0.09876966  0.13157806  1
  Hf  Hf25  1  0.49253579  0.71927927  0.62477321  1
  Hf  Hf26  1  0.10829798  0.11567936  0.87485144  1
  Hf  Hf27  1  0.20449492  0.60087399  0.73834658  1
  Hf  Hf28  1  0.09910342  0.70222656  0.38809899  1
  Hf  Hf29  1  0.59175689  0.38777103  0.75662857  1
  Hf  Hf30  1  0.30598568  0.50399809  0.87655891  1
  Hf  Hf31  1  0.49454018  0.69804091  0.37374298  1
  Hf  Hf32  1  0.10129757  0.90346013  0.86373747  1
  Hf  Hf33  1  0.41020458  0.80148002  -0.01362037  1
  Hf  Hf34  1  0.89564120  0.28550233  0.86949233  1
  Hf  Hf35  1  0.78123262  0.60218427  0.00863293  1
  Hf  Hf36  1  0.40157642  -0.00291260  -0.00273481  1
  Hf  Hf37  1  0.80284869  0.39488577  0.50604807  1
  Hf  Hf38  1  0.49617642  0.29267432  0.12472149  1
  Hf  Hf39  1  0.41484743  0.00070117  0.75007560  1
  Zr  Zr40  1  0.00303693  0.00071080  0.01163568  1
  Zr  Zr41  1  0.69384474  0.69544833  0.36887966  1
  Zr  Zr42  1  0.81805219  0.79543847  0.49012761  1
  Zr  Zr43  1  0.68543221  0.51800666  0.86147942  1
  Zr  Zr44  1  0.69349471  0.69845115  0.62990191  1
  Zr  Zr45  1  -0.01195361  0.19430199  0.49778930  1
  Zr  Zr46  1  0.81512132  0.00365841  0.51733993  1
  Zr  Zr47  1  0.11389096  0.09727993  0.60744510  1
  Zr  Zr48  1  0.70488861  0.90610599  0.87825382  1
  Zr  Zr49  1  0.79276571  0.18581010  0.72701755  1
  Zr  Zr50  1  0.20848873  0.01169881  0.73811933  1
  Zr  Zr51  1  0.20551421  0.80723441  0.00329405  1
  Zr  Zr52  1  0.42239101  0.60769088  0.01018566  1
  Zr  Zr53  1  0.69229231  0.89651578  0.61404211  1
  Zr  Zr54  1  0.20457759  0.19984619  0.25033169  1
  Zr  Zr55  1  0.90038914  0.09770833  0.87247166  1
  Zr  Zr56  1  0.80219795  0.00302073  0.02443817  1
  Zr  Zr57  1  0.70052982  0.30041590  0.37040140  1
  Zr  Zr58  1  0.31733732  0.29591259  0.36501114  1
  Zr  Zr59  1  0.20195546  0.60693202  0.24245931  1
  Zr  Zr60  1  -0.01850085  0.60060902  0.50265338  1
  Zr  Zr61  1  0.70131539  0.90696324  0.37385422  1
  Zr  Zr62  1  0.00909065  0.58724304  0.24152625  1
  Zr  Zr63  1  0.69346306  0.09839429  0.38004064  1
  Zr  Zr64  1  0.00630120  0.59751537  0.75297739  1
  Zr  Zr65  1  0.11592003  0.49767145  0.89149893  1
  Zr  Zr66  1  0.40321308  0.40968217  0.24952132  1
  Zr  Zr67  1  0.68972167  0.49956474  0.38466079  1
  Zr  Zr68  1  0.78933957  0.58143158  0.23456760  1
  Zr  Zr69  1  0.78880717  0.39289364  -0.00629307  1
  Zr  Zr70  1  0.38996336  0.59665869  0.24601065  1
  Zr  Zr71  1  0.89978881  0.30722778  0.13546170  1
  Zr  Zr72  1  0.79817046  0.80208090  0.01042713  1
  Zr  Zr73  1  0.00283970  0.80749347  0.26051250  1
  Zr  Zr74  1  0.40635810  0.38597978  0.50519202  1
  Zr  Zr75  1  0.59585368  0.78747784  -0.00891136  1
  Zr  Zr76  1  0.20009891  0.42025830  0.25325814  1
  Zr  Zr77  1  0.57883931  0.59261367  0.22574877  1
  Zr  Zr78  1  0.79744509  0.19974976  0.50632756  1
  Zr  Zr79  1  0.69357625  0.49423247  0.63219314  1
  Ta  Ta80  1  0.58647096  0.19232898  0.25205636  1
  Ta  Ta81  1  0.59098146  0.80974244  0.76204420  1
  Ta  Ta82  1  0.00083172  0.39777179  -0.01240827  1
  Ta  Ta83  1  0.01402314  0.20251681  0.73737974  1
  Ta  Ta84  1  0.79721653  0.59563237  0.50016721  1
  Ta  Ta85  1  0.10429597  0.30538260  0.61164503  1
  Ta  Ta86  1  0.40084338  0.39521961  -0.00803231  1
  Ta  Ta87  1  0.29445934  0.49745166  0.10133428  1
  Ta  Ta88  1  0.60770181  0.00482104  0.75321279  1
  Ta  Ta89  1  0.59594130  -0.00218253  0.00516366  1
  Ta  Ta90  1  0.39448349  0.60230138  0.51238582  1
  Ta  Ta91  1  0.59947179  0.19426570  0.75718892  1
  Ta  Ta92  1  0.20760594  -0.00340257  0.25763027  1
  Ta  Ta93  1  0.89480609  0.48372060  0.36401165  1
  Ta  Ta94  1  0.79532460  0.80268984  0.75143999  1
  Ta  Ta95  1  -0.01050601  0.39511556  0.49972945  1
  Ta  Ta96  1  0.50354516  0.89642287  0.14094695  1
  Ta  Ta97  1  0.90278573  0.30139909  0.63802391  1
  Ta  Ta98  1  0.50600744  0.09843114  0.87563302  1
  Ta  Ta99  1  0.30700200  0.71073806  0.12857540  1
  Ta  Ta100  1  0.31520234  0.09797609  0.37798100  1
  Ta  Ta101  1  0.79934471  0.19474266  0.01763661  1
  Ta  Ta102  1  0.58793243  0.59943685  0.51130843  1
  Ta  Ta103  1  0.19981924  0.20144758  0.01106861  1
  Ta  Ta104  1  0.29940416  0.30440280  0.12282756  1
  Ta  Ta105  1  0.68870918  0.90052260  0.13966351  1
  Ta  Ta106  1  0.89439396  0.70061941  0.64054102  1
  Ta  Ta107  1  0.00356885  0.80399509  0.01108054  1
  Ta  Ta108  1  0.31144937  0.89973700  0.62374599  1
  Ta  Ta109  1  0.79786034  -0.00028651  0.72970848  1
  Ta  Ta110  1  0.79484440  0.19398358  0.24318384  1
  Ta  Ta111  1  0.68128453  0.70824188  0.13877973  1
  Ta  Ta112  1  0.10478505  0.90280345  0.13956655  1
  Ta  Ta113  1  0.70505920  0.10210176  0.87939510  1
  Ta  Ta114  1  0.40368467  0.60045369  0.73702637  1
  Ta  Ta115  1  0.81335523  0.00214316  0.23890124  1
  Ta  Ta116  1  0.59454671  0.40300277  -0.00689891  1
  Ta  Ta117  1  0.10097655  0.49523832  0.61135757  1
  Ta  Ta118  1  0.58705636  0.80983131  0.48264890  1
  Ta  Ta119  1  0.01077197  -0.02698357  0.49661415  1
  Ti  Ti120  1  0.30238084  0.10901352  0.86413843  1
  Ti  Ti121  1  0.20698698  0.80221368  0.26283718  1
  Ti  Ti122  1  0.00621612  0.59996539  0.00563628  1
  Ti  Ti123  1  0.49749780  0.50410239  0.86989587  1
  Ti  Ti124  1  0.19170745  0.39269430  0.74624433  1
  Ti  Ti125  1  0.59136302  0.00146711  0.25772681  1
  Ti  Ti126  1  0.41317681  0.00828355  0.50036431  1
  Ti  Ti127  1  0.78604853  0.38424340  0.75776108  1
  Ti  Ti128  1  0.49143315  0.49891397  0.38998620  1
  Ti  Ti129  1  0.30802100  0.70092078  0.86020538  1
  Ti  Ti130  1  0.90774134  0.48940227  0.12314327  1
  Ti  Ti131  1  0.40061345  0.39460120  0.75476115  1
  Ti  Ti132  1  0.30555257  0.10083149  0.13387779  1
  Ti  Ti133  1  0.30232640  0.29151066  0.64087121  1
  Ti  Ti134  1  0.39837790  0.80736318  0.26678690  1
  Ti  Ti135  1  0.66736050  0.09796910  0.60434846  1
  Ti  Ti136  1  0.41013215  0.01286545  0.25249477  1
  Ti  Ti137  1  0.69855995  0.30243350  0.13338409  1
  Ti  Ti138  1  0.20688943  0.00707376  0.00117291  1
  Ti  Ti139  1  0.68890006  0.09827530  0.13455885  1
  Ti  Ti140  1  0.30343512  0.91386553  0.38069866  1
  Ti  Ti141  1  0.89720936  0.68649569  0.36376354  1
  Ti  Ti142  1  0.20928482  0.39964209  0.49602770  1
  Ti  Ti143  1  0.51139035  0.68487222  0.85415265  1
  Ti  Ti144  1  0.20640644  0.61188529  0.00583459  1
  Ti  Ti145  1  0.50412068  0.90931941  0.61868273  1
  Ti  Ti146  1  0.49336031  0.29187444  0.87478591  1
  Ti  Ti147  1  0.29615190  0.69119347  0.38804113  1
  Ti  Ti148  1  0.10620041  0.70732480  0.12350652  1
  Ti  Ti149  1  0.49916786  0.49484257  0.62885652  1
  Ti  Ti150  1  -0.00198238  0.20264510  0.00821872  1
  Ti  Ti151  1  0.39888635  0.80951474  0.48856450  1
  Ti  Ti152  1  0.91494283  0.88186319  0.63115634  1
  Ti  Ti153  1  0.32107953  0.10694987  0.62366258  1
  Ti  Ti154  1  0.49367625  0.27499223  0.63347031  1
  Ti  Ti155  1  0.29918358  0.71529881  0.62779127  1
  Ti  Ti156  1  0.58961838  0.38852627  0.50031395  1
  Ti  Ti157  1  0.10897931  0.89283217  0.63586679  1
  Ti  Ti158  1  0.68484666  0.29293981  0.61845424  1
  Ti  Ti159  1  0.89913077  0.08898180  0.37127908  1
  Mo  Mo160  1  0.90067327  0.10499372  0.13195586  1
  Mo  Mo161  1  0.09739243  0.29371108  0.88797781  1
  Mo  Mo162  1  0.50474154  0.08927793  0.12159245  1
  Mo  Mo163  1  0.69574460  0.70033000  0.85532784  1
  Mo  Mo164  1  0.40625814  0.19610470  0.50833756  1
  Mo  Mo165  1  -0.00483980  0.80167070  0.48743083  1
  Mo  Mo166  1  0.50579663  0.90636835  0.87313653  1
  Mo  Mo167  1  -0.00074552  0.40351496  0.26207886  1
  Mo  Mo168  1  0.50323287  0.09839173  0.63191442  1
  Mo  Mo169  1  0.49441818  0.48383113  0.10544276  1
  Mo  Mo170  1  0.89460467  0.30057080  0.35846708  1
  Mo  Mo171  1  0.40216002  0.19954037  0.76087905  1
  Mo  Mo172  1  0.58827620  0.00016212  0.49095487  1
  Mo  Mo173  1  -0.00203173  0.80256766  0.75338400  1
  Mo  Mo174  1  0.90736232  0.91002368  0.37022214  1
  Mo  Mo175  1  0.11076873  0.90184187  0.36290445  1
  Mo  Mo176  1  0.40376503  0.79877703  0.75668222  1
  Mo  Mo177  1  0.21922813  -0.00281369  0.50224300  1
  Mo  Mo178  1  0.90611874  0.90081051  0.12977487  1
  Mo  Mo179  1  0.20550851  0.80011586  0.73654698  1
  Mo  Mo180  1  0.49353278  0.10550231  0.37555656  1
  Mo  Mo181  1  0.59714148  0.60122967  0.01149444  1
  Mo  Mo182  1  0.20006402  0.20747886  0.73435645  1
  Mo  Mo183  1  0.91148813  0.09744754  0.62260357  1
  Mo  Mo184  1  0.20676113  0.60589911  0.51738825  1
  Mo  Mo185  1  0.69467679  0.29065736  0.87382659  1
  Mo  Mo186  1  0.49064629  0.90835832  0.36820986  1
  Mo  Mo187  1  0.69254888  0.49436956  0.10856756  1
  Mo  Mo188  1  0.49313071  0.72263360  0.14358040  1
  Mo  Mo189  1  0.30262360  0.51030887  0.40230895  1
  Mo  Mo190  1  0.58066770  0.20589060  0.49036730  1
  Mo  Mo191  1  0.40269810  0.19367237  0.23274737  1
  Mo  Mo192  1  0.79697816  0.39669991  0.24073225  1
  Mo  Mo193  1  0.09669005  0.50569439  0.10384085  1
  Mo  Mo194  1  0.79431918  0.60687837  0.75371112  1
  Mo  Mo195  1  0.58671153  0.59992924  0.72873309  1
  Mo  Mo196  1  0.00264370  -0.00047460  0.25607362  1
  Mo  Mo197  1  0.20247941  0.39815980  0.00349161  1
  Mo  Mo198  1  0.50513729  0.29471709  0.36663300  1
  Mo  Mo199  1  0.59329251  0.80702241  0.26398245  1
