# generated using pymatgen
data_HfZrTaTiMo
_symmetry_space_group_name_H-M   'P 1'
_cell_length_a   15.82922702
_cell_length_b   15.83655848
_cell_length_c   15.39546867
_cell_angle_alpha   89.96729339
_cell_angle_beta   90.06346166
_cell_angle_gamma   89.92732694
_symmetry_Int_Tables_number   1
_chemical_formula_structural   HfZrTaTiMo
_chemical_formula_sum   'Hf40 Zr40 Ta40 Ti40 Mo40'
_cell_volume   3859.33736241
_cell_formula_units_Z   40
loop_
 _symmetry_equiv_pos_site_id
 _symmetry_equiv_pos_as_xyz
  1  'x, y, z'
loop_
 _atom_site_type_symbol
 _atom_site_label
 _atom_site_symmetry_multiplicity
 _atom_site_fract_x
 _atom_site_fract_y
 _atom_site_fract_z
 _atom_site_occupancy
  Hf  Hf0  1  0.00088092  -0.01034717  -0.01006461  1
  Hf  Hf1  1  0.51344874  0.08163073  0.35878374  1
  Hf  Hf2  1  0.90814144  0.29384919  0.36891518  1
  Hf  Hf3  1  0.80866296  0.20127751  0.50471538  1
  Hf  Hf4  1  0.19465049  0.39051229  0.48695818  1
  Hf  Hf5  1  0.77266915  0.80360776  0.25400177  1
  Hf  Hf6  1  0.09629610  0.91031559  0.36218912  1
  Hf  Hf7  1  0.50545291  0.29143312  0.61998371  1
  Hf  Hf8  1  0.10909679  0.09219228  0.87558296  1
  Hf  Hf9  1  0.20152498  0.19871867  0.47881098  1
  Hf  Hf10  1  0.90661040  0.71770986  0.13625284  1
  Hf  Hf11  1  0.41822650  0.18594774  0.01053800  1
  Hf  Hf12  1  0.71228630  0.08166956  0.10728689  1
  Hf  Hf13  1  0.89922390  0.70723217  0.37459527  1
  Hf  Hf14  1  0.39369949  -0.01204449  0.49247023  1
  Hf  Hf15  1  0.59565525  0.38756967  0.76186728  1
  Hf  Hf16  1  0.19897106  0.00077275  0.49905647  1
  Hf  Hf17  1  0.88237862  0.90757887  0.12363651  1
  Hf  Hf18  1  0.30004695  0.70158254  0.88463171  1
  Hf  Hf19  1  -0.00199593  0.39928061  0.50475207  1
  Hf  Hf20  1  0.10411713  0.50602752  0.88502412  1
  Hf  Hf21  1  0.09808769  0.50379450  0.37014125  1
  Hf  Hf22  1  0.70081239  0.69331671  0.62997019  1
  Hf  Hf23  1  0.39509102  0.79786847  0.72971624  1
  Hf  Hf24  1  -0.00814103  0.01203797  0.50258768  1
  Hf  Hf25  1  0.90063512  0.51415619  0.12469204  1
  Hf  Hf26  1  0.80432322  0.39602625  0.23279453  1
  Hf  Hf27  1  0.30434896  0.29978724  0.12528098  1
  Hf  Hf28  1  0.59012377  0.60194926  0.49104667  1
  Hf  Hf29  1  0.10377375  0.10707747  0.64386615  1
  Hf  Hf30  1  0.40349465  0.19184551  0.47571943  1
  Hf  Hf31  1  0.70167936  0.49227259  0.87861910  1
  Hf  Hf32  1  0.49368913  0.50090931  0.88063088  1
  Hf  Hf33  1  0.81811546  0.18777473  0.23158911  1
  Hf  Hf34  1  0.68851864  0.89808997  0.87492449  1
  Hf  Hf35  1  0.30936270  0.30607249  0.89658803  1
  Hf  Hf36  1  0.49996671  0.49696410  0.62600366  1
  Hf  Hf37  1  0.88886286  0.91312560  0.36783012  1
  Hf  Hf38  1  0.30544757  0.29450587  0.62733105  1
  Hf  Hf39  1  0.27736996  0.89628287  0.85887177  1
  Zr  Zr40  1  0.90001074  0.50744021  0.63107736  1
  Zr  Zr41  1  0.49044008  0.69227562  0.11433175  1
  Zr  Zr42  1  0.89850864  0.30472312  0.89422877  1
  Zr  Zr43  1  0.49379942  0.10253992  0.63528019  1
  Zr  Zr44  1  0.79840236  0.00053696  0.52321476  1
  Zr  Zr45  1  0.68219444  0.89772810  0.38368978  1
  Zr  Zr46  1  0.30273845  0.50769625  0.37382020  1
  Zr  Zr47  1  0.31396325  0.51455123  0.12942889  1
  Zr  Zr48  1  0.49843304  0.48691803  0.35507843  1
  Zr  Zr49  1  0.59207239  -0.01033742  0.51934765  1
  Zr  Zr50  1  0.29992433  0.09875426  0.64111916  1
  Zr  Zr51  1  0.69925250  0.29609681  0.36063318  1
  Zr  Zr52  1  0.79266212  -0.00501242  0.75366800  1
  Zr  Zr53  1  0.41427883  0.20760807  0.77773832  1
  Zr  Zr54  1  0.69208495  0.11299044  0.63970026  1
  Zr  Zr55  1  -0.00024380  0.21467593  0.76468514  1
  Zr  Zr56  1  0.80478261  0.38598416  0.74438339  1
  Zr  Zr57  1  0.00190055  0.62131380  -0.00689455  1
  Zr  Zr58  1  0.39501384  0.60251058  0.74054936  1
  Zr  Zr59  1  0.29727073  0.49307015  0.61141072  1
  Zr  Zr60  1  0.30708336  0.08646549  0.87667374  1
  Zr  Zr61  1  0.58127883  -0.00266258  0.00361960  1
  Zr  Zr62  1  0.69490157  0.70971917  0.10931677  1
  Zr  Zr63  1  0.09479007  0.90077926  0.63113746  1
  Zr  Zr64  1  0.60421582  0.61703762  0.26113632  1
  Zr  Zr65  1  0.00840242  0.20407129  0.50498476  1
  Zr  Zr66  1  0.39444749  -0.01344669  0.01490307  1
  Zr  Zr67  1  0.10410238  0.51463238  0.12725568  1
  Zr  Zr68  1  0.01025824  0.40666939  0.75104191  1
  Zr  Zr69  1  0.79756984  0.60858361  -0.01107111  1
  Zr  Zr70  1  0.31030411  0.30836004  0.35156944  1
  Zr  Zr71  1  0.29904814  0.71376612  0.12283169  1
  Zr  Zr72  1  0.90815082  0.70347544  0.62665574  1
  Zr  Zr73  1  0.71540397  0.09026138  0.36445330  1
  Zr  Zr74  1  0.40335203  0.79744291  0.50664082  1
  Zr  Zr75  1  0.00744597  0.39093820  0.23732288  1
  Zr  Zr76  1  0.60898440  0.39453926  0.50041994  1
  Zr  Zr77  1  0.40853787  0.19174369  0.24345965  1
  Zr  Zr78  1  0.19481493  0.60535172  0.73964762  1
  Zr  Zr79  1  0.79359866  0.59555325  0.49044346  1
  Ta  Ta80  1  0.20256315  0.80452433  0.49982763  1
  Ta  Ta81  1  0.89099831  0.10354755  0.87976587  1
  Ta  Ta82  1  0.80037233  0.60304751  0.76675711  1
  Ta  Ta83  1  0.11297218  0.30504239  0.63364089  1
  Ta  Ta84  1  0.79258056  0.80453525  0.50802801  1
  Ta  Ta85  1  0.59145508  0.79589041  0.51755726  1
  Ta  Ta86  1  0.60264136  0.39886145  0.01074004  1
  Ta  Ta87  1  0.00876633  0.20222987  0.00405228  1
  Ta  Ta88  1  0.20551731  0.40030181  0.76515026  1
  Ta  Ta89  1  0.60810901  0.18901499  0.22804503  1
  Ta  Ta90  1  0.50083950  0.70633665  0.87346586  1
  Ta  Ta91  1  0.41234057  0.40561429  0.01473230  1
  Ta  Ta92  1  0.18927676  0.20181118  0.24037679  1
  Ta  Ta93  1  0.69197542  0.50522044  0.12923014  1
  Ta  Ta94  1  0.00228718  0.79899798  0.76257327  1
  Ta  Ta95  1  0.20022328  0.40163063  0.00750235  1
  Ta  Ta96  1  0.20017381  0.61345353  0.25774122  1
  Ta  Ta97  1  0.80062127  0.40315679  0.01468695  1
  Ta  Ta98  1  0.29481760  0.09000727  0.13448556  1
  Ta  Ta99  1  0.60994570  -0.02118864  0.22714618  1
  Ta  Ta100  1  0.10180349  0.71698582  0.13765942  1
  Ta  Ta101  1  0.40671204  0.39245040  0.49361620  1
  Ta  Ta102  1  0.80310619  0.39673478  0.50445302  1
  Ta  Ta103  1  0.19347063  -0.01583917  0.01624451  1
  Ta  Ta104  1  -0.00444988  -0.00370535  0.76314766  1
  Ta  Ta105  1  0.08649480  0.89428149  0.14320326  1
  Ta  Ta106  1  0.90381391  0.50156914  0.88005392  1
  Ta  Ta107  1  0.80020686  0.79504203  0.76088954  1
  Ta  Ta108  1  0.00029509  0.80642239  0.49417635  1
  Ta  Ta109  1  0.20146557  0.21433839  0.77413623  1
  Ta  Ta110  1  0.28829915  0.08278196  0.34826093  1
  Ta  Ta111  1  -0.01764491  0.01778594  0.24173309  1
  Ta  Ta112  1  0.80833567  0.80231406  -0.02259822  1
  Ta  Ta113  1  0.89810223  0.49872406  0.36770873  1
  Ta  Ta114  1  0.60153664  0.60375589  0.75848613  1
  Ta  Ta115  1  0.30048269  0.50413462  0.89113224  1
  Ta  Ta116  1  0.70322035  0.49235105  0.35906980  1
  Ta  Ta117  1  0.89856586  0.11211374  0.65264204  1
  Ta  Ta118  1  0.79757243  0.60535187  0.25609011  1
  Ta  Ta119  1  0.20096984  0.19332306  0.00802583  1
  Ti  Ti120  1  0.48482079  0.90324863  0.86028058  1
  Ti  Ti121  1  0.09846643  0.70678265  0.37750669  1
  Ti  Ti122  1  0.09948994  0.09210968  0.12289440  1
  Ti  Ti123  1  0.00351859  0.20388888  0.22561591  1
  Ti  Ti124  1  0.08998841  0.10651391  0.35574531  1
  Ti  Ti125  1  0.00359546  0.60375530  0.49675939  1
  Ti  Ti126  1  0.59647795  0.80019717  0.73965773  1
  Ti  Ti127  1  0.00571589  0.61069383  0.75784770  1
  Ti  Ti128  1  0.89870556  0.89790790  0.63365463  1
  Ti  Ti129  1  0.20482091  0.79976585  0.27001340  1
  Ti  Ti130  1  0.59810445  0.19651180  0.00538383  1
  Ti  Ti131  1  0.69967773  0.10013043  0.88420674  1
  Ti  Ti132  1  0.00577025  0.39993283  0.01131043  1
  Ti  Ti133  1  0.19824862  0.78969806  0.72051829  1
  Ti  Ti134  1  0.51079606  0.30096975  0.35345934  1
  Ti  Ti135  1  0.69912831  0.49619089  0.63617352  1
  Ti  Ti136  1  0.59068385  0.80236677  -0.00806404  1
  Ti  Ti137  1  0.39579590  0.80743604  -0.00671673  1
  Ti  Ti138  1  0.11493747  0.71841238  0.87908528  1
  Ti  Ti139  1  0.19877036  0.40191020  0.24006646  1
  Ti  Ti140  1  0.59012058  -0.00375780  0.74964154  1
  Ti  Ti141  1  0.70344334  0.29342740  0.62976688  1
  Ti  Ti142  1  0.10206414  0.50384712  0.62205207  1
  Ti  Ti143  1  0.00532466  0.80717285  -0.01559484  1
  Ti  Ti144  1  0.60283947  0.20104983  0.77721131  1
  Ti  Ti145  1  0.70528544  0.29236628  0.11624273  1
  Ti  Ti146  1  0.49495822  0.87882716  0.13920263  1
  Ti  Ti147  1  0.89793195  0.09971462  0.09356547  1
  Ti  Ti148  1  0.00172467  0.61033739  0.25583359  1
  Ti  Ti149  1  0.28593573  0.89339652  0.14382611  1
  Ti  Ti150  1  0.50931140  0.30545259  0.13219885  1
  Ti  Ti151  1  0.39970661  -0.01855182  0.24975765  1
  Ti  Ti152  1  0.40294632  0.61451168  0.26250988  1
  Ti  Ti153  1  0.20019489  0.61201418  0.00828520  1
  Ti  Ti154  1  0.30508620  0.70092020  0.38672884  1
  Ti  Ti155  1  0.60218744  0.19575425  0.48632187  1
  Ti  Ti156  1  0.70442018  0.29205273  0.89405543  1
  Ti  Ti157  1  0.39783920  0.39784429  0.75867425  1
  Ti  Ti158  1  0.59625258  0.59964447  -0.00846101  1
  Ti  Ti159  1  0.19623806  0.61136912  0.50312040  1
  Mo  Mo160  1  0.90831017  0.10244461  0.36891931  1
  Mo  Mo161  1  0.49899921  0.90018798  0.64074107  1
  Mo  Mo162  1  0.39457122  0.79696683  0.26734353  1
  Mo  Mo163  1  0.51173593  0.09282880  0.86893844  1
  Mo  Mo164  1  0.69053285  0.70334357  0.87180904  1
  Mo  Mo165  1  0.79218230  0.20129760  0.76585941  1
  Mo  Mo166  1  0.79919394  -0.00505773  -0.02350273  1
  Mo  Mo167  1  0.40033422  0.59831233  0.49911644  1
  Mo  Mo168  1  0.10308250  0.29774735  0.35358518  1
  Mo  Mo169  1  0.50555972  0.69338378  0.63503834  1
  Mo  Mo170  1  0.49675715  0.89202629  0.35973150  1
  Mo  Mo171  1  0.69504117  0.88872800  0.10129562  1
  Mo  Mo172  1  0.51136822  0.30160775  0.90226077  1
  Mo  Mo173  1  0.90355561  0.29776094  0.10835668  1
  Mo  Mo174  1  0.18843046  0.80903203  0.00962799  1
  Mo  Mo175  1  0.40193154  -0.00646705  0.75011042  1
  Mo  Mo176  1  0.40812640  0.40520909  0.22900215  1
  Mo  Mo177  1  0.10700469  0.29705032  0.11527977  1
  Mo  Mo178  1  0.69865169  0.88889066  0.64002422  1
  Mo  Mo179  1  0.29527046  0.89943972  0.36363969  1
  Mo  Mo180  1  0.58723730  0.79942834  0.25179136  1
  Mo  Mo181  1  0.10905887  0.30401564  0.89675131  1
  Mo  Mo182  1  0.89949917  0.89936824  0.87206180  1
  Mo  Mo183  1  0.60728292  0.39572263  0.22822434  1
  Mo  Mo184  1  -0.00134520  0.80486366  0.26509998  1
  Mo  Mo185  1  0.29321967  0.90115732  0.63218423  1
  Mo  Mo186  1  0.79718690  -0.00036261  0.24202870  1
  Mo  Mo187  1  0.50696591  0.50356447  0.12673515  1
  Mo  Mo188  1  0.10232794  0.89718534  0.86146326  1
  Mo  Mo189  1  0.19767692  0.00125973  0.73926630  1
  Mo  Mo190  1  0.29712656  0.69629832  0.60133274  1
  Mo  Mo191  1  0.18929666  0.00202761  0.23565918  1
  Mo  Mo192  1  0.40233504  0.60480111  -0.01231175  1
  Mo  Mo193  1  0.79909724  0.19985603  -0.00123260  1
  Mo  Mo194  1  0.69830835  0.70202203  0.39331099  1
  Mo  Mo195  1  0.09443583  0.69975901  0.60636899  1
  Mo  Mo196  1  0.49724159  0.70485793  0.37531510  1
  Mo  Mo197  1  0.50226526  0.08826130  0.14321150  1
  Mo  Mo198  1  0.90670056  0.69996540  0.86293093  1
  Mo  Mo199  1  0.90149722  0.29672918  0.62153351  1
