# generated using pymatgen
data_HfZrTaTiMo
_symmetry_space_group_name_H-M   'P 1'
_cell_length_a   15.84356250
_cell_length_b   15.83667621
_cell_length_c   15.41120498
_cell_angle_alpha   90.04880984
_cell_angle_beta   90.06487552
_cell_angle_gamma   89.93559804
_symmetry_Int_Tables_number   1
_chemical_formula_structural   HfZrTaTiMo
_chemical_formula_sum   'Hf40 Zr40 Ta40 Ti40 Mo40'
_cell_volume   3866.80940294
_cell_formula_units_Z   40
loop_
 _symmetry_equiv_pos_site_id
 _symmetry_equiv_pos_as_xyz
  1  'x, y, z'
loop_
 _atom_site_type_symbol
 _atom_site_label
 _atom_site_symmetry_multiplicity
 _atom_site_fract_x
 _atom_site_fract_y
 _atom_site_fract_z
 _atom_site_occupancy
  Hf  Hf0  1  0.89316273  0.69040782  0.87597530  1
  Hf  Hf1  1  0.90041340  0.08244409  0.89321226  1
  Hf  Hf2  1  0.79149576  0.20009147  0.48467432  1
  Hf  Hf3  1  0.69698012  0.91272801  0.37229214  1
  Hf  Hf4  1  0.20264221  0.19671582  -0.01248853  1
  Hf  Hf5  1  0.58653327  0.80804107  0.48645284  1
  Hf  Hf6  1  0.80679611  0.80775741  0.25137665  1
  Hf  Hf7  1  0.39054814  0.78903350  0.01389804  1
  Hf  Hf8  1  0.59989703  0.60462416  0.49811545  1
  Hf  Hf9  1  0.19924803  0.40937222  0.26570939  1
  Hf  Hf10  1  0.08275661  0.70411441  0.61013077  1
  Hf  Hf11  1  0.40803199  0.19743270  0.25288928  1
  Hf  Hf12  1  0.21758866  0.00504164  0.49308968  1
  Hf  Hf13  1  0.61048730  0.00844606  0.23723698  1
  Hf  Hf14  1  0.09959583  0.30443903  0.63709028  1
  Hf  Hf15  1  0.00500125  0.59746168  -0.00422889  1
  Hf  Hf16  1  0.79376468  0.79265073  0.00354809  1
  Hf  Hf17  1  0.29077076  0.49134272  0.62797208  1
  Hf  Hf18  1  0.68607458  0.27562309  0.63838454  1
  Hf  Hf19  1  0.50319253  0.50586056  0.87805912  1
  Hf  Hf20  1  0.39742449  0.00149760  0.01115856  1
  Hf  Hf21  1  0.50091461  0.71055847  0.62918859  1
  Hf  Hf22  1  0.40384694  -0.00695901  0.25412619  1
  Hf  Hf23  1  0.30417533  0.50743486  0.13015992  1
  Hf  Hf24  1  0.79994985  0.40772389  0.74213506  1
  Hf  Hf25  1  0.80077835  -0.00736903  0.74729684  1
  Hf  Hf26  1  0.10217700  0.50483802  0.12120995  1
  Hf  Hf27  1  0.59525104  0.59884383  0.24492216  1
  Hf  Hf28  1  -0.00840857  0.40782440  0.25220037  1
  Hf  Hf29  1  0.90352253  0.29705153  0.63387190  1
  Hf  Hf30  1  0.79633921  0.19912010  0.00679442  1
  Hf  Hf31  1  0.10506463  0.29332540  0.13781162  1
  Hf  Hf32  1  0.59362128  0.40362084  0.74472893  1
  Hf  Hf33  1  0.79150276  0.18926243  0.76705505  1
  Hf  Hf34  1  0.79444510  0.39475856  0.50517579  1
  Hf  Hf35  1  0.10357684  0.10198889  0.35918762  1
  Hf  Hf36  1  0.61049837  0.80883791  0.74677612  1
  Hf  Hf37  1  0.49897254  0.10359639  0.87097560  1
  Hf  Hf38  1  0.90741428  0.69504601  0.13054161  1
  Hf  Hf39  1  0.40646166  0.39207844  0.50836773  1
  Zr  Zr40  1  0.01154996  0.79669627  0.00306489  1
  Zr  Zr41  1  0.40082763  0.60024482  0.50485729  1
  Zr  Zr42  1  0.89506876  0.90357802  0.38518129  1
  Zr  Zr43  1  0.10277815  0.70163628  0.86466369  1
  Zr  Zr44  1  0.41480207  0.18878425  0.50252406  1
  Zr  Zr45  1  0.10764684  0.89227162  0.37695436  1
  Zr  Zr46  1  0.50526476  0.90688260  0.87271074  1
  Zr  Zr47  1  0.90072205  0.10226599  0.62451341  1
  Zr  Zr48  1  0.20990220  0.19723873  0.49210376  1
  Zr  Zr49  1  0.48902798  0.70186299  0.86059969  1
  Zr  Zr50  1  0.48961133  0.91724797  0.63290083  1
  Zr  Zr51  1  0.39262622  0.20768000  0.00017138  1
  Zr  Zr52  1  0.20459669  0.00219021  -0.00269121  1
  Zr  Zr53  1  0.19105302  0.60902234  0.26648191  1
  Zr  Zr54  1  0.90933116  0.89133034  0.60479576  1
  Zr  Zr55  1  0.59578546  0.39071951  0.50614023  1
  Zr  Zr56  1  0.00583747  0.19670371  -0.00073300  1
  Zr  Zr57  1  -0.00214522  0.41534137  0.76283667  1
  Zr  Zr58  1  0.29792260  0.28929698  0.64766512  1
  Zr  Zr59  1  0.80524097  0.79547876  0.74590375  1
  Zr  Zr60  1  0.00282715  0.39314254  -0.00572431  1
  Zr  Zr61  1  0.19603986  0.80132070  0.73155051  1
  Zr  Zr62  1  0.31220794  0.49512552  0.87013104  1
  Zr  Zr63  1  0.19105431  0.59596235  0.73845103  1
  Zr  Zr64  1  0.10653524  0.10927998  0.63095396  1
  Zr  Zr65  1  0.70537704  0.49763309  0.88828888  1
  Zr  Zr66  1  0.10617800  0.90178379  0.13331714  1
  Zr  Zr67  1  0.59550261  0.60695651  0.02127799  1
  Zr  Zr68  1  0.70067869  0.90198550  0.60964987  1
  Zr  Zr69  1  0.09382682  0.29850991  0.36532634  1
  Zr  Zr70  1  0.59599000  0.80080119  0.00801834  1
  Zr  Zr71  1  0.21145387  0.39546672  -0.00919638  1
  Zr  Zr72  1  0.19552714  0.40195850  0.49010244  1
  Zr  Zr73  1  0.09836123  0.90453542  0.87677872  1
  Zr  Zr74  1  0.30255278  0.30425513  0.13843141  1
  Zr  Zr75  1  0.30140745  0.71034759  0.37404954  1
  Zr  Zr76  1  -0.01751483  0.00040837  0.25323621  1
  Zr  Zr77  1  0.69602850  0.49198341  0.36973119  1
  Zr  Zr78  1  0.30650227  0.89333238  0.86075915  1
  Zr  Zr79  1  0.69399534  0.68517281  0.86788754  1
  Ta  Ta80  1  0.32030136  0.08930403  0.64139207  1
  Ta  Ta81  1  0.28883063  0.10116667  0.14300452  1
  Ta  Ta82  1  0.59575685  0.01875533  0.50402092  1
  Ta  Ta83  1  0.70375101  0.70066536  0.14182625  1
  Ta  Ta84  1  0.89462672  0.49681921  0.11862223  1
  Ta  Ta85  1  -0.00330816  0.19741059  0.77115202  1
  Ta  Ta86  1  0.70181513  0.69969519  0.36172616  1
  Ta  Ta87  1  0.20480719  0.80076386  0.50489105  1
  Ta  Ta88  1  0.78905181  0.78662285  0.49447811  1
  Ta  Ta89  1  0.00017710  -0.00578167  0.74590288  1
  Ta  Ta90  1  0.49974957  0.89628597  0.13129219  1
  Ta  Ta91  1  0.48538568  0.30979295  0.86866248  1
  Ta  Ta92  1  -0.01820530  0.19626683  0.24668229  1
  Ta  Ta93  1  0.80449654  0.59211181  0.24834126  1
  Ta  Ta94  1  0.49457746  0.49314064  0.13057661  1
  Ta  Ta95  1  0.00749788  0.78922311  0.25870272  1
  Ta  Ta96  1  0.89913553  0.69167755  0.60861679  1
  Ta  Ta97  1  0.69485961  0.09138308  0.89412001  1
  Ta  Ta98  1  0.10230798  0.09910556  0.13967589  1
  Ta  Ta99  1  -0.00842018  0.39931222  0.49435198  1
  Ta  Ta100  1  0.59574034  0.20661706  -0.00120986  1
  Ta  Ta101  1  0.60912930  0.20213594  0.24668827  1
  Ta  Ta102  1  0.90139278  0.89994319  0.89160453  1
  Ta  Ta103  1  0.90154583  0.90496829  0.11347211  1
  Ta  Ta104  1  0.00419367  0.01273866  0.49161246  1
  Ta  Ta105  1  0.21320695  0.61884315  0.00032666  1
  Ta  Ta106  1  0.79521613  0.59635952  0.50052885  1
  Ta  Ta107  1  0.79567525  0.39239430  0.24153920  1
  Ta  Ta108  1  0.90085615  0.69536049  0.38188524  1
  Ta  Ta109  1  0.88987340  0.30504423  0.87887523  1
  Ta  Ta110  1  -0.00747640  0.20294554  0.48465908  1
  Ta  Ta111  1  0.30750723  0.89987577  0.62065591  1
  Ta  Ta112  1  0.61066758  0.02121893  0.74072729  1
  Ta  Ta113  1  0.49551446  0.49928324  0.36585989  1
  Ta  Ta114  1  0.51303107  0.09669631  0.36575024  1
  Ta  Ta115  1  0.19118021  0.60094679  0.49428279  1
  Ta  Ta116  1  0.89488967  0.49973865  0.37930653  1
  Ta  Ta117  1  0.40511845  0.59345272  0.73165455  1
  Ta  Ta118  1  0.09940182  0.90678612  0.61091753  1
  Ta  Ta119  1  0.30829405  0.29684590  0.36781059  1
  Ti  Ti120  1  0.08331216  0.50159961  0.61552283  1
  Ti  Ti121  1  0.30832734  0.50302244  0.37774626  1
  Ti  Ti122  1  0.39847952  0.79968089  0.24719183  1
  Ti  Ti123  1  0.49965239  0.30508267  0.12371199  1
  Ti  Ti124  1  0.00190114  0.59942780  0.26320042  1
  Ti  Ti125  1  0.59406668  0.80330639  0.25087256  1
  Ti  Ti126  1  0.88767699  0.29871196  0.36351791  1
  Ti  Ti127  1  0.79486179  0.18029534  0.24514456  1
  Ti  Ti128  1  0.40178859  0.60586170  0.01485038  1
  Ti  Ti129  1  0.60206363  0.00226207  0.01487454  1
  Ti  Ti130  1  0.30242235  0.69643217  0.86058375  1
  Ti  Ti131  1  0.30341702  0.10537273  0.85216903  1
  Ti  Ti132  1  0.89563765  0.29977933  0.12410094  1
  Ti  Ti133  1  0.79797987  0.59704971  0.72772102  1
  Ti  Ti134  1  0.70478319  0.90236983  0.12682449  1
  Ti  Ti135  1  0.60390987  0.19812234  0.48579636  1
  Ti  Ti136  1  0.49445701  0.70127175  0.36538028  1
  Ti  Ti137  1  0.88349788  0.49764482  0.89841287  1
  Ti  Ti138  1  0.69704776  0.29884657  0.12588126  1
  Ti  Ti139  1  -0.01556599  0.59558344  0.74679141  1
  Ti  Ti140  1  0.69221299  0.50652629  0.62290846  1
  Ti  Ti141  1  0.20092138  0.00046860  0.74279785  1
  Ti  Ti142  1  0.60121454  0.39521122  0.24520758  1
  Ti  Ti143  1  0.21520620  -0.00702664  0.26477565  1
  Ti  Ti144  1  0.40473203  0.40251708  0.25638917  1
  Ti  Ti145  1  0.69490760  0.30345829  0.88056289  1
  Ti  Ti146  1  0.79535589  0.01358598  0.49855186  1
  Ti  Ti147  1  0.50170869  0.10639732  0.12255398  1
  Ti  Ti148  1  0.70363408  0.49412451  0.11958177  1
  Ti  Ti149  1  0.11122674  0.50356764  0.87731982  1
  Ti  Ti150  1  0.40790636  -0.00601785  0.47841286  1
  Ti  Ti151  1  -0.00694964  0.80431487  0.74980047  1
  Ti  Ti152  1  0.11461139  0.70477706  0.12858735  1
  Ti  Ti153  1  0.11101983  0.30046514  0.85821959  1
  Ti  Ti154  1  0.50859315  0.30260302  0.36759644  1
  Ti  Ti155  1  0.70568621  0.90931423  0.88437696  1
  Ti  Ti156  1  0.29400302  0.89217324  0.13193653  1
  Ti  Ti157  1  0.59394460  0.39518224  0.00407778  1
  Ti  Ti158  1  0.09961417  0.09288529  0.86724953  1
  Ti  Ti159  1  0.30398952  0.70557853  0.61895906  1
  Mo  Mo160  1  0.20328628  0.80413983  0.24683277  1
  Mo  Mo161  1  0.60402416  0.20403909  0.77955811  1
  Mo  Mo162  1  -0.00498818  0.59470803  0.48955933  1
  Mo  Mo163  1  0.79899869  0.00745334  0.22891183  1
  Mo  Mo164  1  0.89889899  0.09792516  0.11616276  1
  Mo  Mo165  1  0.69876887  0.10180934  0.61743065  1
  Mo  Mo166  1  0.30960515  0.89572725  0.38279753  1
  Mo  Mo167  1  0.40330262  0.00170418  0.75323230  1
  Mo  Mo168  1  0.40144668  0.59770266  0.25360545  1
  Mo  Mo169  1  0.00322375  0.00311699  0.01510025  1
  Mo  Mo170  1  0.30251745  0.29909097  0.85760257  1
  Mo  Mo171  1  0.09499239  0.70234161  0.38782294  1
  Mo  Mo172  1  0.79813849  0.59774814  0.02457648  1
  Mo  Mo173  1  0.19935355  0.19276753  0.76347896  1
  Mo  Mo174  1  0.50445107  0.89794466  0.36044750  1
  Mo  Mo175  1  0.39618193  0.79622509  0.74535762  1
  Mo  Mo176  1  0.69825938  0.29682111  0.35285060  1
  Mo  Mo177  1  0.29782741  0.70177355  0.14140368  1
  Mo  Mo178  1  -0.00116005  0.79944804  0.48737068  1
  Mo  Mo179  1  0.79381022  0.39170485  0.01819987  1
  Mo  Mo180  1  0.21025826  0.79234046  0.00975680  1
  Mo  Mo181  1  0.08958606  0.50334561  0.38581823  1
  Mo  Mo182  1  0.51326945  0.11803034  0.63996602  1
  Mo  Mo183  1  0.40403354  0.40216334  0.73575095  1
  Mo  Mo184  1  0.30944745  0.09960819  0.36235869  1
  Mo  Mo185  1  0.49451275  0.70091065  0.14494157  1
  Mo  Mo186  1  0.89668777  0.10393448  0.37776801  1
  Mo  Mo187  1  0.39809121  0.80859604  0.49385698  1
  Mo  Mo188  1  0.60536133  0.59969963  0.73168430  1
  Mo  Mo189  1  0.40709656  0.20155738  0.75081376  1
  Mo  Mo190  1  0.50092993  0.50143852  0.62823360  1
  Mo  Mo191  1  0.70064628  0.10015114  0.37438044  1
  Mo  Mo192  1  0.20279722  0.19617458  0.25857739  1
  Mo  Mo193  1  0.69453160  0.10624617  0.10882001  1
  Mo  Mo194  1  0.70096098  0.69621484  0.62186692  1
  Mo  Mo195  1  0.89815739  0.50217205  0.61072149  1
  Mo  Mo196  1  0.19757369  0.40070730  0.76145946  1
  Mo  Mo197  1  0.41237519  0.40376393  0.00894613  1
  Mo  Mo198  1  0.79368847  -0.00652095  0.01411727  1
  Mo  Mo199  1  0.49915736  0.29438742  0.64197534  1
