# generated using pymatgen
data_HfZrTaTiMo
_symmetry_space_group_name_H-M   'P 1'
_cell_length_a   15.84511975
_cell_length_b   15.83053713
_cell_length_c   15.38986017
_cell_angle_alpha   89.93621933
_cell_angle_beta   90.02258683
_cell_angle_gamma   90.05267244
_symmetry_Int_Tables_number   1
_chemical_formula_structural   HfZrTaTiMo
_chemical_formula_sum   'Hf40 Zr40 Ta40 Ti40 Mo40'
_cell_volume   3860.33828640
_cell_formula_units_Z   40
loop_
 _symmetry_equiv_pos_site_id
 _symmetry_equiv_pos_as_xyz
  1  'x, y, z'
loop_
 _atom_site_type_symbol
 _atom_site_label
 _atom_site_symmetry_multiplicity
 _atom_site_fract_x
 _atom_site_fract_y
 _atom_site_fract_z
 _atom_site_occupancy
  Hf  Hf0  1  0.59709706  0.79638672  0.75946519  1
  Hf  Hf1  1  -0.00229865  0.61575012  0.24279928  1
  Hf  Hf2  1  0.00643870  0.00856953  0.72989635  1
  Hf  Hf3  1  0.88114418  0.70833470  0.38683050  1
  Hf  Hf4  1  0.49960815  0.29826120  0.63098800  1
  Hf  Hf5  1  0.79794171  0.39324507  0.24198061  1
  Hf  Hf6  1  0.59522757  -0.00832952  -0.00407662  1
  Hf  Hf7  1  0.59719703  0.59423370  0.48651125  1
  Hf  Hf8  1  0.09557149  0.09049257  0.38246245  1
  Hf  Hf9  1  0.79017536  0.20587169  0.50258662  1
  Hf  Hf10  1  0.59853338  0.40103390  0.22383545  1
  Hf  Hf11  1  0.39890427  -0.00898656  0.74618439  1
  Hf  Hf12  1  0.79580794  0.60589571  0.77890057  1
  Hf  Hf13  1  0.61068141  0.20438514  0.25194277  1
  Hf  Hf14  1  0.00507418  0.40541914  0.00686452  1
  Hf  Hf15  1  0.70263084  0.10081344  0.11422035  1
  Hf  Hf16  1  0.40126801  0.19470598  0.75937013  1
  Hf  Hf17  1  0.91935357  0.89821817  0.10060445  1
  Hf  Hf18  1  0.30354985  0.70499070  0.88878940  1
  Hf  Hf19  1  0.89335081  0.90089159  0.60619637  1
  Hf  Hf20  1  0.19381054  0.78563851  0.26181514  1
  Hf  Hf21  1  0.79795723  0.79588105  0.76187904  1
  Hf  Hf22  1  0.79086937  0.61049823  0.23459302  1
  Hf  Hf23  1  -0.01058547  0.19784858  0.25116637  1
  Hf  Hf24  1  0.19998289  0.41177998  0.74505198  1
  Hf  Hf25  1  0.79776741  0.41431263  0.75446648  1
  Hf  Hf26  1  0.09277932  0.09142626  0.12044042  1
  Hf  Hf27  1  0.69181628  0.09905896  0.63774392  1
  Hf  Hf28  1  0.09436172  0.68514906  0.61183210  1
  Hf  Hf29  1  0.00315575  0.20333363  0.74018193  1
  Hf  Hf30  1  0.30672910  0.88854840  0.60749463  1
  Hf  Hf31  1  0.80990719  -0.00739437  0.23818512  1
  Hf  Hf32  1  0.39950873  0.20235432  0.49319720  1
  Hf  Hf33  1  0.00272324  0.41123615  0.74328333  1
  Hf  Hf34  1  0.79052187  -0.01392161  -0.00874466  1
  Hf  Hf35  1  0.71040488  0.68451857  0.61537605  1
  Hf  Hf36  1  0.59768762  0.78918749  0.48527316  1
  Hf  Hf37  1  0.10284815  0.50654507  0.36118396  1
  Hf  Hf38  1  0.30506008  0.30668003  0.62566053  1
  Hf  Hf39  1  0.00586628  0.41397536  0.51474254  1
  Zr  Zr40  1  0.61676451  0.79293076  0.25591556  1
  Zr  Zr41  1  0.78654649  0.40954812  0.50841964  1
  Zr  Zr42  1  0.49859402  0.70617925  0.12178867  1
  Zr  Zr43  1  0.10442101  0.90611587  0.88218243  1
  Zr  Zr44  1  0.89154676  0.07822792  0.39700747  1
  Zr  Zr45  1  -0.00195644  0.19324442  0.51961508  1
  Zr  Zr46  1  0.60220627  0.19308116  0.48834121  1
  Zr  Zr47  1  0.09625296  0.30450953  0.38198451  1
  Zr  Zr48  1  0.79871043  0.19793946  0.26020679  1
  Zr  Zr49  1  0.49362488  0.49833677  0.35231125  1
  Zr  Zr50  1  -0.00109959  0.81423179  0.26399373  1
  Zr  Zr51  1  0.69050431  0.90110125  0.62200083  1
  Zr  Zr52  1  0.20967179  0.79704940  0.74513032  1
  Zr  Zr53  1  0.40591621  0.00326421  0.49776556  1
  Zr  Zr54  1  0.89931427  0.50404948  0.37182478  1
  Zr  Zr55  1  0.49161267  0.51007627  0.62729735  1
  Zr  Zr56  1  0.69294795  0.09806678  0.86576232  1
  Zr  Zr57  1  0.30179132  0.30623754  0.88378539  1
  Zr  Zr58  1  0.10626142  0.30445448  0.88390429  1
  Zr  Zr59  1  0.59955757  0.39640818  0.49869008  1
  Zr  Zr60  1  0.10617991  0.70183369  0.88556886  1
  Zr  Zr61  1  0.30576222  0.09348569  0.14218932  1
  Zr  Zr62  1  0.19555188  0.20027825  0.25270402  1
  Zr  Zr63  1  0.20143943  0.19042901  0.74142810  1
  Zr  Zr64  1  0.49430736  0.10347813  0.13812868  1
  Zr  Zr65  1  0.89473326  0.53658451  0.61374311  1
  Zr  Zr66  1  0.11188497  0.09964290  0.88804436  1
  Zr  Zr67  1  0.91121175  0.09527486  0.88107578  1
  Zr  Zr68  1  0.49197788  0.70675937  0.89410248  1
  Zr  Zr69  1  0.10915689  0.89867747  0.60953313  1
  Zr  Zr70  1  0.20371161  0.40164628  0.24115025  1
  Zr  Zr71  1  0.49753588  0.90225248  0.13603268  1
  Zr  Zr72  1  0.59973320  0.59966354  0.76874425  1
  Zr  Zr73  1  0.49260068  0.30109840  0.35807724  1
  Zr  Zr74  1  -0.00527872  0.79620382  0.74624224  1
  Zr  Zr75  1  -0.00024200  0.60141019  0.76636515  1
  Zr  Zr76  1  0.58875164  0.20693682  -0.00871361  1
  Zr  Zr77  1  0.20085929  0.59367963  0.01812863  1
  Zr  Zr78  1  0.72837729  0.89952475  0.39267570  1
  Zr  Zr79  1  0.59841203  0.40881512  0.76345874  1
  Ta  Ta80  1  0.39770920  0.19878200  -0.00357252  1
  Ta  Ta81  1  0.40154866  0.59368140  0.01420741  1
  Ta  Ta82  1  -0.00174558  0.60098882  0.00436512  1
  Ta  Ta83  1  0.00190799  0.80026457  0.48876517  1
  Ta  Ta84  1  0.39787025  0.79206069  0.26894878  1
  Ta  Ta85  1  0.38519861  0.60167097  0.25069506  1
  Ta  Ta86  1  0.80342292  0.20478309  0.75694985  1
  Ta  Ta87  1  0.80256748  0.80155385  0.22673272  1
  Ta  Ta88  1  0.18951635  -0.01734975  0.25384977  1
  Ta  Ta89  1  0.90474779  0.89528028  0.88198911  1
  Ta  Ta90  1  0.30079326  0.09736226  0.36461994  1
  Ta  Ta91  1  0.61597964  -0.00199298  0.25927804  1
  Ta  Ta92  1  0.90272227  0.30590479  0.87432629  1
  Ta  Ta93  1  0.49828493  0.09355785  0.35833950  1
  Ta  Ta94  1  0.50283075  0.89560545  0.61093562  1
  Ta  Ta95  1  0.50464060  0.90161056  0.37367230  1
  Ta  Ta96  1  0.20277942  0.59135362  0.49248948  1
  Ta  Ta97  1  0.30609419  0.50238541  0.88558646  1
  Ta  Ta98  1  0.89645593  0.29445156  0.10886046  1
  Ta  Ta99  1  -0.00676266  0.39377186  0.23531655  1
  Ta  Ta100  1  0.29866888  0.89947993  0.37644167  1
  Ta  Ta101  1  0.39240453  0.40969121  0.49379014  1
  Ta  Ta102  1  0.10813054  0.30475621  0.61756461  1
  Ta  Ta103  1  0.09232591  0.71358284  0.11560617  1
  Ta  Ta104  1  0.89362296  0.30480576  0.63050709  1
  Ta  Ta105  1  0.80068925  0.20335983  -0.01727859  1
  Ta  Ta106  1  0.70073330  0.50300607  0.10875818  1
  Ta  Ta107  1  0.40276714  0.78752818  0.48095624  1
  Ta  Ta108  1  0.39496912  0.60112249  0.47730494  1
  Ta  Ta109  1  0.70109806  0.30036093  0.10370269  1
  Ta  Ta110  1  0.20886393  -0.00904666  0.01891023  1
  Ta  Ta111  1  0.30571248  0.69174527  0.61224970  1
  Ta  Ta112  1  0.80019788  0.40137789  -0.00639524  1
  Ta  Ta113  1  0.90063746  0.10097948  0.10686263  1
  Ta  Ta114  1  0.59699239  0.59220301  -0.00255692  1
  Ta  Ta115  1  0.80502730  -0.00298571  0.75117993  1
  Ta  Ta116  1  0.89916350  0.30586894  0.38734282  1
  Ta  Ta117  1  0.09935536  0.29587666  0.11858829  1
  Ta  Ta118  1  0.69653923  0.29915228  0.64548341  1
  Ta  Ta119  1  0.20630803  0.20000637  0.49723620  1
  Ti  Ti120  1  0.61882095  0.80676156  -0.00034078  1
  Ti  Ti121  1  0.29885450  0.08910061  0.88259478  1
  Ti  Ti122  1  0.90035787  0.50395986  0.89169935  1
  Ti  Ti123  1  0.00137676  0.20322008  -0.00167677  1
  Ti  Ti124  1  0.39395410  -0.00561197  0.00333501  1
  Ti  Ti125  1  0.20455624  0.59769516  0.74700090  1
  Ti  Ti126  1  -0.00026447  -0.00559135  0.25194202  1
  Ti  Ti127  1  0.49306604  0.31344566  0.88100095  1
  Ti  Ti128  1  0.20650321  -0.00062620  0.74123172  1
  Ti  Ti129  1  0.30648978  0.49844607  0.13219723  1
  Ti  Ti130  1  0.41561409  0.40268433  0.01905786  1
  Ti  Ti131  1  0.29914125  0.70343315  0.12684147  1
  Ti  Ti132  1  0.31425922  0.29387966  0.12995421  1
  Ti  Ti133  1  0.40308993  0.79773732  0.74353614  1
  Ti  Ti134  1  0.69930849  0.50073679  0.35930212  1
  Ti  Ti135  1  0.21029391  0.19739166  0.01214530  1
  Ti  Ti136  1  0.39936194  0.41301061  0.75738160  1
  Ti  Ti137  1  0.39527446  0.60372754  0.75847633  1
  Ti  Ti138  1  0.59013774  -0.01235078  0.76367579  1
  Ti  Ti139  1  0.20482239  0.80924003  0.01530336  1
  Ti  Ti140  1  0.11103234  0.50138351  0.88493664  1
  Ti  Ti141  1  0.48740817  0.89228047  0.88688213  1
  Ti  Ti142  1  0.20258254  0.00212808  0.49308928  1
  Ti  Ti143  1  0.60064622  0.60357110  0.23696064  1
  Ti  Ti144  1  0.30256075  0.30806737  0.36731757  1
  Ti  Ti145  1  0.20085385  0.78645753  0.48069980  1
  Ti  Ti146  1  0.09786775  0.50477762  0.13556872  1
  Ti  Ti147  1  0.49305478  0.70119647  0.62270058  1
  Ti  Ti148  1  0.89643433  0.50141100  0.11943301  1
  Ti  Ti149  1  0.30073999  0.09748980  0.61882267  1
  Ti  Ti150  1  0.59136037  0.20316256  0.76426147  1
  Ti  Ti151  1  0.20825850  0.39937095  0.01526123  1
  Ti  Ti152  1  0.89528437  0.70452712  0.10119656  1
  Ti  Ti153  1  0.20703602  0.40524204  0.49719352  1
  Ti  Ti154  1  0.48891620  0.09134442  0.87925750  1
  Ti  Ti155  1  0.30439905  0.89357245  0.14450142  1
  Ti  Ti156  1  0.30097123  0.50773852  0.62296856  1
  Ti  Ti157  1  0.30293193  0.89867240  0.88034969  1
  Ti  Ti158  1  0.50623888  0.09165896  0.62805482  1
  Ti  Ti159  1  0.69906305  0.30762502  0.87785483  1
  Mo  Mo160  1  0.48520582  0.49936650  0.88334940  1
  Mo  Mo161  1  0.00478057  0.79725365  -0.01081416  1
  Mo  Mo162  1  0.49426387  0.29839484  0.12383030  1
  Mo  Mo163  1  0.89986764  0.70165725  0.89790181  1
  Mo  Mo164  1  0.69604213  0.09379879  0.37992640  1
  Mo  Mo165  1  0.69587509  0.49961522  0.62606332  1
  Mo  Mo166  1  0.59834983  0.00124362  0.48521641  1
  Mo  Mo167  1  0.69711265  0.49791195  0.89902132  1
  Mo  Mo168  1  0.49659693  0.50579068  0.13037581  1
  Mo  Mo169  1  0.11145823  0.50325213  0.61812359  1
  Mo  Mo170  1  0.11490277  0.10015433  0.61056554  1
  Mo  Mo171  1  0.69938948  0.70143917  0.89841296  1
  Mo  Mo172  1  0.19832334  0.60351743  0.23434611  1
  Mo  Mo173  1  0.70605947  0.30758066  0.36770658  1
  Mo  Mo174  1  0.10338185  0.90337825  0.39112395  1
  Mo  Mo175  1  0.70371421  0.89890157  0.12961963  1
  Mo  Mo176  1  0.80055185  0.59990570  0.00105408  1
  Mo  Mo177  1  0.79800180  0.79811571  -0.00465834  1
  Mo  Mo178  1  0.69614464  0.89794082  0.85941275  1
  Mo  Mo179  1  0.79763651  0.79586941  0.51171732  1
  Mo  Mo180  1  0.29380603  0.69183366  0.37814001  1
  Mo  Mo181  1  0.78656460  0.59910599  0.48134994  1
  Mo  Mo182  1  0.00548845  -0.00085909  0.51371797  1
  Mo  Mo183  1  0.00347839  0.60585401  0.48254572  1
  Mo  Mo184  1  0.39771425  0.20029366  0.26079366  1
  Mo  Mo185  1  0.49895461  0.69502393  0.35772140  1
  Mo  Mo186  1  0.59673045  0.40278057  0.00150026  1
  Mo  Mo187  1  0.09597148  0.69458812  0.38317336  1
  Mo  Mo188  1  0.10828679  0.89789937  0.12099270  1
  Mo  Mo189  1  0.38614223  0.80957901  0.01356515  1
  Mo  Mo190  1  0.00528731  0.00117665  -0.00186715  1
  Mo  Mo191  1  0.39782243  -0.00993554  0.26563337  1
  Mo  Mo192  1  0.88889081  0.10387638  0.63136164  1
  Mo  Mo193  1  0.39672131  0.39808507  0.23043036  1
  Mo  Mo194  1  0.29775731  0.49430341  0.36610917  1
  Mo  Mo195  1  0.90521554  0.90275414  0.38852967  1
  Mo  Mo196  1  0.69987170  0.69158829  0.37228587  1
  Mo  Mo197  1  0.89840225  0.70527338  0.60913187  1
  Mo  Mo198  1  0.70112152  0.70110496  0.10601848  1
  Mo  Mo199  1  0.79440157  0.01045496  0.52421255  1
