# generated using pymatgen
data_HfZrTaTiMo
_symmetry_space_group_name_H-M   'P 1'
_cell_length_a   15.84015535
_cell_length_b   15.83888345
_cell_length_c   15.40178317
_cell_angle_alpha   90.00135113
_cell_angle_beta   89.93602271
_cell_angle_gamma   90.00027900
_symmetry_Int_Tables_number   1
_chemical_formula_structural   HfZrTaTiMo
_chemical_formula_sum   'Hf40 Zr40 Ta40 Ti40 Mo40'
_cell_volume   3864.15673826
_cell_formula_units_Z   40
loop_
 _symmetry_equiv_pos_site_id
 _symmetry_equiv_pos_as_xyz
  1  'x, y, z'
loop_
 _atom_site_type_symbol
 _atom_site_label
 _atom_site_symmetry_multiplicity
 _atom_site_fract_x
 _atom_site_fract_y
 _atom_site_fract_z
 _atom_site_occupancy
  Hf  Hf0  1  0.29902129  0.09322547  0.87503206  1
  Hf  Hf1  1  0.31723846  0.69385581  0.86249825  1
  Hf  Hf2  1  0.90373314  0.69885969  0.61175229  1
  Hf  Hf3  1  0.21201792  0.59943696  0.24898255  1
  Hf  Hf4  1  0.90698024  0.89495995  0.61200015  1
  Hf  Hf5  1  0.20219685  0.39873707  0.26213151  1
  Hf  Hf6  1  0.40405846  0.80566622  -0.00739720  1
  Hf  Hf7  1  0.60390525  0.60173181  -0.00888998  1
  Hf  Hf8  1  0.48947601  0.51080163  0.85744126  1
  Hf  Hf9  1  0.89168431  0.08951162  0.36285101  1
  Hf  Hf10  1  0.20345809  0.61285043  0.50036707  1
  Hf  Hf11  1  0.19874988  0.20818360  0.74387146  1
  Hf  Hf12  1  0.89878287  0.88864043  0.35820667  1
  Hf  Hf13  1  0.40051661  0.40744121  0.25103834  1
  Hf  Hf14  1  0.89262993  0.30182056  0.13851952  1
  Hf  Hf15  1  0.49672055  0.30392354  0.40069609  1
  Hf  Hf16  1  0.80062724  0.59745703  0.24076169  1
  Hf  Hf17  1  -0.00095197  0.39884239  0.26988638  1
  Hf  Hf18  1  0.49928197  0.29817420  0.61060030  1
  Hf  Hf19  1  0.78313181  0.19157112  0.25055546  1
  Hf  Hf20  1  0.70752258  0.69990554  0.61861251  1
  Hf  Hf21  1  -0.01212824  0.20990582  -0.00891567  1
  Hf  Hf22  1  0.58828208  -0.00101369  0.75101034  1
  Hf  Hf23  1  0.51086664  0.70923862  0.12784734  1
  Hf  Hf24  1  0.70811512  0.89402527  0.37902413  1
  Hf  Hf25  1  0.40351597  0.80659481  0.24772902  1
  Hf  Hf26  1  0.39751707  0.40516455  0.00481863  1
  Hf  Hf27  1  0.19329186  0.59956073  0.73745764  1
  Hf  Hf28  1  0.89483055  0.09862816  0.12520841  1
  Hf  Hf29  1  0.80626971  0.39147037  -0.01295368  1
  Hf  Hf30  1  0.00521508  -0.00245507  0.48309361  1
  Hf  Hf31  1  0.40511574  0.21087083  0.24972758  1
  Hf  Hf32  1  0.69991864  0.89712094  0.61916821  1
  Hf  Hf33  1  0.91124001  0.70161085  0.88913282  1
  Hf  Hf34  1  0.00404530  0.59699032  0.24872433  1
  Hf  Hf35  1  0.38891154  0.39869879  0.72979630  1
  Hf  Hf36  1  0.10903664  0.28208056  0.38793359  1
  Hf  Hf37  1  0.51005584  0.49152284  0.12443107  1
  Hf  Hf38  1  0.69188194  0.29451337  0.39534165  1
  Hf  Hf39  1  0.11127995  0.89703521  0.63217748  1
  Zr  Zr40  1  0.60924321  0.59318098  0.24440519  1
  Zr  Zr41  1  0.39881496  0.60308059  0.01384228  1
  Zr  Zr42  1  0.59332437  -0.00041687  0.49369298  1
  Zr  Zr43  1  0.60427075  0.19911487  0.74659543  1
  Zr  Zr44  1  -0.00662031  -0.01328192  0.00679352  1
  Zr  Zr45  1  0.40076097  0.19450355  0.74524735  1
  Zr  Zr46  1  0.09242570  0.29998721  0.12371193  1
  Zr  Zr47  1  0.80533862  0.59543694  0.00961917  1
  Zr  Zr48  1  0.50533291  0.69201393  0.36626400  1
  Zr  Zr49  1  0.60456441  0.38844422  -0.01820194  1
  Zr  Zr50  1  0.08983543  0.29134018  0.61625047  1
  Zr  Zr51  1  0.40490302  0.20915750  0.00233095  1
  Zr  Zr52  1  0.78188856  0.20573860  0.00212044  1
  Zr  Zr53  1  0.41346128  0.01023301  0.24932162  1
  Zr  Zr54  1  0.28933758  0.10868939  0.36834673  1
  Zr  Zr55  1  0.80783852  0.38431905  0.74269092  1
  Zr  Zr56  1  0.58367861  0.79633807  0.49927292  1
  Zr  Zr57  1  0.89942863  0.70421011  0.37483458  1
  Zr  Zr58  1  0.19842997  0.80109833  0.76680840  1
  Zr  Zr59  1  0.69503349  0.50931116  0.62506816  1
  Zr  Zr60  1  0.30597463  0.71960741  0.62822973  1
  Zr  Zr61  1  0.78923017  0.40024225  0.25746714  1
  Zr  Zr62  1  0.88401919  0.09148770  0.87410750  1
  Zr  Zr63  1  0.09449892  0.09611275  0.86636948  1
  Zr  Zr64  1  0.08957987  0.08977169  0.63798790  1
  Zr  Zr65  1  0.20063676  -0.00336136  0.48373286  1
  Zr  Zr66  1  0.81196589  0.80755615  0.75944001  1
  Zr  Zr67  1  0.28924193  0.30560207  0.87802531  1
  Zr  Zr68  1  0.29471452  0.08744267  0.62746475  1
  Zr  Zr69  1  0.31371635  0.50658808  0.39126607  1
  Zr  Zr70  1  0.08403972  0.31807214  0.86730262  1
  Zr  Zr71  1  0.00821081  0.60198060  0.01396493  1
  Zr  Zr72  1  0.49978785  0.70385903  0.64809513  1
  Zr  Zr73  1  0.28817070  0.50172587  0.86755023  1
  Zr  Zr74  1  0.59913900  0.80629653  0.77273878  1
  Zr  Zr75  1  0.71515610  0.91713526  0.89041075  1
  Zr  Zr76  1  0.80532756  0.39421903  0.51384309  1
  Zr  Zr77  1  0.28672759  0.30389919  0.12218867  1
  Zr  Zr78  1  0.69142103  0.50489270  0.39675998  1
  Zr  Zr79  1  0.29655876  0.10097079  0.12192068  1
  Ta  Ta80  1  0.50103786  0.09669251  0.88805445  1
  Ta  Ta81  1  0.30092982  0.30159143  0.39578006  1
  Ta  Ta82  1  0.66899201  0.28558823  0.13292936  1
  Ta  Ta83  1  0.00152120  0.59919126  0.74754149  1
  Ta  Ta84  1  0.10546654  0.70497580  0.36495530  1
  Ta  Ta85  1  0.00273017  -0.00491893  0.23789147  1
  Ta  Ta86  1  0.78528760  -0.01272523  0.22913844  1
  Ta  Ta87  1  0.51982889  0.11336197  0.11177330  1
  Ta  Ta88  1  0.89802243  0.28978586  0.38400047  1
  Ta  Ta89  1  0.58933936  0.18647438  0.27108243  1
  Ta  Ta90  1  0.00384743  0.79162965  0.75560126  1
  Ta  Ta91  1  0.70875722  0.70214007  0.38652113  1
  Ta  Ta92  1  -0.01324817  -0.01813238  0.75840286  1
  Ta  Ta93  1  0.81143646  0.60006172  0.75885145  1
  Ta  Ta94  1  0.20890372  0.81018378  0.48235447  1
  Ta  Ta95  1  0.10419178  0.49606228  0.12861254  1
  Ta  Ta96  1  0.80573962  0.18711909  0.51290502  1
  Ta  Ta97  1  0.41520767  0.60739815  0.51493191  1
  Ta  Ta98  1  0.10350979  0.89259688  0.34826709  1
  Ta  Ta99  1  0.91393167  0.49137611  0.87168396  1
  Ta  Ta100  1  0.10289209  0.50232405  0.38848951  1
  Ta  Ta101  1  0.19233311  0.40594816  0.72452323  1
  Ta  Ta102  1  0.89789991  0.50246021  0.38754749  1
  Ta  Ta103  1  0.30750176  0.90568486  0.64034870  1
  Ta  Ta104  1  0.70817465  0.49960849  0.86336515  1
  Ta  Ta105  1  0.69501249  0.10439446  0.87848530  1
  Ta  Ta106  1  -0.00136048  0.39851847  0.49756293  1
  Ta  Ta107  1  0.60072916  0.40116604  0.74509594  1
  Ta  Ta108  1  0.19607322  -0.01175020  0.00132940  1
  Ta  Ta109  1  0.51058338  0.91023007  0.11538588  1
  Ta  Ta110  1  0.49790822  0.30290355  0.86074278  1
  Ta  Ta111  1  0.10204452  0.10158318  0.12821399  1
  Ta  Ta112  1  0.29466420  0.89780470  0.12789704  1
  Ta  Ta113  1  0.71266146  0.70186000  0.88623111  1
  Ta  Ta114  1  0.00313261  0.19298319  0.25876821  1
  Ta  Ta115  1  0.49212930  0.09077503  0.60930678  1
  Ta  Ta116  1  0.20126304  0.40086611  0.51044116  1
  Ta  Ta117  1  0.81385816  0.81459951  0.01440413  1
  Ta  Ta118  1  0.20295910  0.60443813  0.01330566  1
  Ta  Ta119  1  0.09252967  0.50721685  0.61011769  1
  Ti  Ti120  1  0.31124861  0.70873476  0.37790883  1
  Ti  Ti121  1  0.70209775  0.48312934  0.11868333  1
  Ti  Ti122  1  0.19847627  -0.00013669  0.24476621  1
  Ti  Ti123  1  0.30445014  0.50698378  0.61522425  1
  Ti  Ti124  1  0.90228205  0.50934148  0.61631529  1
  Ti  Ti125  1  0.60380380  0.80522196  -0.00981370  1
  Ti  Ti126  1  0.30616016  0.90772669  0.86800126  1
  Ti  Ti127  1  0.30009173  0.70753958  0.12730660  1
  Ti  Ti128  1  -0.02836975  0.20252522  0.74579055  1
  Ti  Ti129  1  0.79894940  0.00825677  0.73592079  1
  Ti  Ti130  1  0.70390841  0.71211045  0.11643156  1
  Ti  Ti131  1  0.40197296  0.59836150  0.24119333  1
  Ti  Ti132  1  0.01042620  0.80452283  0.01743454  1
  Ti  Ti133  1  0.00265783  0.60349847  0.49072702  1
  Ti  Ti134  1  0.69831061  0.09440957  0.38425847  1
  Ti  Ti135  1  0.49153812  0.90278440  0.37661388  1
  Ti  Ti136  1  0.01540627  0.80236477  0.48874455  1
  Ti  Ti137  1  0.60238236  0.00451395  0.25126937  1
  Ti  Ti138  1  0.90444951  0.71111463  0.13532921  1
  Ti  Ti139  1  0.69536588  0.09843235  0.61768732  1
  Ti  Ti140  1  0.10460075  0.69353272  0.88311953  1
  Ti  Ti141  1  0.20207152  0.80074196  -0.00321641  1
  Ti  Ti142  1  0.19097213  0.41227105  0.00387674  1
  Ti  Ti143  1  0.11204060  0.71482169  0.13980123  1
  Ti  Ti144  1  0.09421534  0.89427378  0.87713537  1
  Ti  Ti145  1  0.38972753  0.18868479  0.50210902  1
  Ti  Ti146  1  0.18942195  0.19675012  -0.00751807  1
  Ti  Ti147  1  0.09686323  0.70620085  0.61735899  1
  Ti  Ti148  1  0.69663335  0.29227413  0.61704569  1
  Ti  Ti149  1  0.59298500  0.38921077  0.25720211  1
  Ti  Ti150  1  -0.00551919  0.18368705  0.49482838  1
  Ti  Ti151  1  0.09657059  0.50376030  0.87580183  1
  Ti  Ti152  1  0.90958802  0.48776182  0.12177312  1
  Ti  Ti153  1  0.60784747  0.60630738  0.76439677  1
  Ti  Ti154  1  0.61171712  0.81269600  0.24692181  1
  Ti  Ti155  1  0.47908649  0.90099850  0.62217414  1
  Ti  Ti156  1  0.80533149  0.00023561  0.50384866  1
  Ti  Ti157  1  -0.00475637  0.40308246  0.72907515  1
  Ti  Ti158  1  0.40049090  -0.00118539  0.00641488  1
  Ti  Ti159  1  0.50585245  0.49548335  0.39914966  1
  Mo  Mo160  1  0.50168127  0.50636649  0.63332551  1
  Mo  Mo161  1  0.39610530  0.40740621  0.51414804  1
  Mo  Mo162  1  0.39552817  -0.00950086  0.48795182  1
  Mo  Mo163  1  0.89744337  0.29882933  0.86192576  1
  Mo  Mo164  1  0.59671555  0.20506140  -0.01958053  1
  Mo  Mo165  1  0.49736130  0.10200908  0.39088753  1
  Mo  Mo166  1  0.39996763  0.59849820  0.73376441  1
  Mo  Mo167  1  0.79283895  0.79359439  0.23274116  1
  Mo  Mo168  1  0.29478446  0.50395951  0.12617751  1
  Mo  Mo169  1  0.00605358  0.79663246  0.23776434  1
  Mo  Mo170  1  0.80615493  0.60244958  0.49845837  1
  Mo  Mo171  1  0.79498974  0.00087628  0.02021719  1
  Mo  Mo172  1  0.29475243  0.29674206  0.60606132  1
  Mo  Mo173  1  0.39207573  0.80833248  0.48807507  1
  Mo  Mo174  1  0.90850030  0.89512128  0.88139820  1
  Mo  Mo175  1  0.50007633  0.91164078  0.89822962  1
  Mo  Mo176  1  0.09529970  0.09433587  0.35721704  1
  Mo  Mo177  1  0.19588616  0.19814385  0.24669766  1
  Mo  Mo178  1  0.19478893  -0.00530064  0.76924347  1
  Mo  Mo179  1  0.59772747  0.60371613  0.50155605  1
  Mo  Mo180  1  0.68903858  0.09515932  0.11983435  1
  Mo  Mo181  1  0.59695412  0.40382424  0.52383766  1
  Mo  Mo182  1  0.69983792  0.29873510  0.85343526  1
  Mo  Mo183  1  0.50180813  0.29961010  0.13478546  1
  Mo  Mo184  1  0.90354875  0.29010308  0.60953268  1
  Mo  Mo185  1  0.50852696  0.70397085  0.87138882  1
  Mo  Mo186  1  0.90051263  0.89342541  0.13952616  1
  Mo  Mo187  1  0.60296377  0.19201024  0.50031487  1
  Mo  Mo188  1  -0.00155170  0.40700645  0.00020221  1
  Mo  Mo189  1  0.40457402  -0.00244520  0.75907211  1
  Mo  Mo190  1  0.60101634  0.00518351  0.00071403  1
  Mo  Mo191  1  0.21008377  0.79830615  0.25655880  1
  Mo  Mo192  1  0.11042394  0.89861289  0.12936298  1
  Mo  Mo193  1  0.19802980  0.19640217  0.50932773  1
  Mo  Mo194  1  0.80180013  0.80495564  0.50162317  1
  Mo  Mo195  1  0.40899789  0.81648752  0.77177587  1
  Mo  Mo196  1  0.79642653  0.18953385  0.72976288  1
  Mo  Mo197  1  0.30059265  0.90057730  0.35370140  1
  Mo  Mo198  1  0.69209727  0.89672699  0.11787770  1
  Mo  Mo199  1  0.89836492  0.09204923  0.62902361  1
