# generated using pymatgen
data_HfZrTaTiMo
_symmetry_space_group_name_H-M   'P 1'
_cell_length_a   15.84395964
_cell_length_b   15.83988456
_cell_length_c   15.39240298
_cell_angle_alpha   90.00328322
_cell_angle_beta   90.00405404
_cell_angle_gamma   90.03629488
_symmetry_Int_Tables_number   1
_chemical_formula_structural   HfZrTaTiMo
_chemical_formula_sum   'Hf40 Zr40 Ta40 Ti40 Mo40'
_cell_volume   3862.97658495
_cell_formula_units_Z   40
loop_
 _symmetry_equiv_pos_site_id
 _symmetry_equiv_pos_as_xyz
  1  'x, y, z'
loop_
 _atom_site_type_symbol
 _atom_site_label
 _atom_site_symmetry_multiplicity
 _atom_site_fract_x
 _atom_site_fract_y
 _atom_site_fract_z
 _atom_site_occupancy
  Hf  Hf0  1  0.19353246  0.40516963  -0.00278730  1
  Hf  Hf1  1  0.60347389  0.19354285  0.73885141  1
  Hf  Hf2  1  0.79759989  0.61058858  0.75215034  1
  Hf  Hf3  1  0.89119977  0.50254187  0.39609855  1
  Hf  Hf4  1  0.00736963  -0.00904865  0.74329435  1
  Hf  Hf5  1  0.09672249  0.09916158  0.39078788  1
  Hf  Hf6  1  0.79779591  0.19822538  -0.01614231  1
  Hf  Hf7  1  0.60036819  0.40144616  0.00768110  1
  Hf  Hf8  1  0.29357967  0.70489661  0.87228416  1
  Hf  Hf9  1  0.19688723  0.19301814  0.25442582  1
  Hf  Hf10  1  0.29363280  0.30630182  0.37190333  1
  Hf  Hf11  1  0.30433777  0.29366654  0.12708738  1
  Hf  Hf12  1  0.00621938  0.39590546  -0.00986883  1
  Hf  Hf13  1  0.49969849  0.49043964  0.64008705  1
  Hf  Hf14  1  0.30915784  0.89534689  0.61476950  1
  Hf  Hf15  1  0.50671461  0.09954531  0.87845093  1
  Hf  Hf16  1  0.29071015  0.10206442  0.61756034  1
  Hf  Hf17  1  0.41063536  0.39746703  -0.00361349  1
  Hf  Hf18  1  0.40990177  0.40041463  0.49741833  1
  Hf  Hf19  1  0.80150087  -0.00349872  0.49590275  1
  Hf  Hf20  1  0.78479191  0.00217069  0.75399144  1
  Hf  Hf21  1  0.21161695  0.80600193  0.24364880  1
  Hf  Hf22  1  0.70696248  0.09887902  0.13691816  1
  Hf  Hf23  1  0.00660734  0.40066588  0.50946279  1
  Hf  Hf24  1  0.10180099  0.50823883  0.38357016  1
  Hf  Hf25  1  0.89932971  0.29599102  0.62179576  1
  Hf  Hf26  1  0.32109689  0.29651571  0.64144079  1
  Hf  Hf27  1  0.80090884  0.40361927  0.73902490  1
  Hf  Hf28  1  0.60678287  0.20303145  0.25978893  1
  Hf  Hf29  1  0.60266031  0.59528612  -0.00585092  1
  Hf  Hf30  1  0.90213666  0.09614371  0.86895979  1
  Hf  Hf31  1  0.20112345  0.78919666  0.50267657  1
  Hf  Hf32  1  0.90474825  0.69536671  0.36819392  1
  Hf  Hf33  1  0.19054713  0.40316251  0.23658654  1
  Hf  Hf34  1  0.40949847  0.60673980  -0.01270671  1
  Hf  Hf35  1  0.69509134  0.30385519  0.86041534  1
  Hf  Hf36  1  0.91035161  0.71036773  0.87213225  1
  Hf  Hf37  1  0.90919647  0.50856337  0.86473893  1
  Hf  Hf38  1  0.60027246  0.61170353  0.75864811  1
  Hf  Hf39  1  0.10225137  0.89612468  0.37553118  1
  Zr  Zr40  1  0.41023324  0.20463280  0.48349967  1
  Zr  Zr41  1  0.59768181  0.81053691  0.76259131  1
  Zr  Zr42  1  0.19717705  0.20887016  -0.01316623  1
  Zr  Zr43  1  0.79069507  0.81167716  0.76649615  1
  Zr  Zr44  1  0.89274040  0.29208964  0.13391914  1
  Zr  Zr45  1  0.39935157  -0.00348274  0.26545395  1
  Zr  Zr46  1  0.59951432  0.79025945  -0.00659919  1
  Zr  Zr47  1  0.59728667  -0.00691691  0.73199846  1
  Zr  Zr48  1  0.60188422  0.20498275  0.00344929  1
  Zr  Zr49  1  0.20562687  0.60516454  0.23225749  1
  Zr  Zr50  1  0.08890749  0.88477482  0.88286132  1
  Zr  Zr51  1  0.40102637  0.18710248  0.26229709  1
  Zr  Zr52  1  0.10788019  0.28331244  0.62071107  1
  Zr  Zr53  1  0.39934242  0.80298997  0.25324016  1
  Zr  Zr54  1  0.19747716  0.80459821  0.74449684  1
  Zr  Zr55  1  0.89561420  0.10116338  0.12826898  1
  Zr  Zr56  1  0.90705734  0.10661771  0.61880956  1
  Zr  Zr57  1  0.00184022  0.79738137  0.50484412  1
  Zr  Zr58  1  0.20232873  -0.00093820  0.75936408  1
  Zr  Zr59  1  0.29772273  0.50047590  0.86846410  1
  Zr  Zr60  1  0.09973101  0.10301036  0.11676018  1
  Zr  Zr61  1  0.69711800  0.71568524  0.60941749  1
  Zr  Zr62  1  0.79318406  0.58571305  0.24356938  1
  Zr  Zr63  1  0.29671652  0.50372825  0.37608177  1
  Zr  Zr64  1  0.49981036  0.69167681  0.14308166  1
  Zr  Zr65  1  -0.00166817  0.59525175  0.01620046  1
  Zr  Zr66  1  0.39995998  -0.00230312  0.75567756  1
  Zr  Zr67  1  0.58492392  0.60465464  0.49072553  1
  Zr  Zr68  1  0.31884460  0.50522262  0.12372656  1
  Zr  Zr69  1  0.40278844  0.00321911  0.48987548  1
  Zr  Zr70  1  -0.00744468  0.40603200  0.25473366  1
  Zr  Zr71  1  0.20057649  0.79359407  0.00806445  1
  Zr  Zr72  1  0.49886607  0.08521579  0.11523097  1
  Zr  Zr73  1  0.69118225  0.89854203  0.12596488  1
  Zr  Zr74  1  0.89583887  0.89192319  0.62538026  1
  Zr  Zr75  1  -0.00381882  0.00200884  0.25185498  1
  Zr  Zr76  1  0.10403613  0.90965713  0.12546607  1
  Zr  Zr77  1  0.80001139  0.40277429  -0.00451496  1
  Zr  Zr78  1  0.39373216  0.60143231  0.50162519  1
  Zr  Zr79  1  0.70319236  0.50540011  0.60948924  1
  Ta  Ta80  1  0.88677603  0.89948772  0.12367103  1
  Ta  Ta81  1  0.90351414  0.51086460  0.61902289  1
  Ta  Ta82  1  -0.00909366  0.79680171  0.01716013  1
  Ta  Ta83  1  0.79787850  0.79947015  0.48240493  1
  Ta  Ta84  1  0.29772786  0.09225805  0.10711803  1
  Ta  Ta85  1  0.79371670  0.60507634  0.00296375  1
  Ta  Ta86  1  0.30658188  0.29911948  0.86267194  1
  Ta  Ta87  1  0.09973480  0.09307229  0.88848511  1
  Ta  Ta88  1  0.40535063  0.79113032  0.48871837  1
  Ta  Ta89  1  0.79080475  -0.00333690  -0.01358494  1
  Ta  Ta90  1  0.69581738  0.30040544  0.61466767  1
  Ta  Ta91  1  0.20187429  0.19120561  0.76295262  1
  Ta  Ta92  1  0.69819785  0.10093507  0.38243138  1
  Ta  Ta93  1  0.19448696  0.39720901  0.75002012  1
  Ta  Ta94  1  0.49734420  0.30305260  0.84999816  1
  Ta  Ta95  1  0.70066141  0.10491536  0.60494916  1
  Ta  Ta96  1  0.70042175  0.49994451  0.86805804  1
  Ta  Ta97  1  0.08944108  0.29663865  0.12845144  1
  Ta  Ta98  1  0.79667959  0.80378245  0.26065363  1
  Ta  Ta99  1  0.01381365  0.19472285  0.75722892  1
  Ta  Ta100  1  0.39973614  0.60678855  0.75326422  1
  Ta  Ta101  1  0.09251782  0.68508959  0.86606940  1
  Ta  Ta102  1  0.90457908  0.30020385  0.85482367  1
  Ta  Ta103  1  0.19277835  0.59897920  0.00910704  1
  Ta  Ta104  1  0.59529909  -0.00395374  0.26234295  1
  Ta  Ta105  1  0.09956491  0.69617071  0.36062732  1
  Ta  Ta106  1  0.09353075  0.70199250  0.13641408  1
  Ta  Ta107  1  0.40117244  0.20272311  -0.00980812  1
  Ta  Ta108  1  0.31320629  0.91171235  0.10722588  1
  Ta  Ta109  1  0.89236360  0.30082046  0.38656119  1
  Ta  Ta110  1  -0.00419365  0.20512469  0.26716957  1
  Ta  Ta111  1  0.30017280  0.49709080  0.63479463  1
  Ta  Ta112  1  0.19107070  0.59444288  0.74033291  1
  Ta  Ta113  1  0.21661723  0.00201885  0.26536147  1
  Ta  Ta114  1  -0.01052710  -0.00568930  -0.00076509  1
  Ta  Ta115  1  0.69687412  0.69588514  0.37322369  1
  Ta  Ta116  1  0.01065586  0.40589761  0.74248288  1
  Ta  Ta117  1  0.49196086  0.71448096  0.63335212  1
  Ta  Ta118  1  0.50809757  0.89371420  0.38710649  1
  Ta  Ta119  1  0.50113681  0.30375012  0.14055707  1
  Ti  Ti120  1  0.69827167  0.69562401  0.13720048  1
  Ti  Ti121  1  -0.00626537  0.80173346  0.24184434  1
  Ti  Ti122  1  0.30367499  0.69832854  0.63493348  1
  Ti  Ti123  1  0.50856363  0.31127960  0.35966778  1
  Ti  Ti124  1  0.79118990  0.38951840  0.26211372  1
  Ti  Ti125  1  0.00949250  -0.00243081  0.51282254  1
  Ti  Ti126  1  0.49894030  0.90569416  0.89639505  1
  Ti  Ti127  1  0.40365824  0.79990042  0.00200025  1
  Ti  Ti128  1  0.59986472  0.79976884  0.25960079  1
  Ti  Ti129  1  0.40410826  0.80839482  0.76293958  1
  Ti  Ti130  1  0.50299879  0.50714301  0.35623735  1
  Ti  Ti131  1  -0.00125189  0.20617778  -0.01482683  1
  Ti  Ti132  1  0.40259867  0.40294553  0.25115414  1
  Ti  Ti133  1  0.09669740  0.30111861  0.38200894  1
  Ti  Ti134  1  0.89591669  0.70061349  0.62437376  1
  Ti  Ti135  1  0.59760746  -0.00190251  0.50767084  1
  Ti  Ti136  1  0.51221205  0.50130916  0.14503857  1
  Ti  Ti137  1  -0.00095452  0.59381219  0.23744158  1
  Ti  Ti138  1  0.59787596  0.39218795  0.49647429  1
  Ti  Ti139  1  0.79604203  -0.00253740  0.26623441  1
  Ti  Ti140  1  0.20294425  0.19865668  0.49379268  1
  Ti  Ti141  1  0.88879931  0.70520924  0.13185128  1
  Ti  Ti142  1  0.49142991  0.11181012  0.62316830  1
  Ti  Ti143  1  0.79283442  0.20620852  0.49111496  1
  Ti  Ti144  1  0.29757140  0.69605189  0.37404666  1
  Ti  Ti145  1  0.00713561  0.60728769  0.51158385  1
  Ti  Ti146  1  0.79702813  0.79952122  -0.00627748  1
  Ti  Ti147  1  0.50570702  0.49094716  0.85709451  1
  Ti  Ti148  1  0.89833212  0.10443771  0.38150712  1
  Ti  Ti149  1  0.20542551  0.40221544  0.51473084  1
  Ti  Ti150  1  0.70202042  0.49573132  0.39114481  1
  Ti  Ti151  1  0.69451337  0.89836014  0.38126894  1
  Ti  Ti152  1  0.61605683  0.40879859  0.25025867  1
  Ti  Ti153  1  0.89069038  0.49164378  0.12366120  1
  Ti  Ti154  1  0.70456266  0.30160138  0.13206926  1
  Ti  Ti155  1  0.79764690  0.19498949  0.74658223  1
  Ti  Ti156  1  0.08919348  0.70305251  0.64202669  1
  Ti  Ti157  1  0.90435846  0.90028138  0.37386282  1
  Ti  Ti158  1  0.19384088  0.60138500  0.51897231  1
  Ti  Ti159  1  0.59463237  0.20423673  0.49471645  1
  Mo  Mo160  1  0.60268454  -0.00158858  0.00271690  1
  Mo  Mo161  1  0.60627967  0.59452211  0.26273743  1
  Mo  Mo162  1  0.20044264  -0.00630231  0.49452326  1
  Mo  Mo163  1  0.10015596  0.50353447  0.86035034  1
  Mo  Mo164  1  0.69737132  0.30741543  0.39020761  1
  Mo  Mo165  1  0.40303451  0.60061821  0.25987891  1
  Mo  Mo166  1  0.50938816  0.29714539  0.63338205  1
  Mo  Mo167  1  0.49996983  0.69756209  0.36014636  1
  Mo  Mo168  1  0.29979038  0.89387111  0.39024983  1
  Mo  Mo169  1  0.09993683  0.29907612  0.85991847  1
  Mo  Mo170  1  0.49935378  0.90017119  0.11640519  1
  Mo  Mo171  1  0.10645027  0.90432556  0.61371668  1
  Mo  Mo172  1  0.89823896  0.89861631  0.88970365  1
  Mo  Mo173  1  0.20290163  -0.00168271  -0.01459336  1
  Mo  Mo174  1  0.49310236  0.70430110  0.86244485  1
  Mo  Mo175  1  0.39958529  0.40312059  0.75484375  1
  Mo  Mo176  1  -0.00215297  0.20160539  0.48483200  1
  Mo  Mo177  1  -0.00145172  0.60108283  0.73430341  1
  Mo  Mo178  1  0.39978249  0.19378373  0.75957309  1
  Mo  Mo179  1  0.70087321  0.49661749  0.12448685  1
  Mo  Mo180  1  0.79922794  0.19935167  0.27622617  1
  Mo  Mo181  1  0.10396094  0.09749440  0.61128756  1
  Mo  Mo182  1  0.70450079  0.69735914  0.88561840  1
  Mo  Mo183  1  0.50104033  0.88949691  0.60609597  1
  Mo  Mo184  1  0.69736973  0.90351844  0.60048304  1
  Mo  Mo185  1  0.79844692  0.40002153  0.51127089  1
  Mo  Mo186  1  0.69121883  0.90645532  0.89247679  1
  Mo  Mo187  1  0.69943367  0.10049379  0.87196368  1
  Mo  Mo188  1  0.60464628  0.40069365  0.74126277  1
  Mo  Mo189  1  0.10515032  0.50128254  0.61991065  1
  Mo  Mo190  1  0.29269017  0.09966045  0.38994351  1
  Mo  Mo191  1  -0.00226579  0.79835287  0.73943218  1
  Mo  Mo192  1  0.80390656  0.60883982  0.49682938  1
  Mo  Mo193  1  0.30550956  0.90021994  0.89113959  1
  Mo  Mo194  1  0.51449389  0.09506405  0.37994154  1
  Mo  Mo195  1  0.59755435  0.80063444  0.49039990  1
  Mo  Mo196  1  0.30143824  0.70317961  0.10978145  1
  Mo  Mo197  1  0.09259304  0.49853727  0.12636892  1
  Mo  Mo198  1  0.39985584  -0.00028179  -0.01205201  1
  Mo  Mo199  1  0.30140023  0.10017808  0.88802923  1
