# generated using pymatgen
data_HfZrTaTiMo
_symmetry_space_group_name_H-M   'P 1'
_cell_length_a   15.84552779
_cell_length_b   15.82678043
_cell_length_c   15.39237001
_cell_angle_alpha   90.02725020
_cell_angle_beta   89.98305338
_cell_angle_gamma   90.14420469
_symmetry_Int_Tables_number   1
_chemical_formula_structural   HfZrTaTiMo
_chemical_formula_sum   'Hf40 Zr40 Ta40 Ti40 Mo40'
_cell_volume   3860.14250629
_cell_formula_units_Z   40
loop_
 _symmetry_equiv_pos_site_id
 _symmetry_equiv_pos_as_xyz
  1  'x, y, z'
loop_
 _atom_site_type_symbol
 _atom_site_label
 _atom_site_symmetry_multiplicity
 _atom_site_fract_x
 _atom_site_fract_y
 _atom_site_fract_z
 _atom_site_occupancy
  Hf  Hf0  1  0.40805168  0.59058864  0.75440113  1
  Hf  Hf1  1  0.20028418  0.79202195  0.25933339  1
  Hf  Hf2  1  0.10375509  0.29245233  0.85874751  1
  Hf  Hf3  1  0.50117949  0.51063542  0.90078924  1
  Hf  Hf4  1  0.10319988  0.69846386  0.61924368  1
  Hf  Hf5  1  0.49448218  0.31715701  0.64272493  1
  Hf  Hf6  1  0.89699948  0.10394959  0.14199130  1
  Hf  Hf7  1  0.88837051  0.49512022  0.88485115  1
  Hf  Hf8  1  0.80160743  0.20570317  0.51082713  1
  Hf  Hf9  1  0.19032932  -0.00687620  0.25178828  1
  Hf  Hf10  1  0.60717138  0.80749344  0.00960231  1
  Hf  Hf11  1  0.21423961  0.39628102  0.51424002  1
  Hf  Hf12  1  0.49252685  0.49068829  0.12181013  1
  Hf  Hf13  1  0.30488926  0.29610471  0.12903889  1
  Hf  Hf14  1  0.00801398  0.60764147  0.25655725  1
  Hf  Hf15  1  0.90522311  0.70025886  0.86646855  1
  Hf  Hf16  1  0.19909483  0.58830760  0.74902161  1
  Hf  Hf17  1  0.59971640  0.00033396  -0.00510372  1
  Hf  Hf18  1  0.10509485  0.30028712  0.13334267  1
  Hf  Hf19  1  0.59579771  0.00076615  0.74451179  1
  Hf  Hf20  1  0.69664304  0.91114459  0.36424398  1
  Hf  Hf21  1  0.79475525  0.80968559  0.00465270  1
  Hf  Hf22  1  0.29941231  0.48432150  0.35123020  1
  Hf  Hf23  1  0.00036038  0.40184765  0.49811811  1
  Hf  Hf24  1  0.19572940  0.17808418  0.73054899  1
  Hf  Hf25  1  0.80552094  0.81467079  0.50152884  1
  Hf  Hf26  1  0.79780811  0.61140948  0.01313363  1
  Hf  Hf27  1  -0.00070752  0.20158346  0.00056418  1
  Hf  Hf28  1  0.00435132  0.19535528  0.51589034  1
  Hf  Hf29  1  0.70944437  0.10541896  0.86098937  1
  Hf  Hf30  1  0.49438120  0.70471489  0.62782847  1
  Hf  Hf31  1  0.00078769  0.80735814  0.48552794  1
  Hf  Hf32  1  0.69284735  0.69763386  0.86911020  1
  Hf  Hf33  1  0.79421437  0.40202811  0.25980027  1
  Hf  Hf34  1  0.49691277  0.69340759  0.10888595  1
  Hf  Hf35  1  0.01519544  0.01004015  0.73708594  1
  Hf  Hf36  1  0.20842769  0.20035662  0.50804936  1
  Hf  Hf37  1  0.40571406  0.39136236  0.48287965  1
  Hf  Hf38  1  0.39732426  0.58400947  0.50203053  1
  Hf  Hf39  1  0.69598450  0.49789295  0.11864891  1
  Zr  Zr40  1  0.39901353  0.80152155  0.24769518  1
  Zr  Zr41  1  0.69627762  0.70561657  0.37365435  1
  Zr  Zr42  1  -0.00338225  0.00454437  -0.00342658  1
  Zr  Zr43  1  0.89038834  0.90893093  0.14915483  1
  Zr  Zr44  1  0.00063537  0.41041041  0.26349687  1
  Zr  Zr45  1  0.21279002  -0.01131655  0.74642094  1
  Zr  Zr46  1  0.60139914  0.41267987  0.76099369  1
  Zr  Zr47  1  0.49925985  0.69635111  0.36908324  1
  Zr  Zr48  1  0.21082007  0.18656627  0.25800724  1
  Zr  Zr49  1  0.80188760  0.58944125  0.73458286  1
  Zr  Zr50  1  0.80131158  0.80399413  0.73732694  1
  Zr  Zr51  1  0.90303101  0.28885638  0.37158265  1
  Zr  Zr52  1  0.80496279  0.40740963  0.49602820  1
  Zr  Zr53  1  0.09085500  0.08157683  0.39204774  1
  Zr  Zr54  1  -0.00720973  0.60037391  0.49457925  1
  Zr  Zr55  1  0.01832822  0.81432303  0.26465104  1
  Zr  Zr56  1  0.00973951  0.18983798  0.25463513  1
  Zr  Zr57  1  0.11939585  0.51154436  0.38348386  1
  Zr  Zr58  1  0.29762713  0.69487052  0.62423982  1
  Zr  Zr59  1  -0.00716059  0.39291940  -0.00140684  1
  Zr  Zr60  1  0.29190677  0.90214095  0.11092042  1
  Zr  Zr61  1  -0.00128972  0.80059059  -0.00254663  1
  Zr  Zr62  1  0.90122812  0.90999451  0.85183991  1
  Zr  Zr63  1  0.30158474  0.10849046  0.88520370  1
  Zr  Zr64  1  0.59078683  -0.00971993  0.51794227  1
  Zr  Zr65  1  0.10377459  0.50485922  0.88504740  1
  Zr  Zr66  1  0.79773781  0.00293856  -0.00630435  1
  Zr  Zr67  1  0.69941181  0.10217821  0.38669541  1
  Zr  Zr68  1  0.40614726  0.20471091  0.50139682  1
  Zr  Zr69  1  0.50410925  0.08772031  0.37993763  1
  Zr  Zr70  1  0.29557309  0.68554035  0.88897905  1
  Zr  Zr71  1  0.69195808  0.50701100  0.37507937  1
  Zr  Zr72  1  0.69217185  0.70428130  0.61829581  1
  Zr  Zr73  1  -0.00556726  0.41436674  0.74479777  1
  Zr  Zr74  1  0.80072649  0.21062580  -0.00125534  1
  Zr  Zr75  1  0.69426135  0.09512687  0.13483406  1
  Zr  Zr76  1  0.60379835  0.38166605  -0.00425208  1
  Zr  Zr77  1  0.90169858  0.70671957  0.14081794  1
  Zr  Zr78  1  0.30769050  0.90578735  0.38217438  1
  Zr  Zr79  1  0.60558712  0.20901579  0.74765457  1
  Ta  Ta80  1  0.49745738  0.29140942  0.12600550  1
  Ta  Ta81  1  0.30411077  0.09240964  0.39148286  1
  Ta  Ta82  1  0.29716749  0.69691025  0.10684982  1
  Ta  Ta83  1  0.10448501  0.89858298  0.87212174  1
  Ta  Ta84  1  0.48378166  0.28943602  0.86805290  1
  Ta  Ta85  1  0.80396384  0.60402945  0.50435864  1
  Ta  Ta86  1  0.50003791  0.90132783  0.86978336  1
  Ta  Ta87  1  0.40262915  -0.00218000  -0.00639002  1
  Ta  Ta88  1  0.70180451  0.50382088  0.89061796  1
  Ta  Ta89  1  0.30441435  0.88506606  0.62114015  1
  Ta  Ta90  1  0.10327211  0.30407573  0.63742679  1
  Ta  Ta91  1  0.40386182  0.19952430  0.26331697  1
  Ta  Ta92  1  0.40609904  0.80218847  0.49201520  1
  Ta  Ta93  1  0.39996785  -0.00142116  0.74462111  1
  Ta  Ta94  1  0.10101405  0.50103011  0.11820298  1
  Ta  Ta95  1  0.50328950  0.70162870  0.88244604  1
  Ta  Ta96  1  0.39235539  0.59936209  0.23772217  1
  Ta  Ta97  1  0.49077900  0.10409702  0.12028413  1
  Ta  Ta98  1  0.20094822  0.60288734  0.23177399  1
  Ta  Ta99  1  0.89136223  0.70602171  0.36486095  1
  Ta  Ta100  1  0.29661148  0.49434310  0.11710849  1
  Ta  Ta101  1  0.58998222  0.59281660  0.50465465  1
  Ta  Ta102  1  0.49857080  0.49716787  0.35418247  1
  Ta  Ta103  1  0.59512811  0.19946920  0.24948481  1
  Ta  Ta104  1  0.29181752  0.68088910  0.38299674  1
  Ta  Ta105  1  0.39346793  0.38815934  -0.00856067  1
  Ta  Ta106  1  0.40206471  0.80596844  -0.00976840  1
  Ta  Ta107  1  0.09944943  0.88820188  0.62584558  1
  Ta  Ta108  1  0.11998769  0.30734906  0.37192592  1
  Ta  Ta109  1  0.19897096  -0.00512231  0.51864737  1
  Ta  Ta110  1  0.89989508  0.49877931  0.12608385  1
  Ta  Ta111  1  0.59674444  0.38826463  0.25037263  1
  Ta  Ta112  1  0.89364941  0.30395932  0.13816856  1
  Ta  Ta113  1  0.20043326  0.79632495  0.48874581  1
  Ta  Ta114  1  0.69080924  0.49501602  0.61131355  1
  Ta  Ta115  1  0.60091071  0.80584259  0.23565943  1
  Ta  Ta116  1  0.39383035  0.00921635  0.24128340  1
  Ta  Ta117  1  0.70144896  0.10348037  0.62106218  1
  Ta  Ta118  1  0.39113061  0.80474579  0.76758031  1
  Ta  Ta119  1  0.90513769  0.11432405  0.84932536  1
  Ti  Ti120  1  0.59268478  0.80418687  0.74783400  1
  Ti  Ti121  1  0.10007196  0.90451936  0.11102310  1
  Ti  Ti122  1  0.89792943  0.29915659  0.85777515  1
  Ti  Ti123  1  0.70632816  0.90901677  0.62772343  1
  Ti  Ti124  1  0.10466266  0.10070793  0.88311657  1
  Ti  Ti125  1  0.70017100  0.29593587  0.12670073  1
  Ti  Ti126  1  0.49334306  0.10398768  0.87214055  1
  Ti  Ti127  1  0.30792219  0.29769760  0.65294722  1
  Ti  Ti128  1  0.10736322  0.70423457  0.11236476  1
  Ti  Ti129  1  0.19857548  0.38941463  -0.00100629  1
  Ti  Ti130  1  0.59984108  0.59692423  0.74254502  1
  Ti  Ti131  1  0.49630120  0.10939200  0.62962036  1
  Ti  Ti132  1  0.19762130  0.79338092  0.76312665  1
  Ti  Ti133  1  0.90083654  0.91702401  0.36543569  1
  Ti  Ti134  1  0.80204315  0.20920235  0.73185776  1
  Ti  Ti135  1  0.31462161  0.48058484  0.64152032  1
  Ti  Ti136  1  0.90474866  0.30644358  0.63182712  1
  Ti  Ti137  1  0.49873472  0.90998485  0.12766207  1
  Ti  Ti138  1  0.79249956  0.40112887  0.73214329  1
  Ti  Ti139  1  0.29680152  0.49014348  0.88567919  1
  Ti  Ti140  1  0.70094479  0.90272443  0.85880671  1
  Ti  Ti141  1  0.10313715  0.49938389  0.62116379  1
  Ti  Ti142  1  0.68548590  0.29371154  0.38761296  1
  Ti  Ti143  1  0.78984138  0.20261665  0.25929920  1
  Ti  Ti144  1  0.91030700  0.70915166  0.62846847  1
  Ti  Ti145  1  0.00264487  0.60517329  0.00289945  1
  Ti  Ti146  1  0.59460696  0.19724913  -0.00630354  1
  Ti  Ti147  1  0.71665550  0.30988628  0.87331279  1
  Ti  Ti148  1  0.29918312  0.10316112  0.10499491  1
  Ti  Ti149  1  0.59066122  0.39677699  0.49580962  1
  Ti  Ti150  1  0.11284567  0.09585421  0.10943627  1
  Ti  Ti151  1  0.29574883  0.29568488  0.86292403  1
  Ti  Ti152  1  0.89485554  0.08983248  0.62880648  1
  Ti  Ti153  1  0.58915906  0.80842197  0.49907780  1
  Ti  Ti154  1  0.89514471  0.08784230  0.37806286  1
  Ti  Ti155  1  0.79651630  0.60342278  0.24576651  1
  Ti  Ti156  1  0.59971549  0.60285033  0.23573257  1
  Ti  Ti157  1  0.00227978  0.60420522  0.74619416  1
  Ti  Ti158  1  0.40462010  -0.00920193  0.51979196  1
  Ti  Ti159  1  0.19669062  0.80062460  -0.01489824  1
  Mo  Mo160  1  0.50712779  0.29786034  0.36538461  1
  Mo  Mo161  1  0.69803266  0.70386452  0.14061172  1
  Mo  Mo162  1  0.79925108  0.00823814  0.73724991  1
  Mo  Mo163  1  0.39469286  0.59479902  0.00460131  1
  Mo  Mo164  1  0.49414943  0.89022493  0.64393582  1
  Mo  Mo165  1  0.19766379  -0.00084677  -0.00733226  1
  Mo  Mo166  1  0.19901047  0.20403249  -0.00085364  1
  Mo  Mo167  1  0.20372763  0.39888435  0.74344562  1
  Mo  Mo168  1  0.89923142  0.50509316  0.62579605  1
  Mo  Mo169  1  0.01325225  0.79791650  0.75186430  1
  Mo  Mo170  1  0.58759256  0.00021826  0.23962309  1
  Mo  Mo171  1  0.30060197  0.29422461  0.36141419  1
  Mo  Mo172  1  0.60089597  0.21097559  0.51948855  1
  Mo  Mo173  1  0.90607959  0.90049811  0.63172146  1
  Mo  Mo174  1  0.10335888  0.90457222  0.39283221  1
  Mo  Mo175  1  0.00624677  0.00229137  0.24015865  1
  Mo  Mo176  1  0.10913582  0.69824150  0.38551636  1
  Mo  Mo177  1  0.20830800  0.59037207  0.51709707  1
  Mo  Mo178  1  0.40397299  0.39353474  0.24853323  1
  Mo  Mo179  1  0.49970252  0.89923910  0.36022406  1
  Mo  Mo180  1  0.39808891  0.19220426  0.74240177  1
  Mo  Mo181  1  0.50029763  0.50003444  0.62487916  1
  Mo  Mo182  1  0.30933179  0.09016297  0.61306160  1
  Mo  Mo183  1  0.69766071  0.30549445  0.61524366  1
  Mo  Mo184  1  0.79786271  0.80464734  0.26249486  1
  Mo  Mo185  1  -0.00426649  0.20216550  0.73569516  1
  Mo  Mo186  1  0.79754257  0.00910780  0.26327046  1
  Mo  Mo187  1  0.19949230  0.40188938  0.23467904  1
  Mo  Mo188  1  0.80461543  0.00021925  0.51052637  1
  Mo  Mo189  1  0.60387822  0.60614356  0.00709309  1
  Mo  Mo190  1  -0.01077458  -0.00833987  0.51984328  1
  Mo  Mo191  1  0.19368619  0.59641675  0.01299393  1
  Mo  Mo192  1  0.09676248  0.70163324  0.87311287  1
  Mo  Mo193  1  0.69611376  0.90521395  0.14340956  1
  Mo  Mo194  1  0.39537388  0.40191672  0.77708571  1
  Mo  Mo195  1  0.89057336  0.51702885  0.36230424  1
  Mo  Mo196  1  0.40386835  0.20085607  0.00081749  1
  Mo  Mo197  1  0.80175898  0.39856896  0.01200708  1
  Mo  Mo198  1  0.30091778  0.89839752  0.88366460  1
  Mo  Mo199  1  0.09979458  0.09596256  0.61327969  1
