# generated using pymatgen
data_HfZrTaTiMo
_symmetry_space_group_name_H-M   'P 1'
_cell_length_a   15.83314607
_cell_length_b   15.84859449
_cell_length_c   15.41625562
_cell_angle_alpha   89.92353413
_cell_angle_beta   89.95764805
_cell_angle_gamma   89.98657667
_symmetry_Int_Tables_number   1
_chemical_formula_structural   HfZrTaTiMo
_chemical_formula_sum   'Hf40 Zr40 Ta40 Ti40 Mo40'
_cell_volume   3868.44438454
_cell_formula_units_Z   40
loop_
 _symmetry_equiv_pos_site_id
 _symmetry_equiv_pos_as_xyz
  1  'x, y, z'
loop_
 _atom_site_type_symbol
 _atom_site_label
 _atom_site_symmetry_multiplicity
 _atom_site_fract_x
 _atom_site_fract_y
 _atom_site_fract_z
 _atom_site_occupancy
  Hf  Hf0  1  0.01009199  -0.00626985  0.74869908  1
  Hf  Hf1  1  0.69329694  0.90680112  0.85843578  1
  Hf  Hf2  1  0.60272974  -0.01012664  0.50603507  1
  Hf  Hf3  1  0.60371776  0.38906427  0.75518183  1
  Hf  Hf4  1  0.50457355  0.89743069  0.86488678  1
  Hf  Hf5  1  0.20198093  0.41116529  0.75133037  1
  Hf  Hf6  1  0.19900133  0.19891940  0.49352747  1
  Hf  Hf7  1  0.80566328  0.60532473  0.74519691  1
  Hf  Hf8  1  0.59653695  0.80509788  0.27013659  1
  Hf  Hf9  1  0.31764077  0.70041410  0.13661438  1
  Hf  Hf10  1  0.50227715  0.29207874  0.87909445  1
  Hf  Hf11  1  0.58616957  0.61219387  -0.00130009  1
  Hf  Hf12  1  0.80326984  0.39808322  0.49760045  1
  Hf  Hf13  1  0.20341818  0.79492952  0.00187139  1
  Hf  Hf14  1  -0.00941077  0.00494249  -0.01686922  1
  Hf  Hf15  1  0.00231911  0.60435284  0.75976324  1
  Hf  Hf16  1  0.11107252  0.29669932  0.87698144  1
  Hf  Hf17  1  -0.00887331  0.40012367  -0.00750813  1
  Hf  Hf18  1  0.88600599  0.89700285  0.86938201  1
  Hf  Hf19  1  0.20094058  0.41031986  0.50330590  1
  Hf  Hf20  1  0.69968592  0.29909331  0.37739508  1
  Hf  Hf21  1  0.00302116  0.59995152  0.49918103  1
  Hf  Hf22  1  0.78805369  0.79279362  0.72616221  1
  Hf  Hf23  1  0.80239712  0.60696769  -0.01052870  1
  Hf  Hf24  1  0.30721523  0.70142593  0.61103228  1
  Hf  Hf25  1  0.89686199  0.29994711  0.64052401  1
  Hf  Hf26  1  0.88748430  0.10334833  0.12275538  1
  Hf  Hf27  1  0.08945770  0.89959784  0.37022746  1
  Hf  Hf28  1  0.09872653  0.50517878  0.12185601  1
  Hf  Hf29  1  0.10844530  0.50181682  0.88789582  1
  Hf  Hf30  1  -0.00766094  0.40540576  0.25112645  1
  Hf  Hf31  1  0.20787971  0.61848887  0.77094888  1
  Hf  Hf32  1  0.88949383  0.91166326  0.38743567  1
  Hf  Hf33  1  0.79989942  0.38966351  -0.02507297  1
  Hf  Hf34  1  -0.00700937  0.80205029  0.24238302  1
  Hf  Hf35  1  0.08796747  0.09513578  0.13288911  1
  Hf  Hf36  1  0.40145952  0.19355974  0.50877589  1
  Hf  Hf37  1  0.61093929  0.60199920  0.26556819  1
  Hf  Hf38  1  0.10477055  0.30595668  0.36317567  1
  Hf  Hf39  1  0.20616931  0.19780506  0.24206755  1
  Zr  Zr40  1  0.49379868  0.50330562  0.63458556  1
  Zr  Zr41  1  0.11012327  0.69902963  0.61506539  1
  Zr  Zr42  1  -0.00422962  0.19893391  0.49573355  1
  Zr  Zr43  1  0.19231064  0.61063414  0.25338613  1
  Zr  Zr44  1  0.40040369  0.40002912  0.01577021  1
  Zr  Zr45  1  0.50023684  0.29620017  0.37404390  1
  Zr  Zr46  1  0.69245405  0.50670856  0.87389232  1
  Zr  Zr47  1  0.49255915  0.51307397  0.13689911  1
  Zr  Zr48  1  0.39854315  0.40625183  0.50335649  1
  Zr  Zr49  1  0.19288512  0.80893063  0.75801238  1
  Zr  Zr50  1  0.30946912  0.08628469  0.11909619  1
  Zr  Zr51  1  0.88796288  0.51167325  0.37144306  1
  Zr  Zr52  1  0.41719787  0.19811922  0.22704476  1
  Zr  Zr53  1  0.40162985  -0.02073174  0.26062200  1
  Zr  Zr54  1  -0.00416172  0.79537353  0.73958673  1
  Zr  Zr55  1  0.00108767  0.40166809  0.49662678  1
  Zr  Zr56  1  0.69326941  0.49575951  0.11242996  1
  Zr  Zr57  1  0.19620498  0.00017800  -0.00224131  1
  Zr  Zr58  1  0.60113504  0.79340812  0.50319349  1
  Zr  Zr59  1  0.30982097  0.30340745  0.87168650  1
  Zr  Zr60  1  0.10016760  0.29729335  0.63668241  1
  Zr  Zr61  1  0.70065795  0.49331526  0.62949080  1
  Zr  Zr62  1  0.60300589  0.19423515  0.50964321  1
  Zr  Zr63  1  0.49059947  0.50405645  0.86574300  1
  Zr  Zr64  1  0.79456596  0.00207685  0.24793607  1
  Zr  Zr65  1  0.71115734  0.29588170  0.12777482  1
  Zr  Zr66  1  -0.01294126  0.19698417  0.26182273  1
  Zr  Zr67  1  0.20424541  -0.00855998  0.25181101  1
  Zr  Zr68  1  0.30269055  0.30283598  0.63844827  1
  Zr  Zr69  1  0.89132577  0.50367572  0.12475185  1
  Zr  Zr70  1  0.31662170  0.10680672  0.88270344  1
  Zr  Zr71  1  -0.00262312  0.19946075  -0.01314254  1
  Zr  Zr72  1  0.79870671  0.19089760  -0.02758833  1
  Zr  Zr73  1  0.60180960  0.18782131  0.01034189  1
  Zr  Zr74  1  0.79358232  0.80007236  0.24382994  1
  Zr  Zr75  1  0.61024415  0.18205733  0.24145561  1
  Zr  Zr76  1  -0.00253543  0.18704963  0.76655281  1
  Zr  Zr77  1  0.30629476  0.31022376  0.35582504  1
  Zr  Zr78  1  0.29012813  0.90268500  0.62067906  1
  Zr  Zr79  1  0.30745591  0.90271553  0.87586030  1
  Ta  Ta80  1  0.00148590  0.61024905  -0.00994590  1
  Ta  Ta81  1  0.79063273  0.19560060  0.76482437  1
  Ta  Ta82  1  0.89639992  0.30016986  0.13243998  1
  Ta  Ta83  1  0.09462844  0.89875380  0.12524473  1
  Ta  Ta84  1  0.39970679  0.00285051  0.74027107  1
  Ta  Ta85  1  -0.00771389  0.61284856  0.25295714  1
  Ta  Ta86  1  0.19691169  0.80260099  0.48608822  1
  Ta  Ta87  1  -0.00393898  0.80590324  0.51160905  1
  Ta  Ta88  1  0.30122114  0.51569640  0.63386388  1
  Ta  Ta89  1  0.41474687  0.19267188  0.73662980  1
  Ta  Ta90  1  0.09933093  0.30315608  0.12628166  1
  Ta  Ta91  1  0.89809930  0.71075345  0.38855922  1
  Ta  Ta92  1  0.49987546  0.08995783  0.38255593  1
  Ta  Ta93  1  0.60358088  0.62234700  0.74220243  1
  Ta  Ta94  1  0.40241675  0.60269826  0.48133381  1
  Ta  Ta95  1  0.71257769  0.69807576  0.38901650  1
  Ta  Ta96  1  0.49620460  0.49519668  0.36531888  1
  Ta  Ta97  1  0.20686200  0.59695516  0.48177356  1
  Ta  Ta98  1  0.19795042  0.00223497  0.48833191  1
  Ta  Ta99  1  0.70507129  0.09736360  0.63285345  1
  Ta  Ta100  1  0.79980115  0.60501829  0.51485637  1
  Ta  Ta101  1  0.20521279  0.20490139  0.01265162  1
  Ta  Ta102  1  0.21331620  0.60286338  0.00064856  1
  Ta  Ta103  1  0.59795308  0.80388286  0.00411983  1
  Ta  Ta104  1  0.80583857  0.19425190  0.49600797  1
  Ta  Ta105  1  0.69273755  0.71555677  0.87498735  1
  Ta  Ta106  1  0.29721533  0.09506351  0.62488131  1
  Ta  Ta107  1  0.29929096  0.50155688  0.14078588  1
  Ta  Ta108  1  0.49047269  0.89490949  0.62624946  1
  Ta  Ta109  1  0.70488497  0.29213165  0.63168864  1
  Ta  Ta110  1  0.40353888  0.80684106  0.48255953  1
  Ta  Ta111  1  0.60090526  -0.00879122  0.26150079  1
  Ta  Ta112  1  0.59900877  0.39786240  0.25191843  1
  Ta  Ta113  1  0.59883208  0.59328058  0.49128254  1
  Ta  Ta114  1  0.00088558  0.00385221  0.51351632  1
  Ta  Ta115  1  0.49328114  0.88842505  0.12548743  1
  Ta  Ta116  1  0.30243032  0.70649426  0.36880756  1
  Ta  Ta117  1  0.09169429  0.09103559  0.36809457  1
  Ta  Ta118  1  0.39777316  0.79144494  0.75056122  1
  Ta  Ta119  1  -0.00437334  0.80067263  0.00406598  1
  Ti  Ti120  1  0.41295282  0.19729971  0.02284315  1
  Ti  Ti121  1  0.49683335  0.70161496  0.86475361  1
  Ti  Ti122  1  0.30645636  0.09649711  0.37845238  1
  Ti  Ti123  1  0.60032833  0.00005410  0.00191214  1
  Ti  Ti124  1  0.80297844  0.19541427  0.27083534  1
  Ti  Ti125  1  0.78467956  0.00469531  -0.00459907  1
  Ti  Ti126  1  0.79261182  0.40431043  0.25990426  1
  Ti  Ti127  1  0.90719210  0.49916939  0.63163717  1
  Ti  Ti128  1  0.79184517  0.80569800  0.00554193  1
  Ti  Ti129  1  0.10461415  0.50658832  0.63095646  1
  Ti  Ti130  1  0.20785681  0.39813533  0.01248006  1
  Ti  Ti131  1  0.31195381  0.50555452  0.87325732  1
  Ti  Ti132  1  0.79891077  0.60823206  0.24958982  1
  Ti  Ti133  1  0.30255366  0.49916266  0.35065748  1
  Ti  Ti134  1  0.89772936  0.70279429  0.11762045  1
  Ti  Ti135  1  0.11074458  0.09050757  0.62857347  1
  Ti  Ti136  1  0.89673926  0.70949807  0.87879077  1
  Ti  Ti137  1  0.68955124  0.90400214  0.12007536  1
  Ti  Ti138  1  0.80483271  0.39808014  0.76635409  1
  Ti  Ti139  1  0.79313209  0.80805717  0.51527744  1
  Ti  Ti140  1  0.69521352  0.70314641  0.12083731  1
  Ti  Ti141  1  0.89439207  0.90779764  0.62370988  1
  Ti  Ti142  1  0.59383907  0.00384100  0.73213370  1
  Ti  Ti143  1  0.71183184  0.08275371  0.39190169  1
  Ti  Ti144  1  0.49456090  0.69755164  0.62190709  1
  Ti  Ti145  1  0.09486272  0.70539222  0.37556675  1
  Ti  Ti146  1  0.09773042  0.70307242  0.12151042  1
  Ti  Ti147  1  -0.00490685  0.40728900  0.76606667  1
  Ti  Ti148  1  0.50557467  0.30002834  0.62876698  1
  Ti  Ti149  1  0.21131521  0.81005865  0.24779349  1
  Ti  Ti150  1  0.41512084  -0.00649166  0.00605239  1
  Ti  Ti151  1  0.40681750  0.78893194  -0.00566165  1
  Ti  Ti152  1  0.10352917  0.50201876  0.36319384  1
  Ti  Ti153  1  0.20499564  0.18300793  0.75709712  1
  Ti  Ti154  1  0.49945983  0.70490093  0.14145803  1
  Ti  Ti155  1  0.60115224  0.40155636  0.49941833  1
  Ti  Ti156  1  0.89860418  0.90667317  0.11633972  1
  Ti  Ti157  1  0.50992390  0.09471546  0.86673529  1
  Ti  Ti158  1  0.89413847  0.09966286  0.63239864  1
  Ti  Ti159  1  0.09554504  0.89459406  0.88327899  1
  Mo  Mo160  1  0.39943897  0.60815912  0.74958042  1
  Mo  Mo161  1  0.40359365  0.60301581  0.26989848  1
  Mo  Mo162  1  0.89215626  0.29984295  0.36556983  1
  Mo  Mo163  1  0.70227317  0.08635291  0.12692969  1
  Mo  Mo164  1  0.70331833  0.89828920  0.38405105  1
  Mo  Mo165  1  0.88647325  0.08291972  0.85928306  1
  Mo  Mo166  1  0.90028260  0.70171789  0.60746712  1
  Mo  Mo167  1  0.68601165  0.08999651  0.85391281  1
  Mo  Mo168  1  0.11366750  0.09445053  0.87317512  1
  Mo  Mo169  1  0.50077102  0.69713879  0.37549144  1
  Mo  Mo170  1  0.69364040  0.69549759  0.60935877  1
  Mo  Mo171  1  0.80130532  -0.00078998  0.73553817  1
  Mo  Mo172  1  0.39846935  0.00026125  0.50245877  1
  Mo  Mo173  1  0.59993414  0.39652384  -0.00531919  1
  Mo  Mo174  1  -0.00591083  -0.00522579  0.24410739  1
  Mo  Mo175  1  0.50020083  0.90298181  0.38972899  1
  Mo  Mo176  1  0.69483492  0.49929989  0.38300419  1
  Mo  Mo177  1  0.30762501  0.88771888  0.11160416  1
  Mo  Mo178  1  0.49747733  0.09222893  0.62232977  1
  Mo  Mo179  1  0.69332543  0.29477446  0.86375358  1
  Mo  Mo180  1  0.40354457  0.39974168  0.23724161  1
  Mo  Mo181  1  0.69350720  0.90100039  0.63697482  1
  Mo  Mo182  1  0.19727019  0.40286305  0.23372574  1
  Mo  Mo183  1  0.80064600  0.00142315  0.52112181  1
  Mo  Mo184  1  0.89824051  0.09527486  0.38980279  1
  Mo  Mo185  1  0.30126485  0.30147051  0.12532127  1
  Mo  Mo186  1  0.90204441  0.30065610  0.85688892  1
  Mo  Mo187  1  0.31200033  0.69771228  0.88547872  1
  Mo  Mo188  1  0.40212595  0.79991320  0.26679461  1
  Mo  Mo189  1  0.90328304  0.50633967  0.86831029  1
  Mo  Mo190  1  0.19994737  0.00779081  0.75792428  1
  Mo  Mo191  1  0.59810955  0.19279040  0.74065866  1
  Mo  Mo192  1  0.39605955  0.60717895  -0.00307419  1
  Mo  Mo193  1  0.40043894  0.39955933  0.74131969  1
  Mo  Mo194  1  0.09967395  0.70527251  0.89389170  1
  Mo  Mo195  1  0.10009512  0.90746626  0.60904223  1
  Mo  Mo196  1  0.51481478  0.31583452  0.11437466  1
  Mo  Mo197  1  0.51154974  0.06971477  0.12718005  1
  Mo  Mo198  1  0.59059251  0.79915541  0.73464378  1
  Mo  Mo199  1  0.29541672  0.90026527  0.38913716  1
