# generated using pymatgen
data_HfZrTaTiMo
_symmetry_space_group_name_H-M   'P 1'
_cell_length_a   15.83820803
_cell_length_b   15.84229065
_cell_length_c   15.41582221
_cell_angle_alpha   90.05381644
_cell_angle_beta   90.00770880
_cell_angle_gamma   89.93143108
_symmetry_Int_Tables_number   1
_chemical_formula_structural   HfZrTaTiMo
_chemical_formula_sum   'Hf40 Zr40 Ta40 Ti40 Mo40'
_cell_volume   3868.03331915
_cell_formula_units_Z   40
loop_
 _symmetry_equiv_pos_site_id
 _symmetry_equiv_pos_as_xyz
  1  'x, y, z'
loop_
 _atom_site_type_symbol
 _atom_site_label
 _atom_site_symmetry_multiplicity
 _atom_site_fract_x
 _atom_site_fract_y
 _atom_site_fract_z
 _atom_site_occupancy
  Hf  Hf0  1  0.29748065  0.50920416  0.61336783  1
  Hf  Hf1  1  0.00124229  0.62345951  0.49975869  1
  Hf  Hf2  1  0.51460548  0.89936691  0.63689934  1
  Hf  Hf3  1  0.70268607  0.48699261  0.10869925  1
  Hf  Hf4  1  0.50043839  0.90514228  0.36139153  1
  Hf  Hf5  1  0.10404309  0.48914472  0.60402557  1
  Hf  Hf6  1  0.12331674  0.29002372  0.87694856  1
  Hf  Hf7  1  0.70393217  0.48417169  0.38061024  1
  Hf  Hf8  1  0.10959120  0.69181244  0.86951182  1
  Hf  Hf9  1  0.50078465  0.30281187  0.63747601  1
  Hf  Hf10  1  0.10752678  0.89942255  0.87724079  1
  Hf  Hf11  1  0.68754713  0.50553894  0.62048998  1
  Hf  Hf12  1  0.89513320  0.49713040  0.61145222  1
  Hf  Hf13  1  0.71300283  0.31630076  0.88476091  1
  Hf  Hf14  1  0.19947670  0.79363960  0.23121700  1
  Hf  Hf15  1  0.57783531  0.60100930  0.48967539  1
  Hf  Hf16  1  0.80730025  0.20412174  0.75129014  1
  Hf  Hf17  1  0.41571832  0.01252147  0.50831743  1
  Hf  Hf18  1  0.00295587  0.37954602  0.73614983  1
  Hf  Hf19  1  0.48834759  0.49428582  0.87169125  1
  Hf  Hf20  1  0.39116863  0.19367347  0.50006884  1
  Hf  Hf21  1  0.49817066  0.70543634  0.35150220  1
  Hf  Hf22  1  0.79017064  0.21118089  0.25542936  1
  Hf  Hf23  1  0.90237776  0.10189328  0.12748947  1
  Hf  Hf24  1  0.18080031  0.80297664  0.51074259  1
  Hf  Hf25  1  0.49441142  0.10854993  0.12437688  1
  Hf  Hf26  1  0.00025754  0.57974182  0.75755574  1
  Hf  Hf27  1  0.10026759  0.10140996  0.14932889  1
  Hf  Hf28  1  0.59421881  -0.00311852  0.77921199  1
  Hf  Hf29  1  0.20588887  0.01200105  0.74322894  1
  Hf  Hf30  1  0.02000733  0.18866410  -0.00398593  1
  Hf  Hf31  1  0.78758268  0.58877115  0.76983165  1
  Hf  Hf32  1  0.80199008  0.00879409  0.24639642  1
  Hf  Hf33  1  0.59468578  0.58742543  0.23910765  1
  Hf  Hf34  1  0.37856175  0.21603189  0.00651381  1
  Hf  Hf35  1  0.19541917  0.02089160  -0.00018226  1
  Hf  Hf36  1  0.69947433  0.30505956  0.62276408  1
  Hf  Hf37  1  0.90791441  0.69332532  0.12722904  1
  Hf  Hf38  1  0.29305315  0.49041007  0.87542544  1
  Hf  Hf39  1  0.60332530  0.19621206  0.76373059  1
  Zr  Zr40  1  0.59816816  0.60005699  -0.00851063  1
  Zr  Zr41  1  0.78661334  0.00035748  0.76513034  1
  Zr  Zr42  1  0.39843494  0.59772912  0.01636028  1
  Zr  Zr43  1  0.21036091  -0.00865195  0.25401995  1
  Zr  Zr44  1  0.31041566  0.90232470  0.62600071  1
  Zr  Zr45  1  0.89459567  0.89028616  0.63752726  1
  Zr  Zr46  1  0.70068790  0.70262562  0.12444101  1
  Zr  Zr47  1  0.91107112  0.09785918  0.87207419  1
  Zr  Zr48  1  0.68121506  0.10728054  0.37136754  1
  Zr  Zr49  1  -0.00863072  0.20405531  0.27473619  1
  Zr  Zr50  1  0.58248041  0.18694033  0.51070453  1
  Zr  Zr51  1  0.89385306  0.47268380  0.88455317  1
  Zr  Zr52  1  0.10710077  0.68847549  0.64338796  1
  Zr  Zr53  1  0.29615728  0.70453054  0.87590299  1
  Zr  Zr54  1  -0.00285203  0.19445321  0.49668185  1
  Zr  Zr55  1  0.59309996  0.20302212  -0.01310590  1
  Zr  Zr56  1  0.69689971  0.88945073  0.35681939  1
  Zr  Zr57  1  0.00342846  0.79325325  -0.00020954  1
  Zr  Zr58  1  0.41415573  0.40652941  0.50082150  1
  Zr  Zr59  1  0.30734751  0.89588520  0.38654300  1
  Zr  Zr60  1  0.30454215  0.70365450  0.38026401  1
  Zr  Zr61  1  0.79390213  0.19505541  0.50424851  1
  Zr  Zr62  1  0.80572742  0.58966271  0.24643192  1
  Zr  Zr63  1  0.59750347  0.00629577  0.23407393  1
  Zr  Zr64  1  0.69673376  0.71174611  0.64742633  1
  Zr  Zr65  1  0.38928985  0.81034848  0.22427001  1
  Zr  Zr66  1  0.60902956  0.79628177  0.49876708  1
  Zr  Zr67  1  0.30871778  0.69834357  0.62859402  1
  Zr  Zr68  1  0.19660553  0.40319734  0.25836450  1
  Zr  Zr69  1  0.09254597  0.49510737  0.11853223  1
  Zr  Zr70  1  0.30848341  0.91126262  0.87948601  1
  Zr  Zr71  1  0.90486264  0.50504325  0.38879840  1
  Zr  Zr72  1  0.90357275  0.89454613  0.86999221  1
  Zr  Zr73  1  0.20743447  0.01252527  0.49488111  1
  Zr  Zr74  1  0.80206878  0.00062594  0.49301208  1
  Zr  Zr75  1  0.30843694  0.30710796  0.37474367  1
  Zr  Zr76  1  -0.00072913  0.39907753  0.26335976  1
  Zr  Zr77  1  0.81291639  0.79813967  0.49146599  1
  Zr  Zr78  1  0.78834472  0.61678620  0.49420652  1
  Zr  Zr79  1  0.91689459  0.90488071  0.35552887  1
  Ta  Ta80  1  0.42036098  0.79187200  0.50827132  1
  Ta  Ta81  1  0.20200730  0.59933401  0.24706839  1
  Ta  Ta82  1  0.29436400  0.11348134  0.14368532  1
  Ta  Ta83  1  0.47901612  0.30348154  0.86441575  1
  Ta  Ta84  1  0.21714989  0.38277202  0.01817954  1
  Ta  Ta85  1  0.10579150  0.48651495  0.88336150  1
  Ta  Ta86  1  0.80291828  0.39258191  0.23969970  1
  Ta  Ta87  1  0.50238129  0.30196476  0.13778577  1
  Ta  Ta88  1  -0.00154929  0.59277005  -0.01430518  1
  Ta  Ta89  1  0.38737077  0.39738059  0.73593611  1
  Ta  Ta90  1  0.39843770  0.40008418  0.02231008  1
  Ta  Ta91  1  0.47467733  0.10127651  0.87271739  1
  Ta  Ta92  1  0.19905355  0.21223594  0.72285567  1
  Ta  Ta93  1  0.30946947  0.51156200  0.37699679  1
  Ta  Ta94  1  0.80443664  0.59861540  -0.01148862  1
  Ta  Ta95  1  0.91212178  0.71204326  0.35390508  1
  Ta  Ta96  1  0.59493707  0.80418983  -0.00576483  1
  Ta  Ta97  1  0.00197474  -0.00208035  0.00723073  1
  Ta  Ta98  1  0.60303585  0.40706617  0.76319550  1
  Ta  Ta99  1  0.90155145  0.09495887  0.63226506  1
  Ta  Ta100  1  0.89679917  0.69914967  0.64812897  1
  Ta  Ta101  1  0.59582983  0.00357403  -0.00950280  1
  Ta  Ta102  1  0.79748082  0.79647416  -0.00932870  1
  Ta  Ta103  1  0.39160457  0.59601059  0.22851899  1
  Ta  Ta104  1  0.01216706  -0.00044940  0.73778896  1
  Ta  Ta105  1  0.19957807  0.59338860  0.00876988  1
  Ta  Ta106  1  0.69999381  0.90104523  0.11366342  1
  Ta  Ta107  1  0.49788538  0.50884013  0.64172038  1
  Ta  Ta108  1  0.90683946  0.29957024  0.11513106  1
  Ta  Ta109  1  0.88129508  0.31424209  0.39790964  1
  Ta  Ta110  1  0.79772240  0.00087791  -0.00150932  1
  Ta  Ta111  1  0.59462572  0.60330196  0.77259196  1
  Ta  Ta112  1  0.80349506  0.19771707  -0.00184987  1
  Ta  Ta113  1  0.90105203  0.89815547  0.12386504  1
  Ta  Ta114  1  0.10477010  0.10245499  0.61406956  1
  Ta  Ta115  1  0.49749052  0.90582331  0.11169591  1
  Ta  Ta116  1  0.00570971  -0.01470912  0.51268480  1
  Ta  Ta117  1  0.01062928  0.19628709  0.73849704  1
  Ta  Ta118  1  0.09417998  0.89111099  0.36588425  1
  Ta  Ta119  1  0.28741966  0.12698510  0.86582854  1
  Ti  Ti120  1  0.51595190  0.28843071  0.36074504  1
  Ti  Ti121  1  0.49117006  0.70805087  0.87840426  1
  Ti  Ti122  1  0.60085477  -0.00259728  0.50070765  1
  Ti  Ti123  1  0.69799121  0.70206843  0.35007238  1
  Ti  Ti124  1  0.90078828  0.69843679  0.86394425  1
  Ti  Ti125  1  0.61054929  0.38846250  0.24939539  1
  Ti  Ti126  1  0.01262315  0.59635152  0.25594256  1
  Ti  Ti127  1  0.49450936  0.49381700  0.35955742  1
  Ti  Ti128  1  0.50144980  0.70664304  0.12505155  1
  Ti  Ti129  1  0.11102241  0.28788917  0.13049613  1
  Ti  Ti130  1  0.09505916  0.70880184  0.36553087  1
  Ti  Ti131  1  0.19874253  0.39747197  0.73964617  1
  Ti  Ti132  1  0.09849361  0.90048739  0.12290097  1
  Ti  Ti133  1  0.60887225  0.80497064  0.78591279  1
  Ti  Ti134  1  0.01140398  0.38792357  0.00152177  1
  Ti  Ti135  1  0.41056394  0.81216829  0.75929595  1
  Ti  Ti136  1  0.80318733  0.80197037  0.23806702  1
  Ti  Ti137  1  0.80415516  0.39629564  0.73853138  1
  Ti  Ti138  1  0.39465910  0.60121915  0.75649424  1
  Ti  Ti139  1  0.69946180  0.29676467  0.11222590  1
  Ti  Ti140  1  0.39145909  0.01206234  0.00762406  1
  Ti  Ti141  1  0.69721861  0.10729657  0.11506284  1
  Ti  Ti142  1  0.08746589  0.08279021  0.37489307  1
  Ti  Ti143  1  0.90957812  0.29367666  0.88599438  1
  Ti  Ti144  1  0.39907862  0.40525616  0.23677926  1
  Ti  Ti145  1  0.90348481  0.49369019  0.11435820  1
  Ti  Ti146  1  0.69169250  0.08934989  0.62972273  1
  Ti  Ti147  1  0.28245530  0.30877189  0.59836003  1
  Ti  Ti148  1  0.38664122  0.20101845  0.73573902  1
  Ti  Ti149  1  0.00738489  0.79946480  0.74743747  1
  Ti  Ti150  1  0.50279592  0.69797301  0.64334037  1
  Ti  Ti151  1  0.10030334  0.69286447  0.11712235  1
  Ti  Ti152  1  0.19856585  0.60337638  0.48199211  1
  Ti  Ti153  1  0.19471709  0.20108444  0.28444347  1
  Ti  Ti154  1  0.70252033  0.89804631  0.63398462  1
  Ti  Ti155  1  0.58632608  0.39787633  -0.00371682  1
  Ti  Ti156  1  0.40163783  0.19656686  0.25964708  1
  Ti  Ti157  1  0.59685532  0.39390632  0.49375424  1
  Ti  Ti158  1  0.20258249  0.80823684  0.74191405  1
  Ti  Ti159  1  0.39244733  0.80443728  0.00846416  1
  Mo  Mo160  1  0.69933865  0.70118023  0.88080776  1
  Mo  Mo161  1  0.69382579  0.49546318  0.88955806  1
  Mo  Mo162  1  0.90056854  0.09863501  0.37160791  1
  Mo  Mo163  1  0.79422985  0.40000488  0.51765525  1
  Mo  Mo164  1  0.50358757  0.48876282  0.13423187  1
  Mo  Mo165  1  0.30287387  0.30546894  0.86484448  1
  Mo  Mo166  1  0.00763784  0.79464177  0.22922474  1
  Mo  Mo167  1  0.29827840  0.29558682  0.15469672  1
  Mo  Mo168  1  0.10119524  0.90009108  0.63335085  1
  Mo  Mo169  1  0.10481290  0.10128538  0.85819064  1
  Mo  Mo170  1  0.30476908  0.10064056  0.35968565  1
  Mo  Mo171  1  0.10582515  0.51176083  0.38412916  1
  Mo  Mo172  1  0.90047939  0.29625364  0.61618301  1
  Mo  Mo173  1  0.00070538  0.39803603  0.49753699  1
  Mo  Mo174  1  0.49111730  0.90089526  0.89432846  1
  Mo  Mo175  1  0.39811604  0.00711757  0.23668729  1
  Mo  Mo176  1  0.00090547  0.80123162  0.50722840  1
  Mo  Mo177  1  0.59885001  0.80102011  0.22224554  1
  Mo  Mo178  1  0.69842651  0.90018498  0.89790085  1
  Mo  Mo179  1  0.40231139  0.01112349  0.74951405  1
  Mo  Mo180  1  0.79705447  0.79452535  0.77181682  1
  Mo  Mo181  1  0.69961571  0.10657721  0.89224816  1
  Mo  Mo182  1  0.00424555  -0.00506604  0.23688348  1
  Mo  Mo183  1  0.20325724  0.20331343  0.01234339  1
  Mo  Mo184  1  0.20092021  0.40795622  0.47904661  1
  Mo  Mo185  1  0.69465595  0.30595678  0.38440821  1
  Mo  Mo186  1  0.80800281  0.39225543  0.01742031  1
  Mo  Mo187  1  0.59997989  0.20840547  0.23877520  1
  Mo  Mo188  1  0.29566439  0.49677623  0.13216276  1
  Mo  Mo189  1  0.30063775  0.11045309  0.62945380  1
  Mo  Mo190  1  0.40901115  0.60589056  0.50284554  1
  Mo  Mo191  1  0.29707294  0.90927359  0.10226952  1
  Mo  Mo192  1  0.20308481  0.80031087  0.01441880  1
  Mo  Mo193  1  0.49814231  0.09667601  0.65190785  1
  Mo  Mo194  1  0.29185504  0.69844250  0.11160173  1
  Mo  Mo195  1  0.20199378  0.58144192  0.76034622  1
  Mo  Mo196  1  0.10279249  0.29923827  0.60384161  1
  Mo  Mo197  1  0.19650727  0.20176167  0.49095032  1
  Mo  Mo198  1  0.49147395  0.10025262  0.35816608  1
  Mo  Mo199  1  0.09918715  0.30703567  0.39681466  1
