# generated using pymatgen
data_HfZrTaTiMo
_symmetry_space_group_name_H-M   'P 1'
_cell_length_a   15.83441577
_cell_length_b   15.82803316
_cell_length_c   15.40668466
_cell_angle_alpha   90.03536173
_cell_angle_beta   89.97279573
_cell_angle_gamma   90.04052852
_symmetry_Int_Tables_number   1
_chemical_formula_structural   HfZrTaTiMo
_chemical_formula_sum   'Hf40 Zr40 Ta40 Ti40 Mo40'
_cell_volume   3861.33915743
_cell_formula_units_Z   40
loop_
 _symmetry_equiv_pos_site_id
 _symmetry_equiv_pos_as_xyz
  1  'x, y, z'
loop_
 _atom_site_type_symbol
 _atom_site_label
 _atom_site_symmetry_multiplicity
 _atom_site_fract_x
 _atom_site_fract_y
 _atom_site_fract_z
 _atom_site_occupancy
  Hf  Hf0  1  0.21234275  0.79466552  0.49053585  1
  Hf  Hf1  1  0.60395004  0.39329052  -0.00419934  1
  Hf  Hf2  1  0.50389303  0.90511165  0.59508628  1
  Hf  Hf3  1  0.08880295  0.89985360  0.14770825  1
  Hf  Hf4  1  0.70820533  0.88922252  0.86471912  1
  Hf  Hf5  1  0.68574773  0.90908429  0.38031656  1
  Hf  Hf6  1  -0.00400031  0.18731547  0.01168976  1
  Hf  Hf7  1  0.39444839  0.39928482  -0.00563875  1
  Hf  Hf8  1  0.29537673  0.50743672  0.86986654  1
  Hf  Hf9  1  0.69058923  0.70622831  0.37408489  1
  Hf  Hf10  1  -0.00053672  0.79937378  0.00097600  1
  Hf  Hf11  1  0.69254667  0.68999651  0.86098512  1
  Hf  Hf12  1  0.40652946  0.19318365  0.25309044  1
  Hf  Hf13  1  0.70304073  0.49743189  0.37206858  1
  Hf  Hf14  1  0.30610267  0.90647135  0.61600339  1
  Hf  Hf15  1  0.28839856  0.11816636  0.89413799  1
  Hf  Hf16  1  0.80327151  0.59929160  0.50073908  1
  Hf  Hf17  1  0.70676244  0.30226870  0.37396999  1
  Hf  Hf18  1  0.21280864  -0.00285345  0.24858950  1
  Hf  Hf19  1  0.90658304  0.90295469  0.86472837  1
  Hf  Hf20  1  0.69986735  0.09137465  0.12494486  1
  Hf  Hf21  1  0.08611441  0.29010462  0.63315143  1
  Hf  Hf22  1  0.90093374  0.50581002  0.11380124  1
  Hf  Hf23  1  0.30924238  0.10071527  0.12429196  1
  Hf  Hf24  1  0.20576148  0.80828447  0.02410564  1
  Hf  Hf25  1  0.91420409  0.89981025  0.62193500  1
  Hf  Hf26  1  0.01428078  0.79202185  0.75360775  1
  Hf  Hf27  1  0.60964862  0.19570265  0.50237031  1
  Hf  Hf28  1  0.80807433  0.20018250  0.49722912  1
  Hf  Hf29  1  0.61061077  0.40313128  0.75125649  1
  Hf  Hf30  1  0.81125751  0.39714189  0.50946684  1
  Hf  Hf31  1  0.52414764  0.91303535  0.87792178  1
  Hf  Hf32  1  0.49825353  0.50933727  0.12026124  1
  Hf  Hf33  1  0.49986907  0.49988840  0.37982483  1
  Hf  Hf34  1  0.40633777  0.01908861  0.75572233  1
  Hf  Hf35  1  0.39774381  0.39536037  0.76235498  1
  Hf  Hf36  1  0.51006438  0.51767755  0.87363857  1
  Hf  Hf37  1  0.79870574  0.80252147  0.01534086  1
  Hf  Hf38  1  0.00372667  0.39484516  0.00489952  1
  Hf  Hf39  1  0.49172701  0.29683023  0.62027987  1
  Zr  Zr40  1  0.28148317  0.72195781  0.85583431  1
  Zr  Zr41  1  0.40839941  0.82060774  0.75523933  1
  Zr  Zr42  1  0.39671282  -0.00654421  -0.00765901  1
  Zr  Zr43  1  0.59977439  0.79118599  0.00808742  1
  Zr  Zr44  1  0.17943657  0.60992506  0.75279089  1
  Zr  Zr45  1  0.18919359  0.20433128  0.49524724  1
  Zr  Zr46  1  0.39766941  0.39725462  0.24188464  1
  Zr  Zr47  1  0.19908552  0.58885077  0.49512307  1
  Zr  Zr48  1  0.49561362  0.70526508  0.62080228  1
  Zr  Zr49  1  0.09091575  0.68713917  0.37559755  1
  Zr  Zr50  1  -0.01163734  0.60155927  0.76324156  1
  Zr  Zr51  1  0.90294933  0.29574108  0.87258679  1
  Zr  Zr52  1  0.38851822  0.20235915  0.75510907  1
  Zr  Zr53  1  0.69727401  0.50354623  0.11931378  1
  Zr  Zr54  1  0.29848664  0.50659165  0.63728660  1
  Zr  Zr55  1  0.88369902  0.49657363  0.88146265  1
  Zr  Zr56  1  0.60814743  0.40575824  0.51725951  1
  Zr  Zr57  1  0.39669095  0.80346235  -0.00646994  1
  Zr  Zr58  1  0.00015211  0.20885832  0.24255263  1
  Zr  Zr59  1  0.80365777  0.18889194  0.76186012  1
  Zr  Zr60  1  0.79877618  0.20071924  0.24476890  1
  Zr  Zr61  1  0.29089917  0.30233686  0.37373957  1
  Zr  Zr62  1  0.09224617  0.70205153  0.60596948  1
  Zr  Zr63  1  0.10069967  0.10372635  0.36165099  1
  Zr  Zr64  1  0.19471971  0.60960609  0.01070527  1
  Zr  Zr65  1  0.80412346  -0.00178717  0.73832628  1
  Zr  Zr66  1  0.49426901  0.51325700  0.63321728  1
  Zr  Zr67  1  0.39705562  0.61793757  -0.00046589  1
  Zr  Zr68  1  0.01878203  0.01912226  0.74248921  1
  Zr  Zr69  1  0.60184318  0.38860264  0.23838113  1
  Zr  Zr70  1  0.59395517  0.19229510  0.75778730  1
  Zr  Zr71  1  0.11541187  0.28494512  0.88124455  1
  Zr  Zr72  1  0.19205984  0.58987321  0.24197020  1
  Zr  Zr73  1  0.09615806  0.89410314  0.36729785  1
  Zr  Zr74  1  0.81010933  -0.00378679  0.00514608  1
  Zr  Zr75  1  0.59568516  0.18858296  0.25330400  1
  Zr  Zr76  1  0.49436141  0.29527263  0.39172567  1
  Zr  Zr77  1  0.79510500  0.80160450  0.50714116  1
  Zr  Zr78  1  0.80539601  0.60541587  0.25528998  1
  Zr  Zr79  1  0.11489589  0.89777592  0.87069103  1
  Ta  Ta80  1  0.00497558  0.39990490  0.76031149  1
  Ta  Ta81  1  0.49942988  0.28605527  0.10973547  1
  Ta  Ta82  1  0.30854443  0.09956515  0.38027389  1
  Ta  Ta83  1  0.50474863  0.09063130  0.10900729  1
  Ta  Ta84  1  0.19158258  0.18009150  0.73617542  1
  Ta  Ta85  1  0.20029925  0.40049734  0.01166516  1
  Ta  Ta86  1  0.88537699  0.70310325  0.87571022  1
  Ta  Ta87  1  0.91679903  0.11215328  0.61641052  1
  Ta  Ta88  1  0.60540688  0.19449917  -0.00878328  1
  Ta  Ta89  1  0.09939592  0.49696401  0.88440313  1
  Ta  Ta90  1  0.19688480  -0.00278608  0.02041100  1
  Ta  Ta91  1  0.60176166  0.00079243  0.73012414  1
  Ta  Ta92  1  0.50600493  0.70258623  0.85264672  1
  Ta  Ta93  1  0.30172275  0.09950851  0.60202760  1
  Ta  Ta94  1  0.30459976  0.70475440  0.63310735  1
  Ta  Ta95  1  0.49815882  0.70349685  0.14507260  1
  Ta  Ta96  1  0.78934428  0.61293293  0.00728785  1
  Ta  Ta97  1  0.39059719  0.61117147  0.48151026  1
  Ta  Ta98  1  0.90776949  0.31281409  0.36266666  1
  Ta  Ta99  1  0.69061627  0.08101065  0.88337427  1
  Ta  Ta100  1  0.10378342  0.09309404  0.89048383  1
  Ta  Ta101  1  -0.00549596  0.20833241  0.48235470  1
  Ta  Ta102  1  -0.00163869  0.59423348  0.24593649  1
  Ta  Ta103  1  0.69008221  0.70412510  0.14381397  1
  Ta  Ta104  1  0.41571330  -0.00636639  0.26236100  1
  Ta  Ta105  1  0.49558978  0.89795192  0.13218920  1
  Ta  Ta106  1  0.28956277  0.49357547  0.36529516  1
  Ta  Ta107  1  0.70287968  0.50272950  0.88361507  1
  Ta  Ta108  1  -0.00093922  0.00629502  0.49110250  1
  Ta  Ta109  1  0.80895265  0.40040963  0.23823703  1
  Ta  Ta110  1  0.38566369  0.40956550  0.50171417  1
  Ta  Ta111  1  0.49113898  0.09809119  0.60263988  1
  Ta  Ta112  1  0.19915038  0.38894291  0.75164488  1
  Ta  Ta113  1  0.80579783  0.78770056  0.73140215  1
  Ta  Ta114  1  0.90513036  0.49291481  0.63154567  1
  Ta  Ta115  1  0.79809156  0.19690463  -0.00253869  1
  Ta  Ta116  1  0.80357288  0.00463593  0.50454352  1
  Ta  Ta117  1  0.91498055  0.49788756  0.37367764  1
  Ta  Ta118  1  0.29564330  0.29825724  0.61720598  1
  Ta  Ta119  1  0.09073500  0.49311108  0.62826635  1
  Ti  Ti120  1  0.09976223  0.09703954  0.13320367  1
  Ti  Ti121  1  0.79913531  0.80244036  0.25711005  1
  Ti  Ti122  1  -0.00321087  0.60974527  -0.00528701  1
  Ti  Ti123  1  0.89284441  0.30163924  0.12071295  1
  Ti  Ti124  1  0.30924240  0.88976088  0.36565589  1
  Ti  Ti125  1  0.39875791  0.60578056  0.26590111  1
  Ti  Ti126  1  0.61290679  0.80437856  0.72463799  1
  Ti  Ti127  1  0.00236897  -0.00399559  0.00569435  1
  Ti  Ti128  1  0.11067899  0.90949894  0.61790544  1
  Ti  Ti129  1  -0.01178473  0.79652626  0.48511819  1
  Ti  Ti130  1  0.90490298  0.69073630  0.61969603  1
  Ti  Ti131  1  0.10039262  0.32041007  0.36031890  1
  Ti  Ti132  1  0.49245128  0.28654390  0.88680848  1
  Ti  Ti133  1  0.01319067  0.40974947  0.23145115  1
  Ti  Ti134  1  0.70239626  0.08940394  0.36919302  1
  Ti  Ti135  1  -0.01347213  0.78937154  0.26101529  1
  Ti  Ti136  1  0.90156357  0.08537806  0.14125043  1
  Ti  Ti137  1  0.30071586  0.50223389  0.12962446  1
  Ti  Ti138  1  0.90374521  0.29842449  0.64298694  1
  Ti  Ti139  1  0.20034482  -0.00216711  0.48500301  1
  Ti  Ti140  1  0.89596787  0.09684734  0.36639396  1
  Ti  Ti141  1  0.29909160  0.29447276  0.11543804  1
  Ti  Ti142  1  0.60370728  0.60802710  0.50779333  1
  Ti  Ti143  1  0.50890553  0.07896733  0.39514533  1
  Ti  Ti144  1  0.71202773  0.29833966  0.63807466  1
  Ti  Ti145  1  0.78769232  0.59000247  0.73449635  1
  Ti  Ti146  1  0.71197210  0.30652383  0.87550181  1
  Ti  Ti147  1  0.00561046  0.39954461  0.49963523  1
  Ti  Ti148  1  0.58097497  0.80843038  0.26276751  1
  Ti  Ti149  1  0.89720327  0.90447124  0.14871120  1
  Ti  Ti150  1  0.19372031  0.40090150  0.50846011  1
  Ti  Ti151  1  0.70432185  0.09885815  0.62343289  1
  Ti  Ti152  1  0.30756253  0.71540944  0.15281342  1
  Ti  Ti153  1  0.20131526  0.20985905  0.24001532  1
  Ti  Ti154  1  0.89291185  0.90755061  0.36907194  1
  Ti  Ti155  1  0.89760632  0.70352193  0.13010778  1
  Ti  Ti156  1  0.59295844  0.60189542  0.25611736  1
  Ti  Ti157  1  0.09055460  0.70138741  0.13577334  1
  Ti  Ti158  1  0.69181246  0.90126921  0.14724481  1
  Ti  Ti159  1  0.28667324  0.91850473  0.85744475  1
  Mo  Mo160  1  0.60081543  0.79501971  0.50139060  1
  Mo  Mo161  1  0.59278028  -0.00335217  0.24338767  1
  Mo  Mo162  1  0.20935601  0.01154947  0.73661565  1
  Mo  Mo163  1  0.29701816  0.69698242  0.35961389  1
  Mo  Mo164  1  0.09071718  0.70164160  0.89198484  1
  Mo  Mo165  1  0.69950222  0.69545207  0.62903792  1
  Mo  Mo166  1  0.60135225  0.60941221  0.01001828  1
  Mo  Mo167  1  0.79786067  -0.00598590  0.25581012  1
  Mo  Mo168  1  0.20058700  0.79540547  0.24929146  1
  Mo  Mo169  1  0.70352628  0.29383584  0.11185352  1
  Mo  Mo170  1  0.19661694  0.39809147  0.22644198  1
  Mo  Mo171  1  -0.00813655  0.58670507  0.49877332  1
  Mo  Mo172  1  0.30597148  0.89952584  0.14658093  1
  Mo  Mo173  1  0.10083548  0.09607749  0.59960824  1
  Mo  Mo174  1  0.40251413  0.79821048  0.26557512  1
  Mo  Mo175  1  0.50749613  0.09979613  0.88915208  1
  Mo  Mo176  1  0.00512457  0.19494534  0.75713241  1
  Mo  Mo177  1  0.60551851  0.60109441  0.73596472  1
  Mo  Mo178  1  0.90595002  0.09473005  0.88653316  1
  Mo  Mo179  1  0.79612081  0.39413656  0.01396604  1
  Mo  Mo180  1  -0.00770803  0.00108255  0.26138283  1
  Mo  Mo181  1  0.09575390  0.50474662  0.10523250  1
  Mo  Mo182  1  0.19992724  0.81361703  0.72282055  1
  Mo  Mo183  1  0.49972962  0.69905131  0.37655478  1
  Mo  Mo184  1  0.39713045  0.61163404  0.75939009  1
  Mo  Mo185  1  0.39859845  0.79367888  0.47916696  1
  Mo  Mo186  1  0.90036952  0.70162497  0.37494539  1
  Mo  Mo187  1  0.70486335  0.90046428  0.62180182  1
  Mo  Mo188  1  0.80095052  0.40047988  0.73830895  1
  Mo  Mo189  1  0.10475098  0.29964968  0.12518288  1
  Mo  Mo190  1  0.61303173  0.00517387  0.51322818  1
  Mo  Mo191  1  0.70492789  0.49971866  0.62259487  1
  Mo  Mo192  1  0.29224909  0.30354260  0.88609538  1
  Mo  Mo193  1  0.60629545  -0.00885274  0.01692231  1
  Mo  Mo194  1  0.39473150  -0.00359151  0.47910011  1
  Mo  Mo195  1  0.09617762  0.48472884  0.37668986  1
  Mo  Mo196  1  0.40302220  0.20176707  0.00163753  1
  Mo  Mo197  1  0.50013904  0.89638953  0.38722878  1
  Mo  Mo198  1  0.19482694  0.19683860  0.02463267  1
  Mo  Mo199  1  0.39856111  0.19954975  0.49389103  1
