# generated using pymatgen
data_HfZrTaTiMo
_symmetry_space_group_name_H-M   'P 1'
_cell_length_a   16.45575069
_cell_length_b   16.43181945
_cell_length_c   14.20885365
_cell_angle_alpha   90.06047984
_cell_angle_beta   90.30811153
_cell_angle_gamma   89.76585919
_symmetry_Int_Tables_number   1
_chemical_formula_structural   HfZrTaTiMo
_chemical_formula_sum   'Hf40 Zr40 Ta40 Ti40 Mo40'
_cell_volume   3841.95484690
_cell_formula_units_Z   40
loop_
 _symmetry_equiv_pos_site_id
 _symmetry_equiv_pos_as_xyz
  1  'x, y, z'
loop_
 _atom_site_type_symbol
 _atom_site_label
 _atom_site_symmetry_multiplicity
 _atom_site_fract_x
 _atom_site_fract_y
 _atom_site_fract_z
 _atom_site_occupancy
  Hf  Hf0  1  0.19525081  0.19735120  0.50450492  1
  Hf  Hf1  1  0.68748090  0.30662807  0.63495848  1
  Hf  Hf2  1  0.69988579  0.49300988  0.86842244  1
  Hf  Hf3  1  0.30244099  0.90102171  0.61428173  1
  Hf  Hf4  1  0.50367731  0.70426132  0.86739719  1
  Hf  Hf5  1  0.29660921  0.90113733  0.36918166  1
  Hf  Hf6  1  0.90430344  0.29282775  0.36798482  1
  Hf  Hf7  1  0.50140850  0.90416698  0.11817156  1
  Hf  Hf8  1  0.60158170  0.01264505  0.25325604  1
  Hf  Hf9  1  0.39692470  0.59778879  0.25364848  1
  Hf  Hf10  1  0.80738837  0.80581774  0.51237860  1
  Hf  Hf11  1  0.60715144  0.00354396  0.75280696  1
  Hf  Hf12  1  0.39915963  -0.00054003  0.74921512  1
  Hf  Hf13  1  0.90173265  0.50341819  0.39040883  1
  Hf  Hf14  1  0.91596359  0.90970103  0.64092462  1
  Hf  Hf15  1  0.41080659  0.20467433  0.26175613  1
  Hf  Hf16  1  0.09327025  0.10402847  0.36010797  1
  Hf  Hf17  1  0.09810217  0.49436921  0.61650636  1
  Hf  Hf18  1  0.29790952  0.30223402  0.61643722  1
  Hf  Hf19  1  0.70560178  0.29584688  0.37516182  1
  Hf  Hf20  1  0.00064040  0.00236152  0.22888713  1
  Hf  Hf21  1  0.50604821  0.70303116  0.37415474  1
  Hf  Hf22  1  0.60148274  0.37578412  0.00144516  1
  Hf  Hf23  1  0.31452142  0.09844610  0.39372048  1
  Hf  Hf24  1  0.19777606  0.19952519  0.74840641  1
  Hf  Hf25  1  0.20491786  0.00166975  0.75304949  1
  Hf  Hf26  1  0.39590081  0.39999267  0.75134589  1
  Hf  Hf27  1  0.88507038  0.89589422  0.11190645  1
  Hf  Hf28  1  0.90155650  0.69421972  0.38612953  1
  Hf  Hf29  1  -0.01346572  0.20019493  0.76626955  1
  Hf  Hf30  1  0.80802555  0.60026035  0.00673563  1
  Hf  Hf31  1  0.39822676  0.39754193  0.25849275  1
  Hf  Hf32  1  0.68940722  0.71387051  0.63358177  1
  Hf  Hf33  1  0.80220378  0.01420929  0.52054600  1
  Hf  Hf34  1  0.51492376  0.88977796  0.62036220  1
  Hf  Hf35  1  0.70809970  0.89877570  0.88296200  1
  Hf  Hf36  1  0.60609898  0.80915057  0.24999901  1
  Hf  Hf37  1  0.70475403  0.50481682  0.38334320  1
  Hf  Hf38  1  0.59635345  0.59996811  0.50515834  1
  Hf  Hf39  1  0.40256809  0.79311715  0.50104700  1
  Zr  Zr40  1  0.39908710  0.39766608  -0.00203254  1
  Zr  Zr41  1  0.10259746  0.69452429  0.11640302  1
  Zr  Zr42  1  0.40713784  0.39476382  0.48097718  1
  Zr  Zr43  1  0.40086414  0.00859143  0.23774108  1
  Zr  Zr44  1  0.18830316  0.00128355  0.49816479  1
  Zr  Zr45  1  0.40539253  0.21604255  0.01061505  1
  Zr  Zr46  1  0.39020183  0.60054076  0.00343010  1
  Zr  Zr47  1  0.49981593  0.91450353  0.38893303  1
  Zr  Zr48  1  -0.00595119  0.59643183  0.23754201  1
  Zr  Zr49  1  0.81226300  0.80251664  0.75600583  1
  Zr  Zr50  1  0.90504103  0.48979154  0.88132386  1
  Zr  Zr51  1  0.19945305  0.59541197  0.75864771  1
  Zr  Zr52  1  0.89661914  0.90650649  0.36501849  1
  Zr  Zr53  1  0.89011922  0.10084696  0.35858435  1
  Zr  Zr54  1  0.09450341  0.69432110  0.60882041  1
  Zr  Zr55  1  0.70770431  0.70225217  0.38035023  1
  Zr  Zr56  1  0.10576688  0.89526571  0.12082108  1
  Zr  Zr57  1  0.49554788  0.09027453  0.60373449  1
  Zr  Zr58  1  0.50233429  0.10404334  0.88257998  1
  Zr  Zr59  1  0.50548380  0.69990644  0.12647546  1
  Zr  Zr60  1  0.50285008  0.50102755  0.86908445  1
  Zr  Zr61  1  0.50265805  0.49805627  0.12680751  1
  Zr  Zr62  1  0.60027690  0.19589417  0.49018219  1
  Zr  Zr63  1  0.10515304  0.89726197  0.87850148  1
  Zr  Zr64  1  -0.00839972  0.19369458  0.51197905  1
  Zr  Zr65  1  0.80380733  0.39124803  0.50846109  1
  Zr  Zr66  1  0.91072059  0.49902432  0.62693181  1
  Zr  Zr67  1  -0.00014891  0.61075697  0.76251911  1
  Zr  Zr68  1  0.09609177  0.89605614  0.63029001  1
  Zr  Zr69  1  0.29295011  0.69494897  0.37972904  1
  Zr  Zr70  1  0.69770422  0.49730254  0.12125697  1
  Zr  Zr71  1  0.20748122  0.39539669  -0.00527376  1
  Zr  Zr72  1  0.70206031  0.49922449  0.63373166  1
  Zr  Zr73  1  0.29450954  0.50118715  0.61376159  1
  Zr  Zr74  1  0.09306820  0.31260881  0.63134466  1
  Zr  Zr75  1  0.30234350  0.69957356  0.86943739  1
  Zr  Zr76  1  0.30128540  0.10366028  0.88788684  1
  Zr  Zr77  1  0.80366110  0.40408850  0.24063399  1
  Zr  Zr78  1  -0.00635742  0.00540362  -0.00420159  1
  Zr  Zr79  1  0.10173856  0.29639700  0.12778818  1
  Ta  Ta80  1  -0.00667031  0.19919172  -0.00242019  1
  Ta  Ta81  1  0.19465438  0.59399016  0.24991907  1
  Ta  Ta82  1  0.80494707  0.60353703  0.23294256  1
  Ta  Ta83  1  0.59392929  0.39425143  0.26224236  1
  Ta  Ta84  1  0.50758819  0.48995426  0.62529842  1
  Ta  Ta85  1  0.39740355  0.80097254  0.74688738  1
  Ta  Ta86  1  0.20094741  0.00757024  0.23945264  1
  Ta  Ta87  1  0.70552466  0.70912526  0.11862575  1
  Ta  Ta88  1  0.79732901  0.19866289  0.75451310  1
  Ta  Ta89  1  0.39791826  0.19745463  0.73435123  1
  Ta  Ta90  1  0.09835876  0.10327847  0.88007683  1
  Ta  Ta91  1  0.09658120  0.49609821  0.11181191  1
  Ta  Ta92  1  0.79311126  0.20863871  -0.00782024  1
  Ta  Ta93  1  0.19694193  0.39485867  0.47489416  1
  Ta  Ta94  1  0.09752454  0.49604019  0.88338440  1
  Ta  Ta95  1  0.70410382  0.90883902  0.38306753  1
  Ta  Ta96  1  0.28926491  0.50111777  0.13153420  1
  Ta  Ta97  1  0.19708630  0.40263057  0.25757772  1
  Ta  Ta98  1  0.79382941  0.20046892  0.22678309  1
  Ta  Ta99  1  0.39683816  0.80136213  0.00362671  1
  Ta  Ta100  1  0.69782661  0.90532592  0.62572120  1
  Ta  Ta101  1  -0.00348502  0.79545929  0.24413930  1
  Ta  Ta102  1  0.20121003  0.79451665  0.74799013  1
  Ta  Ta103  1  0.29608315  0.89707987  0.11990297  1
  Ta  Ta104  1  0.09293377  0.29674333  0.36430590  1
  Ta  Ta105  1  -0.00597707  0.79288553  -0.00306642  1
  Ta  Ta106  1  0.00056731  0.40312352  0.24313165  1
  Ta  Ta107  1  0.90029565  0.30221924  0.11512998  1
  Ta  Ta108  1  0.08472118  0.09047731  0.64306429  1
  Ta  Ta109  1  0.60041638  0.20398163  0.24337538  1
  Ta  Ta110  1  0.60185325  0.80135650  -0.00150536  1
  Ta  Ta111  1  0.19352644  0.79760880  0.49385126  1
  Ta  Ta112  1  0.69708066  0.09971530  0.11063536  1
  Ta  Ta113  1  0.80764641  0.01083366  0.76152422  1
  Ta  Ta114  1  0.80032944  0.19559824  0.52749375  1
  Ta  Ta115  1  0.29619709  0.69708317  0.61841448  1
  Ta  Ta116  1  0.60648898  0.60432126  -0.00264494  1
  Ta  Ta117  1  0.80505369  0.60907221  0.75003019  1
  Ta  Ta118  1  0.39354449  0.79849931  0.23971951  1
  Ta  Ta119  1  0.70064034  0.70146907  0.87658706  1
  Ti  Ti120  1  0.88239438  0.09733648  0.11169790  1
  Ti  Ti121  1  0.49980907  0.70016653  0.63365905  1
  Ti  Ti122  1  0.29659194  0.10515225  0.12110138  1
  Ti  Ti123  1  0.89794821  0.70236859  0.88961534  1
  Ti  Ti124  1  0.40585910  0.59516286  0.50054161  1
  Ti  Ti125  1  0.19520021  0.20047462  0.00030594  1
  Ti  Ti126  1  0.09842479  0.89805185  0.36181158  1
  Ti  Ti127  1  0.39855194  0.59678609  0.74167895  1
  Ti  Ti128  1  0.20611867  0.79033398  -0.00326754  1
  Ti  Ti129  1  0.60690308  0.59817727  0.25086579  1
  Ti  Ti130  1  0.20194024  0.59733618  -0.00342119  1
  Ti  Ti131  1  0.60108166  0.60028858  0.75063518  1
  Ti  Ti132  1  0.80549176  0.38586236  0.76163878  1
  Ti  Ti133  1  0.39671433  -0.00265297  0.00093652  1
  Ti  Ti134  1  0.50749327  0.29273113  0.85673173  1
  Ti  Ti135  1  0.30197514  0.89598003  0.88134323  1
  Ti  Ti136  1  0.09143135  0.30636671  0.87731344  1
  Ti  Ti137  1  0.50004868  0.89565339  0.87623285  1
  Ti  Ti138  1  0.90711692  0.30718228  0.63493789  1
  Ti  Ti139  1  0.60125995  -0.00030379  -0.00382049  1
  Ti  Ti140  1  0.20050229  0.00526996  0.00749611  1
  Ti  Ti141  1  0.80134962  0.79855925  0.24717449  1
  Ti  Ti142  1  0.70533857  0.90680151  0.11963010  1
  Ti  Ti143  1  0.00314700  0.79422068  0.76732399  1
  Ti  Ti144  1  0.29667624  0.30088444  0.13710774  1
  Ti  Ti145  1  0.70814342  0.09940655  0.36900396  1
  Ti  Ti146  1  0.09667014  0.69515037  0.37516929  1
  Ti  Ti147  1  -0.00259895  0.00325794  0.49288430  1
  Ti  Ti148  1  0.20805689  0.19918906  0.25578496  1
  Ti  Ti149  1  0.29306373  0.50379823  0.37779453  1
  Ti  Ti150  1  0.79724834  0.39005501  -0.00052109  1
  Ti  Ti151  1  0.09334827  0.50236553  0.38041507  1
  Ti  Ti152  1  0.60089686  0.19529969  0.74528409  1
  Ti  Ti153  1  0.50117902  0.30096630  0.61912259  1
  Ti  Ti154  1  0.19930402  0.79400573  0.24796611  1
  Ti  Ti155  1  0.69865068  0.10636551  0.88443770  1
  Ti  Ti156  1  0.29757944  0.29815414  0.86432840  1
  Ti  Ti157  1  0.50714348  0.10680293  0.11069310  1
  Ti  Ti158  1  -0.00598444  0.19469449  0.22430041  1
  Ti  Ti159  1  0.00174157  0.80433798  0.48994604  1
  Mo  Mo160  1  0.29521936  0.49756818  0.86916127  1
  Mo  Mo161  1  0.79394744  0.00715771  -0.00621253  1
  Mo  Mo162  1  0.50752399  0.10270889  0.37872290  1
  Mo  Mo163  1  0.10041011  0.70012752  0.88745848  1
  Mo  Mo164  1  0.40078254  0.20202997  0.50252478  1
  Mo  Mo165  1  0.29825181  0.10249966  0.62296478  1
  Mo  Mo166  1  0.60146780  0.19915682  0.00316825  1
  Mo  Mo167  1  0.59619888  0.40139847  0.49111886  1
  Mo  Mo168  1  0.69972474  0.10336569  0.64145498  1
  Mo  Mo169  1  0.61546929  0.00177507  0.49582443  1
  Mo  Mo170  1  0.90314893  0.89927208  0.87719139  1
  Mo  Mo171  1  0.90151450  0.10019942  0.64524708  1
  Mo  Mo172  1  0.00155998  0.60155271  0.49445110  1
  Mo  Mo173  1  0.29378961  0.70112505  0.12995693  1
  Mo  Mo174  1  0.50634074  0.29939828  0.37667640  1
  Mo  Mo175  1  0.80475046  0.60876026  0.53085379  1
  Mo  Mo176  1  0.11251898  0.10626747  0.11727099  1
  Mo  Mo177  1  0.89873935  0.70433494  0.12427728  1
  Mo  Mo178  1  0.29023579  0.29506180  0.37227214  1
  Mo  Mo179  1  0.00169451  0.39726383  0.77122170  1
  Mo  Mo180  1  0.00268421  0.59970001  -0.00109064  1
  Mo  Mo181  1  0.70011801  0.29674688  0.12985599  1
  Mo  Mo182  1  0.79825967  0.79797931  -0.00125808  1
  Mo  Mo183  1  0.60697395  0.80324765  0.49236343  1
  Mo  Mo184  1  0.69841702  0.29417296  0.86437609  1
  Mo  Mo185  1  0.19608324  0.59571973  0.48367615  1
  Mo  Mo186  1  0.00083412  0.39569308  0.00594631  1
  Mo  Mo187  1  0.00040410  0.00181472  0.77252730  1
  Mo  Mo188  1  0.39773692  -0.00423654  0.50521460  1
  Mo  Mo189  1  0.19965689  0.39952017  0.76800232  1
  Mo  Mo190  1  0.90246132  0.70281626  0.61919229  1
  Mo  Mo191  1  0.78936721  0.00313471  0.23331469  1
  Mo  Mo192  1  0.50797270  0.50331499  0.37910375  1
  Mo  Mo193  1  0.00554898  0.39657051  0.47718003  1
  Mo  Mo194  1  0.50328593  0.29925766  0.14180907  1
  Mo  Mo195  1  0.59341326  0.39292894  0.75453473  1
  Mo  Mo196  1  0.89250420  0.10170690  0.88373732  1
  Mo  Mo197  1  0.90511883  0.49379354  0.11313817  1
  Mo  Mo198  1  0.89365173  0.29901045  0.88534567  1
  Mo  Mo199  1  0.59674559  0.80379575  0.76695639  1
