# generated using pymatgen
data_HfZrTaTiMo
_symmetry_space_group_name_H-M   'P 1'
_cell_length_a   15.83822522
_cell_length_b   15.83913639
_cell_length_c   15.40896260
_cell_angle_alpha   89.95048360
_cell_angle_beta   90.00664941
_cell_angle_gamma   90.02589413
_symmetry_Int_Tables_number   1
_chemical_formula_structural   HfZrTaTiMo
_chemical_formula_sum   'Hf40 Zr40 Ta40 Ti40 Mo40'
_cell_volume   3865.54919279
_cell_formula_units_Z   40
loop_
 _symmetry_equiv_pos_site_id
 _symmetry_equiv_pos_as_xyz
  1  'x, y, z'
loop_
 _atom_site_type_symbol
 _atom_site_label
 _atom_site_symmetry_multiplicity
 _atom_site_fract_x
 _atom_site_fract_y
 _atom_site_fract_z
 _atom_site_occupancy
  Hf  Hf0  1  0.19341806  -0.00062150  0.24295662  1
  Hf  Hf1  1  0.60434489  0.59190098  0.49815712  1
  Hf  Hf2  1  0.69839934  0.69918096  0.87947499  1
  Hf  Hf3  1  0.59342286  -0.01279207  0.00835863  1
  Hf  Hf4  1  0.39911560  0.20390295  0.00906109  1
  Hf  Hf5  1  0.88989957  0.31926911  0.63862121  1
  Hf  Hf6  1  0.49905359  0.10275205  0.37809377  1
  Hf  Hf7  1  0.09812121  0.09556644  0.63211605  1
  Hf  Hf8  1  0.68969522  0.90385712  0.35390085  1
  Hf  Hf9  1  0.48580824  0.49730482  0.61466716  1
  Hf  Hf10  1  0.50831493  0.89497110  0.15020586  1
  Hf  Hf11  1  0.11700546  0.70033511  0.87514366  1
  Hf  Hf12  1  0.00478394  0.80208618  0.00834652  1
  Hf  Hf13  1  0.19878937  0.79088605  0.02055192  1
  Hf  Hf14  1  0.90184408  0.69715549  0.60861199  1
  Hf  Hf15  1  0.39823002  0.20889938  0.51054779  1
  Hf  Hf16  1  0.58854037  0.19317002  0.22926573  1
  Hf  Hf17  1  0.29791001  0.88609789  0.87874391  1
  Hf  Hf18  1  0.69552952  0.50772094  0.88961542  1
  Hf  Hf19  1  0.50267978  0.70171876  0.88310319  1
  Hf  Hf20  1  0.20935173  0.40064870  0.49888469  1
  Hf  Hf21  1  0.60304246  0.20432077  0.50209708  1
  Hf  Hf22  1  0.09923752  0.09757133  0.86894884  1
  Hf  Hf23  1  0.51096711  0.49845246  0.35455893  1
  Hf  Hf24  1  0.90492445  0.10391744  0.11668361  1
  Hf  Hf25  1  0.59377678  0.20202581  0.75277111  1
  Hf  Hf26  1  0.70118922  0.70765863  0.62595498  1
  Hf  Hf27  1  0.81031251  0.20788601  0.24458541  1
  Hf  Hf28  1  0.80148535  0.81157663  0.48545765  1
  Hf  Hf29  1  0.89256083  0.09260371  0.64770934  1
  Hf  Hf30  1  0.50225769  0.50600370  0.12263071  1
  Hf  Hf31  1  0.79661160  0.20255644  0.49781550  1
  Hf  Hf32  1  0.70764755  0.30889255  0.12100856  1
  Hf  Hf33  1  0.69589228  0.30742008  0.63347407  1
  Hf  Hf34  1  0.00093996  0.21028746  0.76066219  1
  Hf  Hf35  1  0.50181552  0.09559875  0.62363052  1
  Hf  Hf36  1  0.09626622  0.29253524  0.38869762  1
  Hf  Hf37  1  0.10898321  0.89636392  0.38947091  1
  Hf  Hf38  1  0.89371926  0.89829748  0.64187503  1
  Hf  Hf39  1  0.69977901  0.69211760  0.36102955  1
  Zr  Zr40  1  0.39628740  -0.01099106  0.50560039  1
  Zr  Zr41  1  0.19220221  0.79642483  0.24316624  1
  Zr  Zr42  1  0.18607094  -0.01165503  0.00770168  1
  Zr  Zr43  1  0.69139058  0.89160789  0.85911893  1
  Zr  Zr44  1  0.79222546  0.00632891  0.49032805  1
  Zr  Zr45  1  0.38463885  0.77895239  0.75080541  1
  Zr  Zr46  1  0.09592236  0.50272225  0.37686256  1
  Zr  Zr47  1  0.49316910  0.08784609  0.87541305  1
  Zr  Zr48  1  0.78903485  0.40793981  0.48561269  1
  Zr  Zr49  1  0.21058917  -0.00577814  0.73919110  1
  Zr  Zr50  1  0.29961848  0.09504887  0.88691119  1
  Zr  Zr51  1  0.00817655  0.60342942  0.23316385  1
  Zr  Zr52  1  -0.01522192  -0.00536581  0.49130706  1
  Zr  Zr53  1  0.88639815  0.90102685  0.13559511  1
  Zr  Zr54  1  0.21328896  0.60547590  0.74461211  1
  Zr  Zr55  1  -0.00481622  0.20595282  0.51943028  1
  Zr  Zr56  1  0.58654326  0.79087244  0.48803212  1
  Zr  Zr57  1  0.09316385  0.88977377  0.62245194  1
  Zr  Zr58  1  0.90657972  0.48712212  0.11084290  1
  Zr  Zr59  1  0.70153502  0.71357284  0.13321117  1
  Zr  Zr60  1  0.60051441  0.20138618  0.00565726  1
  Zr  Zr61  1  0.58712678  0.60697134  0.73958183  1
  Zr  Zr62  1  0.70280766  0.08948499  0.87851317  1
  Zr  Zr63  1  0.31321316  0.90007109  0.12223329  1
  Zr  Zr64  1  0.38943026  0.20349648  0.74624824  1
  Zr  Zr65  1  0.29035642  0.70005801  0.38505270  1
  Zr  Zr66  1  0.59241098  0.40753236  0.75756990  1
  Zr  Zr67  1  0.10480566  0.47284587  0.11230765  1
  Zr  Zr68  1  0.49670504  0.31076034  0.88444021  1
  Zr  Zr69  1  0.00948199  0.59713020  0.74358320  1
  Zr  Zr70  1  0.30492366  0.28601331  0.37070814  1
  Zr  Zr71  1  0.50154199  0.87665838  0.63108221  1
  Zr  Zr72  1  0.19594322  0.39474469  0.25742301  1
  Zr  Zr73  1  0.20047956  0.19045731  0.23930902  1
  Zr  Zr74  1  0.71658645  0.50224409  0.63519093  1
  Zr  Zr75  1  0.81411267  0.60470574  0.23831091  1
  Zr  Zr76  1  0.71008309  0.08582369  0.12088874  1
  Zr  Zr77  1  0.79689671  0.21041969  0.76831835  1
  Zr  Zr78  1  -0.00752965  -0.00703247  -0.00692280  1
  Zr  Zr79  1  0.39119716  0.01551032  0.25569816  1
  Ta  Ta80  1  0.00543826  0.40864967  0.51834991  1
  Ta  Ta81  1  0.80179496  0.81128804  -0.00604568  1
  Ta  Ta82  1  0.10241341  0.10102400  0.39063438  1
  Ta  Ta83  1  0.69468051  0.10703186  0.36180151  1
  Ta  Ta84  1  0.30345686  0.49960993  0.12478470  1
  Ta  Ta85  1  0.90438228  0.50550335  0.38239840  1
  Ta  Ta86  1  0.81083675  0.40212822  0.24904345  1
  Ta  Ta87  1  0.20514888  0.40699500  0.76273119  1
  Ta  Ta88  1  0.09252716  0.69830152  0.39349084  1
  Ta  Ta89  1  0.90419241  0.70209072  0.88402450  1
  Ta  Ta90  1  0.80581226  0.39848126  -0.00906326  1
  Ta  Ta91  1  0.90610730  0.50474228  0.88415447  1
  Ta  Ta92  1  0.39614221  0.39780757  0.24559065  1
  Ta  Ta93  1  0.90600442  0.31048007  0.37683042  1
  Ta  Ta94  1  0.69987006  0.09129726  0.63793132  1
  Ta  Ta95  1  0.00798665  0.20625207  0.24855837  1
  Ta  Ta96  1  0.29485069  0.10239833  0.10504072  1
  Ta  Ta97  1  0.39389364  -0.00779382  0.73523147  1
  Ta  Ta98  1  0.90779081  0.11281972  0.36932287  1
  Ta  Ta99  1  0.20343869  0.59827503  0.24139482  1
  Ta  Ta100  1  0.18523909  0.21838404  -0.00870892  1
  Ta  Ta101  1  0.69731369  0.50136434  0.11953016  1
  Ta  Ta102  1  0.00556581  0.00519568  0.25498953  1
  Ta  Ta103  1  0.49956258  0.50931943  0.90091458  1
  Ta  Ta104  1  0.28448759  0.09064867  0.39755720  1
  Ta  Ta105  1  0.80832237  0.00660719  0.26534644  1
  Ta  Ta106  1  -0.00385153  0.79725112  0.25084955  1
  Ta  Ta107  1  0.49544715  0.89940335  0.36578843  1
  Ta  Ta108  1  0.69332219  0.30393078  0.35587556  1
  Ta  Ta109  1  0.28768912  0.31025821  0.11332103  1
  Ta  Ta110  1  0.81341564  0.20488222  -0.01001035  1
  Ta  Ta111  1  0.49383794  0.89418934  0.86634726  1
  Ta  Ta112  1  0.90675647  0.69637991  0.38762186  1
  Ta  Ta113  1  0.00729425  0.60402301  0.00415164  1
  Ta  Ta114  1  0.80651353  0.60873979  0.00745221  1
  Ta  Ta115  1  0.50415040  0.30150581  0.35887095  1
  Ta  Ta116  1  0.00445211  0.41035563  0.75407619  1
  Ta  Ta117  1  0.00125472  0.79037579  0.75513702  1
  Ta  Ta118  1  0.31078291  0.69417517  0.60063825  1
  Ta  Ta119  1  0.10801269  0.31161588  0.63835999  1
  Ti  Ti120  1  0.70082670  0.49774068  0.35022844  1
  Ti  Ti121  1  0.49445319  0.31263576  0.62745094  1
  Ti  Ti122  1  0.59339576  -0.00611907  0.74577285  1
  Ti  Ti123  1  0.39517598  0.59844686  0.25725988  1
  Ti  Ti124  1  0.40714669  0.79990440  0.00450292  1
  Ti  Ti125  1  0.39584952  0.20223313  0.23014136  1
  Ti  Ti126  1  0.80276710  0.79087013  0.75631299  1
  Ti  Ti127  1  0.10095357  0.89346449  0.85397538  1
  Ti  Ti128  1  0.39828766  0.40730519  0.47581960  1
  Ti  Ti129  1  0.20396394  0.19918330  0.52329503  1
  Ti  Ti130  1  0.92402593  0.30177461  0.10870639  1
  Ti  Ti131  1  0.29942924  0.51064682  0.89205033  1
  Ti  Ti132  1  0.39733131  0.61206437  0.00631989  1
  Ti  Ti133  1  0.59537544  0.39633280  0.49190148  1
  Ti  Ti134  1  0.30437805  0.31468638  0.63173932  1
  Ti  Ti135  1  0.39194581  0.40396342  0.00132265  1
  Ti  Ti136  1  0.39468447  0.79629400  0.26844586  1
  Ti  Ti137  1  0.50324075  0.69935832  0.14247150  1
  Ti  Ti138  1  0.89779136  0.90165545  0.86228256  1
  Ti  Ti139  1  0.69913872  0.31133495  0.88282785  1
  Ti  Ti140  1  0.10435038  0.49921908  0.88762211  1
  Ti  Ti141  1  0.20711964  0.20934976  0.75328418  1
  Ti  Ti142  1  0.49938278  0.31565625  0.12422179  1
  Ti  Ti143  1  0.60445530  -0.00346977  0.50068163  1
  Ti  Ti144  1  0.19970756  0.58908446  0.50514453  1
  Ti  Ti145  1  0.90062210  0.50828610  0.61770432  1
  Ti  Ti146  1  0.39784742  0.59374518  0.75825295  1
  Ti  Ti147  1  0.30971251  0.69575308  0.13259359  1
  Ti  Ti148  1  0.30355450  0.49987255  0.62415121  1
  Ti  Ti149  1  0.59767995  0.79894601  0.00899081  1
  Ti  Ti150  1  0.39178247  0.40959312  0.76810891  1
  Ti  Ti151  1  0.29246225  0.88301883  0.60967316  1
  Ti  Ti152  1  0.89916485  0.09402053  0.87465498  1
  Ti  Ti153  1  0.20383985  0.60007310  0.01600103  1
  Ti  Ti154  1  0.40764615  0.60091442  0.47919632  1
  Ti  Ti155  1  0.70051919  0.90114794  0.63686446  1
  Ti  Ti156  1  0.70196523  0.89894319  0.14407418  1
  Ti  Ti157  1  0.10339192  0.69973363  0.60897785  1
  Ti  Ti158  1  0.81127812  0.59960141  0.76165106  1
  Ti  Ti159  1  0.09140881  0.11051458  0.10908751  1
  Mo  Mo160  1  0.09121590  0.90055653  0.14293978  1
  Mo  Mo161  1  0.20603717  0.40240774  -0.01717650  1
  Mo  Mo162  1  0.11175211  0.49694264  0.62491583  1
  Mo  Mo163  1  0.60110960  0.59755907  0.23545614  1
  Mo  Mo164  1  0.90279453  0.30961805  0.87540149  1
  Mo  Mo165  1  0.19694255  0.78931399  0.73140960  1
  Mo  Mo166  1  0.29765150  0.30828567  0.88320150  1
  Mo  Mo167  1  0.10232018  0.69324429  0.12322655  1
  Mo  Mo168  1  0.90177091  0.70543991  0.10693850  1
  Mo  Mo169  1  -0.00739737  0.38971437  0.25643866  1
  Mo  Mo170  1  0.80007899  -0.00571806  -0.01519222  1
  Mo  Mo171  1  0.29886169  0.89934669  0.38801934  1
  Mo  Mo172  1  -0.00328519  0.79717611  0.49214700  1
  Mo  Mo173  1  0.48743751  0.09217684  0.11747142  1
  Mo  Mo174  1  0.10468235  0.30571455  0.85503347  1
  Mo  Mo175  1  0.79648859  -0.00386434  0.75861401  1
  Mo  Mo176  1  0.80028649  0.59846612  0.48502811  1
  Mo  Mo177  1  0.90307070  0.89983413  0.35911891  1
  Mo  Mo178  1  0.40384234  -0.00865948  0.00625798  1
  Mo  Mo179  1  0.30528499  0.50191637  0.36215498  1
  Mo  Mo180  1  0.09482500  0.29295956  0.11848900  1
  Mo  Mo181  1  0.39823557  0.79360221  0.48310284  1
  Mo  Mo182  1  -0.00071640  0.20249358  -0.01874377  1
  Mo  Mo183  1  0.80835661  0.80276315  0.26275856  1
  Mo  Mo184  1  0.80701610  0.41425771  0.77500337  1
  Mo  Mo185  1  0.29772660  0.10195825  0.61802179  1
  Mo  Mo186  1  0.60321901  0.39635008  0.23845895  1
  Mo  Mo187  1  0.59824623  0.00606778  0.24666731  1
  Mo  Mo188  1  0.59528268  0.79710266  0.25789550  1
  Mo  Mo189  1  0.19878606  0.00160870  0.51310631  1
  Mo  Mo190  1  0.60210816  0.40543977  0.00478623  1
  Mo  Mo191  1  0.30357542  0.69349927  0.89527043  1
  Mo  Mo192  1  0.59556958  0.79572506  0.74511510  1
  Mo  Mo193  1  0.49077461  0.68375433  0.61962422  1
  Mo  Mo194  1  -0.00099093  -0.00650513  0.76456812  1
  Mo  Mo195  1  0.49854245  0.69604316  0.35332174  1
  Mo  Mo196  1  0.00272212  0.59442293  0.51196636  1
  Mo  Mo197  1  0.59931459  0.61007743  0.01722518  1
  Mo  Mo198  1  0.00939550  0.39126531  -0.02684233  1
  Mo  Mo199  1  0.19912598  0.79419091  0.50868139  1
