# generated using pymatgen
data_HfZrTaTiMo
_symmetry_space_group_name_H-M   'P 1'
_cell_length_a   15.82915876
_cell_length_b   15.83465539
_cell_length_c   15.39465893
_cell_angle_alpha   89.97610468
_cell_angle_beta   90.07596573
_cell_angle_gamma   89.91179707
_symmetry_Int_Tables_number   1
_chemical_formula_structural   HfZrTaTiMo
_chemical_formula_sum   'Hf40 Zr40 Ta40 Ti40 Mo40'
_cell_volume   3858.65178096
_cell_formula_units_Z   40
loop_
 _symmetry_equiv_pos_site_id
 _symmetry_equiv_pos_as_xyz
  1  'x, y, z'
loop_
 _atom_site_type_symbol
 _atom_site_label
 _atom_site_symmetry_multiplicity
 _atom_site_fract_x
 _atom_site_fract_y
 _atom_site_fract_z
 _atom_site_occupancy
  Hf  Hf0  1  0.60006402  -0.00659227  0.75438677  1
  Hf  Hf1  1  0.89896861  0.70468002  0.38143939  1
  Hf  Hf2  1  0.61236215  0.39597070  -0.02602917  1
  Hf  Hf3  1  0.49848431  0.89457778  0.36947751  1
  Hf  Hf4  1  0.50493622  0.49428326  0.10077249  1
  Hf  Hf5  1  0.20844739  0.40559691  0.23949104  1
  Hf  Hf6  1  0.19162572  -0.00444194  0.76280655  1
  Hf  Hf7  1  0.20644244  0.00212594  0.00742795  1
  Hf  Hf8  1  0.60471625  0.19516923  0.25667984  1
  Hf  Hf9  1  0.09735857  0.50708853  0.63885323  1
  Hf  Hf10  1  0.40268253  0.40754484  0.52518537  1
  Hf  Hf11  1  0.30640063  0.70656042  0.89152408  1
  Hf  Hf12  1  0.39296529  0.80054323  0.50362496  1
  Hf  Hf13  1  0.91067266  0.90511742  0.11635500  1
  Hf  Hf14  1  0.40151033  0.39632807  0.24715729  1
  Hf  Hf15  1  0.40521557  0.60859096  0.73458041  1
  Hf  Hf16  1  0.89978683  0.31710743  0.61257021  1
  Hf  Hf17  1  0.20400599  0.41245749  0.50689718  1
  Hf  Hf18  1  0.40582405  0.38796719  -0.01767654  1
  Hf  Hf19  1  0.40066901  0.79901908  0.22694511  1
  Hf  Hf20  1  0.49952263  0.30072701  0.39237545  1
  Hf  Hf21  1  0.60454017  0.19325768  -0.02380875  1
  Hf  Hf22  1  0.20570348  0.39631955  -0.00571957  1
  Hf  Hf23  1  0.10085154  0.30608833  0.62142838  1
  Hf  Hf24  1  0.90299241  0.70675305  0.62000910  1
  Hf  Hf25  1  0.19593492  0.19677175  0.24845286  1
  Hf  Hf26  1  0.69508308  0.69436867  0.86002111  1
  Hf  Hf27  1  0.70726540  0.29772629  0.39227681  1
  Hf  Hf28  1  0.00500452  0.18272276  0.51078479  1
  Hf  Hf29  1  0.29210080  0.69094405  0.36131786  1
  Hf  Hf30  1  0.71345603  0.49286697  0.62634021  1
  Hf  Hf31  1  0.09281714  0.70046073  0.12714841  1
  Hf  Hf32  1  0.09127357  0.89356791  0.90524120  1
  Hf  Hf33  1  0.19486414  0.19645859  0.75397347  1
  Hf  Hf34  1  -0.00488461  0.80675085  0.76597951  1
  Hf  Hf35  1  0.09948211  0.90868137  0.13176552  1
  Hf  Hf36  1  0.90200846  0.90128256  0.60745592  1
  Hf  Hf37  1  0.69805127  0.89979640  0.37750909  1
  Hf  Hf38  1  0.40303855  0.19392355  0.25068571  1
  Hf  Hf39  1  0.69330615  0.68881342  0.62479645  1
  Zr  Zr40  1  0.17730860  0.79515415  0.47163040  1
  Zr  Zr41  1  0.69644235  0.91251583  0.13212052  1
  Zr  Zr42  1  0.09832327  0.50268943  0.88184415  1
  Zr  Zr43  1  0.49772725  0.09529396  0.38502991  1
  Zr  Zr44  1  0.59549972  0.41216184  0.26406332  1
  Zr  Zr45  1  0.79163425  0.60528124  0.25806781  1
  Zr  Zr46  1  0.59871583  -0.01033877  0.51961674  1
  Zr  Zr47  1  0.51200344  0.68466504  0.10687116  1
  Zr  Zr48  1  0.90087060  0.50029449  0.87640231  1
  Zr  Zr49  1  0.08970129  0.49982642  0.12135787  1
  Zr  Zr50  1  0.39744658  0.58627326  0.23310758  1
  Zr  Zr51  1  0.80944011  0.40376189  0.26330187  1
  Zr  Zr52  1  -0.00366511  0.20086996  0.73983878  1
  Zr  Zr53  1  0.60779092  0.78587403  0.24050990  1
  Zr  Zr54  1  0.80025587  0.79456505  0.00750102  1
  Zr  Zr55  1  0.39284394  -0.00505059  0.50602051  1
  Zr  Zr56  1  0.30818204  0.50976978  0.87535884  1
  Zr  Zr57  1  0.28211362  0.70375012  0.62167143  1
  Zr  Zr58  1  0.10251636  0.30078614  0.38436111  1
  Zr  Zr59  1  0.78601061  0.00259541  -0.01835973  1
  Zr  Zr60  1  0.60240784  0.19733963  0.52581938  1
  Zr  Zr61  1  0.69553080  0.51355370  0.12275076  1
  Zr  Zr62  1  -0.00496435  0.00540602  0.75651171  1
  Zr  Zr63  1  0.09349201  0.29205143  0.11536577  1
  Zr  Zr64  1  0.80295547  0.00994278  0.25539861  1
  Zr  Zr65  1  0.18754335  -0.00002691  0.48847786  1
  Zr  Zr66  1  0.50819695  0.28867938  0.11930174  1
  Zr  Zr67  1  0.49919112  0.68308939  0.37962541  1
  Zr  Zr68  1  0.29969436  0.29570588  0.38789070  1
  Zr  Zr69  1  0.39099711  -0.00750625  0.74759872  1
  Zr  Zr70  1  0.40861959  0.39884920  0.73917195  1
  Zr  Zr71  1  0.01715562  0.61153171  0.48911519  1
  Zr  Zr72  1  0.08997758  0.11005022  0.89830030  1
  Zr  Zr73  1  0.70671252  0.30372551  0.12557143  1
  Zr  Zr74  1  0.60735434  0.80403295  0.00334655  1
  Zr  Zr75  1  0.90144723  0.10886037  0.11369345  1
  Zr  Zr76  1  0.30083472  0.10517745  0.11837177  1
  Zr  Zr77  1  0.09423905  0.89493190  0.62043487  1
  Zr  Zr78  1  0.49056320  0.89319379  0.88729410  1
  Zr  Zr79  1  0.71366550  0.29748263  0.85610739  1
  Ta  Ta80  1  0.11390820  0.51325120  0.35683838  1
  Ta  Ta81  1  0.69525768  0.10770870  0.12503568  1
  Ta  Ta82  1  0.80803511  0.59223825  0.49828703  1
  Ta  Ta83  1  0.30191960  0.89517323  0.89409961  1
  Ta  Ta84  1  0.29413721  0.90591647  0.34970818  1
  Ta  Ta85  1  0.80447983  0.80160178  0.24830515  1
  Ta  Ta86  1  0.30750014  0.50318137  0.37916272  1
  Ta  Ta87  1  -0.00291313  0.39998894  0.26016598  1
  Ta  Ta88  1  0.39642217  0.79990185  0.74046946  1
  Ta  Ta89  1  0.58275168  0.79112486  0.73924463  1
  Ta  Ta90  1  0.28634012  0.89663678  0.62825405  1
  Ta  Ta91  1  0.79999378  0.19401897  0.51956411  1
  Ta  Ta92  1  0.49172414  0.10487705  0.86367832  1
  Ta  Ta93  1  -0.01058517  0.20403834  0.25890556  1
  Ta  Ta94  1  0.00218003  0.61060235  0.75980282  1
  Ta  Ta95  1  0.10258485  0.69914468  0.89568129  1
  Ta  Ta96  1  0.91004755  0.50541671  0.62893284  1
  Ta  Ta97  1  0.48986303  0.10004496  0.64086238  1
  Ta  Ta98  1  0.89217400  0.10750872  0.88324632  1
  Ta  Ta99  1  0.90159434  0.29808721  0.39305457  1
  Ta  Ta100  1  0.59828076  0.20206575  0.74504695  1
  Ta  Ta101  1  0.20351722  0.40146000  0.75298849  1
  Ta  Ta102  1  0.39548589  0.20031161  0.52280279  1
  Ta  Ta103  1  0.90185399  0.90422903  0.38531880  1
  Ta  Ta104  1  0.40061250  -0.00233992  0.23387942  1
  Ta  Ta105  1  0.70279905  0.09883753  0.38407719  1
  Ta  Ta106  1  0.70579892  0.88704316  0.63657183  1
  Ta  Ta107  1  0.80658865  -0.00415111  0.75373972  1
  Ta  Ta108  1  -0.00142982  0.80279592  0.26092659  1
  Ta  Ta109  1  0.19791219  0.60914512  0.75610878  1
  Ta  Ta110  1  0.80579437  0.19272496  0.73587501  1
  Ta  Ta111  1  0.60095424  0.39831650  0.51828677  1
  Ta  Ta112  1  0.51073519  0.50811248  0.86950706  1
  Ta  Ta113  1  0.69525659  0.50110726  0.39444643  1
  Ta  Ta114  1  0.49487233  0.69408993  0.88575083  1
  Ta  Ta115  1  0.80741676  0.60053358  0.74775681  1
  Ta  Ta116  1  0.28448248  0.09930567  0.62446935  1
  Ta  Ta117  1  0.90349431  0.30837904  0.11550568  1
  Ta  Ta118  1  0.89710186  0.70690525  0.87611955  1
  Ta  Ta119  1  0.91036974  0.29992759  0.88257935  1
  Ti  Ti120  1  0.09995689  0.09976180  0.37137211  1
  Ti  Ti121  1  0.21270754  0.59877765  0.01886563  1
  Ti  Ti122  1  0.79181014  0.79952652  0.49869878  1
  Ti  Ti123  1  0.30618629  0.29785061  0.11678480  1
  Ti  Ti124  1  -0.01309504  0.60768768  -0.00029175  1
  Ti  Ti125  1  0.79059119  0.60049488  -0.00495559  1
  Ti  Ti126  1  0.09098025  0.30860725  0.87616316  1
  Ti  Ti127  1  0.20175356  0.79949916  0.23947022  1
  Ti  Ti128  1  0.59133078  0.79484599  0.51468760  1
  Ti  Ti129  1  0.39623531  0.59549623  0.51412639  1
  Ti  Ti130  1  0.20646323  0.20714726  -0.00857853  1
  Ti  Ti131  1  0.69380075  0.69773503  0.38799328  1
  Ti  Ti132  1  0.59312925  0.00451288  0.24743580  1
  Ti  Ti133  1  0.70870616  0.88590763  0.85479588  1
  Ti  Ti134  1  0.80222401  0.40572168  -0.00535108  1
  Ti  Ti135  1  0.29729097  0.10001732  0.37901433  1
  Ti  Ti136  1  0.59996132  0.00505227  -0.01640095  1
  Ti  Ti137  1  0.70465173  0.09024782  0.63744774  1
  Ti  Ti138  1  0.60412826  0.39893669  0.74401669  1
  Ti  Ti139  1  0.79457224  0.20512373  -0.00476054  1
  Ti  Ti140  1  0.31145580  0.28727893  0.85968368  1
  Ti  Ti141  1  0.30655713  0.09615791  0.87917102  1
  Ti  Ti142  1  -0.00698446  0.59634811  0.25587492  1
  Ti  Ti143  1  0.40592677  0.19625283  -0.01134715  1
  Ti  Ti144  1  0.20863347  0.79841918  0.02211552  1
  Ti  Ti145  1  0.20187390  0.59830359  0.50167547  1
  Ti  Ti146  1  0.81352430  0.39890708  0.75118632  1
  Ti  Ti147  1  -0.00017498  0.42059956  0.48194080  1
  Ti  Ti148  1  0.79805140  0.00505741  0.50624531  1
  Ti  Ti149  1  0.08948681  0.10026499  0.12249422  1
  Ti  Ti150  1  0.50523882  0.09140098  0.10897627  1
  Ti  Ti151  1  0.52115819  0.51855363  0.62462151  1
  Ti  Ti152  1  0.19820075  0.80061066  0.76577867  1
  Ti  Ti153  1  0.29592027  0.29496423  0.63130328  1
  Ti  Ti154  1  0.80438465  0.20257391  0.25559281  1
  Ti  Ti155  1  0.09506083  0.70857754  0.63251829  1
  Ti  Ti156  1  0.00087548  0.00735469  0.26289575  1
  Ti  Ti157  1  0.89691540  0.69798933  0.12925836  1
  Ti  Ti158  1  0.89843479  0.50007883  0.11987229  1
  Ti  Ti159  1  0.89611278  0.10232944  0.38609207  1
  Mo  Mo160  1  0.49621737  0.49650792  0.39798570  1
  Mo  Mo161  1  0.90491844  0.50183149  0.37783764  1
  Mo  Mo162  1  0.39588689  0.80273460  0.01967351  1
  Mo  Mo163  1  -0.00710858  0.40416786  0.00316386  1
  Mo  Mo164  1  0.28903952  0.50460010  0.63621344  1
  Mo  Mo165  1  0.49647923  0.89483738  0.63026301  1
  Mo  Mo166  1  0.89527700  0.09118556  0.61793949  1
  Mo  Mo167  1  0.60076062  0.59594707  0.49434230  1
  Mo  Mo168  1  0.49949378  0.91229862  0.11313024  1
  Mo  Mo169  1  0.59983833  0.59539814  0.75494262  1
  Mo  Mo170  1  0.50272449  0.29956137  0.63369001  1
  Mo  Mo171  1  -0.00653570  0.00202328  -0.00301258  1
  Mo  Mo172  1  0.39173902  0.19535827  0.74245253  1
  Mo  Mo173  1  0.69992031  0.09740173  0.85124913  1
  Mo  Mo174  1  -0.00164192  0.00023606  0.48174248  1
  Mo  Mo175  1  0.70665305  0.30126322  0.63491910  1
  Mo  Mo176  1  0.50042931  0.29681320  0.85321731  1
  Mo  Mo177  1  0.19973247  0.00769208  0.25057180  1
  Mo  Mo178  1  0.40616788  0.00400302  0.00469995  1
  Mo  Mo179  1  0.49752148  0.69946792  0.61367624  1
  Mo  Mo180  1  0.09986597  0.90521163  0.34812777  1
  Mo  Mo181  1  0.60941844  0.59653019  -0.02337855  1
  Mo  Mo182  1  0.10266506  0.69588065  0.34267550  1
  Mo  Mo183  1  0.10197492  0.09592028  0.62331471  1
  Mo  Mo184  1  0.79965945  0.79874404  0.74583542  1
  Mo  Mo185  1  0.00161004  0.40333322  0.75509137  1
  Mo  Mo186  1  0.29996071  0.90050248  0.12700202  1
  Mo  Mo187  1  0.89475639  0.90133624  0.88426050  1
  Mo  Mo188  1  0.80614602  0.40197153  0.49519671  1
  Mo  Mo189  1  0.00065344  0.80414861  0.47776189  1
  Mo  Mo190  1  0.29880833  0.69692042  0.11988112  1
  Mo  Mo191  1  0.20422957  0.59770830  0.23098579  1
  Mo  Mo192  1  0.20321874  0.19598636  0.50839054  1
  Mo  Mo193  1  0.30462291  0.49096699  0.10573366  1
  Mo  Mo194  1  0.70781668  0.49925412  0.85455217  1
  Mo  Mo195  1  -0.00360326  0.79127277  0.00274978  1
  Mo  Mo196  1  0.59995705  0.59422035  0.27142482  1
  Mo  Mo197  1  0.40187382  0.59503173  0.00220380  1
  Mo  Mo198  1  0.70868546  0.69631783  0.12809274  1
  Mo  Mo199  1  -0.00550792  0.20639337  -0.00110474  1
