# generated using pymatgen
data_HfZrTaTiMo
_symmetry_space_group_name_H-M   'P 1'
_cell_length_a   15.83654341
_cell_length_b   15.83169296
_cell_length_c   15.41026991
_cell_angle_alpha   90.06603954
_cell_angle_beta   90.01958158
_cell_angle_gamma   90.04619093
_symmetry_Int_Tables_number   1
_chemical_formula_structural   HfZrTaTiMo
_chemical_formula_sum   'Hf40 Zr40 Ta40 Ti40 Mo40'
_cell_volume   3863.64792734
_cell_formula_units_Z   40
loop_
 _symmetry_equiv_pos_site_id
 _symmetry_equiv_pos_as_xyz
  1  'x, y, z'
loop_
 _atom_site_type_symbol
 _atom_site_label
 _atom_site_symmetry_multiplicity
 _atom_site_fract_x
 _atom_site_fract_y
 _atom_site_fract_z
 _atom_site_occupancy
  Hf  Hf0  1  0.21162570  0.60778835  0.25691144  1
  Hf  Hf1  1  0.29927429  0.49877555  0.38669230  1
  Hf  Hf2  1  0.11884169  0.30767023  0.88460808  1
  Hf  Hf3  1  0.00345594  0.19472993  -0.00713537  1
  Hf  Hf4  1  0.59693983  0.18536405  -0.01397692  1
  Hf  Hf5  1  0.19660363  0.41081234  0.23798696  1
  Hf  Hf6  1  0.71903804  0.69816575  0.85754800  1
  Hf  Hf7  1  0.79117676  0.00382565  0.49984563  1
  Hf  Hf8  1  0.09326109  0.09997804  0.13599220  1
  Hf  Hf9  1  0.08548368  0.69211197  0.86937318  1
  Hf  Hf10  1  0.21599987  0.18825371  0.49862265  1
  Hf  Hf11  1  0.59019520  0.78141441  -0.01867290  1
  Hf  Hf12  1  0.78878150  0.80889940  0.01546443  1
  Hf  Hf13  1  0.10133561  0.30676769  0.39041554  1
  Hf  Hf14  1  0.79645572  0.79890813  0.49712140  1
  Hf  Hf15  1  0.78350234  0.00660082  0.26160821  1
  Hf  Hf16  1  0.89770991  0.48957357  0.38309623  1
  Hf  Hf17  1  0.89477134  0.69554148  0.36730140  1
  Hf  Hf18  1  0.40697016  0.41211536  0.23828266  1
  Hf  Hf19  1  -0.00717993  -0.00684196  -0.00192931  1
  Hf  Hf20  1  0.70110249  0.30443843  0.37560832  1
  Hf  Hf21  1  0.20338079  0.00445205  0.01482302  1
  Hf  Hf22  1  0.11633143  0.09317323  0.86516063  1
  Hf  Hf23  1  0.80074725  0.61591713  0.00889972  1
  Hf  Hf24  1  0.47772511  0.29419059  0.87174695  1
  Hf  Hf25  1  0.19323765  0.78896235  0.48252322  1
  Hf  Hf26  1  0.21547034  0.41019392  0.74308101  1
  Hf  Hf27  1  0.79498318  0.20228826  0.25290414  1
  Hf  Hf28  1  0.31112907  0.69674635  0.11144971  1
  Hf  Hf29  1  0.10872702  0.09480829  0.63196073  1
  Hf  Hf30  1  0.30734381  0.29936532  0.37514792  1
  Hf  Hf31  1  0.31654404  0.11491455  0.87065732  1
  Hf  Hf32  1  0.89010054  0.88568512  0.86000778  1
  Hf  Hf33  1  0.88974003  0.10487649  0.86830529  1
  Hf  Hf34  1  0.22207292  0.21045722  0.74304999  1
  Hf  Hf35  1  0.00745632  0.40930803  0.74861597  1
  Hf  Hf36  1  -0.00148126  -0.00480869  0.74242688  1
  Hf  Hf37  1  0.79036324  0.00556532  0.00907023  1
  Hf  Hf38  1  0.09455890  0.89260234  0.13469988  1
  Hf  Hf39  1  -0.00333795  0.20604294  0.25509896  1
  Zr  Zr40  1  0.10707046  0.30744433  0.61095903  1
  Zr  Zr41  1  0.29223566  0.90739005  0.87307285  1
  Zr  Zr42  1  0.89985726  0.10582799  0.38375606  1
  Zr  Zr43  1  0.78584359  0.39859734  0.52547321  1
  Zr  Zr44  1  0.59321816  0.80459559  0.74948435  1
  Zr  Zr45  1  0.50039659  0.87953463  0.13202082  1
  Zr  Zr46  1  0.00562405  0.60847237  0.50036259  1
  Zr  Zr47  1  0.29863137  0.30431064  0.12161774  1
  Zr  Zr48  1  0.90134512  0.70534903  0.15086403  1
  Zr  Zr49  1  0.48362256  0.49712873  0.64938987  1
  Zr  Zr50  1  0.40207118  -0.00045943  0.74454122  1
  Zr  Zr51  1  0.89713228  0.29622102  0.10572606  1
  Zr  Zr52  1  0.30396616  0.89686198  0.37166608  1
  Zr  Zr53  1  0.49635756  0.69327202  0.62622010  1
  Zr  Zr54  1  0.40649326  0.00743674  0.00932367  1
  Zr  Zr55  1  0.59754938  -0.01267788  -0.01398479  1
  Zr  Zr56  1  0.19824845  -0.00772633  0.49600351  1
  Zr  Zr57  1  0.80421031  0.40655729  0.75022193  1
  Zr  Zr58  1  0.69273011  0.49863578  0.37662318  1
  Zr  Zr59  1  0.29710504  0.88719921  0.12924127  1
  Zr  Zr60  1  0.90799754  0.90281691  0.37085772  1
  Zr  Zr61  1  0.00190948  0.20748965  0.75170653  1
  Zr  Zr62  1  0.41367792  0.19963839  0.23853745  1
  Zr  Zr63  1  0.67743278  0.50490726  0.64331317  1
  Zr  Zr64  1  0.90333757  0.52739982  0.87627869  1
  Zr  Zr65  1  0.60102737  0.21661774  0.51066304  1
  Zr  Zr66  1  0.69701572  0.29225607  0.10804817  1
  Zr  Zr67  1  0.37748702  0.59227421  0.77515321  1
  Zr  Zr68  1  -0.01583962  0.78739498  0.00326352  1
  Zr  Zr69  1  0.00233362  0.39690049  0.24437594  1
  Zr  Zr70  1  0.09738145  0.89200252  0.86378773  1
  Zr  Zr71  1  0.79362532  0.00153067  0.72327068  1
  Zr  Zr72  1  0.49480292  0.90702876  0.38700952  1
  Zr  Zr73  1  0.90105376  0.50355545  0.11857270  1
  Zr  Zr74  1  0.67048509  0.69410848  0.14108981  1
  Zr  Zr75  1  0.59115212  -0.00060151  0.74635488  1
  Zr  Zr76  1  0.79622849  0.60172112  0.51703577  1
  Zr  Zr77  1  0.42855308  0.40383276  0.48941012  1
  Zr  Zr78  1  0.29815366  0.69262479  0.61742777  1
  Zr  Zr79  1  0.01550942  0.59037013  0.25690750  1
  Ta  Ta80  1  0.59849871  0.19662367  0.75035317  1
  Ta  Ta81  1  0.90839554  0.89282735  0.61571570  1
  Ta  Ta82  1  0.20972162  0.19624057  0.01072558  1
  Ta  Ta83  1  0.70379226  0.89905954  0.86456193  1
  Ta  Ta84  1  0.70553765  0.10176136  0.85874477  1
  Ta  Ta85  1  0.79843722  0.39871518  0.24263202  1
  Ta  Ta86  1  0.60040688  0.79423342  0.49535870  1
  Ta  Ta87  1  0.79595416  0.40349312  -0.01257175  1
  Ta  Ta88  1  0.19928933  -0.00233761  0.25150982  1
  Ta  Ta89  1  0.90363612  0.30095853  0.61839713  1
  Ta  Ta90  1  0.39828643  0.79779546  0.76218897  1
  Ta  Ta91  1  0.49001617  0.89655961  0.60288238  1
  Ta  Ta92  1  0.10429056  0.50361267  0.88679362  1
  Ta  Ta93  1  0.10925684  0.70041826  0.12501544  1
  Ta  Ta94  1  0.40728803  0.60040034  0.25082756  1
  Ta  Ta95  1  0.49359700  0.10803797  0.61567910  1
  Ta  Ta96  1  0.29989175  0.89130486  0.62325953  1
  Ta  Ta97  1  0.10374062  0.70050265  0.63349173  1
  Ta  Ta98  1  0.40371350  0.00388381  0.24164186  1
  Ta  Ta99  1  0.10565861  0.88676434  0.63563440  1
  Ta  Ta100  1  0.79071899  0.19852657  0.51983782  1
  Ta  Ta101  1  0.32122566  0.30206269  0.60974222  1
  Ta  Ta102  1  0.89891262  0.30331491  0.39853876  1
  Ta  Ta103  1  0.69577945  0.49704147  0.11374367  1
  Ta  Ta104  1  0.51184771  0.52041848  0.11297787  1
  Ta  Ta105  1  0.00129475  0.40543992  -0.00718585  1
  Ta  Ta106  1  0.09907542  0.09376905  0.36834540  1
  Ta  Ta107  1  0.69215370  0.69529006  0.37114206  1
  Ta  Ta108  1  0.50375421  0.30765205  0.64372668  1
  Ta  Ta109  1  0.89683206  0.30170980  0.87888270  1
  Ta  Ta110  1  0.00670716  -0.00505498  0.50729687  1
  Ta  Ta111  1  0.60103383  0.40404500  0.23633420  1
  Ta  Ta112  1  0.49972150  0.69829319  0.37569010  1
  Ta  Ta113  1  0.70717443  0.29161112  0.87164379  1
  Ta  Ta114  1  0.78310542  0.80732273  0.25973124  1
  Ta  Ta115  1  0.89748635  0.90559859  0.14807497  1
  Ta  Ta116  1  0.89210821  0.09917811  0.12732791  1
  Ta  Ta117  1  0.40404924  0.40760275  0.01114820  1
  Ta  Ta118  1  0.19835954  0.20154108  0.24977810  1
  Ta  Ta119  1  0.30522659  0.09990097  0.36016229  1
  Ti  Ti120  1  0.10947994  0.50686206  0.60930101  1
  Ti  Ti121  1  0.29735935  0.49962024  0.60471786  1
  Ti  Ti122  1  0.41665106  0.60516851  -0.01499634  1
  Ti  Ti123  1  0.68936897  0.89606611  0.61403656  1
  Ti  Ti124  1  0.00322455  0.19427930  0.50275316  1
  Ti  Ti125  1  0.60320255  0.00979054  0.49949519  1
  Ti  Ti126  1  0.52089225  0.09279897  0.13219391  1
  Ti  Ti127  1  0.40213106  0.60508980  0.48629504  1
  Ti  Ti128  1  0.90631436  0.70239184  0.63000743  1
  Ti  Ti129  1  0.58859333  0.59928918  0.77656599  1
  Ti  Ti130  1  0.10844028  0.50863024  0.10314709  1
  Ti  Ti131  1  0.58838675  0.58818195  0.49517643  1
  Ti  Ti132  1  0.59446169  0.39854724  0.77591125  1
  Ti  Ti133  1  0.80105305  0.79828047  0.72660644  1
  Ti  Ti134  1  0.29667782  0.48013602  0.89622427  1
  Ti  Ti135  1  0.00849648  0.80219003  0.49280301  1
  Ti  Ti136  1  0.38809197  0.01443231  0.50696598  1
  Ti  Ti137  1  0.78812241  0.59208967  0.24608042  1
  Ti  Ti138  1  0.90236694  0.10480572  0.62162041  1
  Ti  Ti139  1  0.40277124  0.19448115  0.01869915  1
  Ti  Ti140  1  0.70059429  0.50525037  0.87851141  1
  Ti  Ti141  1  0.39452153  0.78668761  0.25931108  1
  Ti  Ti142  1  -0.00209394  0.59752719  0.73353756  1
  Ti  Ti143  1  0.19554601  0.59524133  0.75814678  1
  Ti  Ti144  1  0.19801474  0.79402393  -0.01087281  1
  Ti  Ti145  1  0.20835541  0.78927812  0.75683266  1
  Ti  Ti146  1  0.60661221  0.19368784  0.25395654  1
  Ti  Ti147  1  0.59520732  0.80492940  0.27046900  1
  Ti  Ti148  1  0.10735006  0.49593793  0.39749367  1
  Ti  Ti149  1  0.59619586  0.40609401  -0.01384067  1
  Ti  Ti150  1  0.20862489  0.60146376  -0.00764793  1
  Ti  Ti151  1  0.68744749  0.90709339  0.13791486  1
  Ti  Ti152  1  0.51200314  0.30656519  0.36495197  1
  Ti  Ti153  1  0.10024363  0.30278252  0.11368823  1
  Ti  Ti154  1  0.51026315  0.30451868  0.11638936  1
  Ti  Ti155  1  0.59972278  0.00582619  0.27127272  1
  Ti  Ti156  1  0.40084519  0.79633736  -0.02308206  1
  Ti  Ti157  1  0.49519170  0.11050925  0.38556422  1
  Ti  Ti158  1  0.69035015  0.69611843  0.63069666  1
  Ti  Ti159  1  0.01473121  0.79881443  0.26446586  1
  Mo  Mo160  1  0.60139709  0.59462592  -0.01969505  1
  Mo  Mo161  1  0.80331302  0.60670571  0.73159055  1
  Mo  Mo162  1  0.20645956  -0.00442576  0.73427300  1
  Mo  Mo163  1  0.30790198  0.51166310  0.10925513  1
  Mo  Mo164  1  0.49257718  0.69858216  0.13205875  1
  Mo  Mo165  1  0.29176229  0.69887777  0.88562502  1
  Mo  Mo166  1  0.30899963  0.69688368  0.38124106  1
  Mo  Mo167  1  0.19820136  0.79300360  0.25767409  1
  Mo  Mo168  1  0.49462999  0.69689758  0.86213627  1
  Mo  Mo169  1  0.40055846  0.79737858  0.49781982  1
  Mo  Mo170  1  0.49719677  0.49355328  0.88249375  1
  Mo  Mo171  1  0.69125538  0.89846689  0.38553808  1
  Mo  Mo172  1  0.91119128  0.50154725  0.62473301  1
  Mo  Mo173  1  0.20074014  0.40516814  0.01345032  1
  Mo  Mo174  1  0.38538665  0.39195241  0.75838388  1
  Mo  Mo175  1  0.40524400  0.20150553  0.73578877  1
  Mo  Mo176  1  0.69524400  0.30189435  0.65342690  1
  Mo  Mo177  1  0.09854226  0.90331236  0.36199078  1
  Mo  Mo178  1  0.10208594  0.70037496  0.36626479  1
  Mo  Mo179  1  0.50489561  0.50166130  0.36256224  1
  Mo  Mo180  1  0.19997132  0.60041422  0.49111628  1
  Mo  Mo181  1  0.68645151  0.10643552  0.38451819  1
  Mo  Mo182  1  0.69328144  0.10265184  0.62786346  1
  Mo  Mo183  1  -0.00174805  0.40397489  0.51167877  1
  Mo  Mo184  1  0.79818516  0.20525076  0.73172584  1
  Mo  Mo185  1  0.50238448  0.10272621  0.86906648  1
  Mo  Mo186  1  0.00890025  0.60370414  0.00952495  1
  Mo  Mo187  1  0.69251474  0.09508138  0.13494082  1
  Mo  Mo188  1  0.49573175  0.89665944  0.87928348  1
  Mo  Mo189  1  0.30179033  0.29947111  0.89794528  1
  Mo  Mo190  1  0.59853977  0.40328375  0.50779538  1
  Mo  Mo191  1  0.29993256  0.10014236  0.14338177  1
  Mo  Mo192  1  -0.00357167  0.00266038  0.24571132  1
  Mo  Mo193  1  0.20925291  0.39924013  0.50894913  1
  Mo  Mo194  1  0.40769117  0.19869046  0.49612621  1
  Mo  Mo195  1  0.59360874  0.59510432  0.25788272  1
  Mo  Mo196  1  0.79595982  0.19575434  -0.00399326  1
  Mo  Mo197  1  0.89941104  0.70327314  0.85259670  1
  Mo  Mo198  1  0.30658603  0.09799109  0.62870251  1
  Mo  Mo199  1  -0.00171520  0.79245127  0.73738864  1
