# generated using pymatgen
data_HfZrTaTiMo
_symmetry_space_group_name_H-M   'P 1'
_cell_length_a   15.85319068
_cell_length_b   15.83196157
_cell_length_c   15.36373858
_cell_angle_alpha   90.02409473
_cell_angle_beta   90.10163908
_cell_angle_gamma   89.98498696
_symmetry_Int_Tables_number   1
_chemical_formula_structural   HfZrTaTiMo
_chemical_formula_sum   'Hf40 Zr40 Ta40 Ti40 Mo40'
_cell_volume   3856.09373824
_cell_formula_units_Z   40
loop_
 _symmetry_equiv_pos_site_id
 _symmetry_equiv_pos_as_xyz
  1  'x, y, z'
loop_
 _atom_site_type_symbol
 _atom_site_label
 _atom_site_symmetry_multiplicity
 _atom_site_fract_x
 _atom_site_fract_y
 _atom_site_fract_z
 _atom_site_occupancy
  Hf  Hf0  1  0.59181110  0.39732177  0.50802812  1
  Hf  Hf1  1  0.60506294  0.39452810  0.24485343  1
  Hf  Hf2  1  -0.00253393  0.80279377  0.25986062  1
  Hf  Hf3  1  -0.00262321  -0.00443820  -0.00154578  1
  Hf  Hf4  1  0.42182585  0.80400033  0.01170116  1
  Hf  Hf5  1  -0.00750682  0.60275889  0.26081015  1
  Hf  Hf6  1  0.20339573  0.20065331  0.23188550  1
  Hf  Hf7  1  0.89902265  0.10136869  0.38644497  1
  Hf  Hf8  1  -0.00124312  0.20341081  0.25504567  1
  Hf  Hf9  1  0.60872375  0.19835124  0.24515840  1
  Hf  Hf10  1  0.71304980  0.70044027  0.12925268  1
  Hf  Hf11  1  0.20155218  0.37893532  0.51789461  1
  Hf  Hf12  1  0.59323579  0.80565577  0.49502556  1
  Hf  Hf13  1  -0.00026878  0.60442072  0.75806471  1
  Hf  Hf14  1  0.31213379  0.50890342  0.64859012  1
  Hf  Hf15  1  0.29080796  0.70927937  0.11088286  1
  Hf  Hf16  1  0.90363537  0.70125114  0.61349324  1
  Hf  Hf17  1  0.40435862  0.60204853  0.22877839  1
  Hf  Hf18  1  0.30374089  0.29728795  0.88118907  1
  Hf  Hf19  1  0.80354673  0.18340427  0.74186646  1
  Hf  Hf20  1  0.40078809  0.40590852  0.51378223  1
  Hf  Hf21  1  0.30342300  0.49990770  0.36460708  1
  Hf  Hf22  1  0.69620764  0.29297224  0.86681664  1
  Hf  Hf23  1  0.17853630  0.40232374  -0.01854101  1
  Hf  Hf24  1  0.20437666  0.00791957  0.76476034  1
  Hf  Hf25  1  0.02754213  0.19078788  0.50980629  1
  Hf  Hf26  1  0.89980353  0.89652430  0.86876398  1
  Hf  Hf27  1  0.59560414  0.39418713  0.73411418  1
  Hf  Hf28  1  0.10970834  0.69686583  0.36923100  1
  Hf  Hf29  1  0.40310153  0.80324326  0.24975183  1
  Hf  Hf30  1  0.69918313  0.70087040  0.87364890  1
  Hf  Hf31  1  0.89640395  0.49304604  0.62771122  1
  Hf  Hf32  1  0.41778791  0.00110683  0.00707391  1
  Hf  Hf33  1  0.80417255  0.80231135  0.00364553  1
  Hf  Hf34  1  0.41441704  0.40713537  0.00927616  1
  Hf  Hf35  1  0.00110816  0.00629867  0.74795055  1
  Hf  Hf36  1  0.59422748  -0.00640175  0.50121508  1
  Hf  Hf37  1  0.60175376  0.60237218  0.25311752  1
  Hf  Hf38  1  0.89992263  0.31305352  0.11356218  1
  Hf  Hf39  1  0.29754762  0.70275029  0.89234806  1
  Zr  Zr40  1  0.49607593  0.50685100  0.85493801  1
  Zr  Zr41  1  0.89690590  0.90092482  0.13278755  1
  Zr  Zr42  1  0.59630802  0.59859444  0.01704021  1
  Zr  Zr43  1  0.29341437  0.90520449  0.90211975  1
  Zr  Zr44  1  0.28897506  0.50219517  0.10708343  1
  Zr  Zr45  1  0.70347402  0.29091870  0.62656344  1
  Zr  Zr46  1  0.00432342  0.38646579  0.49757081  1
  Zr  Zr47  1  0.80553803  0.82723163  0.50203170  1
  Zr  Zr48  1  0.29676063  0.71304453  0.62440268  1
  Zr  Zr49  1  0.00734458  0.80274447  0.48710413  1
  Zr  Zr50  1  0.39765693  0.81002438  0.76936411  1
  Zr  Zr51  1  0.09942568  0.49950973  0.63123111  1
  Zr  Zr52  1  0.60208641  0.39598029  0.01008467  1
  Zr  Zr53  1  0.70275254  0.90310418  0.86699245  1
  Zr  Zr54  1  0.48434142  0.69876464  0.62642034  1
  Zr  Zr55  1  0.11180568  0.49108584  0.37240730  1
  Zr  Zr56  1  0.30790031  0.91309282  0.62798526  1
  Zr  Zr57  1  0.50159478  0.28681389  0.87146895  1
  Zr  Zr58  1  0.69927527  0.50521161  0.85784764  1
  Zr  Zr59  1  0.58799595  0.59054674  0.50338063  1
  Zr  Zr60  1  0.68747724  0.09139028  0.87632033  1
  Zr  Zr61  1  0.60070053  0.80259770  0.25994522  1
  Zr  Zr62  1  0.21032426  0.82079343  0.47541041  1
  Zr  Zr63  1  0.39462723  -0.00063331  0.47613685  1
  Zr  Zr64  1  -0.00736112  0.39154060  0.26704414  1
  Zr  Zr65  1  0.16652871  0.60923116  -0.00871806  1
  Zr  Zr66  1  0.79999030  0.21035124  0.25610514  1
  Zr  Zr67  1  0.49455397  0.29479018  0.37190105  1
  Zr  Zr68  1  0.00122408  -0.01096987  0.49806760  1
  Zr  Zr69  1  0.88894992  0.50511023  0.39100868  1
  Zr  Zr70  1  0.29637599  0.29250700  0.09992761  1
  Zr  Zr71  1  0.19434750  0.39306272  0.75692290  1
  Zr  Zr72  1  0.11016155  0.89598227  0.63188753  1
  Zr  Zr73  1  0.20599941  0.60247112  0.50779151  1
  Zr  Zr74  1  0.80593789  0.41728767  -0.01230060  1
  Zr  Zr75  1  0.58694901  0.19330004  0.50609517  1
  Zr  Zr76  1  -0.02234333  0.59022488  -0.01556542  1
  Zr  Zr77  1  0.30159851  0.30126025  0.36653246  1
  Zr  Zr78  1  0.89449959  0.29887350  0.85761064  1
  Zr  Zr79  1  0.89920469  0.10246857  0.12223743  1
  Ta  Ta80  1  0.89065162  0.09209827  0.88107550  1
  Ta  Ta81  1  0.29250465  0.10559075  0.62257677  1
  Ta  Ta82  1  0.60328324  -0.00564027  0.01705254  1
  Ta  Ta83  1  0.49561461  0.90384009  0.63451508  1
  Ta  Ta84  1  0.40409591  0.00274863  0.24347166  1
  Ta  Ta85  1  0.49283618  0.49531754  0.36349395  1
  Ta  Ta86  1  0.30143815  0.10905776  0.90205845  1
  Ta  Ta87  1  0.71488674  0.50052574  0.13859546  1
  Ta  Ta88  1  0.00459900  0.60375127  0.49971140  1
  Ta  Ta89  1  0.60219022  0.80761805  0.01383570  1
  Ta  Ta90  1  0.60574678  0.80220706  0.73529754  1
  Ta  Ta91  1  0.19418756  0.61078797  0.76145794  1
  Ta  Ta92  1  0.40533143  0.39590498  0.22548144  1
  Ta  Ta93  1  0.79910638  0.00351364  0.26209299  1
  Ta  Ta94  1  0.40445384  0.19606826  0.22963160  1
  Ta  Ta95  1  0.29693409  0.90764623  0.12551135  1
  Ta  Ta96  1  0.90557096  0.29248285  0.62633128  1
  Ta  Ta97  1  0.19577132  0.01604889  0.48724632  1
  Ta  Ta98  1  0.51092003  0.70350906  0.86901974  1
  Ta  Ta99  1  0.48002137  0.09083198  0.63072425  1
  Ta  Ta100  1  0.19477062  0.60252563  0.23353359  1
  Ta  Ta101  1  0.09866303  0.09925712  0.11975670  1
  Ta  Ta102  1  -0.00013391  0.20586275  -0.01266609  1
  Ta  Ta103  1  0.80393169  0.79756981  0.27252477  1
  Ta  Ta104  1  0.58948894  0.18049080  0.73730974  1
  Ta  Ta105  1  0.09091124  0.30170378  0.11368311  1
  Ta  Ta106  1  0.69645089  0.49621661  0.38122648  1
  Ta  Ta107  1  0.00911616  0.78574856  0.00497249  1
  Ta  Ta108  1  0.10013553  0.89445398  0.88520105  1
  Ta  Ta109  1  0.79685404  0.19779860  -0.00474461  1
  Ta  Ta110  1  0.30223892  0.50471986  0.87290505  1
  Ta  Ta111  1  0.79505154  0.39465700  0.50639750  1
  Ta  Ta112  1  0.79744236  0.60522930  0.73750341  1
  Ta  Ta113  1  0.89200387  0.50433171  0.13661505  1
  Ta  Ta114  1  0.20143628  0.80420272  0.24743742  1
  Ta  Ta115  1  0.71098339  0.69223450  0.39618529  1
  Ta  Ta116  1  0.10262378  0.90407141  0.12951355  1
  Ta  Ta117  1  0.80271765  0.80024178  0.73329332  1
  Ta  Ta118  1  0.69863294  0.70001692  0.61478833  1
  Ta  Ta119  1  0.08082963  0.49460393  0.12840078  1
  Ti  Ti120  1  -0.00305100  0.40598022  -0.02558320  1
  Ti  Ti121  1  0.89955390  0.69318459  0.12557188  1
  Ti  Ti122  1  0.00286307  0.79815999  0.74688452  1
  Ti  Ti123  1  0.39226840  0.18808356  0.75936199  1
  Ti  Ti124  1  0.70239939  0.10177040  0.38958275  1
  Ti  Ti125  1  0.19798015  0.39929056  0.23247830  1
  Ti  Ti126  1  0.00204289  0.39468859  0.75570205  1
  Ti  Ti127  1  0.40367030  0.00987618  0.77164800  1
  Ti  Ti128  1  0.89938024  0.09393879  0.61069495  1
  Ti  Ti129  1  0.29940107  0.28806353  0.63950347  1
  Ti  Ti130  1  0.69970414  0.08977607  0.61371759  1
  Ti  Ti131  1  0.29601680  0.09560174  0.10895002  1
  Ti  Ti132  1  0.19480784  0.79870069  0.76118762  1
  Ti  Ti133  1  0.29835273  0.10552533  0.36145564  1
  Ti  Ti134  1  0.51951998  0.90868092  0.86604456  1
  Ti  Ti135  1  0.70340976  0.90659887  0.13902527  1
  Ti  Ti136  1  0.70832532  0.09537347  0.11851663  1
  Ti  Ti137  1  0.51550113  0.09488314  0.13472927  1
  Ti  Ti138  1  0.80152766  0.60590187  0.26672426  1
  Ti  Ti139  1  0.50414139  0.09502366  0.35953597  1
  Ti  Ti140  1  0.38821612  0.19659982  0.49943355  1
  Ti  Ti141  1  0.11464059  0.28903181  0.37091414  1
  Ti  Ti142  1  0.41211825  0.60258550  0.00500880  1
  Ti  Ti143  1  0.69929328  0.50431174  0.62549810  1
  Ti  Ti144  1  0.10617933  0.09316431  0.35457292  1
  Ti  Ti145  1  0.19266620  0.19458743  0.75983205  1
  Ti  Ti146  1  0.10418233  0.10084756  0.89275385  1
  Ti  Ti147  1  0.48053949  0.28875259  0.63677360  1
  Ti  Ti148  1  0.70586717  0.29430800  0.39261565  1
  Ti  Ti149  1  0.69982910  0.91217702  0.37216726  1
  Ti  Ti150  1  0.49229798  0.68989301  0.38298083  1
  Ti  Ti151  1  0.40230674  0.81227860  0.47555514  1
  Ti  Ti152  1  0.89074791  0.70123578  0.87073783  1
  Ti  Ti153  1  0.30503375  0.69460136  0.37004785  1
  Ti  Ti154  1  0.80035451  0.39617546  0.26866705  1
  Ti  Ti155  1  0.70747963  0.29726179  0.11577920  1
  Ti  Ti156  1  0.00964225  0.19241195  0.74842502  1
  Ti  Ti157  1  0.42695533  0.19326244  0.01027001  1
  Ti  Ti158  1  0.79898972  -0.00807913  0.72691499  1
  Ti  Ti159  1  0.49242655  0.51123451  0.64545521  1
  Mo  Mo160  1  0.10498320  0.91375754  0.34907137  1
  Mo  Mo161  1  0.50719500  0.29045179  0.12449647  1
  Mo  Mo162  1  0.79539864  0.00035385  0.00655156  1
  Mo  Mo163  1  0.89330751  0.29432511  0.40286675  1
  Mo  Mo164  1  0.60058192  0.60972050  0.73344253  1
  Mo  Mo165  1  0.20574747  0.00600557  0.23904214  1
  Mo  Mo166  1  0.89063698  0.50012206  0.84632975  1
  Mo  Mo167  1  0.11127477  0.09751615  0.63191356  1
  Mo  Mo168  1  0.09455792  0.49989124  0.85970944  1
  Mo  Mo169  1  0.09250660  0.28994321  0.86893807  1
  Mo  Mo170  1  0.19707776  0.00322036  0.00822267  1
  Mo  Mo171  1  0.69612810  0.90125313  0.62862335  1
  Mo  Mo172  1  0.50104085  0.09449080  0.87182088  1
  Mo  Mo173  1  0.09172833  0.71365627  0.86438908  1
  Mo  Mo174  1  0.39825085  0.59681478  0.48578020  1
  Mo  Mo175  1  0.00391658  0.00396762  0.25037706  1
  Mo  Mo176  1  0.10064218  0.28661654  0.64526629  1
  Mo  Mo177  1  0.39644313  0.39332489  0.74590084  1
  Mo  Mo178  1  0.79976331  0.39905346  0.73236777  1
  Mo  Mo179  1  0.89723021  0.70121211  0.39301572  1
  Mo  Mo180  1  0.50346733  0.90666841  0.35927393  1
  Mo  Mo181  1  0.79461306  0.59582576  0.51219437  1
  Mo  Mo182  1  0.29842356  0.91105948  0.35013083  1
  Mo  Mo183  1  0.08940951  0.69917968  0.14132994  1
  Mo  Mo184  1  0.10219738  0.70316348  0.63620965  1
  Mo  Mo185  1  0.18704884  0.80455873  0.01785610  1
  Mo  Mo186  1  0.61085737  0.00721873  0.24899456  1
  Mo  Mo187  1  0.50697297  0.70417285  0.12113298  1
  Mo  Mo188  1  0.39415485  0.60952466  0.77036813  1
  Mo  Mo189  1  0.59752227  -0.00135878  0.73019602  1
  Mo  Mo190  1  0.80046271  0.60305530  0.00252835  1
  Mo  Mo191  1  0.60627630  0.19052672  0.01722790  1
  Mo  Mo192  1  0.80550388  0.19676098  0.51068342  1
  Mo  Mo193  1  0.18902243  0.19885212  0.00177217  1
  Mo  Mo194  1  0.20930656  0.19264623  0.49653701  1
  Mo  Mo195  1  0.90380607  0.90242276  0.64068680  1
  Mo  Mo196  1  0.50622110  0.49942745  0.13837535  1
  Mo  Mo197  1  0.89807511  0.90927950  0.35918154  1
  Mo  Mo198  1  0.50978117  0.90712418  0.14072446  1
  Mo  Mo199  1  0.79554839  0.00309817  0.50021214  1
