# generated using pymatgen
data_HfZrTaTiMo
_symmetry_space_group_name_H-M   'P 1'
_cell_length_a   15.82872743
_cell_length_b   15.84504165
_cell_length_c   15.38201060
_cell_angle_alpha   90.04126441
_cell_angle_beta   90.00080348
_cell_angle_gamma   89.97944621
_symmetry_Int_Tables_number   1
_chemical_formula_structural   HfZrTaTiMo
_chemical_formula_sum   'Hf40 Zr40 Ta40 Ti40 Mo40'
_cell_volume   3857.91230714
_cell_formula_units_Z   40
loop_
 _symmetry_equiv_pos_site_id
 _symmetry_equiv_pos_as_xyz
  1  'x, y, z'
loop_
 _atom_site_type_symbol
 _atom_site_label
 _atom_site_symmetry_multiplicity
 _atom_site_fract_x
 _atom_site_fract_y
 _atom_site_fract_z
 _atom_site_occupancy
  Hf  Hf0  1  0.00694578  0.41299854  0.50243486  1
  Hf  Hf1  1  0.50817037  0.90505732  0.38021053  1
  Hf  Hf2  1  0.61708404  0.20542847  0.01795243  1
  Hf  Hf3  1  0.39878630  0.80334421  0.24983873  1
  Hf  Hf4  1  0.90631155  0.29907169  0.37371223  1
  Hf  Hf5  1  0.69846972  0.70374945  0.60636288  1
  Hf  Hf6  1  0.20017243  0.38506310  0.23400711  1
  Hf  Hf7  1  0.20458312  0.79234827  0.51786356  1
  Hf  Hf8  1  0.81322399  0.40005809  0.73908724  1
  Hf  Hf9  1  0.89828878  0.89347661  0.62012173  1
  Hf  Hf10  1  0.60488993  0.80202719  0.24340546  1
  Hf  Hf11  1  0.30157406  0.29565614  0.09787361  1
  Hf  Hf12  1  0.39853548  0.79622692  0.50270135  1
  Hf  Hf13  1  0.80076887  0.19708116  0.24022035  1
  Hf  Hf14  1  0.69299042  0.09720360  0.62689849  1
  Hf  Hf15  1  -0.00261519  0.79605501  0.00250323  1
  Hf  Hf16  1  0.90907124  0.09524393  0.38065436  1
  Hf  Hf17  1  0.39803549  0.19406058  0.24137216  1
  Hf  Hf18  1  0.49066640  0.30282316  0.36630885  1
  Hf  Hf19  1  0.10111020  0.70854750  0.35978204  1
  Hf  Hf20  1  -0.00382878  0.59519976  0.48570939  1
  Hf  Hf21  1  0.00234559  0.00194813  0.23738175  1
  Hf  Hf22  1  0.90700833  0.09545462  0.61780094  1
  Hf  Hf23  1  0.50494102  0.09529940  0.63604997  1
  Hf  Hf24  1  0.09633460  0.10234386  0.62466882  1
  Hf  Hf25  1  0.19572856  0.19160495  0.24462713  1
  Hf  Hf26  1  0.10056755  0.90976588  0.38702176  1
  Hf  Hf27  1  0.08771956  0.69617880  0.63826785  1
  Hf  Hf28  1  0.40216467  0.58184380  0.26006546  1
  Hf  Hf29  1  0.01168023  0.20131525  0.24332442  1
  Hf  Hf30  1  0.29652944  0.09384233  0.38321430  1
  Hf  Hf31  1  0.60281687  0.80367463  0.75930339  1
  Hf  Hf32  1  0.19302861  0.57055670  0.25629992  1
  Hf  Hf33  1  0.30984672  0.30849515  0.88326023  1
  Hf  Hf34  1  0.70245830  0.48849395  0.88578404  1
  Hf  Hf35  1  0.59448980  0.60180891  -0.00306704  1
  Hf  Hf36  1  0.60166261  0.39963428  0.48997663  1
  Hf  Hf37  1  0.59711174  0.60032400  0.26275099  1
  Hf  Hf38  1  0.30448963  0.10866063  0.88045100  1
  Hf  Hf39  1  0.20825684  0.20265054  0.51416156  1
  Zr  Zr40  1  0.00130469  -0.00209756  0.77180757  1
  Zr  Zr41  1  0.28999808  0.70559763  0.35883432  1
  Zr  Zr42  1  0.19262995  0.59200373  0.50020685  1
  Zr  Zr43  1  0.69645742  0.50541464  0.13083960  1
  Zr  Zr44  1  0.30358663  0.09195256  0.10232851  1
  Zr  Zr45  1  0.79441649  -0.00404394  0.01199742  1
  Zr  Zr46  1  0.40054444  0.00282546  0.50279156  1
  Zr  Zr47  1  0.79364600  0.37918009  0.01902247  1
  Zr  Zr48  1  0.91354333  0.29367581  0.61757453  1
  Zr  Zr49  1  0.29955844  0.09968079  0.64438484  1
  Zr  Zr50  1  0.79550114  0.59589816  0.76156197  1
  Zr  Zr51  1  0.40493335  0.79640699  -0.00273055  1
  Zr  Zr52  1  0.49691846  0.91236101  0.13025076  1
  Zr  Zr53  1  0.39290046  0.59736129  0.48833721  1
  Zr  Zr54  1  0.39897865  0.80094445  0.74945995  1
  Zr  Zr55  1  0.29535013  0.69174209  0.12991870  1
  Zr  Zr56  1  0.61026293  0.39931294  0.74651135  1
  Zr  Zr57  1  0.61432232  0.80257965  0.01394182  1
  Zr  Zr58  1  0.30063266  0.29817669  0.37647734  1
  Zr  Zr59  1  0.19903322  0.59806100  0.77149244  1
  Zr  Zr60  1  0.68886865  0.89776090  0.60440517  1
  Zr  Zr61  1  0.79455831  -0.00427705  0.75353504  1
  Zr  Zr62  1  -0.00657934  0.81208874  0.23896873  1
  Zr  Zr63  1  0.70888226  0.71926987  0.37909091  1
  Zr  Zr64  1  0.10230011  0.68908718  0.13418353  1
  Zr  Zr65  1  0.19725310  0.78218934  -0.01883519  1
  Zr  Zr66  1  0.70337198  0.51318856  0.61622170  1
  Zr  Zr67  1  0.50492555  0.10984956  0.86908266  1
  Zr  Zr68  1  0.10655871  0.09729269  0.09929798  1
  Zr  Zr69  1  0.50693334  0.30114413  0.87874426  1
  Zr  Zr70  1  0.50248658  0.50661712  0.62429586  1
  Zr  Zr71  1  0.89161381  0.69223792  0.62465354  1
  Zr  Zr72  1  0.09298818  0.90826879  0.62074076  1
  Zr  Zr73  1  0.79073836  0.20468786  0.49789238  1
  Zr  Zr74  1  0.80156934  0.60856792  0.00635956  1
  Zr  Zr75  1  0.89049012  0.11362877  0.88324021  1
  Zr  Zr76  1  0.50651696  0.70054108  0.62225877  1
  Zr  Zr77  1  0.01240262  0.40452608  0.24497429  1
  Zr  Zr78  1  0.80293922  0.41024643  0.49104088  1
  Zr  Zr79  1  0.19389096  0.80359996  0.75905105  1
  Ta  Ta80  1  0.00977781  0.59992051  -0.01240854  1
  Ta  Ta81  1  0.29176433  0.90224962  0.11328352  1
  Ta  Ta82  1  0.50647585  0.29714724  0.63079074  1
  Ta  Ta83  1  0.29701826  0.50720426  0.63713627  1
  Ta  Ta84  1  0.79785984  -0.00042177  0.49064905  1
  Ta  Ta85  1  0.59779242  0.60418181  0.77004177  1
  Ta  Ta86  1  0.40623129  0.20475156  0.51245746  1
  Ta  Ta87  1  0.29764109  0.49438570  0.10101091  1
  Ta  Ta88  1  0.60121911  0.00205450  -0.00414073  1
  Ta  Ta89  1  0.69168362  0.29624252  0.35641283  1
  Ta  Ta90  1  0.39219838  0.59927167  -0.01697563  1
  Ta  Ta91  1  0.19988755  -0.00467033  0.24719492  1
  Ta  Ta92  1  0.59359829  0.60066190  0.46881071  1
  Ta  Ta93  1  0.18782340  0.20872190  0.76500056  1
  Ta  Ta94  1  0.49847741  0.68961545  0.12696372  1
  Ta  Ta95  1  0.20085520  0.40380086  0.52033651  1
  Ta  Ta96  1  0.80340651  -0.00653081  0.24365038  1
  Ta  Ta97  1  0.39949920  0.60027999  0.76559551  1
  Ta  Ta98  1  0.29642009  0.90878865  0.63226289  1
  Ta  Ta99  1  0.19582144  0.40180153  0.75608455  1
  Ta  Ta100  1  0.90849148  0.50405542  0.12234046  1
  Ta  Ta101  1  0.39711893  0.40708534  0.74590931  1
  Ta  Ta102  1  0.10526796  0.29842897  0.39057017  1
  Ta  Ta103  1  0.79440945  0.20788482  0.73857063  1
  Ta  Ta104  1  0.39545879  0.39560924  0.52011282  1
  Ta  Ta105  1  0.89271332  0.88796672  0.88383956  1
  Ta  Ta106  1  0.80120315  0.40564730  0.25110412  1
  Ta  Ta107  1  0.59626976  0.20167464  0.49713678  1
  Ta  Ta108  1  0.19588606  0.00379258  0.77312748  1
  Ta  Ta109  1  -0.00462532  0.58795214  0.76312967  1
  Ta  Ta110  1  0.59726290  0.39822506  0.01426388  1
  Ta  Ta111  1  0.00211640  -0.00350556  -0.00962825  1
  Ta  Ta112  1  0.69904400  0.10875729  0.87215933  1
  Ta  Ta113  1  0.80368153  0.60303451  0.25228460  1
  Ta  Ta114  1  0.89944947  0.70048307  0.87439414  1
  Ta  Ta115  1  0.59097380  0.40616689  0.25147624  1
  Ta  Ta116  1  -0.00662754  0.79461293  0.49053347  1
  Ta  Ta117  1  0.90829322  0.48657596  0.89308994  1
  Ta  Ta118  1  0.49897378  0.30148648  0.13148916  1
  Ta  Ta119  1  0.40924728  -0.00425861  -0.01449383  1
  Ti  Ti120  1  0.50390274  0.10399042  0.37355056  1
  Ti  Ti121  1  0.90161445  0.10186232  0.11428192  1
  Ti  Ti122  1  0.70674540  0.28973314  0.87379603  1
  Ti  Ti123  1  0.29007748  0.90162172  0.37784852  1
  Ti  Ti124  1  0.30071104  0.90130941  0.88121728  1
  Ti  Ti125  1  0.50588511  0.90522706  0.61492986  1
  Ti  Ti126  1  0.00063812  0.20831195  0.76416808  1
  Ti  Ti127  1  0.49419854  0.49199470  0.88014205  1
  Ti  Ti128  1  0.90000294  0.69638011  0.12769003  1
  Ti  Ti129  1  -0.00424440  0.20864195  -0.00065954  1
  Ti  Ti130  1  0.79863493  0.80911165  0.22362490  1
  Ti  Ti131  1  0.40414666  -0.00932771  0.76278257  1
  Ti  Ti132  1  0.70279502  0.90656951  0.37749510  1
  Ti  Ti133  1  0.80582883  0.59348977  0.47363099  1
  Ti  Ti134  1  0.50108585  0.10195442  0.12059055  1
  Ti  Ti135  1  0.70414936  0.89791027  0.88362576  1
  Ti  Ti136  1  0.60333542  0.00592243  0.25085241  1
  Ti  Ti137  1  0.59733446  -0.00840723  0.76782209  1
  Ti  Ti138  1  0.48883015  0.49807906  0.11813432  1
  Ti  Ti139  1  0.30251636  0.47630379  0.37874806  1
  Ti  Ti140  1  0.10068888  0.30010021  0.62787101  1
  Ti  Ti141  1  0.90702422  0.29995116  0.12752093  1
  Ti  Ti142  1  0.39187036  0.00061216  0.25167611  1
  Ti  Ti143  1  0.40243217  0.21006005  0.74470179  1
  Ti  Ti144  1  0.69501382  0.09956093  0.36929219  1
  Ti  Ti145  1  0.00504599  0.40684220  0.74456025  1
  Ti  Ti146  1  0.79946034  0.79972409  0.75011122  1
  Ti  Ti147  1  0.18697084  0.20565532  -0.02049553  1
  Ti  Ti148  1  0.89326147  0.89628645  0.38017946  1
  Ti  Ti149  1  0.29896034  0.30395838  0.64056596  1
  Ti  Ti150  1  0.70785734  0.70908538  0.88143047  1
  Ti  Ti151  1  -0.00251484  0.59149321  0.25867564  1
  Ti  Ti152  1  0.08548761  0.31714152  0.88500892  1
  Ti  Ti153  1  0.89874056  0.70819751  0.36420225  1
  Ti  Ti154  1  0.11032907  0.90176463  0.10890674  1
  Ti  Ti155  1  0.10431541  0.49040602  0.09522567  1
  Ti  Ti156  1  0.69645022  0.09745149  0.13405502  1
  Ti  Ti157  1  0.10121306  0.09875947  0.39517597  1
  Ti  Ti158  1  0.89326823  0.30210952  0.88057202  1
  Ti  Ti159  1  0.50202879  0.70500088  0.87810451  1
  Mo  Mo160  1  0.80120284  0.19820496  0.01902940  1
  Mo  Mo161  1  0.09941702  0.49681451  0.64197545  1
  Mo  Mo162  1  0.20270720  -0.00177016  0.50695422  1
  Mo  Mo163  1  0.19887526  0.59211282  -0.01625089  1
  Mo  Mo164  1  0.00959158  0.20326827  0.49369300  1
  Mo  Mo165  1  0.49711752  0.70259267  0.37082036  1
  Mo  Mo166  1  0.90777635  0.50631240  0.62911323  1
  Mo  Mo167  1  0.80337615  0.79841547  0.01402864  1
  Mo  Mo168  1  0.30271427  0.49525949  0.88042173  1
  Mo  Mo169  1  0.59802764  0.19476811  0.24738215  1
  Mo  Mo170  1  0.10739755  0.48767847  0.37601947  1
  Mo  Mo171  1  0.70101384  0.49800885  0.36426923  1
  Mo  Mo172  1  0.09596451  0.11055570  0.87917687  1
  Mo  Mo173  1  0.30429469  0.69899986  0.86960055  1
  Mo  Mo174  1  0.80779322  0.80324931  0.49226203  1
  Mo  Mo175  1  0.09800804  0.29778991  0.10149827  1
  Mo  Mo176  1  0.60902947  0.20296581  0.74302619  1
  Mo  Mo177  1  0.50666492  0.90212731  0.88053826  1
  Mo  Mo178  1  0.09504876  0.90131835  0.88337928  1
  Mo  Mo179  1  0.49091155  0.48874987  0.38185599  1
  Mo  Mo180  1  0.09605521  0.49347255  0.88016086  1
  Mo  Mo181  1  0.60442632  0.01415323  0.48196780  1
  Mo  Mo182  1  0.41442053  0.19599010  0.01009358  1
  Mo  Mo183  1  0.40869764  0.40429357  0.00618640  1
  Mo  Mo184  1  -0.00585855  -0.00254519  0.49253406  1
  Mo  Mo185  1  0.90309099  0.90536169  0.11206517  1
  Mo  Mo186  1  0.19612735  0.39966038  -0.01466549  1
  Mo  Mo187  1  0.70251671  0.70138258  0.13677004  1
  Mo  Mo188  1  0.69426937  0.30065248  0.15187874  1
  Mo  Mo189  1  0.20182856  -0.00770907  -0.02215256  1
  Mo  Mo190  1  0.69633450  0.29719874  0.62228090  1
  Mo  Mo191  1  0.19875262  0.82099307  0.24003598  1
  Mo  Mo192  1  0.08738428  0.69942472  0.86454248  1
  Mo  Mo193  1  0.39525140  0.40239062  0.22917675  1
  Mo  Mo194  1  -0.01048408  0.79543633  0.76578984  1
  Mo  Mo195  1  0.90144540  0.50301812  0.35484384  1
  Mo  Mo196  1  0.30145977  0.69994033  0.64539038  1
  Mo  Mo197  1  0.59588757  0.80429978  0.48794806  1
  Mo  Mo198  1  0.70029901  0.91053639  0.13368057  1
  Mo  Mo199  1  -0.00463136  0.39649046  0.01092551  1
