# generated using pymatgen
data_HfZrTaTiMo
_symmetry_space_group_name_H-M   'P 1'
_cell_length_a   15.84226669
_cell_length_b   15.83634232
_cell_length_c   15.41424923
_cell_angle_alpha   90.01049450
_cell_angle_beta   89.96409001
_cell_angle_gamma   89.91327432
_symmetry_Int_Tables_number   1
_chemical_formula_structural   HfZrTaTiMo
_chemical_formula_sum   'Hf40 Zr40 Ta40 Ti40 Mo40'
_cell_volume   3867.17644123
_cell_formula_units_Z   40
loop_
 _symmetry_equiv_pos_site_id
 _symmetry_equiv_pos_as_xyz
  1  'x, y, z'
loop_
 _atom_site_type_symbol
 _atom_site_label
 _atom_site_symmetry_multiplicity
 _atom_site_fract_x
 _atom_site_fract_y
 _atom_site_fract_z
 _atom_site_occupancy
  Hf  Hf0  1  0.00099499  -0.01647576  0.25146424  1
  Hf  Hf1  1  0.40307661  0.40905809  0.25757877  1
  Hf  Hf2  1  0.00659833  0.59105665  -0.00443192  1
  Hf  Hf3  1  0.60783961  0.61214090  -0.01396386  1
  Hf  Hf4  1  0.28373684  0.91600842  0.37817592  1
  Hf  Hf5  1  0.10210970  0.09615434  0.62499227  1
  Hf  Hf6  1  0.21082795  0.00487258  0.75666952  1
  Hf  Hf7  1  0.90449845  0.29427267  0.60516181  1
  Hf  Hf8  1  0.09787737  0.29968809  0.59924656  1
  Hf  Hf9  1  0.28062231  0.30835903  0.89545924  1
  Hf  Hf10  1  0.01130235  0.59240668  0.23027588  1
  Hf  Hf11  1  0.18917698  0.21540360  0.74819965  1
  Hf  Hf12  1  0.39721015  0.40068398  0.75008128  1
  Hf  Hf13  1  0.89960087  0.69816643  0.38402368  1
  Hf  Hf14  1  0.90670502  0.89596598  0.63670814  1
  Hf  Hf15  1  0.10570280  0.88787450  0.10514972  1
  Hf  Hf16  1  0.38947701  0.20327246  0.75476190  1
  Hf  Hf17  1  0.58540526  0.41797444  0.50637086  1
  Hf  Hf18  1  0.79816990  0.19365103  0.24198998  1
  Hf  Hf19  1  0.09828772  0.69166831  0.38408918  1
  Hf  Hf20  1  0.29901622  0.50440694  0.61431807  1
  Hf  Hf21  1  0.40488777  0.61775406  0.25555206  1
  Hf  Hf22  1  0.90508846  0.89143408  0.38954596  1
  Hf  Hf23  1  0.18945653  0.19834660  0.24364063  1
  Hf  Hf24  1  0.79318594  0.40645663  0.50035006  1
  Hf  Hf25  1  0.69921661  0.70440111  0.64011083  1
  Hf  Hf26  1  0.20542770  0.01885480  0.00518567  1
  Hf  Hf27  1  0.28897282  0.70833457  0.39249787  1
  Hf  Hf28  1  0.10665374  0.89268601  0.62647145  1
  Hf  Hf29  1  0.00377337  0.18417418  0.48026421  1
  Hf  Hf30  1  0.80356083  0.39240100  0.74237823  1
  Hf  Hf31  1  0.50056371  0.08872782  0.87530975  1
  Hf  Hf32  1  0.80443479  0.20176950  0.74518942  1
  Hf  Hf33  1  0.01130779  0.37679339  0.75842973  1
  Hf  Hf34  1  0.21543853  0.18097359  0.48433835  1
  Hf  Hf35  1  0.90246980  0.48418283  0.88239222  1
  Hf  Hf36  1  0.49936416  0.29616817  0.37089769  1
  Hf  Hf37  1  0.60412060  0.80437781  0.50684573  1
  Hf  Hf38  1  0.59999798  0.19570307  0.23979215  1
  Hf  Hf39  1  0.70208209  0.49523430  0.87441975  1
  Zr  Zr40  1  0.59483682  0.39496104  0.74059884  1
  Zr  Zr41  1  0.49822439  0.29507581  0.88808715  1
  Zr  Zr42  1  0.80129865  -0.00033350  0.23370438  1
  Zr  Zr43  1  0.30363794  0.91226079  0.61687103  1
  Zr  Zr44  1  0.70489353  0.50064051  0.11886040  1
  Zr  Zr45  1  0.28833869  0.51678670  0.37022122  1
  Zr  Zr46  1  0.30414202  0.91299980  0.12769986  1
  Zr  Zr47  1  0.09655404  0.89861844  0.88734715  1
  Zr  Zr48  1  0.78577711  0.78818066  -0.02230932  1
  Zr  Zr49  1  0.80641282  0.79657975  0.24137855  1
  Zr  Zr50  1  0.69534852  0.29533200  0.38451798  1
  Zr  Zr51  1  0.70177234  0.29709021  0.88940946  1
  Zr  Zr52  1  0.48558137  0.10020893  0.63685013  1
  Zr  Zr53  1  0.49713172  0.90653412  0.10911668  1
  Zr  Zr54  1  0.29396781  0.51328099  0.13715194  1
  Zr  Zr55  1  0.79975059  0.80385413  0.75794056  1
  Zr  Zr56  1  0.10667254  0.49690967  0.61222559  1
  Zr  Zr57  1  0.70905864  0.89712862  0.38186052  1
  Zr  Zr58  1  0.09332436  0.11573109  0.87469775  1
  Zr  Zr59  1  0.91239401  0.89243577  0.09718139  1
  Zr  Zr60  1  0.69925932  0.09623053  0.86972190  1
  Zr  Zr61  1  0.40816096  0.80853600  0.49620997  1
  Zr  Zr62  1  0.00171863  0.18760878  0.02390111  1
  Zr  Zr63  1  0.40422750  0.60533372  -0.00300913  1
  Zr  Zr64  1  0.60181811  0.00353242  0.24668028  1
  Zr  Zr65  1  0.40305483  0.80776051  0.26288352  1
  Zr  Zr66  1  0.49287805  0.70469094  0.63676562  1
  Zr  Zr67  1  0.68454276  0.51654928  0.36416472  1
  Zr  Zr68  1  0.39612880  0.41052524  0.00644853  1
  Zr  Zr69  1  0.59945486  0.00420963  0.50910478  1
  Zr  Zr70  1  0.28795312  0.70254803  0.62037199  1
  Zr  Zr71  1  0.50317925  0.71263961  0.86036562  1
  Zr  Zr72  1  0.30020943  0.29835789  0.60814669  1
  Zr  Zr73  1  0.81051933  0.60682235  0.23564287  1
  Zr  Zr74  1  0.90493014  0.50425957  0.38680930  1
  Zr  Zr75  1  0.68889005  0.89038759  0.10738893  1
  Zr  Zr76  1  0.51000846  0.71555842  0.11867922  1
  Zr  Zr77  1  0.01237022  0.58783785  0.75447282  1
  Zr  Zr78  1  0.80181967  0.39755177  0.25497902  1
  Zr  Zr79  1  0.49905558  0.30684428  0.12739135  1
  Ta  Ta80  1  0.20236051  0.39572401  0.47447007  1
  Ta  Ta81  1  0.89899864  0.90772484  0.87525956  1
  Ta  Ta82  1  0.39483137  0.02550550  0.48692780  1
  Ta  Ta83  1  -0.00048732  0.00108385  0.75609344  1
  Ta  Ta84  1  0.90036385  0.29333080  0.38061675  1
  Ta  Ta85  1  0.69213127  0.29043088  0.61011838  1
  Ta  Ta86  1  0.50051513  0.91390867  0.37426430  1
  Ta  Ta87  1  0.18404493  0.40699038  0.24937341  1
  Ta  Ta88  1  0.10676425  0.70278667  0.10599572  1
  Ta  Ta89  1  0.50079849  0.90599853  0.65010953  1
  Ta  Ta90  1  0.59891726  0.59437560  0.74778499  1
  Ta  Ta91  1  0.91151943  0.70114925  0.86601982  1
  Ta  Ta92  1  0.90584815  0.49406608  0.62186406  1
  Ta  Ta93  1  0.90560548  0.48557952  0.10604920  1
  Ta  Ta94  1  0.09488816  0.50319133  0.38326522  1
  Ta  Ta95  1  0.80188297  0.19035569  0.01370050  1
  Ta  Ta96  1  0.10867978  0.07702736  0.36532601  1
  Ta  Ta97  1  0.20348737  0.79927203  0.76438316  1
  Ta  Ta98  1  0.49378380  0.29808974  0.60835180  1
  Ta  Ta99  1  0.10848893  0.69602031  0.87815293  1
  Ta  Ta100  1  0.19120699  0.79743490  0.25058636  1
  Ta  Ta101  1  0.90442531  0.09595949  0.63041885  1
  Ta  Ta102  1  0.51501132  0.51222673  0.14162831  1
  Ta  Ta103  1  0.80329442  0.00053113  0.51520200  1
  Ta  Ta104  1  0.41658922  0.59170868  0.49406453  1
  Ta  Ta105  1  0.20340805  0.59554568  -0.00170369  1
  Ta  Ta106  1  0.70083328  0.30408880  0.11528176  1
  Ta  Ta107  1  0.29427302  0.30418806  0.13614871  1
  Ta  Ta108  1  0.38625771  0.19059973  0.01545350  1
  Ta  Ta109  1  0.80069184  0.00716575  0.00256602  1
  Ta  Ta110  1  -0.00728768  0.19263150  0.25181202  1
  Ta  Ta111  1  0.59663459  0.18717565  0.01657545  1
  Ta  Ta112  1  0.90851495  0.28608969  0.89132323  1
  Ta  Ta113  1  0.29372544  0.71551199  0.11604006  1
  Ta  Ta114  1  0.39323481  0.59640886  0.75360438  1
  Ta  Ta115  1  0.30140772  0.29617190  0.36009267  1
  Ta  Ta116  1  0.80762716  0.59549261  0.74810392  1
  Ta  Ta117  1  0.89929623  0.30254242  0.11932126  1
  Ta  Ta118  1  0.89465146  0.08903026  0.37617571  1
  Ta  Ta119  1  0.39978388  0.40402723  0.48328828  1
  Ti  Ti120  1  0.48244730  0.09072998  0.12534717  1
  Ti  Ti121  1  0.51813775  0.69329203  0.37991795  1
  Ti  Ti122  1  0.10203786  0.88831020  0.38803898  1
  Ti  Ti123  1  0.19165384  0.21094728  0.02533662  1
  Ti  Ti124  1  0.09601629  0.08384762  0.13613733  1
  Ti  Ti125  1  0.10378214  0.69907658  0.64054535  1
  Ti  Ti126  1  0.70055577  0.09862709  0.63401516  1
  Ti  Ti127  1  0.00264391  0.78866190  0.24482953  1
  Ti  Ti128  1  0.80271664  0.60638873  0.52293331  1
  Ti  Ti129  1  0.90771001  0.70078453  0.10307961  1
  Ti  Ti130  1  0.30013587  0.10947200  0.88106084  1
  Ti  Ti131  1  0.60520611  0.79727611  0.26415745  1
  Ti  Ti132  1  0.69872294  0.90823765  0.64142352  1
  Ti  Ti133  1  0.00327556  -0.00489431  0.50054434  1
  Ti  Ti134  1  -0.00320005  0.60397707  0.52052067  1
  Ti  Ti135  1  0.89899312  0.09669937  0.86776784  1
  Ti  Ti136  1  0.39000247  0.81344523  0.75719603  1
  Ti  Ti137  1  0.68270740  0.91107508  0.87022650  1
  Ti  Ti138  1  -0.00121373  0.39494922  0.25027525  1
  Ti  Ti139  1  0.11438120  0.48105287  0.88944128  1
  Ti  Ti140  1  0.30954703  0.10286469  0.34365643  1
  Ti  Ti141  1  0.30672786  0.90926632  0.88542614  1
  Ti  Ti142  1  0.59704843  0.20451181  0.74272731  1
  Ti  Ti143  1  0.29884040  0.70030045  0.87647202  1
  Ti  Ti144  1  0.58808348  0.18985899  0.49951554  1
  Ti  Ti145  1  0.69915484  0.09543062  0.38268324  1
  Ti  Ti146  1  0.59690459  0.40556148  0.00392091  1
  Ti  Ti147  1  0.69648695  0.69992926  0.12324303  1
  Ti  Ti148  1  0.20066206  0.40597109  0.74882605  1
  Ti  Ti149  1  0.59945949  0.60170236  0.51717338  1
  Ti  Ti150  1  0.80549516  0.79569524  0.52057701  1
  Ti  Ti151  1  0.49939713  0.50088070  0.87140184  1
  Ti  Ti152  1  0.00083026  0.78787832  0.51753372  1
  Ti  Ti153  1  0.29413148  0.50285200  0.87580369  1
  Ti  Ti154  1  0.79680624  0.18688126  0.50089254  1
  Ti  Ti155  1  0.69989460  0.50039808  0.63183620  1
  Ti  Ti156  1  0.40048331  0.80783657  -0.01362598  1
  Ti  Ti157  1  0.70682966  0.69967638  0.38585794  1
  Ti  Ti158  1  0.80398311  0.59989400  -0.01054648  1
  Ti  Ti159  1  0.09574777  0.29874603  0.37092015  1
  Mo  Mo160  1  0.60148459  0.80694103  0.75476351  1
  Mo  Mo161  1  0.49772074  0.10444261  0.37000298  1
  Mo  Mo162  1  0.59969193  0.00398185  0.00584610  1
  Mo  Mo163  1  0.49905013  0.90506453  0.86908006  1
  Mo  Mo164  1  0.39747342  0.20109429  0.23450606  1
  Mo  Mo165  1  0.39660081  0.00806229  -0.01286537  1
  Mo  Mo166  1  0.90716434  0.69396593  0.63988657  1
  Mo  Mo167  1  0.80311626  0.00305678  0.74298478  1
  Mo  Mo168  1  0.19660770  0.00301803  0.49948971  1
  Mo  Mo169  1  -0.00604075  0.00128475  -0.00903824  1
  Mo  Mo170  1  0.69663965  0.09803311  0.11209459  1
  Mo  Mo171  1  0.09933973  0.30226127  0.88859953  1
  Mo  Mo172  1  0.20706044  0.59585325  0.77163351  1
  Mo  Mo173  1  0.29975544  0.10455682  0.13586550  1
  Mo  Mo174  1  0.39488210  -0.00169707  0.76786350  1
  Mo  Mo175  1  0.60242981  0.40467675  0.24229795  1
  Mo  Mo176  1  0.60663752  0.61581486  0.24828284  1
  Mo  Mo177  1  0.70596586  0.69052527  0.85537292  1
  Mo  Mo178  1  0.21190110  0.79588567  -0.01525151  1
  Mo  Mo179  1  0.00031053  0.79053040  -0.01865714  1
  Mo  Mo180  1  0.29867702  0.09993419  0.62858503  1
  Mo  Mo181  1  -0.00057628  0.39600183  0.48263309  1
  Mo  Mo182  1  0.50212321  0.50784510  0.36097232  1
  Mo  Mo183  1  0.40116488  0.20128150  0.48820792  1
  Mo  Mo184  1  0.09096144  0.30307695  0.14411251  1
  Mo  Mo185  1  0.59731074  0.80614732  -0.02859165  1
  Mo  Mo186  1  0.00698460  0.38746651  -0.00159151  1
  Mo  Mo187  1  0.40444518  0.00505655  0.26371075  1
  Mo  Mo188  1  0.19190942  0.60018365  0.50515761  1
  Mo  Mo189  1  0.90135909  0.09451436  0.13443176  1
  Mo  Mo190  1  0.80292576  0.39069359  -0.00090829  1
  Mo  Mo191  1  0.18695189  0.80078431  0.50195696  1
  Mo  Mo192  1  0.19398535  0.61394086  0.23423229  1
  Mo  Mo193  1  0.60288219  0.00339067  0.73941863  1
  Mo  Mo194  1  0.19318535  0.40122925  0.02486661  1
  Mo  Mo195  1  0.19565391  -0.00530282  0.23920978  1
  Mo  Mo196  1  0.49275498  0.50310545  0.63244330  1
  Mo  Mo197  1  0.09896040  0.49604191  0.11902842  1
  Mo  Mo198  1  -0.00553235  0.19675555  0.74821809  1
  Mo  Mo199  1  0.00831678  0.79782402  0.75948610  1
