# generated using pymatgen
data_HfZrTaTiMo
_symmetry_space_group_name_H-M   'P 1'
_cell_length_a   15.82384748
_cell_length_b   15.84035277
_cell_length_c   15.39244319
_cell_angle_alpha   90.00970332
_cell_angle_beta   89.97490655
_cell_angle_gamma   89.92077094
_symmetry_Int_Tables_number   1
_chemical_formula_structural   HfZrTaTiMo
_chemical_formula_sum   'Hf40 Zr40 Ta40 Ti40 Mo40'
_cell_volume   3858.19375716
_cell_formula_units_Z   40
loop_
 _symmetry_equiv_pos_site_id
 _symmetry_equiv_pos_as_xyz
  1  'x, y, z'
loop_
 _atom_site_type_symbol
 _atom_site_label
 _atom_site_symmetry_multiplicity
 _atom_site_fract_x
 _atom_site_fract_y
 _atom_site_fract_z
 _atom_site_occupancy
  Hf  Hf0  1  0.89658325  0.90480368  0.87006279  1
  Hf  Hf1  1  0.89463841  0.50802215  0.11166597  1
  Hf  Hf2  1  0.09643588  0.89763626  0.38309562  1
  Hf  Hf3  1  0.19839444  0.40532810  0.76608895  1
  Hf  Hf4  1  0.29047713  0.48687515  0.36966673  1
  Hf  Hf5  1  0.60006194  0.79117379  0.00131479  1
  Hf  Hf6  1  0.29241433  0.69216368  0.12846720  1
  Hf  Hf7  1  0.70569344  0.10389411  0.36229641  1
  Hf  Hf8  1  0.69791767  0.89287134  0.63413426  1
  Hf  Hf9  1  0.09875163  0.30274409  0.10592873  1
  Hf  Hf10  1  0.40053722  0.79053502  0.01289899  1
  Hf  Hf11  1  0.51303187  0.29581758  0.87517229  1
  Hf  Hf12  1  0.38848730  0.19319078  0.48284192  1
  Hf  Hf13  1  0.20636323  0.79199231  0.51249390  1
  Hf  Hf14  1  0.48839710  0.47777734  0.86271363  1
  Hf  Hf15  1  0.88575300  0.48505968  0.87585564  1
  Hf  Hf16  1  0.20093278  0.59747635  0.50810714  1
  Hf  Hf17  1  0.39520907  0.80261829  0.24447834  1
  Hf  Hf18  1  0.40358588  0.18282123  0.76612114  1
  Hf  Hf19  1  -0.00639778  0.40155195  0.24434692  1
  Hf  Hf20  1  0.09155341  0.50597738  0.11102086  1
  Hf  Hf21  1  0.69903829  0.10279109  0.61867639  1
  Hf  Hf22  1  0.10299201  0.09891712  0.36754458  1
  Hf  Hf23  1  0.09935919  0.09872966  0.11555130  1
  Hf  Hf24  1  0.29933389  0.69029303  0.35811131  1
  Hf  Hf25  1  0.60473709  0.40393347  0.49531760  1
  Hf  Hf26  1  0.00571145  0.01206555  0.75116591  1
  Hf  Hf27  1  0.09129825  0.49691184  0.89736831  1
  Hf  Hf28  1  0.23196056  0.40735228  0.00546440  1
  Hf  Hf29  1  0.49613362  0.49625799  0.62359296  1
  Hf  Hf30  1  0.88751501  0.10097561  0.12241371  1
  Hf  Hf31  1  0.90584638  0.29648437  0.63475921  1
  Hf  Hf32  1  0.39940040  0.40083687  0.22441028  1
  Hf  Hf33  1  0.40052830  -0.00427285  0.75590765  1
  Hf  Hf34  1  0.09709089  0.70712673  0.36544819  1
  Hf  Hf35  1  0.39105756  0.60349838  0.75424283  1
  Hf  Hf36  1  0.88077607  0.69863517  0.63477739  1
  Hf  Hf37  1  0.10787722  0.30626786  0.37330341  1
  Hf  Hf38  1  0.51005063  0.10232239  0.36033034  1
  Hf  Hf39  1  -0.00117165  0.20673759  0.23968579  1
  Zr  Zr40  1  0.10279272  0.90571604  0.62380327  1
  Zr  Zr41  1  0.50400208  0.29085071  0.62758351  1
  Zr  Zr42  1  0.78802974  0.60614639  -0.01912119  1
  Zr  Zr43  1  0.00275459  -0.01868075  0.23883289  1
  Zr  Zr44  1  0.09877322  0.49977759  0.37447129  1
  Zr  Zr45  1  0.51800590  0.09363895  0.12868882  1
  Zr  Zr46  1  0.48717957  0.50342819  0.37268512  1
  Zr  Zr47  1  0.90430690  0.10121015  0.36989834  1
  Zr  Zr48  1  0.68934134  0.91300144  0.87505046  1
  Zr  Zr49  1  0.80210624  -0.00449788  0.49722518  1
  Zr  Zr50  1  0.21270983  0.79458886  0.74689705  1
  Zr  Zr51  1  0.50212584  0.89661493  0.62616670  1
  Zr  Zr52  1  0.29512512  0.49733171  0.62806314  1
  Zr  Zr53  1  0.29939969  0.29480593  0.64214459  1
  Zr  Zr54  1  0.20703753  0.00753776  0.76052519  1
  Zr  Zr55  1  0.00718831  0.79219218  0.75844558  1
  Zr  Zr56  1  0.39703322  0.57389230  0.01059178  1
  Zr  Zr57  1  0.81251496  0.81482202  0.25731415  1
  Zr  Zr58  1  0.70443736  0.31854823  0.86289851  1
  Zr  Zr59  1  0.61049708  0.79399596  0.49156286  1
  Zr  Zr60  1  0.50386077  0.30124563  0.36711843  1
  Zr  Zr61  1  -0.00654465  0.60481040  0.50355317  1
  Zr  Zr62  1  0.00568541  0.39430718  0.50840573  1
  Zr  Zr63  1  0.70542609  0.69886071  0.14205556  1
  Zr  Zr64  1  0.40759420  0.78891722  0.49062165  1
  Zr  Zr65  1  0.20465391  0.01410690  0.50154851  1
  Zr  Zr66  1  0.40503619  0.20851022  0.01088691  1
  Zr  Zr67  1  0.90222186  0.89958049  0.10761470  1
  Zr  Zr68  1  0.21219527  0.19830846  -0.01282218  1
  Zr  Zr69  1  0.79591061  0.40352223  0.25249008  1
  Zr  Zr70  1  0.79821847  0.79741005  -0.01061183  1
  Zr  Zr71  1  0.39434402  -0.00077397  0.25121244  1
  Zr  Zr72  1  0.40055220  -0.00334815  0.48849375  1
  Zr  Zr73  1  0.69549391  0.51225109  0.63389475  1
  Zr  Zr74  1  0.89457490  0.50190573  0.63339885  1
  Zr  Zr75  1  0.59381296  0.59787970  -0.01143344  1
  Zr  Zr76  1  0.89523881  0.90112080  0.63279355  1
  Zr  Zr77  1  0.49450996  0.89762428  0.88496128  1
  Zr  Zr78  1  0.70007672  0.92165998  0.13335519  1
  Zr  Zr79  1  0.00378715  0.00127313  -0.01456683  1
  Ta  Ta80  1  0.50412311  0.68917232  0.14642228  1
  Ta  Ta81  1  0.00102830  0.78595587  -0.01756498  1
  Ta  Ta82  1  0.90541657  0.10776755  0.63227051  1
  Ta  Ta83  1  0.29209118  0.10775417  0.63281794  1
  Ta  Ta84  1  0.31977609  0.31371147  0.86719947  1
  Ta  Ta85  1  0.78370353  0.60690197  0.48774413  1
  Ta  Ta86  1  0.70455275  0.30361624  0.63004636  1
  Ta  Ta87  1  0.18949526  0.81262403  0.22845533  1
  Ta  Ta88  1  0.38294233  0.38925387  0.49805629  1
  Ta  Ta89  1  0.28927512  0.89586228  0.37139894  1
  Ta  Ta90  1  0.20440420  0.21024587  0.49101459  1
  Ta  Ta91  1  0.90481098  0.69751991  0.12855604  1
  Ta  Ta92  1  0.79827557  0.40144332  0.49892742  1
  Ta  Ta93  1  0.59501717  0.01115657  0.74983474  1
  Ta  Ta94  1  0.60215818  0.59167591  0.26564861  1
  Ta  Ta95  1  0.00130052  0.59758620  0.76561738  1
  Ta  Ta96  1  0.59577334  0.60870723  0.48554328  1
  Ta  Ta97  1  -0.00697874  0.79878276  0.50853906  1
  Ta  Ta98  1  0.89234136  0.50383317  0.38012517  1
  Ta  Ta99  1  0.20282707  -0.00504641  0.23674013  1
  Ta  Ta100  1  0.10628873  0.28390478  0.64374156  1
  Ta  Ta101  1  -0.00923898  0.20399478  -0.01300727  1
  Ta  Ta102  1  0.51424463  0.09343374  0.89510662  1
  Ta  Ta103  1  0.80435724  0.20785061  0.50277531  1
  Ta  Ta104  1  0.50865102  0.69375183  0.63220618  1
  Ta  Ta105  1  0.50900440  0.89769679  0.13010750  1
  Ta  Ta106  1  0.19689278  0.80208110  0.00598701  1
  Ta  Ta107  1  0.08745986  0.70031535  0.12040515  1
  Ta  Ta108  1  0.79331632  0.01326791  0.75419423  1
  Ta  Ta109  1  0.70113140  0.70413978  0.35818276  1
  Ta  Ta110  1  0.39517838  0.20311073  0.24486902  1
  Ta  Ta111  1  0.29987113  0.69873206  0.88682093  1
  Ta  Ta112  1  0.20696463  0.19872578  0.24724010  1
  Ta  Ta113  1  -0.00938599  0.60132452  0.25355722  1
  Ta  Ta114  1  0.80215645  0.20184159  0.75228665  1
  Ta  Ta115  1  0.00041390  0.39414165  0.76050071  1
  Ta  Ta116  1  0.60268860  -0.00486407  0.48620957  1
  Ta  Ta117  1  0.59470953  0.60283370  0.76773703  1
  Ta  Ta118  1  0.19266155  0.60379389  0.76327561  1
  Ta  Ta119  1  0.59547798  0.40477307  0.01691373  1
  Ti  Ti120  1  0.51649623  0.29444403  0.12976519  1
  Ti  Ti121  1  0.79870715  0.79660370  0.49184464  1
  Ti  Ti122  1  0.30180879  0.89694349  0.88610996  1
  Ti  Ti123  1  0.39882955  -0.00282857  0.00858617  1
  Ti  Ti124  1  0.70288034  0.29921893  0.37561911  1
  Ti  Ti125  1  0.40028522  0.79275107  0.75176121  1
  Ti  Ti126  1  0.79828631  0.20763136  -0.01078664  1
  Ti  Ti127  1  0.90241219  0.30036936  0.38350655  1
  Ti  Ti128  1  0.39817566  0.60521663  0.50467053  1
  Ti  Ti129  1  0.62033919  0.20124757  0.00617061  1
  Ti  Ti130  1  0.19062596  0.59405797  0.24146008  1
  Ti  Ti131  1  0.78380881  0.02368900  -0.01645631  1
  Ti  Ti132  1  0.78803704  0.60343680  0.76825731  1
  Ti  Ti133  1  0.89451629  0.30432391  0.10758275  1
  Ti  Ti134  1  0.80114770  0.21626563  0.24598651  1
  Ti  Ti135  1  0.60580670  0.19219169  0.75093490  1
  Ti  Ti136  1  0.59345429  0.79245649  0.75972917  1
  Ti  Ti137  1  0.90016859  0.70235988  0.37072403  1
  Ti  Ti138  1  0.60501623  0.19991623  0.49731413  1
  Ti  Ti139  1  0.78265727  0.39968163  0.00892575  1
  Ti  Ti140  1  0.49880156  0.09692091  0.61404679  1
  Ti  Ti141  1  0.30011128  0.09835516  0.12162501  1
  Ti  Ti142  1  0.89704021  0.11089348  0.86729148  1
  Ti  Ti143  1  0.10643398  0.10780778  0.87474571  1
  Ti  Ti144  1  0.20161485  0.39332346  0.23105653  1
  Ti  Ti145  1  0.20702284  -0.00470422  0.00060096  1
  Ti  Ti146  1  0.60774242  0.39738829  0.24460491  1
  Ti  Ti147  1  0.10837669  0.89610953  0.87839758  1
  Ti  Ti148  1  0.90722749  0.90045390  0.38194225  1
  Ti  Ti149  1  0.00182413  0.00666553  0.51286964  1
  Ti  Ti150  1  0.09684721  0.30009567  0.88083518  1
  Ti  Ti151  1  0.30728701  0.90209301  0.62144180  1
  Ti  Ti152  1  0.19946396  0.60392519  -0.00524127  1
  Ti  Ti153  1  0.00931507  0.19382751  0.50499423  1
  Ti  Ti154  1  0.70197120  0.10975045  0.14404589  1
  Ti  Ti155  1  0.51458466  0.89217337  0.35751180  1
  Ti  Ti156  1  0.09648160  0.69106864  0.62901651  1
  Ti  Ti157  1  0.78921617  0.79521868  0.76395507  1
  Ti  Ti158  1  0.09777380  0.49269078  0.63256839  1
  Ti  Ti159  1  0.69708521  0.50726930  0.13493149  1
  Mo  Mo160  1  0.51188532  0.50053234  0.13844740  1
  Mo  Mo161  1  0.69347299  0.70169040  0.64112003  1
  Mo  Mo162  1  0.29732069  0.09862801  0.35750490  1
  Mo  Mo163  1  0.59969540  0.79822344  0.24986954  1
  Mo  Mo164  1  0.70450664  0.29933174  0.11924947  1
  Mo  Mo165  1  0.00301584  0.20170249  0.77000452  1
  Mo  Mo166  1  0.70282570  0.90297414  0.36797638  1
  Mo  Mo167  1  0.10463753  0.69573004  0.88769170  1
  Mo  Mo168  1  0.69237294  0.70439388  0.86171420  1
  Mo  Mo169  1  0.69879029  0.49923424  0.37726106  1
  Mo  Mo170  1  0.30953323  0.09493000  0.88958567  1
  Mo  Mo171  1  0.80374571  0.60076722  0.26448920  1
  Mo  Mo172  1  0.10139031  0.89609582  0.10494625  1
  Mo  Mo173  1  0.39776234  0.59627437  0.24197299  1
  Mo  Mo174  1  0.20261139  0.19994814  0.77370023  1
  Mo  Mo175  1  0.29974205  0.29367350  0.13244187  1
  Mo  Mo176  1  0.61010931  0.21075348  0.24373251  1
  Mo  Mo177  1  0.10175993  0.11546905  0.62628635  1
  Mo  Mo178  1  0.29705728  0.30116846  0.36011727  1
  Mo  Mo179  1  0.00318093  0.79304980  0.24692238  1
  Mo  Mo180  1  0.29698378  0.50031272  0.86906488  1
  Mo  Mo181  1  0.30048356  0.90486746  0.11332527  1
  Mo  Mo182  1  0.41306013  0.39544888  0.01754429  1
  Mo  Mo183  1  0.29263842  0.50364207  0.14198683  1
  Mo  Mo184  1  0.60094858  0.39962200  0.73439369  1
  Mo  Mo185  1  0.30406668  0.69893738  0.63070610  1
  Mo  Mo186  1  0.48981247  0.69992298  0.86822428  1
  Mo  Mo187  1  0.80817334  0.00781929  0.25983381  1
  Mo  Mo188  1  0.40224940  0.39381057  0.73824931  1
  Mo  Mo189  1  0.19935124  0.39121094  0.51399639  1
  Mo  Mo190  1  0.69671302  0.11296755  0.86934421  1
  Mo  Mo191  1  0.89886276  0.30058296  0.87498080  1
  Mo  Mo192  1  0.50054795  0.69864003  0.35995125  1
  Mo  Mo193  1  0.60275222  0.00577672  0.00582944  1
  Mo  Mo194  1  0.80128036  0.40150377  0.73529556  1
  Mo  Mo195  1  0.60566776  -0.00339098  0.26207803  1
  Mo  Mo196  1  -0.01342545  0.39310973  -0.00318223  1
  Mo  Mo197  1  -0.00808683  0.60547102  -0.01180515  1
  Mo  Mo198  1  0.89815761  0.69543763  0.85828157  1
  Mo  Mo199  1  0.68912250  0.49477249  0.86387853  1
