# generated using pymatgen
data_HfZrTaTiMo
_symmetry_space_group_name_H-M   'P 1'
_cell_length_a   15.82157093
_cell_length_b   15.83459667
_cell_length_c   15.40265747
_cell_angle_alpha   89.98404950
_cell_angle_beta   89.97488942
_cell_angle_gamma   90.02432434
_symmetry_Int_Tables_number   1
_chemical_formula_structural   HfZrTaTiMo
_chemical_formula_sum   'Hf40 Zr40 Ta40 Ti40 Mo40'
_cell_volume   3858.79909591
_cell_formula_units_Z   40
loop_
 _symmetry_equiv_pos_site_id
 _symmetry_equiv_pos_as_xyz
  1  'x, y, z'
loop_
 _atom_site_type_symbol
 _atom_site_label
 _atom_site_symmetry_multiplicity
 _atom_site_fract_x
 _atom_site_fract_y
 _atom_site_fract_z
 _atom_site_occupancy
  Hf  Hf0  1  0.19632192  0.40442645  0.73927725  1
  Hf  Hf1  1  -0.00016481  0.80146294  -0.00603651  1
  Hf  Hf2  1  -0.00948591  0.18930815  0.26172376  1
  Hf  Hf3  1  0.00833129  0.80326829  0.75789040  1
  Hf  Hf4  1  0.11859715  0.89316977  0.11360567  1
  Hf  Hf5  1  0.60065472  0.81590230  0.01521751  1
  Hf  Hf6  1  0.50268237  0.90307468  0.36360360  1
  Hf  Hf7  1  0.50223740  0.29602741  0.63719014  1
  Hf  Hf8  1  0.59461557  0.18644422  0.49461887  1
  Hf  Hf9  1  0.50708568  0.50485335  0.37802070  1
  Hf  Hf10  1  0.09948292  0.08915865  0.38929493  1
  Hf  Hf11  1  0.52148726  0.29424581  0.12625293  1
  Hf  Hf12  1  0.58959556  0.60250133  0.75138423  1
  Hf  Hf13  1  0.00497512  -0.00295927  0.75618884  1
  Hf  Hf14  1  0.79328376  0.81376090  0.48648324  1
  Hf  Hf15  1  0.30664449  0.69861612  0.87455670  1
  Hf  Hf16  1  0.49483273  0.89094957  0.86037009  1
  Hf  Hf17  1  0.61664657  0.59432254  0.22834582  1
  Hf  Hf18  1  0.09183788  0.69558635  0.61625148  1
  Hf  Hf19  1  0.79558877  0.59318013  0.76563881  1
  Hf  Hf20  1  0.29363101  0.50615966  0.12896528  1
  Hf  Hf21  1  0.20088598  -0.01710200  0.26239676  1
  Hf  Hf22  1  0.30818885  0.49851395  0.37778512  1
  Hf  Hf23  1  0.68945121  0.29577529  0.36500593  1
  Hf  Hf24  1  0.20523485  0.19568030  0.74343910  1
  Hf  Hf25  1  0.09756320  0.69170627  0.12403619  1
  Hf  Hf26  1  0.00244986  0.59237252  0.75671614  1
  Hf  Hf27  1  0.21387505  -0.00896878  0.50614892  1
  Hf  Hf28  1  0.09233208  0.50532843  0.37561001  1
  Hf  Hf29  1  0.09872179  0.29496395  0.61463391  1
  Hf  Hf30  1  0.70109954  0.29781277  0.62762729  1
  Hf  Hf31  1  0.39982631  -0.00676560  -0.00242456  1
  Hf  Hf32  1  0.30769707  0.49683291  0.61819018  1
  Hf  Hf33  1  0.30832713  0.70067534  0.38938475  1
  Hf  Hf34  1  0.30564559  0.50548879  0.87508171  1
  Hf  Hf35  1  -0.00030731  0.40219027  0.49753790  1
  Hf  Hf36  1  0.91095110  0.11079500  0.11146971  1
  Hf  Hf37  1  0.78315169  -0.00078153  0.01230276  1
  Hf  Hf38  1  0.31866563  0.09899211  0.37167315  1
  Hf  Hf39  1  0.50431587  0.70464340  0.38019711  1
  Zr  Zr40  1  0.69744040  0.90433194  0.64325341  1
  Zr  Zr41  1  0.59452024  0.39649417  0.49355568  1
  Zr  Zr42  1  0.88710086  0.29993908  0.61973797  1
  Zr  Zr43  1  0.00108352  0.19941911  0.75076062  1
  Zr  Zr44  1  0.19551954  0.18680889  0.24602807  1
  Zr  Zr45  1  0.89173608  0.68799820  0.36052844  1
  Zr  Zr46  1  0.40637199  0.60522671  0.24123949  1
  Zr  Zr47  1  0.69918223  0.50303026  0.61589227  1
  Zr  Zr48  1  0.88773511  0.09863671  0.62807081  1
  Zr  Zr49  1  0.89774875  0.51700072  0.60675888  1
  Zr  Zr50  1  0.10410160  0.29540748  0.37921087  1
  Zr  Zr51  1  0.89125109  0.70117212  0.87816713  1
  Zr  Zr52  1  0.20469731  0.39184045  0.00945751  1
  Zr  Zr53  1  0.08036093  0.28762892  0.12118445  1
  Zr  Zr54  1  0.21524091  0.19771423  0.50814601  1
  Zr  Zr55  1  0.50987710  0.30673654  0.87882358  1
  Zr  Zr56  1  0.68930374  0.90588829  0.86626738  1
  Zr  Zr57  1  0.20278340  -0.00607622  0.72764572  1
  Zr  Zr58  1  0.10510027  0.49607436  0.88917708  1
  Zr  Zr59  1  0.30767504  0.29285755  0.13765827  1
  Zr  Zr60  1  0.11275595  0.08921623  0.88358964  1
  Zr  Zr61  1  -0.00492235  0.40548939  0.74731985  1
  Zr  Zr62  1  0.90018411  0.10411787  0.88729784  1
  Zr  Zr63  1  0.78924766  0.80109277  0.23620651  1
  Zr  Zr64  1  0.69996675  0.70753102  0.62693390  1
  Zr  Zr65  1  0.88756970  0.89834803  0.64118347  1
  Zr  Zr66  1  -0.01142303  0.80161681  0.48969064  1
  Zr  Zr67  1  0.12007384  0.70141719  0.87858677  1
  Zr  Zr68  1  0.79250938  0.22027147  -0.00082704  1
  Zr  Zr69  1  0.78096850  0.41617823  0.25088315  1
  Zr  Zr70  1  0.89357417  0.50281904  0.12851602  1
  Zr  Zr71  1  0.20382595  0.18327523  0.01058454  1
  Zr  Zr72  1  0.28593850  0.70633177  0.11896352  1
  Zr  Zr73  1  0.40937610  0.19008328  -0.00044139  1
  Zr  Zr74  1  0.30287201  0.30096171  0.87090572  1
  Zr  Zr75  1  0.28433391  0.89112224  0.86340236  1
  Zr  Zr76  1  0.09486492  0.50066071  0.12935735  1
  Zr  Zr77  1  0.00966231  0.80621072  0.25912448  1
  Zr  Zr78  1  0.88614367  0.29244921  0.37482535  1
  Zr  Zr79  1  0.42266016  0.00275040  0.51431671  1
  Ta  Ta80  1  0.79197927  0.19878408  0.23053644  1
  Ta  Ta81  1  0.19980736  0.39901762  0.25635015  1
  Ta  Ta82  1  -0.00844166  0.39636996  0.25347170  1
  Ta  Ta83  1  0.20207726  0.79690432  0.27296844  1
  Ta  Ta84  1  0.19856246  0.59606944  0.50272380  1
  Ta  Ta85  1  0.31065065  0.29970542  0.36353041  1
  Ta  Ta86  1  0.68884839  0.70523283  0.88361470  1
  Ta  Ta87  1  0.79221155  0.20700323  0.76899838  1
  Ta  Ta88  1  0.49319000  0.91107648  0.13822975  1
  Ta  Ta89  1  0.79480552  0.40329311  0.48548549  1
  Ta  Ta90  1  0.90428803  0.90322605  0.12498518  1
  Ta  Ta91  1  0.40962406  0.19095517  0.75711134  1
  Ta  Ta92  1  0.49775068  0.69963469  0.88748382  1
  Ta  Ta93  1  0.69845796  0.10250634  0.62568737  1
  Ta  Ta94  1  0.69195964  0.70074927  0.38032979  1
  Ta  Ta95  1  0.20780135  0.39845691  0.49780406  1
  Ta  Ta96  1  0.41064435  0.40461692  0.23906890  1
  Ta  Ta97  1  0.00757526  -0.00322269  0.00261278  1
  Ta  Ta98  1  0.40364961  0.59787493  0.00901583  1
  Ta  Ta99  1  0.90043917  0.69641190  0.12767737  1
  Ta  Ta100  1  0.41062211  0.40536738  0.01346312  1
  Ta  Ta101  1  0.60800130  0.18960042  0.76422911  1
  Ta  Ta102  1  -0.01792445  0.18573034  0.49330110  1
  Ta  Ta103  1  0.41137600  0.41079537  0.74904518  1
  Ta  Ta104  1  0.39742981  0.80400151  0.01001587  1
  Ta  Ta105  1  0.50163549  0.70174221  0.11575757  1
  Ta  Ta106  1  0.89571844  0.50827092  0.37262328  1
  Ta  Ta107  1  -0.00852302  0.59527909  -0.00814092  1
  Ta  Ta108  1  0.69408422  0.90814831  0.35822605  1
  Ta  Ta109  1  0.30696815  0.07587174  0.13600930  1
  Ta  Ta110  1  0.79660688  0.80428451  0.01039343  1
  Ta  Ta111  1  0.09694995  0.89557759  0.60978339  1
  Ta  Ta112  1  -0.01337289  -0.00742681  0.48877234  1
  Ta  Ta113  1  0.89187132  0.90313068  0.87776940  1
  Ta  Ta114  1  0.40568532  0.60355140  0.73717005  1
  Ta  Ta115  1  0.09560495  0.29481723  0.88254191  1
  Ta  Ta116  1  0.59895380  0.79705475  0.23645293  1
  Ta  Ta117  1  0.19588709  0.60585085  0.26824522  1
  Ta  Ta118  1  0.00513093  -0.00031629  0.24651829  1
  Ta  Ta119  1  0.49471776  0.29478784  0.35639449  1
  Ti  Ti120  1  0.69134512  0.49994782  0.89103158  1
  Ti  Ti121  1  0.50242676  0.50542441  0.88800987  1
  Ti  Ti122  1  0.51511808  0.08563225  0.87600719  1
  Ti  Ti123  1  0.60584503  0.00887895  0.23433117  1
  Ti  Ti124  1  0.79584085  0.40562715  -0.00210899  1
  Ti  Ti125  1  0.50934125  0.89565009  0.64282037  1
  Ti  Ti126  1  0.41008055  0.20255133  0.50013715  1
  Ti  Ti127  1  0.09096158  0.09362405  0.61030377  1
  Ti  Ti128  1  0.79935535  0.01140513  0.23246582  1
  Ti  Ti129  1  0.40838043  0.61010769  0.51788649  1
  Ti  Ti130  1  0.88994292  0.70455902  0.63025929  1
  Ti  Ti131  1  0.32052219  0.10470538  0.62671971  1
  Ti  Ti132  1  0.20732561  0.60575530  0.72871408  1
  Ti  Ti133  1  0.89077075  0.91330048  0.35529393  1
  Ti  Ti134  1  -0.01538547  0.39146619  0.00394502  1
  Ti  Ti135  1  0.40517835  0.00206776  0.74234868  1
  Ti  Ti136  1  0.30479726  0.09054553  0.87021260  1
  Ti  Ti137  1  0.39551811  0.78625221  0.72890511  1
  Ti  Ti138  1  0.31314866  0.89440017  0.38310198  1
  Ti  Ti139  1  0.69599993  0.31262020  0.12963047  1
  Ti  Ti140  1  0.70842313  0.09915678  0.36790011  1
  Ti  Ti141  1  0.20703119  0.79957628  0.50598954  1
  Ti  Ti142  1  0.70322237  0.52150864  0.38770584  1
  Ti  Ti143  1  0.31274248  0.30017121  0.63171756  1
  Ti  Ti144  1  0.60587436  0.40643241  0.75606430  1
  Ti  Ti145  1  0.78689431  0.01859190  0.76822149  1
  Ti  Ti146  1  0.79768494  0.00876498  0.49004591  1
  Ti  Ti147  1  0.41350282  0.18753963  0.23851608  1
  Ti  Ti148  1  0.79860555  0.40623622  0.76390132  1
  Ti  Ti149  1  0.51182358  0.09729544  0.35631313  1
  Ti  Ti150  1  0.79073531  0.60199189  0.00570466  1
  Ti  Ti151  1  0.50511714  0.50034135  0.61605356  1
  Ti  Ti152  1  0.39443062  0.80517117  0.24040807  1
  Ti  Ti153  1  0.67587587  0.11658681  0.11198001  1
  Ti  Ti154  1  0.59634026  0.81021815  0.50083065  1
  Ti  Ti155  1  0.60849274  -0.00315037  0.50128090  1
  Ti  Ti156  1  0.09613982  0.69664767  0.38689729  1
  Ti  Ti157  1  0.40342070  0.80646210  0.52173937  1
  Ti  Ti158  1  0.40242155  0.38926652  0.49831828  1
  Ti  Ti159  1  0.90162417  0.30892084  0.87394647  1
  Mo  Mo160  1  0.79691352  0.61026571  0.49694556  1
  Mo  Mo161  1  0.30673743  0.89492563  0.63012622  1
  Mo  Mo162  1  0.89247252  0.30521533  0.13622033  1
  Mo  Mo163  1  0.78979382  0.19234475  0.49560395  1
  Mo  Mo164  1  0.20022733  0.59725216  -0.00233078  1
  Mo  Mo165  1  0.88857941  0.09011211  0.36428027  1
  Mo  Mo166  1  0.70250442  0.31238466  0.86279046  1
  Mo  Mo167  1  -0.00022555  0.20449257  -0.01112558  1
  Mo  Mo168  1  0.60420421  0.20033354  -0.01720021  1
  Mo  Mo169  1  0.30014377  0.69744896  0.61535429  1
  Mo  Mo170  1  0.58895218  0.00604022  0.01670054  1
  Mo  Mo171  1  0.69835614  0.90927012  0.13901449  1
  Mo  Mo172  1  0.89350537  0.49553196  0.89342302  1
  Mo  Mo173  1  0.79387965  0.60489801  0.23666297  1
  Mo  Mo174  1  0.79698178  0.79627567  0.77026192  1
  Mo  Mo175  1  0.20550431  0.80024291  -0.00217007  1
  Mo  Mo176  1  0.09978269  0.89804499  0.88534193  1
  Mo  Mo177  1  0.59411206  0.00574638  0.74116790  1
  Mo  Mo178  1  0.10113250  0.08680266  0.12044225  1
  Mo  Mo179  1  0.69300683  0.49628942  0.10183024  1
  Mo  Mo180  1  -0.00123300  0.59962215  0.25156062  1
  Mo  Mo181  1  0.30369591  0.89404081  0.13229894  1
  Mo  Mo182  1  0.70078105  0.70133723  0.10443315  1
  Mo  Mo183  1  0.10349134  0.89553975  0.39346216  1
  Mo  Mo184  1  0.50373640  0.70480620  0.61599337  1
  Mo  Mo185  1  0.50406833  0.49735237  0.11515919  1
  Mo  Mo186  1  0.20933680  -0.00551524  0.00621574  1
  Mo  Mo187  1  0.69296590  0.10431925  0.88693074  1
  Mo  Mo188  1  0.59872160  0.60221108  0.00108980  1
  Mo  Mo189  1  0.10584576  0.50168632  0.61017892  1
  Mo  Mo190  1  0.50839337  0.10073986  0.63613860  1
  Mo  Mo191  1  0.58968637  0.79158882  0.75904200  1
  Mo  Mo192  1  0.60557254  0.19407143  0.25564468  1
  Mo  Mo193  1  0.20287690  0.79533823  0.72273683  1
  Mo  Mo194  1  -0.00387439  0.60423135  0.49933969  1
  Mo  Mo195  1  0.50122965  0.09851360  0.12684235  1
  Mo  Mo196  1  0.59681998  0.60959524  0.50543864  1
  Mo  Mo197  1  0.60859395  0.40046316  -0.00551628  1
  Mo  Mo198  1  0.40261500  -0.00339006  0.25617764  1
  Mo  Mo199  1  0.59392256  0.40480940  0.25604804  1
