# generated using pymatgen
data_HfZrTaTiMo
_symmetry_space_group_name_H-M   'P 1'
_cell_length_a   15.85104337
_cell_length_b   15.82229721
_cell_length_c   15.40319200
_cell_angle_alpha   89.98555432
_cell_angle_beta   89.95625497
_cell_angle_gamma   90.03971243
_symmetry_Int_Tables_number   1
_chemical_formula_structural   HfZrTaTiMo
_chemical_formula_sum   'Hf40 Zr40 Ta40 Ti40 Mo40'
_cell_volume   3863.11713398
_cell_formula_units_Z   40
loop_
 _symmetry_equiv_pos_site_id
 _symmetry_equiv_pos_as_xyz
  1  'x, y, z'
loop_
 _atom_site_type_symbol
 _atom_site_label
 _atom_site_symmetry_multiplicity
 _atom_site_fract_x
 _atom_site_fract_y
 _atom_site_fract_z
 _atom_site_occupancy
  Hf  Hf0  1  0.89844058  0.28747362  0.62490766  1
  Hf  Hf1  1  0.50930119  0.90604458  0.86087041  1
  Hf  Hf2  1  -0.00418022  0.20686073  0.01145024  1
  Hf  Hf3  1  0.50797152  0.89214498  0.37173286  1
  Hf  Hf4  1  0.59858347  0.80118699  0.51702310  1
  Hf  Hf5  1  0.00063334  0.61648660  0.00492172  1
  Hf  Hf6  1  0.59641150  0.60678817  0.50590081  1
  Hf  Hf7  1  0.20200882  0.60294674  -0.00697425  1
  Hf  Hf8  1  0.19600020  -0.00550657  -0.00920455  1
  Hf  Hf9  1  0.20454978  0.80992225  0.24712096  1
  Hf  Hf10  1  0.18995298  0.18473140  0.50875481  1
  Hf  Hf11  1  0.40413080  0.40444835  0.73867644  1
  Hf  Hf12  1  0.51071678  0.29565017  0.38075188  1
  Hf  Hf13  1  0.91352033  0.71201920  0.86147427  1
  Hf  Hf14  1  0.80863531  0.40270830  0.48566566  1
  Hf  Hf15  1  0.61101810  -0.00491048  0.50647224  1
  Hf  Hf16  1  0.50254319  0.09678408  0.63416387  1
  Hf  Hf17  1  0.59841594  0.61489558  -0.00032938  1
  Hf  Hf18  1  0.89807881  0.70997259  0.35776448  1
  Hf  Hf19  1  0.60014030  0.79302921  0.73074798  1
  Hf  Hf20  1  0.40039029  0.60849323  0.26461502  1
  Hf  Hf21  1  0.81147408  -0.00993523  0.48908531  1
  Hf  Hf22  1  0.47275028  0.68614555  0.62834625  1
  Hf  Hf23  1  0.40657036  0.78722280  -0.00079463  1
  Hf  Hf24  1  0.70969822  0.70443489  0.86226211  1
  Hf  Hf25  1  0.29738317  0.10903945  0.11140747  1
  Hf  Hf26  1  0.40817146  0.20163205  -0.00245500  1
  Hf  Hf27  1  0.50141268  0.90081459  0.12560170  1
  Hf  Hf28  1  0.31233790  0.52296390  0.61741842  1
  Hf  Hf29  1  0.20521574  0.39745504  0.74435044  1
  Hf  Hf30  1  0.38209776  0.38752954  0.00904784  1
  Hf  Hf31  1  0.08990050  0.09744430  0.87752174  1
  Hf  Hf32  1  0.09242102  0.50028207  0.87648582  1
  Hf  Hf33  1  0.19480995  0.40259814  0.50458994  1
  Hf  Hf34  1  0.09879335  0.90618117  0.62351910  1
  Hf  Hf35  1  0.60011789  0.38318494  0.01538397  1
  Hf  Hf36  1  0.61258258  0.01260140  0.00945484  1
  Hf  Hf37  1  0.59781305  0.39734182  0.73623865  1
  Hf  Hf38  1  -0.00788653  0.81306855  0.50055807  1
  Hf  Hf39  1  0.89598549  0.09633558  0.12669159  1
  Zr  Zr40  1  0.69913740  0.29030422  0.60624203  1
  Zr  Zr41  1  -0.00436349  0.40079970  0.49462274  1
  Zr  Zr42  1  0.31114384  0.89477656  0.87466998  1
  Zr  Zr43  1  0.39628968  0.39527764  0.25414138  1
  Zr  Zr44  1  0.08718870  0.51299868  0.63138080  1
  Zr  Zr45  1  0.89118386  0.50222116  0.13645830  1
  Zr  Zr46  1  0.09075708  0.28892820  0.63160158  1
  Zr  Zr47  1  0.39178960  0.19571003  0.25746511  1
  Zr  Zr48  1  0.10151248  0.50640026  0.13654238  1
  Zr  Zr49  1  0.69823316  0.50260299  0.13544821  1
  Zr  Zr50  1  0.00152854  0.38118239  0.23582047  1
  Zr  Zr51  1  0.09987321  0.70533158  0.36433751  1
  Zr  Zr52  1  0.59487289  0.58948350  0.73854980  1
  Zr  Zr53  1  0.90046387  0.70240528  0.14598860  1
  Zr  Zr54  1  0.19674571  -0.00205019  0.75750935  1
  Zr  Zr55  1  0.69430583  0.49701332  0.36758002  1
  Zr  Zr56  1  0.30075075  0.89796499  0.11247956  1
  Zr  Zr57  1  0.51413696  0.09948598  0.37278166  1
  Zr  Zr58  1  0.78554026  0.19556595  0.00369246  1
  Zr  Zr59  1  0.39109405  -0.00733218  0.50017002  1
  Zr  Zr60  1  0.49220143  0.50419574  0.89117533  1
  Zr  Zr61  1  -0.00542278  0.59812386  0.48600220  1
  Zr  Zr62  1  0.79566500  0.39154649  0.75623263  1
  Zr  Zr63  1  0.19852313  0.60575093  0.75488301  1
  Zr  Zr64  1  0.39941809  0.40261666  0.50013118  1
  Zr  Zr65  1  0.49456634  0.50813960  0.12623482  1
  Zr  Zr66  1  0.28656512  0.49552230  0.13338943  1
  Zr  Zr67  1  0.71311446  0.90173454  0.85819550  1
  Zr  Zr68  1  0.39054857  -0.00249206  0.25615750  1
  Zr  Zr69  1  0.61268212  0.80553863  0.00436138  1
  Zr  Zr70  1  0.50428161  0.29396809  0.87055861  1
  Zr  Zr71  1  0.71498583  0.09806447  0.63393060  1
  Zr  Zr72  1  0.79358229  0.80155078  0.50547091  1
  Zr  Zr73  1  0.19108746  0.79962750  0.76050785  1
  Zr  Zr74  1  0.10399778  0.29917185  0.87657934  1
  Zr  Zr75  1  0.80716002  0.58983961  0.74038623  1
  Zr  Zr76  1  0.38833173  0.18738853  0.49428023  1
  Zr  Zr77  1  0.80119006  0.60551553  0.49854950  1
  Zr  Zr78  1  0.81641640  0.18539347  0.48384790  1
  Zr  Zr79  1  0.69720347  0.49428403  0.88544247  1
  Ta  Ta80  1  0.89887597  0.89898282  0.13307197  1
  Ta  Ta81  1  0.19390953  0.20078386  0.24800137  1
  Ta  Ta82  1  0.30319750  0.10856510  0.87543671  1
  Ta  Ta83  1  0.80055899  0.60793917  -0.00070684  1
  Ta  Ta84  1  0.00100527  0.02269490  0.51292324  1
  Ta  Ta85  1  0.30046071  0.69271665  0.12562885  1
  Ta  Ta86  1  0.19371163  0.00476870  0.24276655  1
  Ta  Ta87  1  0.09513832  0.28981295  0.37771119  1
  Ta  Ta88  1  0.91128976  0.70054998  0.63734411  1
  Ta  Ta89  1  0.61480983  -0.00800011  0.24260290  1
  Ta  Ta90  1  0.50035242  0.28904242  0.61314782  1
  Ta  Ta91  1  0.29389882  0.71362496  0.62068768  1
  Ta  Ta92  1  0.29937599  0.49443237  0.87847226  1
  Ta  Ta93  1  0.50662419  0.10160011  0.13229568  1
  Ta  Ta94  1  0.91579277  0.09579737  0.35298563  1
  Ta  Ta95  1  0.70351193  0.49531115  0.61230488  1
  Ta  Ta96  1  0.80267545  -0.00604074  -0.00236605  1
  Ta  Ta97  1  0.20073325  0.80907254  0.49871406  1
  Ta  Ta98  1  0.09553408  0.09960501  0.36690529  1
  Ta  Ta99  1  0.81336131  0.80280836  0.00511060  1
  Ta  Ta100  1  0.50032333  0.50828095  0.37847998  1
  Ta  Ta101  1  -0.00281534  0.39910675  0.01149182  1
  Ta  Ta102  1  0.60006266  0.79638842  0.24244809  1
  Ta  Ta103  1  0.80491329  0.39351698  0.00350375  1
  Ta  Ta104  1  0.28434004  0.29795220  0.37654894  1
  Ta  Ta105  1  -0.00433527  -0.01134035  0.00464002  1
  Ta  Ta106  1  0.70334177  0.10005425  0.36290852  1
  Ta  Ta107  1  0.71137570  0.90627068  0.64584834  1
  Ta  Ta108  1  0.39997434  0.79688444  0.25386952  1
  Ta  Ta109  1  -0.01435398  0.40641407  0.75019125  1
  Ta  Ta110  1  0.18475232  0.79161924  -0.00515301  1
  Ta  Ta111  1  0.41152365  0.00678229  -0.00987134  1
  Ta  Ta112  1  0.29064864  0.50382698  0.37420070  1
  Ta  Ta113  1  0.09808026  0.91638471  0.38145058  1
  Ta  Ta114  1  0.80528712  0.20180483  0.24897808  1
  Ta  Ta115  1  0.90091690  0.50146511  0.88779449  1
  Ta  Ta116  1  0.69743440  0.29136347  0.36907548  1
  Ta  Ta117  1  0.69155512  0.09833733  0.86416453  1
  Ta  Ta118  1  0.19864766  0.60806374  0.49256024  1
  Ta  Ta119  1  0.80528578  0.19745099  0.77038623  1
  Ti  Ti120  1  0.10746462  0.10323911  0.10965552  1
  Ti  Ti121  1  0.29919461  0.70568753  0.38236489  1
  Ti  Ti122  1  0.39660255  0.20251576  0.75193021  1
  Ti  Ti123  1  0.49069714  0.70027856  0.85784000  1
  Ti  Ti124  1  0.10281732  0.49781701  0.35695583  1
  Ti  Ti125  1  0.78633620  0.60684610  0.25904979  1
  Ti  Ti126  1  0.90681826  0.29089431  0.36463420  1
  Ti  Ti127  1  0.59879892  0.40144029  0.50206923  1
  Ti  Ti128  1  0.90319755  0.50019745  0.34642221  1
  Ti  Ti129  1  0.78474579  0.81625780  0.25387516  1
  Ti  Ti130  1  0.30213355  0.29142373  0.62238984  1
  Ti  Ti131  1  -0.01404866  0.18515196  0.75869559  1
  Ti  Ti132  1  0.01125041  0.81533485  0.24157034  1
  Ti  Ti133  1  0.30357962  0.08642188  0.64405562  1
  Ti  Ti134  1  0.47929784  0.90243086  0.64362186  1
  Ti  Ti135  1  0.20051391  0.00391877  0.50783470  1
  Ti  Ti136  1  0.59701093  0.39901290  0.24947072  1
  Ti  Ti137  1  0.01419772  -0.00108468  0.22853072  1
  Ti  Ti138  1  0.09716583  0.70468366  0.62038245  1
  Ti  Ti139  1  0.69261400  0.29166250  0.88211212  1
  Ti  Ti140  1  0.79819727  -0.00228169  0.25040151  1
  Ti  Ti141  1  0.90322840  0.30101001  0.88097262  1
  Ti  Ti142  1  0.50618351  0.09936255  0.86173074  1
  Ti  Ti143  1  0.30803973  0.69441467  0.87149916  1
  Ti  Ti144  1  0.60595122  0.20168617  0.74410932  1
  Ti  Ti145  1  0.39609251  0.80068759  0.49796554  1
  Ti  Ti146  1  0.50140384  0.28948730  0.13844329  1
  Ti  Ti147  1  0.68327098  0.70912011  0.36858436  1
  Ti  Ti148  1  0.10497509  0.69975035  0.14042917  1
  Ti  Ti149  1  0.49853219  0.69706645  0.13205755  1
  Ti  Ti150  1  0.00768542  0.19874595  0.22851385  1
  Ti  Ti151  1  0.29096813  0.90406270  0.37745349  1
  Ti  Ti152  1  0.91114065  0.90922840  0.35781179  1
  Ti  Ti153  1  0.70352542  0.29700458  0.14237837  1
  Ti  Ti154  1  0.20379317  0.19761656  0.74946099  1
  Ti  Ti155  1  0.13267136  0.30621826  0.11101781  1
  Ti  Ti156  1  0.70362723  0.70331588  0.13112482  1
  Ti  Ti157  1  0.90155330  0.90699957  0.64258726  1
  Ti  Ti158  1  0.82205742  0.01319568  0.76547952  1
  Ti  Ti159  1  0.91537283  0.89961573  0.86724080  1
  Mo  Mo160  1  0.60606157  0.19890935  0.23823312  1
  Mo  Mo161  1  0.20341183  0.60692789  0.26420443  1
  Mo  Mo162  1  -0.00198176  0.00255942  0.74983288  1
  Mo  Mo163  1  0.09595812  0.70404507  0.87618288  1
  Mo  Mo164  1  0.79846465  0.39113792  0.26444824  1
  Mo  Mo165  1  0.09850872  0.89939575  0.11671169  1
  Mo  Mo166  1  0.60117023  0.00244755  0.74046802  1
  Mo  Mo167  1  0.80805993  0.80328417  0.73762816  1
  Mo  Mo168  1  0.89677298  0.49595920  0.62710263  1
  Mo  Mo169  1  0.71117199  0.89738017  0.12703786  1
  Mo  Mo170  1  0.08354588  0.89076054  0.88551497  1
  Mo  Mo171  1  0.20647122  0.20373179  -0.00736179  1
  Mo  Mo172  1  0.70397428  0.09870518  0.14334293  1
  Mo  Mo173  1  0.70035108  0.90049343  0.36742502  1
  Mo  Mo174  1  0.09768044  0.09967538  0.64675356  1
  Mo  Mo175  1  0.00034851  0.80361094  0.01669523  1
  Mo  Mo176  1  0.00083785  0.19466780  0.49330460  1
  Mo  Mo177  1  0.30150108  0.29600798  0.85754489  1
  Mo  Mo178  1  0.39629319  0.60360348  -0.00748511  1
  Mo  Mo179  1  0.50119142  0.49405000  0.60404165  1
  Mo  Mo180  1  0.27510769  0.09258160  0.37039875  1
  Mo  Mo181  1  0.49789404  0.70656831  0.37925872  1
  Mo  Mo182  1  0.30041663  0.89715089  0.62273288  1
  Mo  Mo183  1  0.39425812  0.79956487  0.74810136  1
  Mo  Mo184  1  0.90571837  0.09684135  0.63382520  1
  Mo  Mo185  1  0.89123944  0.30042407  0.12638893  1
  Mo  Mo186  1  -0.00045705  0.60211473  0.25598634  1
  Mo  Mo187  1  0.19856271  0.39637594  -0.01501633  1
  Mo  Mo188  1  0.89651472  0.09686555  0.89335604  1
  Mo  Mo189  1  0.59769582  0.61046625  0.25507888  1
  Mo  Mo190  1  0.19606368  0.39278618  0.26727613  1
  Mo  Mo191  1  0.39391673  0.59973484  0.76253877  1
  Mo  Mo192  1  0.39485435  0.60948020  0.47823364  1
  Mo  Mo193  1  0.29739926  0.29585242  0.13705735  1
  Mo  Mo194  1  0.00403444  0.80490380  0.73543458  1
  Mo  Mo195  1  0.00012676  0.60067503  0.75406093  1
  Mo  Mo196  1  0.59949504  0.19742084  0.01717908  1
  Mo  Mo197  1  0.39846519  0.00715551  0.75928795  1
  Mo  Mo198  1  0.70609511  0.70125537  0.63260491  1
  Mo  Mo199  1  0.60517743  0.19623653  0.50029445  1
