# generated using pymatgen
data_HfZrTaTiMo
_symmetry_space_group_name_H-M   'P 1'
_cell_length_a   15.83943985
_cell_length_b   15.83424421
_cell_length_c   15.41072363
_cell_angle_alpha   90.01854477
_cell_angle_beta   89.99975948
_cell_angle_gamma   89.81856094
_symmetry_Int_Tables_number   1
_chemical_formula_structural   HfZrTaTiMo
_chemical_formula_sum   'Hf40 Zr40 Ta40 Ti40 Mo40'
_cell_volume   3865.07556809
_cell_formula_units_Z   40
loop_
 _symmetry_equiv_pos_site_id
 _symmetry_equiv_pos_as_xyz
  1  'x, y, z'
loop_
 _atom_site_type_symbol
 _atom_site_label
 _atom_site_symmetry_multiplicity
 _atom_site_fract_x
 _atom_site_fract_y
 _atom_site_fract_z
 _atom_site_occupancy
  Hf  Hf0  1  0.29352460  0.30392971  0.36338037  1
  Hf  Hf1  1  0.90531820  0.70118282  0.10571550  1
  Hf  Hf2  1  0.79822364  0.60760146  0.75340711  1
  Hf  Hf3  1  -0.00671455  0.19607057  0.50416362  1
  Hf  Hf4  1  0.58940942  0.41226893  0.77493764  1
  Hf  Hf5  1  0.79630305  0.20064532  0.24961351  1
  Hf  Hf6  1  0.01106551  0.79619459  -0.01418160  1
  Hf  Hf7  1  0.69793182  0.90410900  0.88329379  1
  Hf  Hf8  1  0.10542980  0.90036250  0.63586630  1
  Hf  Hf9  1  0.10303536  0.09312267  0.38552674  1
  Hf  Hf10  1  0.39676233  0.79991107  0.25745140  1
  Hf  Hf11  1  0.70236416  0.51303874  0.89196353  1
  Hf  Hf12  1  0.90813965  0.89274173  0.38681584  1
  Hf  Hf13  1  0.29868845  0.10190128  0.12388893  1
  Hf  Hf14  1  0.40839951  0.59901584  0.74940488  1
  Hf  Hf15  1  0.20999032  0.38169391  0.75717401  1
  Hf  Hf16  1  0.19497324  0.60721447  0.00048582  1
  Hf  Hf17  1  0.79926429  0.20010198  0.00640452  1
  Hf  Hf18  1  0.29460027  0.70117809  0.61615668  1
  Hf  Hf19  1  0.90318888  0.50178893  0.88087795  1
  Hf  Hf20  1  0.50463562  0.10124854  0.37079151  1
  Hf  Hf21  1  0.58694451  0.60885456  0.01040792  1
  Hf  Hf22  1  0.10455914  0.29967895  0.61788386  1
  Hf  Hf23  1  0.80341331  0.00058943  0.24256565  1
  Hf  Hf24  1  0.30128521  0.30427462  0.13291228  1
  Hf  Hf25  1  0.49656194  0.71918273  0.61873012  1
  Hf  Hf26  1  0.70372281  0.70202112  0.61587602  1
  Hf  Hf27  1  0.49746176  0.30586839  0.14380115  1
  Hf  Hf28  1  0.89748531  0.49824485  0.63182572  1
  Hf  Hf29  1  0.48857741  0.09208900  0.61739839  1
  Hf  Hf30  1  0.19818025  0.60671550  0.24102527  1
  Hf  Hf31  1  0.09575924  0.70015608  0.38305217  1
  Hf  Hf32  1  0.90469316  0.30145658  0.12252931  1
  Hf  Hf33  1  0.29183705  0.90429633  0.12311442  1
  Hf  Hf34  1  0.00184432  0.38506161  0.75772048  1
  Hf  Hf35  1  0.80714410  0.19838037  0.75362907  1
  Hf  Hf36  1  -0.00155973  0.40233342  0.50161790  1
  Hf  Hf37  1  0.30124855  0.70343567  0.86846942  1
  Hf  Hf38  1  0.48634313  0.30373260  0.64015236  1
  Hf  Hf39  1  0.00363100  -0.01505078  0.24987836  1
  Zr  Zr40  1  0.69061806  0.89256196  0.61553218  1
  Zr  Zr41  1  0.09024641  0.90845856  0.86091967  1
  Zr  Zr42  1  0.00562490  0.79734258  0.51216567  1
  Zr  Zr43  1  0.81654186  0.79626109  0.25229544  1
  Zr  Zr44  1  0.69517097  0.09708137  0.88605463  1
  Zr  Zr45  1  0.69298261  0.30753998  0.64060118  1
  Zr  Zr46  1  0.59664114  -0.00845180  0.24090473  1
  Zr  Zr47  1  0.31752421  0.89812566  0.61337155  1
  Zr  Zr48  1  0.60168175  0.59075346  0.49108243  1
  Zr  Zr49  1  0.70413516  0.90137206  0.38283012  1
  Zr  Zr50  1  -0.00654233  0.41282375  0.24658236  1
  Zr  Zr51  1  0.80444132  -0.00140370  0.74396881  1
  Zr  Zr52  1  0.40942583  0.39485946  0.48368236  1
  Zr  Zr53  1  0.10031118  0.10255497  0.88841555  1
  Zr  Zr54  1  0.29753956  0.70374030  0.12720927  1
  Zr  Zr55  1  0.00393284  0.17840518  0.73594844  1
  Zr  Zr56  1  0.79112051  0.20456038  0.49729446  1
  Zr  Zr57  1  0.59694152  0.20943001  0.49963189  1
  Zr  Zr58  1  0.39978217  0.59049660  0.00139523  1
  Zr  Zr59  1  0.58311773  0.21275090  0.00078155  1
  Zr  Zr60  1  0.21006492  0.40312059  -0.01056156  1
  Zr  Zr61  1  0.10207202  0.09027224  0.11656459  1
  Zr  Zr62  1  0.70288662  0.30459324  0.88116892  1
  Zr  Zr63  1  0.90778407  0.07495297  0.89507566  1
  Zr  Zr64  1  -0.00405940  0.19334952  0.25250286  1
  Zr  Zr65  1  0.39547177  0.59533507  0.49434192  1
  Zr  Zr66  1  0.59877016  0.79462061  0.25075609  1
  Zr  Zr67  1  0.10038793  0.50716019  0.86206693  1
  Zr  Zr68  1  0.41190657  0.79797117  0.00633085  1
  Zr  Zr69  1  0.50510155  0.49759064  0.62608884  1
  Zr  Zr70  1  0.70308043  0.70337218  0.11475775  1
  Zr  Zr71  1  0.40247812  0.00013227  -0.00396125  1
  Zr  Zr72  1  0.80773571  0.59347307  0.23573861  1
  Zr  Zr73  1  0.48749564  0.11108113  0.87614706  1
  Zr  Zr74  1  0.10611721  0.50569627  0.37847424  1
  Zr  Zr75  1  0.20891312  0.01822245  0.74153481  1
  Zr  Zr76  1  0.89472065  0.51947306  0.38785767  1
  Zr  Zr77  1  0.10322025  0.30321258  0.37236449  1
  Zr  Zr78  1  0.58897365  -0.00425235  0.74431536  1
  Zr  Zr79  1  0.88846119  0.88833738  0.62552557  1
  Ta  Ta80  1  0.60045199  0.80109797  0.75540621  1
  Ta  Ta81  1  0.10523447  0.29925012  0.12270281  1
  Ta  Ta82  1  0.49455840  0.10563635  0.13314900  1
  Ta  Ta83  1  0.10668750  0.50320434  0.63277380  1
  Ta  Ta84  1  0.39587938  -0.00386796  0.25709923  1
  Ta  Ta85  1  0.71755904  0.68915591  0.38336987  1
  Ta  Ta86  1  0.20437281  0.20273461  -0.00447956  1
  Ta  Ta87  1  0.00063165  0.61501047  0.23827968  1
  Ta  Ta88  1  0.21139526  0.40459868  0.50903623  1
  Ta  Ta89  1  0.38311329  0.00501379  0.47651098  1
  Ta  Ta90  1  0.69667442  0.10357798  0.36908432  1
  Ta  Ta91  1  0.79691140  0.40157137  0.24851992  1
  Ta  Ta92  1  0.80012741  0.00833597  0.50432058  1
  Ta  Ta93  1  0.00977449  0.39650982  -0.00269828  1
  Ta  Ta94  1  0.80520402  0.80403544  -0.01456293  1
  Ta  Ta95  1  0.10170600  0.49787815  0.12499109  1
  Ta  Ta96  1  0.90281552  0.69353714  0.87626032  1
  Ta  Ta97  1  0.00117151  0.00244171  0.51558223  1
  Ta  Ta98  1  0.90491084  0.89956103  0.10802135  1
  Ta  Ta99  1  0.10301544  0.89022479  0.12192307  1
  Ta  Ta100  1  0.78764883  0.40322937  0.49319904  1
  Ta  Ta101  1  0.37718433  0.19264552  0.73902322  1
  Ta  Ta102  1  0.59483491  0.79544814  0.48225028  1
  Ta  Ta103  1  0.41178551  0.39406381  -0.01231586  1
  Ta  Ta104  1  0.39735611  -0.00138664  0.75894546  1
  Ta  Ta105  1  0.09775998  0.69863218  0.84963993  1
  Ta  Ta106  1  0.69332577  0.30656272  0.13155300  1
  Ta  Ta107  1  0.50628938  0.70586549  0.86872977  1
  Ta  Ta108  1  0.69954198  0.49676841  0.11879845  1
  Ta  Ta109  1  0.59015633  0.40948246  0.00229751  1
  Ta  Ta110  1  0.00385682  0.60361391  0.52054368  1
  Ta  Ta111  1  0.89146018  0.30623769  0.37683818  1
  Ta  Ta112  1  0.69226595  0.10329472  0.12289781  1
  Ta  Ta113  1  0.70265759  0.49867231  0.62970769  1
  Ta  Ta114  1  0.20397736  -0.00760071  0.26833823  1
  Ta  Ta115  1  0.30366293  0.48852105  0.63376722  1
  Ta  Ta116  1  0.21134395  0.19263264  0.50629276  1
  Ta  Ta117  1  0.29407047  0.50392890  0.36607868  1
  Ta  Ta118  1  0.39436946  0.20088198  0.49271851  1
  Ta  Ta119  1  0.89222968  0.30300136  0.62085922  1
  Ti  Ti120  1  0.51606919  0.30068387  0.35289714  1
  Ti  Ti121  1  0.49418669  0.89969064  0.38570044  1
  Ti  Ti122  1  0.19692981  0.19426376  0.25009341  1
  Ti  Ti123  1  0.41178465  0.81614227  0.75935449  1
  Ti  Ti124  1  0.90222431  0.09280301  0.11274748  1
  Ti  Ti125  1  0.59122327  0.80739830  0.00735593  1
  Ti  Ti126  1  0.89566155  0.09491428  0.37991381  1
  Ti  Ti127  1  0.80278119  0.39818251  0.76074686  1
  Ti  Ti128  1  -0.01812012  0.79649630  0.75313966  1
  Ti  Ti129  1  0.20392170  0.81223226  0.48933632  1
  Ti  Ti130  1  0.49697139  0.50361113  0.14182225  1
  Ti  Ti131  1  0.91689439  0.28591918  0.89098975  1
  Ti  Ti132  1  0.39917998  0.40935267  0.25911182  1
  Ti  Ti133  1  0.60175302  0.60095620  0.24581557  1
  Ti  Ti134  1  0.89174138  0.69837131  0.62243985  1
  Ti  Ti135  1  0.69707128  0.10312956  0.62623933  1
  Ti  Ti136  1  0.70627570  0.90094074  0.11386329  1
  Ti  Ti137  1  0.59254672  0.19973852  0.75410794  1
  Ti  Ti138  1  0.60152887  0.60762059  0.75369177  1
  Ti  Ti139  1  0.29848498  0.90742722  0.87842314  1
  Ti  Ti140  1  0.19812537  0.80253867  -0.01254124  1
  Ti  Ti141  1  0.29452656  0.69651747  0.38307085  1
  Ti  Ti142  1  0.49808016  0.69121574  0.36943509  1
  Ti  Ti143  1  0.00729436  0.59601931  0.00783784  1
  Ti  Ti144  1  0.60495953  0.39658804  0.48868207  1
  Ti  Ti145  1  0.69918019  0.70498626  0.88403634  1
  Ti  Ti146  1  0.59734444  0.00095178  0.50017930  1
  Ti  Ti147  1  0.20565214  0.59872966  0.74342891  1
  Ti  Ti148  1  0.18709162  0.80491438  0.26096065  1
  Ti  Ti149  1  0.30907775  0.49799513  0.86390117  1
  Ti  Ti150  1  0.39708074  0.19387794  0.26166953  1
  Ti  Ti151  1  0.58975478  -0.00528874  0.01302559  1
  Ti  Ti152  1  0.31269935  0.28093241  0.88080353  1
  Ti  Ti153  1  0.20068313  0.19792319  0.74312872  1
  Ti  Ti154  1  0.50341223  0.50054669  0.35834334  1
  Ti  Ti155  1  0.69748757  0.49558683  0.36460667  1
  Ti  Ti156  1  0.80497372  0.40437174  0.00885790  1
  Ti  Ti157  1  0.21125429  0.80495378  0.75190969  1
  Ti  Ti158  1  0.10171057  0.69949968  0.63826334  1
  Ti  Ti159  1  0.30392216  0.49610733  0.13676900  1
  Mo  Mo160  1  0.60327773  0.40977439  0.24481035  1
  Mo  Mo161  1  0.10281422  0.29429075  0.88506995  1
  Mo  Mo162  1  0.79585232  0.79371354  0.77321422  1
  Mo  Mo163  1  0.20221195  -0.00715546  -0.00948158  1
  Mo  Mo164  1  0.39411659  0.39476260  0.76746528  1
  Mo  Mo165  1  0.89750823  0.89422045  0.87672739  1
  Mo  Mo166  1  0.69859851  0.30789543  0.35859335  1
  Mo  Mo167  1  0.19772016  -0.00278292  0.49295623  1
  Mo  Mo168  1  0.80001298  0.79341361  0.48669236  1
  Mo  Mo169  1  0.00355325  0.20271756  0.01107869  1
  Mo  Mo170  1  0.29809157  0.10424000  0.36498006  1
  Mo  Mo171  1  0.40066314  0.59775487  0.26070103  1
  Mo  Mo172  1  0.10505333  0.09703501  0.60989685  1
  Mo  Mo173  1  0.19932734  0.59934629  0.51760523  1
  Mo  Mo174  1  0.90371251  0.49889361  0.10608247  1
  Mo  Mo175  1  0.90411010  0.69672704  0.38752088  1
  Mo  Mo176  1  0.80106733  0.60059149  -0.00132983  1
  Mo  Mo177  1  0.49822737  0.50975657  0.87857656  1
  Mo  Mo178  1  0.10016812  0.70611614  0.12638408  1
  Mo  Mo179  1  0.49742230  0.90030878  0.60192711  1
  Mo  Mo180  1  0.79427284  -0.00249612  0.01689525  1
  Mo  Mo181  1  0.29658364  0.89496780  0.37523298  1
  Mo  Mo182  1  0.49061206  0.30161113  0.86314888  1
  Mo  Mo183  1  0.79970650  0.59486668  0.51202911  1
  Mo  Mo184  1  0.10120759  0.89830126  0.37883735  1
  Mo  Mo185  1  0.30266108  0.09825370  0.61173227  1
  Mo  Mo186  1  0.89561043  0.09925441  0.61753315  1
  Mo  Mo187  1  0.50288861  0.89739215  0.87727598  1
  Mo  Mo188  1  0.50093686  0.69631270  0.14796359  1
  Mo  Mo189  1  -0.00187210  -0.00533744  0.72942930  1
  Mo  Mo190  1  0.30194959  0.29808783  0.61834052  1
  Mo  Mo191  1  0.20131697  0.40479664  0.23738637  1
  Mo  Mo192  1  0.00049180  0.60680685  0.73454380  1
  Mo  Mo193  1  0.49825503  0.90312330  0.13063670  1
  Mo  Mo194  1  0.39478154  0.20860697  0.01160091  1
  Mo  Mo195  1  0.40168945  0.79850227  0.47584906  1
  Mo  Mo196  1  0.59992755  0.20001502  0.24591152  1
  Mo  Mo197  1  0.00320637  -0.00818749  0.01436717  1
  Mo  Mo198  1  0.29726233  0.10207489  0.88481012  1
  Mo  Mo199  1  0.00712415  0.79496278  0.24390916  1
