# generated using pymatgen
data_HfZrTaTiMo
_symmetry_space_group_name_H-M   'P 1'
_cell_length_a   15.83904860
_cell_length_b   15.83354110
_cell_length_c   15.40265453
_cell_angle_alpha   89.99550525
_cell_angle_beta   89.92440522
_cell_angle_gamma   90.03759459
_symmetry_Int_Tables_number   1
_chemical_formula_structural   HfZrTaTiMo
_chemical_formula_sum   'Hf40 Zr40 Ta40 Ti40 Mo40'
_cell_volume   3862.80021408
_cell_formula_units_Z   40
loop_
 _symmetry_equiv_pos_site_id
 _symmetry_equiv_pos_as_xyz
  1  'x, y, z'
loop_
 _atom_site_type_symbol
 _atom_site_label
 _atom_site_symmetry_multiplicity
 _atom_site_fract_x
 _atom_site_fract_y
 _atom_site_fract_z
 _atom_site_occupancy
  Hf  Hf0  1  0.48610785  0.70339124  0.88159845  1
  Hf  Hf1  1  0.49434718  0.09694198  0.35907488  1
  Hf  Hf2  1  0.01282287  0.79911184  0.00955878  1
  Hf  Hf3  1  0.18551608  0.61250665  -0.01400868  1
  Hf  Hf4  1  0.39950589  0.79503862  0.50539294  1
  Hf  Hf5  1  0.01095603  0.80985655  0.73685770  1
  Hf  Hf6  1  0.40504434  -0.00480388  0.51031071  1
  Hf  Hf7  1  0.19790643  0.79904060  0.49232444  1
  Hf  Hf8  1  0.49831121  0.09144114  0.87523466  1
  Hf  Hf9  1  0.89702213  0.09956971  0.12518923  1
  Hf  Hf10  1  0.59650061  0.19943482  0.49086676  1
  Hf  Hf11  1  0.08875720  0.09262452  0.87021979  1
  Hf  Hf12  1  0.81066512  0.59354453  0.73296602  1
  Hf  Hf13  1  0.79974958  0.39672730  0.74812208  1
  Hf  Hf14  1  0.70742899  0.90375019  0.61772557  1
  Hf  Hf15  1  0.09652630  0.10098654  0.14018464  1
  Hf  Hf16  1  0.20237610  -0.00367264  0.26723862  1
  Hf  Hf17  1  0.49775152  0.29904033  0.64647493  1
  Hf  Hf18  1  0.78419466  0.19119095  0.76352288  1
  Hf  Hf19  1  0.10680882  0.50319985  0.13877937  1
  Hf  Hf20  1  0.40800075  0.39219692  -0.00353192  1
  Hf  Hf21  1  0.69790402  0.69832200  0.87330391  1
  Hf  Hf22  1  0.09955428  0.30666293  0.61897469  1
  Hf  Hf23  1  0.20102752  -0.00640066  0.49805085  1
  Hf  Hf24  1  0.19819840  0.19603984  0.49826769  1
  Hf  Hf25  1  0.90812325  0.70030188  0.86856459  1
  Hf  Hf26  1  0.20299762  0.81497687  -0.00992223  1
  Hf  Hf27  1  0.40781384  0.20050055  0.50040261  1
  Hf  Hf28  1  0.59518294  0.39216036  0.50374932  1
  Hf  Hf29  1  0.89292448  0.70141866  0.36761401  1
  Hf  Hf30  1  0.51131987  0.89203537  0.87970473  1
  Hf  Hf31  1  0.30013646  0.49429451  0.60535036  1
  Hf  Hf32  1  0.50081037  0.88963016  0.10992521  1
  Hf  Hf33  1  0.30669127  0.09387655  0.64436906  1
  Hf  Hf34  1  0.50734694  0.50599764  0.88237137  1
  Hf  Hf35  1  0.40233514  0.79325629  0.24965332  1
  Hf  Hf36  1  0.88568899  0.09784852  0.60784015  1
  Hf  Hf37  1  0.10806479  0.52015940  0.61471551  1
  Hf  Hf38  1  0.51251550  0.10347312  0.64731348  1
  Hf  Hf39  1  0.90013763  0.50437909  0.88439123  1
  Zr  Zr40  1  0.49972864  0.49375357  0.38062951  1
  Zr  Zr41  1  0.80679853  0.79109853  0.00237730  1
  Zr  Zr42  1  0.60278966  0.60556658  0.24806003  1
  Zr  Zr43  1  -0.00493240  0.41498768  0.49505135  1
  Zr  Zr44  1  0.59715493  0.79727381  0.50099528  1
  Zr  Zr45  1  0.08463631  0.30196681  0.87142302  1
  Zr  Zr46  1  0.20072726  0.40584409  0.26022118  1
  Zr  Zr47  1  0.29933403  0.30280775  0.63069486  1
  Zr  Zr48  1  0.80533835  0.80423049  0.74477807  1
  Zr  Zr49  1  0.69921043  0.88702044  0.12099741  1
  Zr  Zr50  1  0.31963701  0.89173455  0.85274772  1
  Zr  Zr51  1  0.60421247  0.59417035  0.73962929  1
  Zr  Zr52  1  0.00282826  0.40587064  0.00316464  1
  Zr  Zr53  1  -0.02017202  0.20255615  0.74651259  1
  Zr  Zr54  1  0.29158104  0.30248191  0.12099812  1
  Zr  Zr55  1  0.80980146  -0.00070933  0.76130459  1
  Zr  Zr56  1  0.19698181  0.19305417  -0.00979331  1
  Zr  Zr57  1  0.69714776  0.09674752  0.36290088  1
  Zr  Zr58  1  0.39851317  0.19769532  -0.00462928  1
  Zr  Zr59  1  0.79165915  0.59676579  0.24323750  1
  Zr  Zr60  1  0.19807825  0.41903500  0.76484861  1
  Zr  Zr61  1  -0.00674925  0.60814365  0.01971910  1
  Zr  Zr62  1  -0.00937663  0.41616916  0.73949076  1
  Zr  Zr63  1  0.09018309  0.09784211  0.62546692  1
  Zr  Zr64  1  0.19842324  0.77233859  0.75058452  1
  Zr  Zr65  1  0.59842476  -0.00742418  0.24184819  1
  Zr  Zr66  1  0.50595219  0.49813654  0.11689071  1
  Zr  Zr67  1  0.88747244  0.30281256  0.11957864  1
  Zr  Zr68  1  0.38393825  0.60592308  0.74336508  1
  Zr  Zr69  1  0.30953151  0.30856714  0.38828916  1
  Zr  Zr70  1  0.18528780  -0.01970749  0.74875626  1
  Zr  Zr71  1  0.59995844  -0.00198223  0.50072183  1
  Zr  Zr72  1  0.70090288  0.10761682  0.11435967  1
  Zr  Zr73  1  0.62401820  0.00357717  0.76216686  1
  Zr  Zr74  1  0.30281080  0.70427585  0.11536554  1
  Zr  Zr75  1  0.39781443  0.20213974  0.24471272  1
  Zr  Zr76  1  0.38051363  -0.00494176  0.00431149  1
  Zr  Zr77  1  0.89803521  0.09782904  0.36704655  1
  Zr  Zr78  1  0.90440677  0.90188582  0.14133079  1
  Zr  Zr79  1  0.30374474  0.50226090  0.38862473  1
  Ta  Ta80  1  0.88597431  0.30516818  0.60573176  1
  Ta  Ta81  1  0.09544216  0.30553145  0.37807662  1
  Ta  Ta82  1  0.69640344  0.30634308  0.36704236  1
  Ta  Ta83  1  0.69482471  0.28702502  0.63198760  1
  Ta  Ta84  1  0.60536083  0.39868532  0.75555054  1
  Ta  Ta85  1  0.10618835  0.90057376  0.14596337  1
  Ta  Ta86  1  -0.00406464  0.21014214  0.25812959  1
  Ta  Ta87  1  0.50416159  0.09917379  0.11535913  1
  Ta  Ta88  1  0.40295113  0.40719480  0.76275065  1
  Ta  Ta89  1  0.19654596  0.40739601  -0.00962004  1
  Ta  Ta90  1  0.70506979  0.69738823  0.61564383  1
  Ta  Ta91  1  0.29862620  0.30519590  0.87286375  1
  Ta  Ta92  1  0.30734379  0.51381908  0.89274878  1
  Ta  Ta93  1  0.19859075  0.19903133  0.75956153  1
  Ta  Ta94  1  0.90630378  0.90201523  0.60175801  1
  Ta  Ta95  1  0.89081040  0.30562618  0.37890755  1
  Ta  Ta96  1  0.70391744  0.49955050  0.38765931  1
  Ta  Ta97  1  -0.00646237  0.20304139  0.49095471  1
  Ta  Ta98  1  0.00563468  -0.00470985  0.48405031  1
  Ta  Ta99  1  -0.00192354  0.59499061  0.25398486  1
  Ta  Ta100  1  0.80287041  0.79547043  0.49451251  1
  Ta  Ta101  1  0.29189909  0.09594772  0.13431504  1
  Ta  Ta102  1  0.40540632  0.40367555  0.23901584  1
  Ta  Ta103  1  0.89593463  0.10163015  0.90106595  1
  Ta  Ta104  1  0.61031681  0.60424079  0.00757747  1
  Ta  Ta105  1  0.39841402  0.59948860  0.24703016  1
  Ta  Ta106  1  0.90992078  0.90570280  0.88700940  1
  Ta  Ta107  1  0.60355350  0.20740906  -0.01748135  1
  Ta  Ta108  1  0.00961614  -0.00418519  0.00724396  1
  Ta  Ta109  1  0.39557562  -0.00739972  0.23605395  1
  Ta  Ta110  1  0.90264416  0.89472355  0.36719314  1
  Ta  Ta111  1  0.09625673  0.70464870  0.36097599  1
  Ta  Ta112  1  0.51843100  0.29379573  0.12981858  1
  Ta  Ta113  1  0.09544747  0.30054822  0.13469925  1
  Ta  Ta114  1  0.30132960  0.50600977  0.11423408  1
  Ta  Ta115  1  0.09750773  0.10541371  0.37005713  1
  Ta  Ta116  1  0.10326759  0.70791836  0.15024132  1
  Ta  Ta117  1  0.50105193  0.89540607  0.36520871  1
  Ta  Ta118  1  0.79362202  0.20959104  0.25065845  1
  Ta  Ta119  1  0.78866672  0.20397916  0.49156380  1
  Ti  Ti120  1  0.01918521  0.61195081  0.74639171  1
  Ti  Ti121  1  0.60687898  0.79791100  0.74622983  1
  Ti  Ti122  1  0.30350205  0.89010182  0.63520445  1
  Ti  Ti123  1  0.20995108  0.60640488  0.26228181  1
  Ti  Ti124  1  0.89589210  0.49523316  0.12709046  1
  Ti  Ti125  1  0.70759043  0.49807032  0.88328498  1
  Ti  Ti126  1  0.18980756  0.60570350  0.47346460  1
  Ti  Ti127  1  -0.00638847  0.40223072  0.25694874  1
  Ti  Ti128  1  0.49670457  0.49701758  0.62236061  1
  Ti  Ti129  1  0.89625732  0.70929280  0.14885775  1
  Ti  Ti130  1  0.50442351  0.69845627  0.37418809  1
  Ti  Ti131  1  0.20944949  0.80162110  0.26505555  1
  Ti  Ti132  1  0.30452449  0.09846544  0.37377843  1
  Ti  Ti133  1  0.89153083  0.49896184  0.37607521  1
  Ti  Ti134  1  0.50175075  0.69929570  0.63017323  1
  Ti  Ti135  1  0.39705844  0.20108905  0.77129152  1
  Ti  Ti136  1  0.79598041  -0.00576097  0.48385973  1
  Ti  Ti137  1  -0.00015713  0.60660197  0.48618226  1
  Ti  Ti138  1  0.19613862  -0.00147921  -0.00290916  1
  Ti  Ti139  1  0.79554108  0.40126514  0.25202839  1
  Ti  Ti140  1  0.28384067  0.68488131  0.61131655  1
  Ti  Ti141  1  0.91103552  0.69834914  0.61524978  1
  Ti  Ti142  1  0.80594854  0.59615451  0.50566069  1
  Ti  Ti143  1  0.70313674  0.48516664  0.11641968  1
  Ti  Ti144  1  0.60329600  0.60077939  0.50405163  1
  Ti  Ti145  1  0.70753868  0.48999891  0.61130145  1
  Ti  Ti146  1  0.70036887  0.88079444  0.36530217  1
  Ti  Ti147  1  0.19829980  0.20431266  0.26057725  1
  Ti  Ti148  1  0.31289325  0.89894240  0.37626845  1
  Ti  Ti149  1  0.40742887  0.60641027  0.49965346  1
  Ti  Ti150  1  0.60435384  0.39861320  0.25115599  1
  Ti  Ti151  1  0.88456742  0.30064419  0.89375109  1
  Ti  Ti152  1  0.49686737  0.90047109  0.64884177  1
  Ti  Ti153  1  -0.00031249  0.20122923  0.00769776  1
  Ti  Ti154  1  0.00549131  0.79968518  0.49484227  1
  Ti  Ti155  1  0.50969617  0.70468840  0.11514618  1
  Ti  Ti156  1  0.61225355  0.38871728  -0.01042231  1
  Ti  Ti157  1  -0.00794235  -0.00555426  0.74529053  1
  Ti  Ti158  1  0.79710026  -0.00557714  0.25235411  1
  Ti  Ti159  1  0.79782544  0.59940900  0.01584794  1
  Mo  Mo160  1  0.79246800  0.40716883  -0.00267327  1
  Mo  Mo161  1  0.60507989  0.79398716  -0.01161332  1
  Mo  Mo162  1  0.30569221  0.69683847  0.37657521  1
  Mo  Mo163  1  0.80426662  -0.00392645  -0.00395977  1
  Mo  Mo164  1  0.70595631  0.89840468  0.89636491  1
  Mo  Mo165  1  0.19716557  0.59972137  0.76398353  1
  Mo  Mo166  1  0.90055027  0.50980092  0.61296334  1
  Mo  Mo167  1  0.60271837  0.20366158  0.76986823  1
  Mo  Mo168  1  0.39990826  0.79791017  0.01011037  1
  Mo  Mo169  1  0.29144385  0.90252516  0.13447606  1
  Mo  Mo170  1  0.69475653  0.30584391  0.13373978  1
  Mo  Mo171  1  0.70338468  0.09743419  0.90239797  1
  Mo  Mo172  1  0.50223030  0.30233310  0.86431825  1
  Mo  Mo173  1  0.19345257  0.40179220  0.48838577  1
  Mo  Mo174  1  0.09773378  0.89771255  0.37021765  1
  Mo  Mo175  1  0.79373528  0.20763366  -0.00408150  1
  Mo  Mo176  1  0.40342420  -0.00284901  0.74471255  1
  Mo  Mo177  1  0.60011027  0.20536896  0.24985053  1
  Mo  Mo178  1  0.09647892  0.69704470  0.60217841  1
  Mo  Mo179  1  0.69695015  0.69843985  0.11784377  1
  Mo  Mo180  1  0.09258325  0.90331533  0.87839898  1
  Mo  Mo181  1  0.60294368  0.00083357  -0.00348976  1
  Mo  Mo182  1  0.09322950  0.89597501  0.60461083  1
  Mo  Mo183  1  0.30633832  0.69941891  0.88851744  1
  Mo  Mo184  1  0.09388159  0.70543248  0.87510005  1
  Mo  Mo185  1  0.40364647  0.79072987  0.72718981  1
  Mo  Mo186  1  0.79291973  0.79514811  0.26183892  1
  Mo  Mo187  1  0.40865739  0.39953884  0.51519214  1
  Mo  Mo188  1  0.00221352  0.00251853  0.26353715  1
  Mo  Mo189  1  0.09383976  0.50829330  0.36542614  1
  Mo  Mo190  1  0.00292907  0.80008502  0.25211345  1
  Mo  Mo191  1  0.69952443  0.30409198  0.86786244  1
  Mo  Mo192  1  0.69802796  0.69168581  0.39798573  1
  Mo  Mo193  1  0.40425661  0.59942536  0.01209042  1
  Mo  Mo194  1  0.29404620  0.09984142  0.85805084  1
  Mo  Mo195  1  0.50575942  0.30406193  0.35337223  1
  Mo  Mo196  1  0.09756432  0.51036403  0.87023135  1
  Mo  Mo197  1  0.79174078  0.40036109  0.50050942  1
  Mo  Mo198  1  0.70437927  0.10483522  0.61313512  1
  Mo  Mo199  1  0.59985324  0.78998757  0.26290601  1
