# generated using pymatgen
data_HfZrTaTiMo
_symmetry_space_group_name_H-M   'P 1'
_cell_length_a   15.83882481
_cell_length_b   15.82348385
_cell_length_c   15.40310336
_cell_angle_alpha   90.05520922
_cell_angle_beta   90.07033702
_cell_angle_gamma   89.89874363
_symmetry_Int_Tables_number   1
_chemical_formula_structural   HfZrTaTiMo
_chemical_formula_sum   'Hf40 Zr40 Ta40 Ti40 Mo40'
_cell_volume   3860.39804142
_cell_formula_units_Z   40
loop_
 _symmetry_equiv_pos_site_id
 _symmetry_equiv_pos_as_xyz
  1  'x, y, z'
loop_
 _atom_site_type_symbol
 _atom_site_label
 _atom_site_symmetry_multiplicity
 _atom_site_fract_x
 _atom_site_fract_y
 _atom_site_fract_z
 _atom_site_occupancy
  Hf  Hf0  1  0.69335481  0.89215553  0.10946254  1
  Hf  Hf1  1  0.10262587  0.07995345  0.85949290  1
  Hf  Hf2  1  0.51685375  0.11002615  0.37570115  1
  Hf  Hf3  1  0.29273531  0.49966995  0.12240530  1
  Hf  Hf4  1  0.10828960  0.30130984  0.39004968  1
  Hf  Hf5  1  0.20638860  0.81045973  -0.01351008  1
  Hf  Hf6  1  0.90057606  0.88818189  0.38130759  1
  Hf  Hf7  1  0.08566729  0.70918244  0.86189541  1
  Hf  Hf8  1  0.40557383  0.00344661  0.73359797  1
  Hf  Hf9  1  0.09715735  0.30062701  0.63278361  1
  Hf  Hf10  1  0.70135649  0.50229897  0.62762096  1
  Hf  Hf11  1  0.40924925  0.80400317  -0.00860484  1
  Hf  Hf12  1  0.78992360  0.59829445  0.01299060  1
  Hf  Hf13  1  0.29987601  0.29020971  0.87114778  1
  Hf  Hf14  1  0.01278048  0.80052101  0.01436341  1
  Hf  Hf15  1  0.59106208  0.40149449  0.50030239  1
  Hf  Hf16  1  0.00092856  -0.00025623  0.51068692  1
  Hf  Hf17  1  0.69212868  0.10275259  0.88791025  1
  Hf  Hf18  1  0.49797456  0.29976166  0.13927801  1
  Hf  Hf19  1  0.90873995  0.31154227  0.11327572  1
  Hf  Hf20  1  0.09601616  0.51140307  0.37454555  1
  Hf  Hf21  1  0.50016475  0.89286229  0.37532198  1
  Hf  Hf22  1  0.89616262  0.09548821  0.88427497  1
  Hf  Hf23  1  0.11359761  0.10094370  0.37023937  1
  Hf  Hf24  1  0.59803576  0.39466197  0.74742106  1
  Hf  Hf25  1  0.00227175  0.19224187  0.50958103  1
  Hf  Hf26  1  0.40460858  0.40075701  -0.01496018  1
  Hf  Hf27  1  0.00011981  -0.00019172  0.24097626  1
  Hf  Hf28  1  0.30206209  0.09150337  0.87140264  1
  Hf  Hf29  1  0.13295651  0.90430878  0.14036006  1
  Hf  Hf30  1  0.00240969  0.20791225  0.24185897  1
  Hf  Hf31  1  0.39674228  0.60259476  -0.01109021  1
  Hf  Hf32  1  0.59033388  0.60135834  0.50193407  1
  Hf  Hf33  1  0.00120137  0.79613882  0.23898254  1
  Hf  Hf34  1  0.30384266  0.88937149  0.62777978  1
  Hf  Hf35  1  0.30231897  0.29860237  0.11766153  1
  Hf  Hf36  1  0.90249392  0.30327730  0.87381146  1
  Hf  Hf37  1  0.68931968  0.28422138  0.36971110  1
  Hf  Hf38  1  0.69608411  0.09400720  0.12140818  1
  Hf  Hf39  1  0.09413499  0.50296645  0.63758021  1
  Zr  Zr40  1  0.20667876  0.59856403  0.76298090  1
  Zr  Zr41  1  0.91381087  0.89729860  0.87913641  1
  Zr  Zr42  1  0.49734986  0.49572636  0.14213415  1
  Zr  Zr43  1  0.89313093  0.30183634  0.62618729  1
  Zr  Zr44  1  0.79074097  -0.00473509  0.74673463  1
  Zr  Zr45  1  0.18405952  0.39875122  -0.01139434  1
  Zr  Zr46  1  0.38402948  -0.00031308  0.26016647  1
  Zr  Zr47  1  0.89316347  0.70009449  0.88409367  1
  Zr  Zr48  1  0.38634498  0.61853535  0.24880644  1
  Zr  Zr49  1  0.01126276  0.20129788  0.00851325  1
  Zr  Zr50  1  0.79647359  0.40330998  0.24635945  1
  Zr  Zr51  1  0.30047721  0.30039976  0.62186750  1
  Zr  Zr52  1  0.19987397  0.18937269  0.00490602  1
  Zr  Zr53  1  0.00346773  0.79002996  0.51072879  1
  Zr  Zr54  1  -0.00653500  0.40538660  0.26495118  1
  Zr  Zr55  1  0.10853045  0.89914558  0.37112304  1
  Zr  Zr56  1  0.19983024  0.01351171  0.51979048  1
  Zr  Zr57  1  0.69959181  0.49587976  0.37885781  1
  Zr  Zr58  1  -0.01266698  0.41024792  0.49745411  1
  Zr  Zr59  1  0.60958868  0.82036798  0.75302453  1
  Zr  Zr60  1  0.59505636  0.60514103  0.01115884  1
  Zr  Zr61  1  0.89849369  0.10917938  0.37222273  1
  Zr  Zr62  1  0.42011228  0.19128909  0.74483696  1
  Zr  Zr63  1  0.79837553  0.60421161  0.24854274  1
  Zr  Zr64  1  0.10656250  0.69830338  0.36973638  1
  Zr  Zr65  1  0.51682017  0.90104783  0.61196180  1
  Zr  Zr66  1  0.79449053  0.41012337  0.00201394  1
  Zr  Zr67  1  0.39817210  0.59373455  0.50561717  1
  Zr  Zr68  1  0.68026232  0.09743835  0.61034668  1
  Zr  Zr69  1  0.70412820  0.70204100  0.62549362  1
  Zr  Zr70  1  0.71016548  0.90072087  0.89875105  1
  Zr  Zr71  1  0.79950618  -0.00705915  0.25064932  1
  Zr  Zr72  1  0.69911817  0.29895510  0.87712374  1
  Zr  Zr73  1  0.40064737  0.40403178  0.75297604  1
  Zr  Zr74  1  0.09304241  0.28986233  0.85067420  1
  Zr  Zr75  1  0.19832856  0.60363963  -0.01386118  1
  Zr  Zr76  1  0.40481822  0.00644884  0.50187683  1
  Zr  Zr77  1  0.21026049  0.19941920  0.24472469  1
  Zr  Zr78  1  0.61173053  0.79099712  0.25665445  1
  Zr  Zr79  1  0.29198123  0.50032166  0.37519126  1
  Ta  Ta80  1  0.50499339  0.51103607  0.86098311  1
  Ta  Ta81  1  0.49672108  0.49711612  0.35829014  1
  Ta  Ta82  1  0.40970002  0.18552637  0.00152339  1
  Ta  Ta83  1  0.70699166  0.89861734  0.60024494  1
  Ta  Ta84  1  0.79996167  0.20082846  0.23702088  1
  Ta  Ta85  1  0.00252369  0.59293519  0.00564794  1
  Ta  Ta86  1  0.30362617  0.70180186  0.63807876  1
  Ta  Ta87  1  0.69822711  0.70367240  0.87647217  1
  Ta  Ta88  1  0.20105101  0.40323998  0.75503185  1
  Ta  Ta89  1  0.79723902  0.20251408  0.01401028  1
  Ta  Ta90  1  0.79011655  0.19710073  0.74588044  1
  Ta  Ta91  1  0.50823175  0.29153593  0.61726290  1
  Ta  Ta92  1  0.39519906  0.19869040  0.26495933  1
  Ta  Ta93  1  0.29980788  0.89408709  0.39219337  1
  Ta  Ta94  1  0.80993150  0.79562151  0.74355310  1
  Ta  Ta95  1  0.20245320  0.41083756  0.51293808  1
  Ta  Ta96  1  0.40089759  0.20281671  0.49440651  1
  Ta  Ta97  1  0.90118677  0.69950522  0.12091911  1
  Ta  Ta98  1  0.69787014  0.51266998  0.86028654  1
  Ta  Ta99  1  0.50795655  0.70384573  0.85783405  1
  Ta  Ta100  1  0.09441532  0.49488346  0.13064201  1
  Ta  Ta101  1  0.68955395  0.30483539  0.13062604  1
  Ta  Ta102  1  0.49862614  0.69415584  0.36696740  1
  Ta  Ta103  1  0.80843816  0.60249370  0.49084583  1
  Ta  Ta104  1  0.49560090  0.69670001  0.64675335  1
  Ta  Ta105  1  0.79875488  0.00205985  0.48905701  1
  Ta  Ta106  1  -0.00337323  0.60471455  0.51334171  1
  Ta  Ta107  1  0.23216895  0.79519886  0.25517513  1
  Ta  Ta108  1  0.70061561  0.29791920  0.61873285  1
  Ta  Ta109  1  0.80017768  0.79309577  0.24270210  1
  Ta  Ta110  1  0.49502866  0.90016589  0.13410308  1
  Ta  Ta111  1  0.07942136  0.49781507  0.86022531  1
  Ta  Ta112  1  0.29699264  0.90677206  0.85922230  1
  Ta  Ta113  1  0.57692804  0.00202339  0.00334507  1
  Ta  Ta114  1  0.60345682  -0.00279079  0.25571494  1
  Ta  Ta115  1  0.59223483  0.20182113  0.01359657  1
  Ta  Ta116  1  0.59832274  0.40710053  -0.00404525  1
  Ta  Ta117  1  0.01933640  -0.00418246  0.00892887  1
  Ta  Ta118  1  0.80086535  0.40351620  0.75053747  1
  Ta  Ta119  1  0.89241409  0.89249232  0.61643674  1
  Ti  Ti120  1  0.60266142  0.78920358  0.49135460  1
  Ti  Ti121  1  0.20049119  0.60329055  0.24599037  1
  Ti  Ti122  1  0.30331013  0.50556676  0.63291986  1
  Ti  Ti123  1  0.29666255  0.08146228  0.12102305  1
  Ti  Ti124  1  0.88577962  0.30596702  0.38469632  1
  Ti  Ti125  1  0.38616260  0.39330148  0.26027296  1
  Ti  Ti126  1  0.90588110  0.69095891  0.36687085  1
  Ti  Ti127  1  0.40491134  0.78450951  0.50110730  1
  Ti  Ti128  1  0.39218272  -0.00573803  0.00418110  1
  Ti  Ti129  1  0.19868885  0.60625708  0.51282126  1
  Ti  Ti130  1  0.49858062  0.30367448  0.36893618  1
  Ti  Ti131  1  0.50926961  0.28710577  0.87716060  1
  Ti  Ti132  1  0.20315657  0.79146723  0.50673093  1
  Ti  Ti133  1  0.10084869  0.70301940  0.64017068  1
  Ti  Ti134  1  0.89644736  0.50330814  0.86997448  1
  Ti  Ti135  1  0.40228019  0.40469301  0.50352096  1
  Ti  Ti136  1  0.50366394  0.71277820  0.13089366  1
  Ti  Ti137  1  0.10855048  0.69198864  0.13030226  1
  Ti  Ti138  1  0.88906496  0.50511835  0.62963606  1
  Ti  Ti139  1  0.19507078  0.39347308  0.24754623  1
  Ti  Ti140  1  0.30170819  0.71352811  0.11578148  1
  Ti  Ti141  1  0.20613249  0.18094271  0.73008716  1
  Ti  Ti142  1  0.10044311  0.89658351  0.63813765  1
  Ti  Ti143  1  0.11152361  0.09337841  0.13234593  1
  Ti  Ti144  1  0.90699304  0.50420059  0.12420554  1
  Ti  Ti145  1  0.31455333  0.70927169  0.85456061  1
  Ti  Ti146  1  0.88632903  0.09366778  0.62420639  1
  Ti  Ti147  1  0.60877859  0.60070939  0.24470786  1
  Ti  Ti148  1  -0.00395878  -0.00917481  0.73737677  1
  Ti  Ti149  1  0.19648747  0.80747790  0.75557074  1
  Ti  Ti150  1  0.89987795  0.09587944  0.11480712  1
  Ti  Ti151  1  0.89331183  0.90146714  0.10956565  1
  Ti  Ti152  1  0.29521959  0.29829299  0.39073118  1
  Ti  Ti153  1  0.79273067  0.19759772  0.49799234  1
  Ti  Ti154  1  0.49507087  0.09821826  0.14110250  1
  Ti  Ti155  1  0.49664306  0.90817404  0.87161775  1
  Ti  Ti156  1  -0.02015143  0.60942563  0.74015412  1
  Ti  Ti157  1  -0.01279727  0.18603355  0.74017476  1
  Ti  Ti158  1  0.59080617  0.01994806  0.75686842  1
  Ti  Ti159  1  0.70459241  0.89265785  0.38461754  1
  Mo  Mo160  1  0.30312850  0.10509407  0.61928562  1
  Mo  Mo161  1  0.68953426  0.49512763  0.13629954  1
  Mo  Mo162  1  0.50569849  0.10480290  0.60362480  1
  Mo  Mo163  1  0.70365227  0.70183390  0.38762712  1
  Mo  Mo164  1  0.10188241  0.90172601  0.85962647  1
  Mo  Mo165  1  0.40062171  0.60109745  0.75428209  1
  Mo  Mo166  1  0.20381520  -0.00405681  -0.00441022  1
  Mo  Mo167  1  0.90056736  0.50940435  0.38461476  1
  Mo  Mo168  1  0.31179356  0.89798597  0.11996324  1
  Mo  Mo169  1  0.61073494  -0.00407416  0.47263751  1
  Mo  Mo170  1  0.70436942  0.09836713  0.36651528  1
  Mo  Mo171  1  0.60406487  0.19909894  0.74719916  1
  Mo  Mo172  1  0.59114687  0.80225330  -0.00912847  1
  Mo  Mo173  1  0.29751976  0.49913673  0.87534955  1
  Mo  Mo174  1  0.30165071  0.10926566  0.39112552  1
  Mo  Mo175  1  0.60064929  0.60354572  0.74507741  1
  Mo  Mo176  1  0.79553758  0.40054029  0.50449562  1
  Mo  Mo177  1  0.59793719  0.19584180  0.23289431  1
  Mo  Mo178  1  0.20990252  -0.00177972  0.26460938  1
  Mo  Mo179  1  0.80083064  0.79548469  0.01545951  1
  Mo  Mo180  1  0.00164208  0.60332354  0.23213107  1
  Mo  Mo181  1  -0.00984511  0.40767870  0.74766073  1
  Mo  Mo182  1  0.69775891  0.70306343  0.11407597  1
  Mo  Mo183  1  0.49548367  0.49543647  0.63756823  1
  Mo  Mo184  1  0.80867395  0.00411026  0.00679450  1
  Mo  Mo185  1  0.20087752  -0.00306618  0.73262999  1
  Mo  Mo186  1  0.80150823  0.79303842  0.49142800  1
  Mo  Mo187  1  0.20285689  0.20538825  0.51381961  1
  Mo  Mo188  1  0.49998943  0.09659076  0.88732553  1
  Mo  Mo189  1  0.40434917  0.80486636  0.75480648  1
  Mo  Mo190  1  0.10255798  0.30973249  0.13330388  1
  Mo  Mo191  1  -0.00032982  0.41332083  -0.00833886  1
  Mo  Mo192  1  0.29968439  0.70714463  0.39513856  1
  Mo  Mo193  1  0.59775181  0.20450109  0.49746228  1
  Mo  Mo194  1  0.89621878  0.69543252  0.62631338  1
  Mo  Mo195  1  0.40422793  0.80007026  0.25172336  1
  Mo  Mo196  1  0.09111873  0.09862363  0.64303566  1
  Mo  Mo197  1  -0.00234229  0.80138534  0.73215374  1
  Mo  Mo198  1  0.59273004  0.39809328  0.26114910  1
  Mo  Mo199  1  0.79803145  0.60147735  0.75743322  1
