# generated using pymatgen
data_HfZrTaTiMo
_symmetry_space_group_name_H-M   'P 1'
_cell_length_a   15.84179918
_cell_length_b   15.84136664
_cell_length_c   15.40518655
_cell_angle_alpha   89.99487186
_cell_angle_beta   89.95390409
_cell_angle_gamma   90.02590696
_symmetry_Int_Tables_number   1
_chemical_formula_structural   HfZrTaTiMo
_chemical_formula_sum   'Hf40 Zr40 Ta40 Ti40 Mo40'
_cell_volume   3866.01846865
_cell_formula_units_Z   40
loop_
 _symmetry_equiv_pos_site_id
 _symmetry_equiv_pos_as_xyz
  1  'x, y, z'
loop_
 _atom_site_type_symbol
 _atom_site_label
 _atom_site_symmetry_multiplicity
 _atom_site_fract_x
 _atom_site_fract_y
 _atom_site_fract_z
 _atom_site_occupancy
  Hf  Hf0  1  0.79988934  0.60294158  0.26385088  1
  Hf  Hf1  1  0.70094288  0.70354933  0.62763132  1
  Hf  Hf2  1  0.50577424  0.09980644  0.12204335  1
  Hf  Hf3  1  0.79791946  0.01498969  0.73569980  1
  Hf  Hf4  1  0.59822542  0.60636409  -0.00550508  1
  Hf  Hf5  1  0.50894795  0.88985397  0.86547401  1
  Hf  Hf6  1  0.60823631  0.79727096  0.25595042  1
  Hf  Hf7  1  0.39735246  0.19991275  0.00554892  1
  Hf  Hf8  1  0.90811723  0.90422729  0.12675065  1
  Hf  Hf9  1  0.50250879  0.49435740  0.11960222  1
  Hf  Hf10  1  0.40206314  0.20052420  0.47759590  1
  Hf  Hf11  1  0.10521622  0.70985662  0.13132387  1
  Hf  Hf12  1  0.80298822  0.80619486  0.26843880  1
  Hf  Hf13  1  0.89246211  0.29804725  0.37747010  1
  Hf  Hf14  1  0.41232229  0.59866402  0.24749655  1
  Hf  Hf15  1  0.31086889  0.29768850  0.64204171  1
  Hf  Hf16  1  0.81633543  0.81070793  0.74217585  1
  Hf  Hf17  1  0.60146149  0.21058394  -0.00657433  1
  Hf  Hf18  1  0.39579219  -0.00776682  0.00234169  1
  Hf  Hf19  1  0.19530473  0.18680664  0.24341811  1
  Hf  Hf20  1  0.39621704  0.39546459  0.47964990  1
  Hf  Hf21  1  0.89780957  0.68013789  0.86608751  1
  Hf  Hf22  1  0.21140360  0.58916493  0.49075689  1
  Hf  Hf23  1  0.09097670  0.31295785  0.13777715  1
  Hf  Hf24  1  0.19876767  0.19700577  0.01396084  1
  Hf  Hf25  1  0.40943926  0.58445165  0.74359747  1
  Hf  Hf26  1  0.08817212  0.29852233  0.36171405  1
  Hf  Hf27  1  0.09988829  0.89071602  0.61446131  1
  Hf  Hf28  1  0.19598420  0.60368761  -0.00524504  1
  Hf  Hf29  1  0.71144275  0.50680038  0.85844085  1
  Hf  Hf30  1  0.58743942  0.41017778  0.74918403  1
  Hf  Hf31  1  0.30814666  0.70081214  0.37318933  1
  Hf  Hf32  1  0.30203198  0.10108522  0.87276177  1
  Hf  Hf33  1  0.00446607  0.59471036  0.74093419  1
  Hf  Hf34  1  0.18273880  0.20297857  0.75458045  1
  Hf  Hf35  1  0.09381617  0.10447762  0.88616494  1
  Hf  Hf36  1  0.79758760  0.40051618  0.51263568  1
  Hf  Hf37  1  0.80718331  0.80614931  -0.01365399  1
  Hf  Hf38  1  -0.00627509  0.39149393  0.74471364  1
  Hf  Hf39  1  0.69325198  0.10608325  0.39444917  1
  Zr  Zr40  1  0.81686620  0.01343534  0.50728039  1
  Zr  Zr41  1  0.20716556  0.39163678  0.48312169  1
  Zr  Zr42  1  0.60223724  0.79766809  0.00480332  1
  Zr  Zr43  1  0.70415511  0.49241125  0.12218799  1
  Zr  Zr44  1  0.41196342  0.80095924  0.23614700  1
  Zr  Zr45  1  0.69626012  0.70448715  0.85189113  1
  Zr  Zr46  1  0.40801481  0.79753115  0.50973143  1
  Zr  Zr47  1  -0.00690727  -0.00853687  0.75263712  1
  Zr  Zr48  1  0.61825138  0.20858025  0.74739707  1
  Zr  Zr49  1  0.29967210  0.89856391  0.36092062  1
  Zr  Zr50  1  0.20466703  0.00282358  0.50248947  1
  Zr  Zr51  1  0.19761043  0.59595067  0.75604557  1
  Zr  Zr52  1  0.40407385  0.20080310  0.25320107  1
  Zr  Zr53  1  0.89057282  0.31418668  0.13696608  1
  Zr  Zr54  1  0.08434155  0.08217768  0.12157903  1
  Zr  Zr55  1  0.19322076  0.40641291  0.76377962  1
  Zr  Zr56  1  0.51440549  0.90943845  0.63486562  1
  Zr  Zr57  1  0.19284556  -0.00778268  0.75587565  1
  Zr  Zr58  1  0.19880323  0.60177915  0.25888335  1
  Zr  Zr59  1  0.09219023  0.29219566  0.61259552  1
  Zr  Zr60  1  0.59557522  0.39823901  0.26301074  1
  Zr  Zr61  1  0.29704759  0.49625480  0.12835317  1
  Zr  Zr62  1  0.60498713  0.00174020  0.25979433  1
  Zr  Zr63  1  0.29800506  0.69514176  0.62504752  1
  Zr  Zr64  1  0.20241135  0.19402213  0.48591146  1
  Zr  Zr65  1  0.90436631  0.69598840  0.12426338  1
  Zr  Zr66  1  0.40454815  0.79271303  0.01048240  1
  Zr  Zr67  1  0.08802102  0.50065748  0.12975779  1
  Zr  Zr68  1  0.00425546  0.80424031  0.26304252  1
  Zr  Zr69  1  0.68138971  0.50821780  0.62325280  1
  Zr  Zr70  1  0.29959623  0.31228636  0.13501399  1
  Zr  Zr71  1  0.30197905  0.10228140  0.63748080  1
  Zr  Zr72  1  0.89509189  0.11658175  0.87242030  1
  Zr  Zr73  1  0.31054198  0.69909141  0.87365927  1
  Zr  Zr74  1  -0.00918238  -0.01490898  -0.01806367  1
  Zr  Zr75  1  0.01253969  0.79054865  -0.02027126  1
  Zr  Zr76  1  0.49852164  0.10891201  0.63645876  1
  Zr  Zr77  1  0.40576016  0.00267412  0.49387945  1
  Zr  Zr78  1  0.71266886  0.90928060  0.12135319  1
  Zr  Zr79  1  0.78675223  0.20102302  0.24794970  1
  Ta  Ta80  1  0.70107408  0.90505309  0.61946294  1
  Ta  Ta81  1  0.79747664  0.20461449  0.52167198  1
  Ta  Ta82  1  0.29945127  0.29911664  0.87095397  1
  Ta  Ta83  1  0.80757933  0.00480709  0.26901496  1
  Ta  Ta84  1  0.39764303  0.40160373  -0.01514308  1
  Ta  Ta85  1  -0.01334723  0.18722028  0.24713780  1
  Ta  Ta86  1  0.49375749  0.29982272  0.86537636  1
  Ta  Ta87  1  0.30403743  0.89616784  0.63899373  1
  Ta  Ta88  1  0.19584483  0.39908772  -0.01347938  1
  Ta  Ta89  1  0.41292630  0.78924509  0.74104895  1
  Ta  Ta90  1  0.19928706  -0.01460466  0.00142421  1
  Ta  Ta91  1  0.70370372  0.91082091  0.86111251  1
  Ta  Ta92  1  0.09853463  0.70196751  0.39085585  1
  Ta  Ta93  1  0.80091111  0.59640897  0.00267881  1
  Ta  Ta94  1  0.90347892  0.70194341  0.40004015  1
  Ta  Ta95  1  0.09156004  0.49850924  0.37552726  1
  Ta  Ta96  1  0.10142843  0.49737061  0.60778830  1
  Ta  Ta97  1  0.49945188  0.30822461  0.62317976  1
  Ta  Ta98  1  0.09682459  0.69647369  0.60834666  1
  Ta  Ta99  1  0.40201237  -0.00514230  0.75977466  1
  Ta  Ta100  1  0.70223363  0.10068946  0.11255062  1
  Ta  Ta101  1  0.50405495  0.50428725  0.38597584  1
  Ta  Ta102  1  0.30587836  0.48652983  0.62584648  1
  Ta  Ta103  1  0.90795931  0.70471657  0.61327910  1
  Ta  Ta104  1  0.70529692  0.69796222  0.12784456  1
  Ta  Ta105  1  0.50403305  0.10018819  0.86834648  1
  Ta  Ta106  1  0.89774141  0.50051842  0.12819306  1
  Ta  Ta107  1  0.69574751  0.50471671  0.39365164  1
  Ta  Ta108  1  0.80159766  0.60179392  0.50738768  1
  Ta  Ta109  1  0.08192733  0.50246524  0.88965732  1
  Ta  Ta110  1  0.01076906  0.79489951  0.75707210  1
  Ta  Ta111  1  0.10129935  0.89979063  0.38524385  1
  Ta  Ta112  1  0.50142576  0.30931219  0.11995800  1
  Ta  Ta113  1  0.79928762  0.21109508  0.00814336  1
  Ta  Ta114  1  0.60075578  0.80041591  0.50501940  1
  Ta  Ta115  1  0.59767000  0.20404973  0.25277493  1
  Ta  Ta116  1  0.60335026  0.00297934  -0.01212431  1
  Ta  Ta117  1  0.68833231  0.30185302  0.39890320  1
  Ta  Ta118  1  0.70643299  0.10735283  0.88169141  1
  Ta  Ta119  1  0.60633201  0.60368724  0.25882348  1
  Ti  Ti120  1  0.90286232  0.50524000  0.61958925  1
  Ti  Ti121  1  -0.00952107  0.20552224  0.01821234  1
  Ti  Ti122  1  -0.01485443  0.18444226  0.49543876  1
  Ti  Ti123  1  0.40943085  0.59560979  0.50782640  1
  Ti  Ti124  1  -0.00525406  0.60171524  0.26494263  1
  Ti  Ti125  1  0.70526921  0.90182248  0.40119877  1
  Ti  Ti126  1  0.19625045  0.79226073  0.75418467  1
  Ti  Ti127  1  0.50665562  0.90421594  0.37830896  1
  Ti  Ti128  1  0.08802660  0.09157147  0.37406193  1
  Ti  Ti129  1  0.28336047  0.89141766  0.13294522  1
  Ti  Ti130  1  0.19986281  0.80363564  -0.01122978  1
  Ti  Ti131  1  0.79260822  0.40760099  0.26850459  1
  Ti  Ti132  1  0.89226445  0.49203010  0.87338161  1
  Ti  Ti133  1  0.70358759  0.70230936  0.39549475  1
  Ti  Ti134  1  0.71411587  0.30856311  0.87328425  1
  Ti  Ti135  1  0.90005592  0.50279986  0.38418768  1
  Ti  Ti136  1  0.51221695  0.90334787  0.12280331  1
  Ti  Ti137  1  0.50773083  0.70023220  0.38165724  1
  Ti  Ti138  1  -0.00435448  0.39967521  0.50010742  1
  Ti  Ti139  1  0.30244963  0.89269911  0.86553201  1
  Ti  Ti140  1  0.60185686  0.40085970  -0.01594625  1
  Ti  Ti141  1  0.80998604  0.21376821  0.72624978  1
  Ti  Ti142  1  -0.00702931  -0.00136226  0.26250989  1
  Ti  Ti143  1  0.89463035  0.30298977  0.87529230  1
  Ti  Ti144  1  0.69338259  0.30788306  0.12018518  1
  Ti  Ti145  1  0.18660801  -0.01160369  0.24111860  1
  Ti  Ti146  1  -0.01465383  0.40148105  -0.00204080  1
  Ti  Ti147  1  0.39991588  0.00071828  0.23763443  1
  Ti  Ti148  1  0.08561304  0.09683161  0.62340135  1
  Ti  Ti149  1  0.88592472  0.09192429  0.12002405  1
  Ti  Ti150  1  0.29849229  0.70146490  0.12870882  1
  Ti  Ti151  1  0.40340674  0.60303194  0.00385153  1
  Ti  Ti152  1  0.20828988  0.79964979  0.49843973  1
  Ti  Ti153  1  0.91118820  0.89808288  0.60746802  1
  Ti  Ti154  1  0.90834184  0.90351056  0.39617982  1
  Ti  Ti155  1  0.68313672  0.09687996  0.61211293  1
  Ti  Ti156  1  0.08389345  0.29805975  0.88643958  1
  Ti  Ti157  1  0.79875489  0.39488118  0.72797220  1
  Ti  Ti158  1  0.29843085  0.09039162  0.35673853  1
  Ti  Ti159  1  0.49539637  0.50462074  0.88171374  1
  Mo  Mo160  1  0.29651864  0.07936219  0.12977142  1
  Mo  Mo161  1  0.49157495  0.49557844  0.60747762  1
  Mo  Mo162  1  0.19996511  0.80131055  0.26041929  1
  Mo  Mo163  1  0.39875067  0.40128299  0.76390761  1
  Mo  Mo164  1  0.89559572  0.89592008  0.86581141  1
  Mo  Mo165  1  0.59111832  0.40123905  0.50311526  1
  Mo  Mo166  1  0.59277930  0.20249914  0.50522510  1
  Mo  Mo167  1  0.50353024  0.69539669  0.85869859  1
  Mo  Mo168  1  0.79752829  0.39983048  -0.00908800  1
  Mo  Mo169  1  0.10471832  0.89434809  0.12723567  1
  Mo  Mo170  1  0.19637238  0.39967740  0.26680956  1
  Mo  Mo171  1  0.50627287  0.29666918  0.37973445  1
  Mo  Mo172  1  0.30517403  0.49896740  0.35928389  1
  Mo  Mo173  1  -0.00841310  0.59096674  -0.00190258  1
  Mo  Mo174  1  0.91049234  0.11206770  0.63643757  1
  Mo  Mo175  1  0.51256247  0.69318851  0.13523725  1
  Mo  Mo176  1  0.60783550  0.00748408  0.76435322  1
  Mo  Mo177  1  0.40202094  0.40212587  0.26821082  1
  Mo  Mo178  1  -0.01446483  0.41195654  0.26554164  1
  Mo  Mo179  1  0.29687372  0.29874337  0.34967814  1
  Mo  Mo180  1  0.69213056  0.30048458  0.61692957  1
  Mo  Mo181  1  0.51128034  0.69262123  0.62787976  1
  Mo  Mo182  1  0.40338622  0.20158421  0.76058429  1
  Mo  Mo183  1  -0.00449091  0.20469557  0.74973007  1
  Mo  Mo184  1  0.81053083  0.59505897  0.72569848  1
  Mo  Mo185  1  0.00464959  0.80109774  0.49449537  1
  Mo  Mo186  1  0.00641305  0.00555946  0.49801421  1
  Mo  Mo187  1  0.60699451  0.80541964  0.73438825  1
  Mo  Mo188  1  0.10096673  0.69367106  0.87138174  1
  Mo  Mo189  1  0.90032685  0.10502457  0.37037097  1
  Mo  Mo190  1  0.90209960  0.30322561  0.61198028  1
  Mo  Mo191  1  0.11039166  0.89340872  0.86665939  1
  Mo  Mo192  1  0.50107964  0.09525935  0.36203584  1
  Mo  Mo193  1  0.59637845  0.60908838  0.48902358  1
  Mo  Mo194  1  0.00185671  0.59289336  0.50296222  1
  Mo  Mo195  1  0.79567932  0.00699816  -0.01147989  1
  Mo  Mo196  1  0.30015979  0.49770263  0.88869698  1
  Mo  Mo197  1  0.59037696  0.60447754  0.75695675  1
  Mo  Mo198  1  0.59875363  -0.00227795  0.48840888  1
  Mo  Mo199  1  0.80163727  0.80492337  0.50270504  1
