# generated using pymatgen
data_HfZrTaTiMo
_symmetry_space_group_name_H-M   'P 1'
_cell_length_a   15.82934809
_cell_length_b   15.84090909
_cell_length_c   15.40630628
_cell_angle_alpha   90.03604402
_cell_angle_beta   90.03230953
_cell_angle_gamma   90.20874964
_symmetry_Int_Tables_number   1
_chemical_formula_structural   HfZrTaTiMo
_chemical_formula_sum   'Hf40 Zr40 Ta40 Ti40 Mo40'
_cell_volume   3863.12374800
_cell_formula_units_Z   40
loop_
 _symmetry_equiv_pos_site_id
 _symmetry_equiv_pos_as_xyz
  1  'x, y, z'
loop_
 _atom_site_type_symbol
 _atom_site_label
 _atom_site_symmetry_multiplicity
 _atom_site_fract_x
 _atom_site_fract_y
 _atom_site_fract_z
 _atom_site_occupancy
  Hf  Hf0  1  0.41222037  0.20226673  0.49738706  1
  Hf  Hf1  1  0.79358536  0.60465415  0.01128808  1
  Hf  Hf2  1  0.89285917  0.50000055  0.88009011  1
  Hf  Hf3  1  0.40682383  0.60281321  0.49484253  1
  Hf  Hf4  1  0.18849578  0.20630410  -0.01822686  1
  Hf  Hf5  1  0.00275509  -0.00425793  -0.00826897  1
  Hf  Hf6  1  0.67628949  0.50616565  0.88998663  1
  Hf  Hf7  1  0.30979010  0.33375896  0.87442948  1
  Hf  Hf8  1  0.80373008  0.00981825  0.24581739  1
  Hf  Hf9  1  -0.00289058  0.58787686  0.25170305  1
  Hf  Hf10  1  0.60687476  0.81202723  0.27096074  1
  Hf  Hf11  1  0.10088956  0.69692682  0.37706301  1
  Hf  Hf12  1  0.90436994  0.09487448  0.86379511  1
  Hf  Hf13  1  0.00079796  0.19263250  0.51004770  1
  Hf  Hf14  1  0.40530120  0.39374078  0.23795111  1
  Hf  Hf15  1  0.19551183  0.20368247  0.75954629  1
  Hf  Hf16  1  0.09878299  0.70358161  0.13229369  1
  Hf  Hf17  1  0.07798755  0.89329506  0.39853302  1
  Hf  Hf18  1  0.19839216  0.00384374  0.74442992  1
  Hf  Hf19  1  0.79900007  -0.00754756  -0.00194763  1
  Hf  Hf20  1  -0.00339189  0.19438927  0.26425738  1
  Hf  Hf21  1  0.08741844  0.49162161  0.88899660  1
  Hf  Hf22  1  0.11255154  0.68402315  0.61503884  1
  Hf  Hf23  1  -0.01591951  0.38392400  0.51702867  1
  Hf  Hf24  1  0.29854331  0.30344442  0.62356199  1
  Hf  Hf25  1  0.00127570  0.80006587  0.73045581  1
  Hf  Hf26  1  -0.00121372  0.58615664  0.73503982  1
  Hf  Hf27  1  0.20259280  0.79616071  -0.00385548  1
  Hf  Hf28  1  -0.00255754  0.58551556  0.50878810  1
  Hf  Hf29  1  0.70743641  0.68395735  0.37920069  1
  Hf  Hf30  1  0.41518406  0.21807606  -0.00556487  1
  Hf  Hf31  1  0.51254392  0.69766000  0.86498635  1
  Hf  Hf32  1  0.31175205  0.91296170  0.61638459  1
  Hf  Hf33  1  0.52775452  0.90929536  0.87284148  1
  Hf  Hf34  1  0.39566871  0.61414089  0.00424837  1
  Hf  Hf35  1  0.09328482  0.49086320  0.11312873  1
  Hf  Hf36  1  0.41260250  0.80282658  0.48740701  1
  Hf  Hf37  1  0.20304541  0.19260195  0.26039725  1
  Hf  Hf38  1  0.47503972  0.49554085  0.87491818  1
  Hf  Hf39  1  0.19313282  0.38898752  0.24790481  1
  Zr  Zr40  1  0.00396777  -0.01319413  0.25163245  1
  Zr  Zr41  1  0.60404485  0.20160276  0.23108291  1
  Zr  Zr42  1  0.87579066  0.29522085  0.36720228  1
  Zr  Zr43  1  0.90742224  0.70918265  0.38340750  1
  Zr  Zr44  1  0.40553392  0.80852705  -0.00149069  1
  Zr  Zr45  1  0.20170150  0.59091629  0.25090683  1
  Zr  Zr46  1  0.50368269  0.10688530  0.62949196  1
  Zr  Zr47  1  0.90090077  0.70049112  0.86313010  1
  Zr  Zr48  1  0.70520808  0.71021630  0.86998794  1
  Zr  Zr49  1  0.30305702  0.70180265  0.36165643  1
  Zr  Zr50  1  0.39538265  0.01185528  0.25667660  1
  Zr  Zr51  1  0.79386557  0.58467504  0.23894692  1
  Zr  Zr52  1  0.68884762  0.08103620  0.86545851  1
  Zr  Zr53  1  0.30452937  0.10228854  0.11369079  1
  Zr  Zr54  1  0.80102792  0.21215411  0.52147404  1
  Zr  Zr55  1  0.29969405  0.30082229  0.38460724  1
  Zr  Zr56  1  0.59725161  0.59220376  0.50874835  1
  Zr  Zr57  1  0.60071002  0.39373517  0.51980192  1
  Zr  Zr58  1  0.20086958  0.59473935  0.76681927  1
  Zr  Zr59  1  0.60436412  0.01127867  0.48859101  1
  Zr  Zr60  1  0.78978637  -0.03069468  0.74511904  1
  Zr  Zr61  1  0.50856159  0.90994321  0.62004485  1
  Zr  Zr62  1  0.90123980  0.10504107  0.11366920  1
  Zr  Zr63  1  0.88889946  0.49072164  0.38155099  1
  Zr  Zr64  1  0.51306962  0.50830631  0.10860528  1
  Zr  Zr65  1  0.69052378  0.70143305  0.13658842  1
  Zr  Zr66  1  0.09747202  0.10786192  0.12354339  1
  Zr  Zr67  1  0.28136874  0.50733993  0.60914811  1
  Zr  Zr68  1  0.20173601  0.80253186  0.74890836  1
  Zr  Zr69  1  0.89666648  0.89566229  0.60144925  1
  Zr  Zr70  1  0.19763282  -0.00779907  -0.00293146  1
  Zr  Zr71  1  0.71184865  0.12056511  0.37501754  1
  Zr  Zr72  1  0.41412701  0.40228092  0.50962111  1
  Zr  Zr73  1  0.30472735  0.09804871  0.88446008  1
  Zr  Zr74  1  0.29817837  0.49626965  0.10949750  1
  Zr  Zr75  1  0.61749549  0.39678060  0.23079997  1
  Zr  Zr76  1  0.28696810  0.92266059  0.38543008  1
  Zr  Zr77  1  0.40739742  0.80854551  0.75509963  1
  Zr  Zr78  1  0.40526110  0.20986600  0.75899798  1
  Zr  Zr79  1  0.20409604  0.80051722  0.50825452  1
  Ta  Ta80  1  0.29951587  0.49539938  0.38144182  1
  Ta  Ta81  1  0.30170914  0.70877554  0.13988825  1
  Ta  Ta82  1  -0.00386673  0.39690189  0.73695568  1
  Ta  Ta83  1  0.90484620  0.30515332  0.87271798  1
  Ta  Ta84  1  0.80666799  0.80123527  0.01405408  1
  Ta  Ta85  1  0.40900866  0.00921843  0.76350000  1
  Ta  Ta86  1  0.19757435  0.60681088  -0.00760702  1
  Ta  Ta87  1  0.18897875  0.81955154  0.24556352  1
  Ta  Ta88  1  0.70448139  0.89948919  0.13177249  1
  Ta  Ta89  1  0.89651818  0.09986264  0.63926545  1
  Ta  Ta90  1  0.50382931  0.90167419  0.13605817  1
  Ta  Ta91  1  0.18912955  0.40558897  0.75030590  1
  Ta  Ta92  1  0.62591439  0.81440521  0.73464330  1
  Ta  Ta93  1  0.70434078  0.70128734  0.61667949  1
  Ta  Ta94  1  0.69673028  0.29795932  0.65046357  1
  Ta  Ta95  1  0.10232812  0.48599248  0.39054584  1
  Ta  Ta96  1  0.79575094  0.20161769  -0.01549136  1
  Ta  Ta97  1  0.09194476  0.89474141  0.86972575  1
  Ta  Ta98  1  0.00566285  -0.00265454  0.74155875  1
  Ta  Ta99  1  0.49661311  0.70895356  0.14355176  1
  Ta  Ta100  1  0.50441158  0.49611839  0.36314701  1
  Ta  Ta101  1  0.69839172  0.09777642  0.63804977  1
  Ta  Ta102  1  0.60413823  0.19643425  -0.00444329  1
  Ta  Ta103  1  0.90095374  0.49119543  0.11167017  1
  Ta  Ta104  1  0.31314604  0.69804198  0.62818429  1
  Ta  Ta105  1  0.60002748  0.59710382  0.73635037  1
  Ta  Ta106  1  0.90895028  0.29814554  0.11000295  1
  Ta  Ta107  1  0.88958270  0.69239839  0.61512616  1
  Ta  Ta108  1  0.60361855  -0.00063959  0.01924375  1
  Ta  Ta109  1  0.81046664  0.81275351  0.25956187  1
  Ta  Ta110  1  0.60417328  0.79956092  0.49046738  1
  Ta  Ta111  1  0.79321214  0.39387561  -0.00331303  1
  Ta  Ta112  1  -0.00241902  0.38985943  0.24524020  1
  Ta  Ta113  1  0.58921365  0.40142809  0.75044615  1
  Ta  Ta114  1  0.79835523  0.20222017  0.76183788  1
  Ta  Ta115  1  0.50068945  0.10012136  0.12011979  1
  Ta  Ta116  1  0.50397607  0.70577048  0.63268200  1
  Ta  Ta117  1  0.70333182  0.47983994  0.38559363  1
  Ta  Ta118  1  -0.00061297  0.80095319  0.00601124  1
  Ta  Ta119  1  -0.00444060  0.60792235  0.00679447  1
  Ti  Ti120  1  0.87597947  0.48930244  0.62405790  1
  Ti  Ti121  1  0.39827418  0.81187707  0.25713142  1
  Ti  Ti122  1  0.19500521  0.19231331  0.50415210  1
  Ti  Ti123  1  0.50115272  0.10885626  0.36847340  1
  Ti  Ti124  1  0.00358339  0.20169007  0.74680028  1
  Ti  Ti125  1  0.09548391  0.29795044  0.38532806  1
  Ti  Ti126  1  0.40099232  0.20446229  0.24796650  1
  Ti  Ti127  1  0.19617373  -0.00006472  0.24053470  1
  Ti  Ti128  1  0.00679505  0.20831606  -0.01984767  1
  Ti  Ti129  1  0.01220833  0.00654244  0.52593275  1
  Ti  Ti130  1  0.30432237  0.90046925  0.12595856  1
  Ti  Ti131  1  0.78878932  0.39983066  0.76259348  1
  Ti  Ti132  1  0.60722029  0.00737871  0.24585018  1
  Ti  Ti133  1  0.40269200  0.59370170  0.24727256  1
  Ti  Ti134  1  0.89668233  0.88482209  0.86840226  1
  Ti  Ti135  1  0.10416768  0.30007013  0.62570938  1
  Ti  Ti136  1  0.90779295  0.89403992  0.12791958  1
  Ti  Ti137  1  0.79685510  0.39445582  0.22300580  1
  Ti  Ti138  1  0.29525332  0.29737505  0.11647045  1
  Ti  Ti139  1  0.51611004  0.30375756  0.36570968  1
  Ti  Ti140  1  0.31033023  0.69414896  0.86367257  1
  Ti  Ti141  1  0.58783664  0.37880137  -0.00365332  1
  Ti  Ti142  1  0.30325488  0.90156625  0.87291266  1
  Ti  Ti143  1  0.59767020  0.20402880  0.77147992  1
  Ti  Ti144  1  0.90163805  0.70340326  0.13901409  1
  Ti  Ti145  1  0.78957340  0.59528581  0.74202988  1
  Ti  Ti146  1  0.71753616  0.91467818  0.38374197  1
  Ti  Ti147  1  0.50018856  0.91491495  0.37298960  1
  Ti  Ti148  1  0.50420107  0.69387237  0.36000345  1
  Ti  Ti149  1  0.30332432  0.10091625  0.61602390  1
  Ti  Ti150  1  0.60463549  0.21201078  0.50512013  1
  Ti  Ti151  1  0.41368775  -0.00054885  -0.00452792  1
  Ti  Ti152  1  0.18884897  0.38983314  -0.00204493  1
  Ti  Ti153  1  0.79127445  0.21047880  0.22286290  1
  Ti  Ti154  1  0.09092539  0.70165063  0.87464939  1
  Ti  Ti155  1  0.79634108  0.80078508  0.48950081  1
  Ti  Ti156  1  0.90185080  0.07782835  0.39742716  1
  Ti  Ti157  1  0.60274742  0.58956988  0.25186280  1
  Ti  Ti158  1  0.60438347  0.80143763  0.01066091  1
  Ti  Ti159  1  0.11202631  0.08559639  0.38609743  1
  Mo  Mo160  1  0.70016148  0.30696934  0.37511203  1
  Mo  Mo161  1  0.60069662  -0.00115214  0.74044258  1
  Mo  Mo162  1  0.39922077  0.60315927  0.74495569  1
  Mo  Mo163  1  0.50438488  0.09846622  0.88672909  1
  Mo  Mo164  1  0.70715705  0.88819740  0.89236101  1
  Mo  Mo165  1  0.50435876  0.29896130  0.64585167  1
  Mo  Mo166  1  0.09380279  0.29460406  0.12907042  1
  Mo  Mo167  1  0.69964720  0.49462796  0.10047049  1
  Mo  Mo168  1  0.10276658  0.90066686  0.62122548  1
  Mo  Mo169  1  0.48972105  0.50661566  0.64406414  1
  Mo  Mo170  1  0.19046596  0.39053542  0.49662255  1
  Mo  Mo171  1  0.09718286  0.48652146  0.61326074  1
  Mo  Mo172  1  0.69985498  0.89702905  0.59718679  1
  Mo  Mo173  1  0.59132736  0.61859040  0.00333246  1
  Mo  Mo174  1  0.70164783  0.09738986  0.11676952  1
  Mo  Mo175  1  0.10204305  0.89714274  0.11628839  1
  Mo  Mo176  1  0.09422937  0.30509719  0.85863834  1
  Mo  Mo177  1  0.39933554  0.01323204  0.48294286  1
  Mo  Mo178  1  0.80207422  0.79058704  0.73390373  1
  Mo  Mo179  1  -0.00243908  0.80022867  0.24048361  1
  Mo  Mo180  1  0.80177738  0.01056434  0.51142563  1
  Mo  Mo181  1  0.50544517  0.30938823  0.86513742  1
  Mo  Mo182  1  0.69929083  0.30310428  0.87294631  1
  Mo  Mo183  1  0.20491267  0.59576215  0.48286701  1
  Mo  Mo184  1  0.89312070  0.29629067  0.65389684  1
  Mo  Mo185  1  0.29656767  0.10552452  0.39018622  1
  Mo  Mo186  1  0.10002715  0.10757804  0.63513064  1
  Mo  Mo187  1  0.00018269  0.79105381  0.51684978  1
  Mo  Mo188  1  0.28955602  0.50650364  0.88918571  1
  Mo  Mo189  1  0.19285162  0.01245088  0.52156064  1
  Mo  Mo190  1  0.78830264  0.39640546  0.52065742  1
  Mo  Mo191  1  0.79410746  0.59161006  0.50908400  1
  Mo  Mo192  1  0.69915311  0.49788739  0.63791780  1
  Mo  Mo193  1  0.39964195  0.40054081  0.01591086  1
  Mo  Mo194  1  0.49822256  0.29534165  0.12709286  1
  Mo  Mo195  1  0.09145138  0.09712381  0.86020127  1
  Mo  Mo196  1  0.70477467  0.29495069  0.09692593  1
  Mo  Mo197  1  0.39254724  0.41258767  0.73327682  1
  Mo  Mo198  1  0.89673124  0.90465054  0.38899996  1
  Mo  Mo199  1  -0.00417476  0.39197222  0.00184234  1
