# generated using pymatgen
data_HfZrTaTiMo
_symmetry_space_group_name_H-M   'P 1'
_cell_length_a   15.83780245
_cell_length_b   15.82669302
_cell_length_c   15.39168981
_cell_angle_alpha   89.98629124
_cell_angle_beta   90.00704763
_cell_angle_gamma   90.02877041
_symmetry_Int_Tables_number   1
_chemical_formula_structural   HfZrTaTiMo
_chemical_formula_sum   'Hf40 Zr40 Ta40 Ti40 Mo40'
_cell_volume   3858.08091955
_cell_formula_units_Z   40
loop_
 _symmetry_equiv_pos_site_id
 _symmetry_equiv_pos_as_xyz
  1  'x, y, z'
loop_
 _atom_site_type_symbol
 _atom_site_label
 _atom_site_symmetry_multiplicity
 _atom_site_fract_x
 _atom_site_fract_y
 _atom_site_fract_z
 _atom_site_occupancy
  Hf  Hf0  1  0.09734208  0.89193120  0.88614199  1
  Hf  Hf1  1  0.51007321  0.09972544  0.13014798  1
  Hf  Hf2  1  0.80368871  0.59811681  0.26265136  1
  Hf  Hf3  1  0.80090915  0.40256288  0.49291182  1
  Hf  Hf4  1  0.39599020  0.79226317  0.25390756  1
  Hf  Hf5  1  0.09852557  0.09827942  0.88434173  1
  Hf  Hf6  1  0.50716981  0.90474923  0.86619536  1
  Hf  Hf7  1  0.19026054  0.19693979  0.50330903  1
  Hf  Hf8  1  0.29745038  0.50190077  0.10649382  1
  Hf  Hf9  1  0.60996828  0.60444597  0.74689886  1
  Hf  Hf10  1  0.69400686  0.71494113  0.36582462  1
  Hf  Hf11  1  0.69833691  0.70558141  0.14084297  1
  Hf  Hf12  1  0.10737392  0.70654217  0.10921193  1
  Hf  Hf13  1  0.39688404  0.20520504  0.00505713  1
  Hf  Hf14  1  0.50364812  0.49467000  0.87737108  1
  Hf  Hf15  1  0.89427076  0.29683135  0.88647351  1
  Hf  Hf16  1  0.29596968  0.12110897  0.85614730  1
  Hf  Hf17  1  0.40258343  0.00366146  0.74393738  1
  Hf  Hf18  1  0.80607321  0.61589474  0.49818590  1
  Hf  Hf19  1  0.00906284  0.39818889  0.75994317  1
  Hf  Hf20  1  -0.00063776  0.80668796  0.26505775  1
  Hf  Hf21  1  0.19833712  0.38697551  0.50456755  1
  Hf  Hf22  1  0.90044404  0.50103821  0.87090083  1
  Hf  Hf23  1  0.89836124  0.70676119  0.13271022  1
  Hf  Hf24  1  0.50940656  0.90367010  0.12921789  1
  Hf  Hf25  1  0.59590719  0.19537699  0.49044069  1
  Hf  Hf26  1  0.80927474  0.80824664  0.73310763  1
  Hf  Hf27  1  0.10051288  0.48964698  0.37430849  1
  Hf  Hf28  1  0.61263671  0.80096968  0.52261476  1
  Hf  Hf29  1  0.09151388  0.08822231  0.10932783  1
  Hf  Hf30  1  0.49519774  0.30696233  0.37315273  1
  Hf  Hf31  1  0.10455507  0.50427268  0.11212161  1
  Hf  Hf32  1  -0.01001408  -0.01478186  0.74704903  1
  Hf  Hf33  1  0.29823999  0.29219573  0.64881978  1
  Hf  Hf34  1  0.10269951  0.90208017  0.39561244  1
  Hf  Hf35  1  0.29696405  0.89173507  0.38928806  1
  Hf  Hf36  1  0.81353639  0.19982898  0.49844257  1
  Hf  Hf37  1  0.29198485  0.89331643  0.12816127  1
  Hf  Hf38  1  0.89686158  0.29315264  0.35612139  1
  Hf  Hf39  1  0.40523136  0.00747912  -0.00889102  1
  Zr  Zr40  1  0.39726852  0.60400877  -0.01811968  1
  Zr  Zr41  1  0.80471851  0.19752097  0.74767092  1
  Zr  Zr42  1  0.61436075  0.81206188  -0.01507207  1
  Zr  Zr43  1  0.20710157  0.60309570  0.26026965  1
  Zr  Zr44  1  0.70179903  0.29725515  0.62517327  1
  Zr  Zr45  1  0.39673442  0.80809833  -0.00943695  1
  Zr  Zr46  1  0.19313057  0.59852133  0.50765682  1
  Zr  Zr47  1  0.49222173  0.50177229  0.39810403  1
  Zr  Zr48  1  0.90142532  0.09620258  0.89479302  1
  Zr  Zr49  1  0.08631362  0.70183903  0.87944572  1
  Zr  Zr50  1  0.29455069  0.30999562  0.36185980  1
  Zr  Zr51  1  0.09489492  0.49040832  0.62223585  1
  Zr  Zr52  1  0.40116221  0.00379634  0.26417445  1
  Zr  Zr53  1  0.71578893  0.10637103  0.36445962  1
  Zr  Zr54  1  0.29241942  0.70019666  0.62979013  1
  Zr  Zr55  1  0.18835334  0.00093105  0.25422982  1
  Zr  Zr56  1  0.00288816  0.59879294  0.25292826  1
  Zr  Zr57  1  0.71067200  0.08594544  0.62135900  1
  Zr  Zr58  1  0.49942318  0.69387456  0.39225739  1
  Zr  Zr59  1  0.19192949  0.58460058  0.75919208  1
  Zr  Zr60  1  0.50610148  0.70123461  0.11840836  1
  Zr  Zr61  1  0.79860759  0.79323931  -0.01238202  1
  Zr  Zr62  1  0.69909872  0.10321776  0.88466153  1
  Zr  Zr63  1  0.70656728  0.90399541  0.14893933  1
  Zr  Zr64  1  0.21278647  0.00232671  -0.00390836  1
  Zr  Zr65  1  0.50048470  0.49973716  0.11186771  1
  Zr  Zr66  1  0.00012042  0.18951252  0.23797316  1
  Zr  Zr67  1  0.69672110  0.29056558  0.12861583  1
  Zr  Zr68  1  0.00687031  0.19631906  0.74520319  1
  Zr  Zr69  1  0.39436236  0.19917821  0.49621640  1
  Zr  Zr70  1  0.80091318  0.81547575  0.50553751  1
  Zr  Zr71  1  0.79699100  0.40931633  0.24430831  1
  Zr  Zr72  1  0.40699657  0.80597083  0.52079658  1
  Zr  Zr73  1  0.40342903  0.59292597  0.75263018  1
  Zr  Zr74  1  0.40998259  0.00855553  0.49797356  1
  Zr  Zr75  1  0.60082781  0.40309599  0.74455077  1
  Zr  Zr76  1  0.59715209  0.39560680  0.00127466  1
  Zr  Zr77  1  0.28631995  0.71145932  0.86796029  1
  Zr  Zr78  1  -0.01061321  0.78785054  0.50975623  1
  Zr  Zr79  1  0.39655697  0.59772899  0.24887946  1
  Ta  Ta80  1  0.20114127  0.39393829  0.76907916  1
  Ta  Ta81  1  0.80206397  0.40666565  0.00956330  1
  Ta  Ta82  1  -0.00127179  0.38586602  0.49866123  1
  Ta  Ta83  1  0.00009617  0.39811166  0.22670487  1
  Ta  Ta84  1  0.59784507  0.39930413  0.50905674  1
  Ta  Ta85  1  0.39795119  0.20034043  0.24992839  1
  Ta  Ta86  1  -0.01199206  0.59856938  0.00062970  1
  Ta  Ta87  1  0.09531796  0.90313913  0.61111885  1
  Ta  Ta88  1  0.49144549  0.30383350  0.63143528  1
  Ta  Ta89  1  0.89719500  0.49837610  0.62688105  1
  Ta  Ta90  1  0.59561186  0.20096664  0.25802553  1
  Ta  Ta91  1  0.70904123  0.50016987  0.87531791  1
  Ta  Ta92  1  0.78721445  -0.01304427  -0.00571581  1
  Ta  Ta93  1  0.29336147  0.90209361  0.85077629  1
  Ta  Ta94  1  0.79743699  0.60149856  -0.00291722  1
  Ta  Ta95  1  0.40825672  0.80238428  0.74001961  1
  Ta  Ta96  1  0.49201187  0.29165975  0.85920763  1
  Ta  Ta97  1  0.89621306  0.69752001  0.85805151  1
  Ta  Ta98  1  0.59952833  0.59304774  0.25372187  1
  Ta  Ta99  1  0.51519732  0.89118229  0.37484344  1
  Ta  Ta100  1  0.31187517  0.48583069  0.62574639  1
  Ta  Ta101  1  0.59661174  0.40782352  0.25239395  1
  Ta  Ta102  1  0.18881714  0.00376294  0.74122127  1
  Ta  Ta103  1  0.09100773  0.89349585  0.11112398  1
  Ta  Ta104  1  0.70064954  0.30188622  0.88220525  1
  Ta  Ta105  1  0.61159712  0.00072694  0.75257607  1
  Ta  Ta106  1  0.59219359  0.19875488  -0.00282805  1
  Ta  Ta107  1  0.29202261  0.90476783  0.62982714  1
  Ta  Ta108  1  0.00024113  0.39752260  0.00778619  1
  Ta  Ta109  1  0.90475085  0.90480651  0.12061811  1
  Ta  Ta110  1  0.88577782  0.09183656  0.11585747  1
  Ta  Ta111  1  0.61195578  -0.00553853  0.48986940  1
  Ta  Ta112  1  0.10680469  0.29024137  0.88753623  1
  Ta  Ta113  1  0.70370912  0.50708478  0.61704912  1
  Ta  Ta114  1  0.19603869  0.19931442  0.23813991  1
  Ta  Ta115  1  0.30028955  0.30626949  0.13113867  1
  Ta  Ta116  1  0.50956475  0.10598978  0.63301593  1
  Ta  Ta117  1  0.90819533  0.30468768  0.62592947  1
  Ta  Ta118  1  0.29975235  0.69845758  0.40006123  1
  Ta  Ta119  1  0.09467168  0.29499635  0.35971566  1
  Ti  Ti120  1  0.39055897  0.38950851  -0.01564536  1
  Ti  Ti121  1  0.89195909  0.29418327  0.12329462  1
  Ti  Ti122  1  0.60917123  0.80156003  0.73996964  1
  Ti  Ti123  1  0.19790761  0.79377430  0.25606284  1
  Ti  Ti124  1  -0.00120903  0.60241105  0.74409367  1
  Ti  Ti125  1  -0.00070529  0.00050951  0.26183932  1
  Ti  Ti126  1  -0.00062405  0.20662744  0.01345629  1
  Ti  Ti127  1  0.30691577  0.50094529  0.39517124  1
  Ti  Ti128  1  0.28942300  0.10442180  0.37013033  1
  Ti  Ti129  1  0.51254960  0.91243281  0.63006169  1
  Ti  Ti130  1  0.68862799  0.50631970  0.38839968  1
  Ti  Ti131  1  -0.01127723  0.00919532  0.48728076  1
  Ti  Ti132  1  0.10511831  0.70276070  0.38839901  1
  Ti  Ti133  1  0.90535483  0.89100886  0.88294980  1
  Ti  Ti134  1  0.39737213  0.40840229  0.24495528  1
  Ti  Ti135  1  0.29805222  0.10085188  0.63311476  1
  Ti  Ti136  1  0.30233786  0.10093646  0.13236007  1
  Ti  Ti137  1  -0.00559387  0.59898726  0.50242609  1
  Ti  Ti138  1  0.19374918  0.39887274  0.23957768  1
  Ti  Ti139  1  0.90906663  0.49565151  0.37973102  1
  Ti  Ti140  1  0.60204699  0.00250446  0.26979923  1
  Ti  Ti141  1  0.81899200  -0.00346529  0.26538793  1
  Ti  Ti142  1  0.79988701  0.40171648  0.74681990  1
  Ti  Ti143  1  0.50470098  0.68549220  0.62066526  1
  Ti  Ti144  1  0.49525819  0.30160319  0.13479600  1
  Ti  Ti145  1  0.90131540  0.09165508  0.62033526  1
  Ti  Ti146  1  0.20081758  0.39721197  -0.01269594  1
  Ti  Ti147  1  0.60286998  0.20114542  0.75176310  1
  Ti  Ti148  1  0.50720370  0.70731735  0.86696401  1
  Ti  Ti149  1  0.20215566  0.00797228  0.50661299  1
  Ti  Ti150  1  0.00373930  0.19902336  0.49579631  1
  Ti  Ti151  1  0.18015128  0.80420544  0.73368141  1
  Ti  Ti152  1  0.69743392  0.50853622  0.11892533  1
  Ti  Ti153  1  0.29102021  0.69959890  0.10689211  1
  Ti  Ti154  1  0.50335149  0.10448416  0.86684216  1
  Ti  Ti155  1  0.61451625  0.61249398  -0.01697677  1
  Ti  Ti156  1  0.69788166  0.30579078  0.36709134  1
  Ti  Ti157  1  0.20485873  0.20950919  0.01494654  1
  Ti  Ti158  1  0.09406480  0.09550610  0.61999047  1
  Ti  Ti159  1  0.69951175  0.09578923  0.12439544  1
  Mo  Mo160  1  0.09140434  0.69953919  0.63074810  1
  Mo  Mo161  1  -0.00984538  0.79586918  0.00462887  1
  Mo  Mo162  1  0.90231446  0.69920826  0.36550153  1
  Mo  Mo163  1  0.29726088  0.29842323  0.86965889  1
  Mo  Mo164  1  0.09501075  0.29455030  0.62916006  1
  Mo  Mo165  1  0.40707529  0.19678264  0.74337868  1
  Mo  Mo166  1  0.90123373  0.90582480  0.38169264  1
  Mo  Mo167  1  0.90212953  0.68692976  0.63940886  1
  Mo  Mo168  1  0.60742108  0.60064647  0.51594697  1
  Mo  Mo169  1  0.70406319  0.69821846  0.63441919  1
  Mo  Mo170  1  0.19611748  0.80319563  0.51537596  1
  Mo  Mo171  1  0.70089127  0.90861773  0.63629103  1
  Mo  Mo172  1  0.80315974  0.59629310  0.74550546  1
  Mo  Mo173  1  0.80659638  0.00138472  0.48475962  1
  Mo  Mo174  1  0.70741538  0.90230731  0.85600703  1
  Mo  Mo175  1  -0.00877979  -0.00515933  -0.00126504  1
  Mo  Mo176  1  0.79858269  0.19300241  0.23352291  1
  Mo  Mo177  1  -0.00012400  0.79792162  0.73012660  1
  Mo  Mo178  1  0.29772483  0.49276724  0.88502156  1
  Mo  Mo179  1  0.70168849  0.90370864  0.36345028  1
  Mo  Mo180  1  0.10127679  0.10457631  0.38196160  1
  Mo  Mo181  1  0.90882835  0.10164409  0.37113471  1
  Mo  Mo182  1  0.10496844  0.30024285  0.11474086  1
  Mo  Mo183  1  0.50315639  0.09925118  0.36577547  1
  Mo  Mo184  1  0.39732490  0.39912742  0.76143821  1
  Mo  Mo185  1  0.89784806  0.92146837  0.61039175  1
  Mo  Mo186  1  0.39882718  0.39499728  0.51187747  1
  Mo  Mo187  1  0.50002755  0.49667240  0.61761466  1
  Mo  Mo188  1  0.20030556  0.80305989  -0.00191256  1
  Mo  Mo189  1  0.80528631  -0.00433781  0.76699242  1
  Mo  Mo190  1  0.70539277  0.69679953  0.85600547  1
  Mo  Mo191  1  0.09626153  0.49409029  0.89302529  1
  Mo  Mo192  1  0.89707377  0.50162214  0.11402333  1
  Mo  Mo193  1  0.60210090  0.00691062  -0.00843036  1
  Mo  Mo194  1  0.80944232  0.80822314  0.26591798  1
  Mo  Mo195  1  0.39869712  0.59659310  0.52128486  1
  Mo  Mo196  1  0.59326757  0.80013691  0.25366403  1
  Mo  Mo197  1  0.19471396  0.59457163  -0.01574911  1
  Mo  Mo198  1  0.18980032  0.19670964  0.73858467  1
  Mo  Mo199  1  0.79530245  0.20184051  0.01492695  1
