# generated using pymatgen
data_HfZrTaTiMo
_symmetry_space_group_name_H-M   'P 1'
_cell_length_a   15.83535665
_cell_length_b   15.84054139
_cell_length_c   15.41099065
_cell_angle_alpha   89.99422195
_cell_angle_beta   89.94454311
_cell_angle_gamma   89.91693494
_symmetry_Int_Tables_number   1
_chemical_formula_structural   HfZrTaTiMo
_chemical_formula_sum   'Hf40 Zr40 Ta40 Ti40 Mo40'
_cell_volume   3865.69659399
_cell_formula_units_Z   40
loop_
 _symmetry_equiv_pos_site_id
 _symmetry_equiv_pos_as_xyz
  1  'x, y, z'
loop_
 _atom_site_type_symbol
 _atom_site_label
 _atom_site_symmetry_multiplicity
 _atom_site_fract_x
 _atom_site_fract_y
 _atom_site_fract_z
 _atom_site_occupancy
  Hf  Hf0  1  0.80939759  -0.00890260  0.74432022  1
  Hf  Hf1  1  0.90592392  0.49754766  0.38804178  1
  Hf  Hf2  1  0.80167497  0.79389070  -0.01244066  1
  Hf  Hf3  1  0.31362877  0.69518133  0.86714258  1
  Hf  Hf4  1  0.39805880  0.41371945  0.48953754  1
  Hf  Hf5  1  0.19559456  0.21131967  -0.00060723  1
  Hf  Hf6  1  0.61483367  0.78455283  0.48400681  1
  Hf  Hf7  1  0.40609922  0.00309899  0.24274784  1
  Hf  Hf8  1  0.68077685  0.09414219  0.88142408  1
  Hf  Hf9  1  -0.01118983  0.19020486  0.25235441  1
  Hf  Hf10  1  0.69316516  0.30956368  0.12614766  1
  Hf  Hf11  1  0.89540053  0.30630640  0.12222457  1
  Hf  Hf12  1  0.08739618  0.30923954  0.13085747  1
  Hf  Hf13  1  0.29250424  0.30464958  0.86731573  1
  Hf  Hf14  1  0.69290563  0.51783618  0.63119658  1
  Hf  Hf15  1  0.09501904  0.09486154  0.38140254  1
  Hf  Hf16  1  0.69710376  0.31008812  0.36426658  1
  Hf  Hf17  1  0.07206535  0.69930145  0.63372647  1
  Hf  Hf18  1  0.10536974  0.90490994  0.89026437  1
  Hf  Hf19  1  0.29287272  0.30822349  0.62867374  1
  Hf  Hf20  1  0.38956103  0.40957617  0.00137311  1
  Hf  Hf21  1  0.19448075  0.60018821  0.73147807  1
  Hf  Hf22  1  0.29884790  0.89989707  0.11641780  1
  Hf  Hf23  1  0.89558122  0.29643091  0.37837946  1
  Hf  Hf24  1  0.90864994  0.30689188  0.63278356  1
  Hf  Hf25  1  0.09321675  0.09093480  0.10393749  1
  Hf  Hf26  1  0.49676332  0.30703927  0.12689278  1
  Hf  Hf27  1  0.49146541  0.51296843  0.87251030  1
  Hf  Hf28  1  0.40199231  0.39746138  0.74985344  1
  Hf  Hf29  1  0.60035809  0.80382070  0.01204403  1
  Hf  Hf30  1  0.19239892  0.20173351  0.24604376  1
  Hf  Hf31  1  -0.00671933  0.40313765  -0.02021399  1
  Hf  Hf32  1  0.59750413  0.39680623  0.75786370  1
  Hf  Hf33  1  0.50416888  0.30221147  0.36807029  1
  Hf  Hf34  1  0.29555546  0.70905761  0.37076369  1
  Hf  Hf35  1  0.19820094  0.78897967  0.51955105  1
  Hf  Hf36  1  0.81821221  0.80348233  0.47924563  1
  Hf  Hf37  1  0.20145168  0.59459112  0.50715549  1
  Hf  Hf38  1  0.40503054  0.60322406  0.48784397  1
  Hf  Hf39  1  0.79549862  -0.00488049  -0.00557213  1
  Zr  Zr40  1  0.79266450  0.18571640  0.74433584  1
  Zr  Zr41  1  0.80637771  0.00418453  0.26266375  1
  Zr  Zr42  1  0.69630031  0.30557972  0.62378551  1
  Zr  Zr43  1  0.50398190  0.50267685  0.13319915  1
  Zr  Zr44  1  0.70577204  0.50108475  0.13401134  1
  Zr  Zr45  1  0.00022908  0.57832393  0.24100005  1
  Zr  Zr46  1  0.51256691  0.91056751  0.87142924  1
  Zr  Zr47  1  0.70490121  0.69264686  0.14057005  1
  Zr  Zr48  1  0.00099014  -0.00899822  0.25201086  1
  Zr  Zr49  1  0.10807972  0.69315204  0.87642811  1
  Zr  Zr50  1  0.18415759  0.21559569  0.51061992  1
  Zr  Zr51  1  0.40944886  0.00784161  0.75347180  1
  Zr  Zr52  1  0.18908054  0.41908860  -0.00049333  1
  Zr  Zr53  1  -0.00989009  0.19040021  0.50856564  1
  Zr  Zr54  1  0.30052768  0.90003615  0.37336039  1
  Zr  Zr55  1  0.59968509  0.60501877  -0.00246528  1
  Zr  Zr56  1  0.61537698  -0.00288555  0.72419903  1
  Zr  Zr57  1  0.39541880  0.21110911  0.49880349  1
  Zr  Zr58  1  0.30751483  0.10180593  0.88743208  1
  Zr  Zr59  1  0.29665542  0.10393897  0.37897205  1
  Zr  Zr60  1  0.58607314  0.19414648  0.74076255  1
  Zr  Zr61  1  0.10108745  0.88815979  0.38703109  1
  Zr  Zr62  1  0.31098964  0.90025016  0.62392972  1
  Zr  Zr63  1  0.19584061  0.60201188  0.26040504  1
  Zr  Zr64  1  0.71475282  0.89450710  0.13901770  1
  Zr  Zr65  1  0.49380339  0.28644264  0.89513216  1
  Zr  Zr66  1  0.50861148  0.88639519  0.61125264  1
  Zr  Zr67  1  0.19553451  0.00018328  0.51439333  1
  Zr  Zr68  1  0.89774695  0.69294916  0.12377679  1
  Zr  Zr69  1  0.78931361  0.40973967  0.50205943  1
  Zr  Zr70  1  0.80190219  0.60809497  0.75324315  1
  Zr  Zr71  1  0.11006360  0.69808181  0.11227346  1
  Zr  Zr72  1  0.59992842  0.58524279  0.47590006  1
  Zr  Zr73  1  0.20586630  0.80568652  0.74742677  1
  Zr  Zr74  1  0.50150524  0.09524811  0.59724519  1
  Zr  Zr75  1  0.80704837  0.40998339  0.76075642  1
  Zr  Zr76  1  0.41138418  0.80019950  0.00000109  1
  Zr  Zr77  1  0.69556353  0.11022597  0.38412945  1
  Zr  Zr78  1  0.80820681  -0.00092874  0.50675026  1
  Zr  Zr79  1  0.39336279  0.20365107  0.24874845  1
  Ta  Ta80  1  0.30361685  0.50212434  0.63189998  1
  Ta  Ta81  1  0.59991850  0.80466882  0.25864924  1
  Ta  Ta82  1  0.19791318  0.00388068  0.75118904  1
  Ta  Ta83  1  0.40130041  0.20078488  0.73836647  1
  Ta  Ta84  1  0.00859551  0.58747391  -0.00252780  1
  Ta  Ta85  1  0.10178318  0.48643945  0.39525706  1
  Ta  Ta86  1  0.69424535  0.29483666  0.88532873  1
  Ta  Ta87  1  0.29698362  0.10230555  0.62658599  1
  Ta  Ta88  1  0.00245389  0.79419264  0.24922220  1
  Ta  Ta89  1  0.79449285  0.19856404  0.00370538  1
  Ta  Ta90  1  0.79686087  0.19542453  0.23785448  1
  Ta  Ta91  1  0.70939013  0.69291098  0.35239647  1
  Ta  Ta92  1  0.08313583  0.89891718  0.63092701  1
  Ta  Ta93  1  0.79752193  0.61261038  0.49232416  1
  Ta  Ta94  1  0.59641422  -0.00014684  0.02911625  1
  Ta  Ta95  1  0.27665950  0.32157490  0.37502278  1
  Ta  Ta96  1  0.41429395  0.79893625  0.75089498  1
  Ta  Ta97  1  0.29146232  0.50999706  0.86065895  1
  Ta  Ta98  1  0.89349527  0.29249205  0.87107532  1
  Ta  Ta99  1  -0.00343844  0.19239783  0.75522876  1
  Ta  Ta100  1  0.29744442  0.10282534  0.11352858  1
  Ta  Ta101  1  0.91071926  0.50812724  0.61496176  1
  Ta  Ta102  1  0.10048752  0.89741782  0.10513557  1
  Ta  Ta103  1  0.29566483  0.51194574  0.13530461  1
  Ta  Ta104  1  0.19804440  0.00014420  0.23613550  1
  Ta  Ta105  1  0.49994813  0.50202122  0.63184491  1
  Ta  Ta106  1  0.90782128  0.69350280  0.87537727  1
  Ta  Ta107  1  0.60079213  0.00155590  0.24540463  1
  Ta  Ta108  1  0.59645137  0.19099612  0.01751482  1
  Ta  Ta109  1  0.09171511  0.09498653  0.63589852  1
  Ta  Ta110  1  0.09464561  0.30100564  0.85864817  1
  Ta  Ta111  1  -0.00139462  -0.00219939  0.76244044  1
  Ta  Ta112  1  0.50597038  0.09879763  0.37941711  1
  Ta  Ta113  1  0.89819193  0.09544651  0.10864194  1
  Ta  Ta114  1  0.49895933  0.69918298  0.14616614  1
  Ta  Ta115  1  0.50640188  0.90480120  0.37537160  1
  Ta  Ta116  1  0.91305408  0.89885213  0.11337576  1
  Ta  Ta117  1  0.38782359  0.40866316  0.25800302  1
  Ta  Ta118  1  0.19575124  0.19644686  0.74741139  1
  Ta  Ta119  1  0.79542802  0.40247564  -0.01073350  1
  Ti  Ti120  1  0.61412870  0.79032557  0.74158822  1
  Ti  Ti121  1  0.88983362  0.70885737  0.62833114  1
  Ti  Ti122  1  0.59889235  0.18861242  0.23607232  1
  Ti  Ti123  1  0.61595053  -0.01318277  0.49294400  1
  Ti  Ti124  1  0.29361588  0.31001337  0.12975257  1
  Ti  Ti125  1  0.81467905  0.41229976  0.24943465  1
  Ti  Ti126  1  0.10193651  0.09985653  0.88012244  1
  Ti  Ti127  1  0.89976083  0.09655223  0.88328273  1
  Ti  Ti128  1  0.50888240  0.70083860  0.86126270  1
  Ti  Ti129  1  0.51890447  0.68643298  0.63415085  1
  Ti  Ti130  1  -0.01142757  0.80693348  0.76540537  1
  Ti  Ti131  1  0.32443206  0.69765019  0.63084183  1
  Ti  Ti132  1  0.69684702  0.89532982  0.87182857  1
  Ti  Ti133  1  0.19287749  0.80657680  0.24266843  1
  Ti  Ti134  1  0.60032289  0.21352020  0.50670546  1
  Ti  Ti135  1  0.71610792  0.87739880  0.62043049  1
  Ti  Ti136  1  0.08947299  0.69678986  0.38056917  1
  Ti  Ti137  1  0.81726179  0.80400793  0.26480253  1
  Ti  Ti138  1  0.41283891  0.79201643  0.49140866  1
  Ti  Ti139  1  0.39513768  0.60609306  0.00846590  1
  Ti  Ti140  1  0.40521854  0.80438297  0.25112929  1
  Ti  Ti141  1  0.30586383  0.70021654  0.13341603  1
  Ti  Ti142  1  0.69646745  0.69754885  0.87030887  1
  Ti  Ti143  1  0.80454606  0.80120287  0.76057422  1
  Ti  Ti144  1  -0.00648198  0.60973282  0.49820563  1
  Ti  Ti145  1  0.69314776  0.50149453  0.87872104  1
  Ti  Ti146  1  0.39993522  -0.00329581  0.49120013  1
  Ti  Ti147  1  0.08859960  0.30969823  0.37104057  1
  Ti  Ti148  1  -0.01360894  -0.01075560  0.50622659  1
  Ti  Ti149  1  0.80115751  0.19074175  0.51436752  1
  Ti  Ti150  1  -0.00082061  0.57561501  0.76097004  1
  Ti  Ti151  1  -0.00588108  0.20208108  -0.01194186  1
  Ti  Ti152  1  0.18642933  0.41269310  0.24491219  1
  Ti  Ti153  1  0.80840700  0.59269297  -0.01120489  1
  Ti  Ti154  1  0.41373131  0.00589286  0.01073258  1
  Ti  Ti155  1  0.17959080  0.40896672  0.73912373  1
  Ti  Ti156  1  0.30586552  0.90518861  0.88066111  1
  Ti  Ti157  1  0.40295585  0.60013537  0.26639832  1
  Ti  Ti158  1  -0.00342946  0.79603390  -0.00747607  1
  Ti  Ti159  1  0.21378019  0.79250776  -0.00446333  1
  Mo  Mo160  1  0.60117162  0.60461008  0.75799463  1
  Mo  Mo161  1  0.59670016  0.40112851  0.25725274  1
  Mo  Mo162  1  -0.00116569  0.79503417  0.49749715  1
  Mo  Mo163  1  0.21527523  0.60306140  0.00417117  1
  Mo  Mo164  1  0.08851722  0.49619484  0.61128464  1
  Mo  Mo165  1  0.39296483  0.20499238  0.01985537  1
  Mo  Mo166  1  0.90668423  0.09208279  0.63751550  1
  Mo  Mo167  1  0.20411259  -0.00101715  0.00179999  1
  Mo  Mo168  1  0.91103677  0.89798722  0.36857862  1
  Mo  Mo169  1  0.49693438  0.10201254  0.12468796  1
  Mo  Mo170  1  0.89757264  0.50373876  0.88258618  1
  Mo  Mo171  1  0.70073197  0.09758955  0.60619762  1
  Mo  Mo172  1  0.40323922  0.60273940  0.73945569  1
  Mo  Mo173  1  -0.00040020  0.39567044  0.25758419  1
  Mo  Mo174  1  0.49882168  0.31070951  0.61182571  1
  Mo  Mo175  1  0.70307116  0.10226642  0.12700390  1
  Mo  Mo176  1  0.70065068  0.89808025  0.36460315  1
  Mo  Mo177  1  0.10616846  0.50172921  0.86855228  1
  Mo  Mo178  1  0.09698649  0.49937225  0.12141690  1
  Mo  Mo179  1  0.89716030  0.49483177  0.10846993  1
  Mo  Mo180  1  0.90883186  0.69649045  0.36335128  1
  Mo  Mo181  1  -0.00499611  -0.00052990  -0.01689432  1
  Mo  Mo182  1  0.89824483  0.10100551  0.37724257  1
  Mo  Mo183  1  0.70407957  0.49976873  0.35783303  1
  Mo  Mo184  1  0.90238942  0.89517369  0.87964396  1
  Mo  Mo185  1  -0.00065627  0.40113828  0.75926962  1
  Mo  Mo186  1  0.50141873  0.89783993  0.14153940  1
  Mo  Mo187  1  0.49957806  0.70369998  0.35792904  1
  Mo  Mo188  1  0.90988508  0.88687665  0.63711665  1
  Mo  Mo189  1  0.49769580  0.10070728  0.90037646  1
  Mo  Mo190  1  0.59798649  0.59989302  0.26144112  1
  Mo  Mo191  1  0.50143694  0.49742702  0.35774386  1
  Mo  Mo192  1  0.00407640  0.39553376  0.50484731  1
  Mo  Mo193  1  0.80770866  0.59417467  0.26373197  1
  Mo  Mo194  1  0.09375481  0.30022816  0.64739359  1
  Mo  Mo195  1  0.59074858  0.40040688  0.50161058  1
  Mo  Mo196  1  0.60252241  0.39803712  -0.01604119  1
  Mo  Mo197  1  0.70530550  0.70436384  0.62261941  1
  Mo  Mo198  1  0.19495440  0.40561047  0.51422679  1
  Mo  Mo199  1  0.29260898  0.50182082  0.36553304  1
