# generated using pymatgen
data_HfZrTaTiMo
_symmetry_space_group_name_H-M   'P 1'
_cell_length_a   15.84827099
_cell_length_b   15.82965373
_cell_length_c   15.39996585
_cell_angle_alpha   89.99167011
_cell_angle_beta   90.03413009
_cell_angle_gamma   89.99524317
_symmetry_Int_Tables_number   1
_chemical_formula_structural   HfZrTaTiMo
_chemical_formula_sum   'Hf40 Zr40 Ta40 Ti40 Mo40'
_cell_volume   3863.42937996
_cell_formula_units_Z   40
loop_
 _symmetry_equiv_pos_site_id
 _symmetry_equiv_pos_as_xyz
  1  'x, y, z'
loop_
 _atom_site_type_symbol
 _atom_site_label
 _atom_site_symmetry_multiplicity
 _atom_site_fract_x
 _atom_site_fract_y
 _atom_site_fract_z
 _atom_site_occupancy
  Hf  Hf0  1  0.70461936  0.49205572  0.62325942  1
  Hf  Hf1  1  0.00403214  0.00295157  0.00567150  1
  Hf  Hf2  1  0.48752313  0.88379162  0.61111077  1
  Hf  Hf3  1  0.69765967  0.89979727  0.59997942  1
  Hf  Hf4  1  0.31496992  0.71073323  0.61424256  1
  Hf  Hf5  1  0.90471531  0.11340971  0.13871461  1
  Hf  Hf6  1  -0.00258885  0.00415760  0.48770181  1
  Hf  Hf7  1  0.20479265  0.20923553  0.23807524  1
  Hf  Hf8  1  0.21044708  0.79966689  0.25126759  1
  Hf  Hf9  1  0.10259054  0.50116840  0.61864203  1
  Hf  Hf10  1  -0.00894909  0.80456999  0.47947940  1
  Hf  Hf11  1  0.50995908  0.49415068  0.63226305  1
  Hf  Hf12  1  0.80760465  0.38753748  0.76056958  1
  Hf  Hf13  1  0.21770860  0.81024373  -0.00644865  1
  Hf  Hf14  1  0.69401759  0.29319690  0.88561947  1
  Hf  Hf15  1  0.58585730  0.39490963  0.24788625  1
  Hf  Hf16  1  0.20961574  0.60978019  0.76715377  1
  Hf  Hf17  1  0.79160467  0.60065083  0.00573565  1
  Hf  Hf18  1  0.80327990  -0.00226811  0.25811578  1
  Hf  Hf19  1  0.59191438  0.60414403  0.01560245  1
  Hf  Hf20  1  0.40058805  -0.01661960  -0.01589881  1
  Hf  Hf21  1  0.79949372  0.00118354  0.01112159  1
  Hf  Hf22  1  0.60424711  0.59823431  0.49127666  1
  Hf  Hf23  1  -0.00226326  0.20181678  0.48354264  1
  Hf  Hf24  1  0.10683173  0.90556113  0.12680644  1
  Hf  Hf25  1  -0.00587914  0.60582771  0.49421780  1
  Hf  Hf26  1  0.50051393  0.87887352  0.12502455  1
  Hf  Hf27  1  0.89107690  0.30543851  0.13541156  1
  Hf  Hf28  1  0.89646771  0.70498059  0.87254516  1
  Hf  Hf29  1  0.11360299  0.90699662  0.37304756  1
  Hf  Hf30  1  0.89664297  0.50339649  0.13216425  1
  Hf  Hf31  1  0.11406490  0.50335639  0.38779661  1
  Hf  Hf32  1  0.89681366  0.50423660  0.87097400  1
  Hf  Hf33  1  0.09443467  0.70656589  0.12323196  1
  Hf  Hf34  1  0.78399205  0.81284237  0.75018185  1
  Hf  Hf35  1  0.00341990  0.00620651  0.26161785  1
  Hf  Hf36  1  0.49705523  0.08846625  0.62992950  1
  Hf  Hf37  1  0.21224996  0.59166820  0.24491265  1
  Hf  Hf38  1  0.49467704  0.29460976  0.64130141  1
  Hf  Hf39  1  0.11521230  0.29991182  0.37912555  1
  Zr  Zr40  1  0.88768214  0.30544002  0.59913693  1
  Zr  Zr41  1  0.21812111  0.81760494  0.49666847  1
  Zr  Zr42  1  0.33019396  0.70157051  0.12756790  1
  Zr  Zr43  1  0.88956331  0.49630863  0.37263749  1
  Zr  Zr44  1  0.60538391  -0.01825214  0.75492432  1
  Zr  Zr45  1  0.30253964  0.09845888  0.11546427  1
  Zr  Zr46  1  0.10209201  0.11400308  0.62853035  1
  Zr  Zr47  1  0.39820910  0.21369919  0.23782409  1
  Zr  Zr48  1  0.69657695  0.29694244  0.61386319  1
  Zr  Zr49  1  0.41322867  0.60379123  0.76292620  1
  Zr  Zr50  1  0.89995576  0.71856184  0.63253258  1
  Zr  Zr51  1  0.09293629  0.29767313  0.12317214  1
  Zr  Zr52  1  0.68525646  0.50657309  0.86136892  1
  Zr  Zr53  1  0.00431686  0.39829389  0.26260615  1
  Zr  Zr54  1  -0.01923994  0.21283172  0.75333995  1
  Zr  Zr55  1  0.60300846  -0.00352998  0.00191027  1
  Zr  Zr56  1  0.47229522  0.49545670  0.12213198  1
  Zr  Zr57  1  0.69680823  0.70649279  0.14478068  1
  Zr  Zr58  1  -0.01135634  0.00651433  0.74468556  1
  Zr  Zr59  1  0.30476091  0.50088896  0.62252136  1
  Zr  Zr60  1  0.10101367  0.49546933  0.11708168  1
  Zr  Zr61  1  0.09887748  0.31026891  0.86668957  1
  Zr  Zr62  1  0.58955506  0.19581305  0.49764161  1
  Zr  Zr63  1  0.48700438  0.09937373  0.36447254  1
  Zr  Zr64  1  0.30135397  0.29337493  0.86502642  1
  Zr  Zr65  1  0.09641634  0.30951742  0.62986207  1
  Zr  Zr66  1  0.79497933  0.19147134  0.75211547  1
  Zr  Zr67  1  0.91153484  0.89645322  0.87714970  1
  Zr  Zr68  1  0.20695834  -0.00841258  0.74638983  1
  Zr  Zr69  1  0.89998006  0.49838544  0.62467652  1
  Zr  Zr70  1  0.79130899  0.00639268  0.75226726  1
  Zr  Zr71  1  0.79528591  0.80475158  0.00440407  1
  Zr  Zr72  1  0.11115327  0.69977409  0.61367865  1
  Zr  Zr73  1  0.41086742  0.19328336  -0.00809291  1
  Zr  Zr74  1  0.30104212  0.48781477  0.89487897  1
  Zr  Zr75  1  0.09159736  0.89438641  0.62635424  1
  Zr  Zr76  1  0.00808695  0.60556797  0.75139784  1
  Zr  Zr77  1  0.59607834  0.78593664  0.47766508  1
  Zr  Zr78  1  0.20304131  0.60579006  0.00142507  1
  Zr  Zr79  1  0.39566184  0.80026757  0.76993996  1
  Ta  Ta80  1  0.59245356  0.59696415  0.25633704  1
  Ta  Ta81  1  0.10877802  0.69890711  0.37452650  1
  Ta  Ta82  1  0.29626770  0.10606496  0.37499933  1
  Ta  Ta83  1  -0.01026831  0.40119187  -0.00916139  1
  Ta  Ta84  1  0.90074918  0.70256504  0.13873584  1
  Ta  Ta85  1  0.89594083  0.10531646  0.88985455  1
  Ta  Ta86  1  0.08889288  0.71741956  0.88646197  1
  Ta  Ta87  1  0.30347440  0.32328893  0.09685200  1
  Ta  Ta88  1  0.59684101  0.39660751  0.48453035  1
  Ta  Ta89  1  0.50397313  0.09079590  0.13378610  1
  Ta  Ta90  1  0.79642516  0.79781056  0.47889575  1
  Ta  Ta91  1  0.69628156  0.29788861  0.36183105  1
  Ta  Ta92  1  0.69541708  0.10739418  0.36091803  1
  Ta  Ta93  1  -0.00344478  0.20387426  -0.00754106  1
  Ta  Ta94  1  0.59692190  0.39999938  0.00299306  1
  Ta  Ta95  1  0.79223629  0.61169150  0.49534751  1
  Ta  Ta96  1  0.38938111  -0.00433214  0.50199886  1
  Ta  Ta97  1  0.69618440  0.90005611  0.14270246  1
  Ta  Ta98  1  0.29835157  0.09911112  0.86646568  1
  Ta  Ta99  1  0.69334547  0.10558666  0.14120407  1
  Ta  Ta100  1  0.68103940  0.71194090  0.87451721  1
  Ta  Ta101  1  0.88307305  0.10253793  0.59767981  1
  Ta  Ta102  1  0.21053215  0.01377605  0.50935053  1
  Ta  Ta103  1  0.30529694  0.69594520  0.38110958  1
  Ta  Ta104  1  0.19518533  0.19772291  -0.00489385  1
  Ta  Ta105  1  0.79501887  0.20052837  0.01041731  1
  Ta  Ta106  1  0.60510269  0.18755145  0.74576814  1
  Ta  Ta107  1  0.20135463  0.79860955  0.76349363  1
  Ta  Ta108  1  0.29987866  0.29156560  0.64117773  1
  Ta  Ta109  1  0.50961845  0.29694266  0.86790597  1
  Ta  Ta110  1  0.52207096  0.87160427  0.88555825  1
  Ta  Ta111  1  0.20827076  0.00872697  0.24825989  1
  Ta  Ta112  1  0.41290508  0.60346666  0.49432588  1
  Ta  Ta113  1  0.59266482  -0.01143957  0.26091474  1
  Ta  Ta114  1  0.10080022  0.10405517  0.87010133  1
  Ta  Ta115  1  0.30369203  0.49507716  0.39271582  1
  Ta  Ta116  1  0.31223479  0.90266590  0.13424804  1
  Ta  Ta117  1  0.30282883  0.29767525  0.38840393  1
  Ta  Ta118  1  0.40629854  0.39203746  0.50315626  1
  Ta  Ta119  1  -0.00099507  0.80176713  0.25763685  1
  Ti  Ti120  1  -0.00733388  0.60614842  0.00147906  1
  Ti  Ti121  1  0.41686412  0.80083047  0.27323115  1
  Ti  Ti122  1  0.21348829  0.40263096  0.24509970  1
  Ti  Ti123  1  0.09906669  0.10645598  0.12689284  1
  Ti  Ti124  1  0.89730623  0.69683177  0.35939682  1
  Ti  Ti125  1  0.78555113  0.61467914  0.74044989  1
  Ti  Ti126  1  0.89119585  0.90856349  0.61405802  1
  Ti  Ti127  1  0.38578833  0.40158406  0.25769199  1
  Ti  Ti128  1  0.79830853  -0.00238640  0.47001616  1
  Ti  Ti129  1  0.00743200  0.60233966  0.25589652  1
  Ti  Ti130  1  0.30659289  0.10439571  0.64370254  1
  Ti  Ti131  1  0.69391587  0.10103708  0.88894617  1
  Ti  Ti132  1  0.40722212  0.60713813  -0.01482750  1
  Ti  Ti133  1  0.79337369  0.59744909  0.25403638  1
  Ti  Ti134  1  0.50328741  0.29457002  0.11046192  1
  Ti  Ti135  1  0.40538830  -0.01039891  0.76190857  1
  Ti  Ti136  1  0.59409224  -0.00398616  0.47855079  1
  Ti  Ti137  1  0.38784114  0.19518631  0.50803937  1
  Ti  Ti138  1  0.09948281  0.90265018  0.87630353  1
  Ti  Ti139  1  0.11367225  0.10892432  0.37612462  1
  Ti  Ti140  1  0.79420710  0.40099579  0.00078796  1
  Ti  Ti141  1  0.50595126  0.09984993  0.86605523  1
  Ti  Ti142  1  0.69893261  0.48933548  0.13628290  1
  Ti  Ti143  1  0.70007784  0.09446568  0.60155786  1
  Ti  Ti144  1  0.40008389  0.59323353  0.26379523  1
  Ti  Ti145  1  0.20250639  0.00437702  -0.00639941  1
  Ti  Ti146  1  0.59363576  0.78042734  0.73141527  1
  Ti  Ti147  1  0.90444029  0.89180442  0.13213584  1
  Ti  Ti148  1  0.88261434  0.29387619  0.36377560  1
  Ti  Ti149  1  -0.00517506  0.39934857  0.48530428  1
  Ti  Ti150  1  0.09604415  0.50376653  0.88111967  1
  Ti  Ti151  1  0.21098305  0.39167148  0.51098228  1
  Ti  Ti152  1  0.49392526  0.49236030  0.37723866  1
  Ti  Ti153  1  0.69557443  0.29675507  0.13275903  1
  Ti  Ti154  1  0.40854757  0.40268281  0.76313560  1
  Ti  Ti155  1  0.49370130  0.29575318  0.37496375  1
  Ti  Ti156  1  0.19951324  0.40915974  0.74816431  1
  Ti  Ti157  1  0.31267609  0.91299429  0.36303189  1
  Ti  Ti158  1  0.79880963  0.80666991  0.26899918  1
  Ti  Ti159  1  0.69953695  0.49266516  0.36900907  1
  Mo  Mo160  1  0.90147748  0.89803234  0.37025894  1
  Mo  Mo161  1  0.40231670  0.80208444  0.48110545  1
  Mo  Mo162  1  0.70660493  0.69152829  0.35881679  1
  Mo  Mo163  1  0.79283345  0.19374951  0.47538042  1
  Mo  Mo164  1  0.50135786  0.69283553  0.61950207  1
  Mo  Mo165  1  0.70101354  0.69924068  0.62267838  1
  Mo  Mo166  1  0.60189207  0.80028616  0.26597278  1
  Mo  Mo167  1  0.20186717  0.19817097  0.75516656  1
  Mo  Mo168  1  0.69770390  0.90209723  0.37223227  1
  Mo  Mo169  1  0.49443313  0.90067636  0.38280524  1
  Mo  Mo170  1  0.78733561  0.40171791  0.47693929  1
  Mo  Mo171  1  0.30246136  0.49638052  0.11384952  1
  Mo  Mo172  1  0.39846907  -0.00337679  0.24805798  1
  Mo  Mo173  1  0.60264187  0.19664982  0.01629109  1
  Mo  Mo174  1  0.30186890  0.90272332  0.87593633  1
  Mo  Mo175  1  0.59326166  0.20062801  0.23896598  1
  Mo  Mo176  1  0.40721192  0.18758911  0.75897654  1
  Mo  Mo177  1  0.41440211  0.39552356  -0.01826776  1
  Mo  Mo178  1  0.70064201  0.89592702  0.88630492  1
  Mo  Mo179  1  0.19146460  0.39784550  -0.00127604  1
  Mo  Mo180  1  -0.00217837  0.40935076  0.76763875  1
  Mo  Mo181  1  0.89629654  0.10685052  0.37297717  1
  Mo  Mo182  1  0.49962910  0.69524157  0.14867567  1
  Mo  Mo183  1  0.20975514  0.60144769  0.49415828  1
  Mo  Mo184  1  0.89122832  0.30156659  0.89737197  1
  Mo  Mo185  1  0.60345968  0.79182139  0.01461001  1
  Mo  Mo186  1  0.00216534  0.19785436  0.26939542  1
  Mo  Mo187  1  0.79492894  0.20230165  0.25147624  1
  Mo  Mo188  1  0.60460834  0.60594939  0.73422979  1
  Mo  Mo189  1  0.00643245  0.80656844  0.74914545  1
  Mo  Mo190  1  0.51055635  0.69100543  0.87563645  1
  Mo  Mo191  1  -0.00019214  0.80048083  0.01892357  1
  Mo  Mo192  1  0.30073601  0.70050782  0.88611777  1
  Mo  Mo193  1  0.50576589  0.49391864  0.87680611  1
  Mo  Mo194  1  0.21089309  0.20035938  0.50977703  1
  Mo  Mo195  1  0.30602281  0.90903250  0.63239469  1
  Mo  Mo196  1  0.78691842  0.40239515  0.25059894  1
  Mo  Mo197  1  0.60047058  0.39422564  0.75892488  1
  Mo  Mo198  1  0.49790258  0.69026545  0.36112473  1
  Mo  Mo199  1  0.41040045  0.78831343  -0.01142607  1
