# generated using pymatgen
data_HfZrTaTiMo
_symmetry_space_group_name_H-M   'P 1'
_cell_length_a   15.83982067
_cell_length_b   15.82128370
_cell_length_c   15.40995193
_cell_angle_alpha   89.95562890
_cell_angle_beta   90.03382555
_cell_angle_gamma   89.90377425
_symmetry_Int_Tables_number   1
_chemical_formula_structural   HfZrTaTiMo
_chemical_formula_sum   'Hf40 Zr40 Ta40 Ti40 Mo40'
_cell_volume   3861.82370514
_cell_formula_units_Z   40
loop_
 _symmetry_equiv_pos_site_id
 _symmetry_equiv_pos_as_xyz
  1  'x, y, z'
loop_
 _atom_site_type_symbol
 _atom_site_label
 _atom_site_symmetry_multiplicity
 _atom_site_fract_x
 _atom_site_fract_y
 _atom_site_fract_z
 _atom_site_occupancy
  Hf  Hf0  1  0.71312273  0.89442557  0.62353591  1
  Hf  Hf1  1  0.62202409  0.79695036  0.76458650  1
  Hf  Hf2  1  -0.00249618  0.59000297  0.24341105  1
  Hf  Hf3  1  0.59290107  0.41203328  0.75992800  1
  Hf  Hf4  1  0.70517571  0.50775832  0.36205762  1
  Hf  Hf5  1  0.80013122  -0.00270756  0.76564318  1
  Hf  Hf6  1  0.79931002  0.00029227  0.49107854  1
  Hf  Hf7  1  0.29688764  0.28926522  0.37257212  1
  Hf  Hf8  1  0.40222516  0.19288283  0.50504247  1
  Hf  Hf9  1  0.89886722  0.50216439  0.88452625  1
  Hf  Hf10  1  0.19242976  0.20126923  0.75231013  1
  Hf  Hf11  1  0.39374541  0.20098168  0.01093667  1
  Hf  Hf12  1  0.50166268  0.51019362  0.13243624  1
  Hf  Hf13  1  0.40945304  0.79582864  0.50236592  1
  Hf  Hf14  1  -0.03577841  0.60247884  0.47860729  1
  Hf  Hf15  1  0.91429241  0.70791056  0.88397403  1
  Hf  Hf16  1  0.40187275  0.40137945  0.49932206  1
  Hf  Hf17  1  0.91084067  0.30516215  0.88750109  1
  Hf  Hf18  1  0.92355754  0.11030380  0.39174939  1
  Hf  Hf19  1  0.40562348  0.59339945  0.50438849  1
  Hf  Hf20  1  -0.00593960  0.59717375  0.02164192  1
  Hf  Hf21  1  0.61056339  0.00477116  0.26891635  1
  Hf  Hf22  1  0.19604937  0.40078200  0.48641880  1
  Hf  Hf23  1  0.89177596  0.09883139  0.62787823  1
  Hf  Hf24  1  0.00203116  0.20389387  0.75111706  1
  Hf  Hf25  1  0.18824583  0.59296707  0.47427502  1
  Hf  Hf26  1  0.19976747  -0.01406129  0.74923934  1
  Hf  Hf27  1  0.51443052  0.89213305  0.14239800  1
  Hf  Hf28  1  0.50496938  0.11113551  0.86931642  1
  Hf  Hf29  1  0.30548216  0.89149824  0.87628241  1
  Hf  Hf30  1  0.60783750  0.80358113  -0.01429093  1
  Hf  Hf31  1  0.60781193  0.00762241  0.75213271  1
  Hf  Hf32  1  0.70598166  0.09662589  0.12534552  1
  Hf  Hf33  1  0.52294437  0.69331744  0.63120783  1
  Hf  Hf34  1  0.51969092  0.29583833  0.62493611  1
  Hf  Hf35  1  0.30259516  0.89752478  0.11804971  1
  Hf  Hf36  1  0.28125183  0.70422188  0.61864998  1
  Hf  Hf37  1  0.49353601  0.09208533  0.13270599  1
  Hf  Hf38  1  0.59873491  0.60413671  -0.01126951  1
  Hf  Hf39  1  0.79622665  0.19576076  -0.00282457  1
  Zr  Zr40  1  0.69645654  0.30882858  0.12517064  1
  Zr  Zr41  1  0.30622563  0.10139953  0.86836335  1
  Zr  Zr42  1  0.60066011  0.20081204  0.25335810  1
  Zr  Zr43  1  0.07789425  0.71532278  0.36761118  1
  Zr  Zr44  1  0.82991421  0.79545248  0.50156519  1
  Zr  Zr45  1  0.60187747  0.00525163  0.49631133  1
  Zr  Zr46  1  0.79245664  0.20973897  0.49737209  1
  Zr  Zr47  1  0.08705304  0.69503295  0.60761771  1
  Zr  Zr48  1  0.20143544  0.00828244  0.26348747  1
  Zr  Zr49  1  0.00371962  -0.01338652  0.75130246  1
  Zr  Zr50  1  -0.00817401  0.40784819  0.49390244  1
  Zr  Zr51  1  0.10864824  0.70712891  0.12192863  1
  Zr  Zr52  1  0.29664350  0.31274020  0.87605692  1
  Zr  Zr53  1  0.59805471  0.40312205  0.48502645  1
  Zr  Zr54  1  0.38747430  0.80274177  0.73161179  1
  Zr  Zr55  1  0.68848098  0.30685066  0.88513634  1
  Zr  Zr56  1  0.81782501  0.01362466  0.25525199  1
  Zr  Zr57  1  0.40022539  -0.00817611  0.50573364  1
  Zr  Zr58  1  0.71599047  0.70298815  0.36705390  1
  Zr  Zr59  1  0.67860153  0.70750944  0.14157996  1
  Zr  Zr60  1  0.20329149  0.59089871  0.25925883  1
  Zr  Zr61  1  0.18314978  0.60404800  0.75794331  1
  Zr  Zr62  1  0.69456369  0.50671617  0.62395129  1
  Zr  Zr63  1  0.48741853  0.69765132  0.86352960  1
  Zr  Zr64  1  0.40528204  0.20331962  0.73585519  1
  Zr  Zr65  1  0.89134868  0.30815122  0.63362882  1
  Zr  Zr66  1  0.40854015  0.79251734  0.00826853  1
  Zr  Zr67  1  0.20509654  0.00318416  -0.01603853  1
  Zr  Zr68  1  0.30254972  0.50186209  0.87934774  1
  Zr  Zr69  1  0.09785570  0.09928483  0.60417623  1
  Zr  Zr70  1  0.09888073  0.90892052  0.11380433  1
  Zr  Zr71  1  -0.00036827  0.19259267  0.23386244  1
  Zr  Zr72  1  0.08751250  0.27605038  0.38526067  1
  Zr  Zr73  1  0.10101611  0.48431078  0.89435694  1
  Zr  Zr74  1  0.20956121  0.80698965  0.26076094  1
  Zr  Zr75  1  0.28369648  0.49623525  0.62677450  1
  Zr  Zr76  1  0.40739155  0.58741222  0.73701761  1
  Zr  Zr77  1  0.61074612  -0.00060572  -0.01094058  1
  Zr  Zr78  1  0.27742877  0.30008193  0.13396879  1
  Zr  Zr79  1  0.60279180  0.19566146  0.47743114  1
  Ta  Ta80  1  0.79605524  0.60743548  0.01222466  1
  Ta  Ta81  1  0.59144024  0.20331834  0.00766424  1
  Ta  Ta82  1  0.10318983  0.10514478  0.10464423  1
  Ta  Ta83  1  0.51350211  0.89608167  0.63152486  1
  Ta  Ta84  1  0.00299223  0.40331994  0.74772570  1
  Ta  Ta85  1  0.08467180  0.50006949  0.62179436  1
  Ta  Ta86  1  0.89483261  0.30721833  0.36559868  1
  Ta  Ta87  1  0.40123399  0.39866533  0.73404825  1
  Ta  Ta88  1  0.60769419  0.80115167  0.49101372  1
  Ta  Ta89  1  0.11242138  0.88772149  0.61064402  1
  Ta  Ta90  1  0.20907562  0.80536694  0.47809224  1
  Ta  Ta91  1  0.71298513  0.69466751  0.61962165  1
  Ta  Ta92  1  0.50085115  0.89293967  0.36709018  1
  Ta  Ta93  1  0.31757728  0.69272658  0.37172263  1
  Ta  Ta94  1  0.90421943  0.90398864  0.11948614  1
  Ta  Ta95  1  0.70991333  0.30818404  0.35721602  1
  Ta  Ta96  1  0.29292467  0.09643729  0.61981035  1
  Ta  Ta97  1  0.40292418  0.00002127  0.73046695  1
  Ta  Ta98  1  0.59893820  0.60546498  0.48625973  1
  Ta  Ta99  1  0.49888388  0.90414460  0.85874965  1
  Ta  Ta100  1  0.28415459  0.70364830  0.87788973  1
  Ta  Ta101  1  0.10066845  0.87035898  0.88987368  1
  Ta  Ta102  1  0.38929516  0.40435695  0.25036480  1
  Ta  Ta103  1  0.91381482  0.88342316  0.35434607  1
  Ta  Ta104  1  0.80261517  0.41575042  0.49067585  1
  Ta  Ta105  1  0.39529733  0.40378274  0.02011329  1
  Ta  Ta106  1  0.48310369  0.09800688  0.36269037  1
  Ta  Ta107  1  0.90045060  0.30346159  0.11512962  1
  Ta  Ta108  1  0.79559224  0.41077085  0.76553347  1
  Ta  Ta109  1  0.38575496  0.19219794  0.24535237  1
  Ta  Ta110  1  -0.00899048  -0.02180930  0.50817299  1
  Ta  Ta111  1  0.80757684  0.60161518  0.22597353  1
  Ta  Ta112  1  0.89042778  0.51174735  0.64007417  1
  Ta  Ta113  1  0.59261891  0.40411425  0.25622193  1
  Ta  Ta114  1  0.71290478  0.89338358  0.36691978  1
  Ta  Ta115  1  0.69224713  0.50217571  0.12528106  1
  Ta  Ta116  1  0.80013152  0.80132714  0.00813776  1
  Ta  Ta117  1  0.89646151  0.69595563  0.64471923  1
  Ta  Ta118  1  0.90380517  0.10017386  0.88246407  1
  Ta  Ta119  1  0.49327804  0.30541440  0.13342766  1
  Ti  Ti120  1  0.40176001  0.79091300  0.24514539  1
  Ti  Ti121  1  0.49212922  0.29959896  0.36080578  1
  Ti  Ti122  1  0.80621870  0.40620244  0.23876587  1
  Ti  Ti123  1  0.28915086  0.29536400  0.61832481  1
  Ti  Ti124  1  0.00035032  0.59737031  0.76072701  1
  Ti  Ti125  1  0.19191570  0.20961613  -0.01359001  1
  Ti  Ti126  1  0.09319640  0.90544750  0.38195544  1
  Ti  Ti127  1  0.19152685  0.18497449  0.25776391  1
  Ti  Ti128  1  0.91062861  0.89796463  0.89132631  1
  Ti  Ti129  1  0.08880244  0.10120406  0.88652258  1
  Ti  Ti130  1  0.79460109  0.41265183  0.00338601  1
  Ti  Ti131  1  0.79902060  -0.00616768  -0.00995732  1
  Ti  Ti132  1  0.80790730  0.20196999  0.24637717  1
  Ti  Ti133  1  0.29138046  0.09539460  0.12020989  1
  Ti  Ti134  1  0.78947805  0.20038180  0.76754234  1
  Ti  Ti135  1  0.39458521  0.60655234  0.01514169  1
  Ti  Ti136  1  0.01144163  0.00554552  0.25105745  1
  Ti  Ti137  1  0.38632725  -0.00664318  0.26034128  1
  Ti  Ti138  1  0.41070058  -0.00317241  -0.00349328  1
  Ti  Ti139  1  0.70831573  0.90078153  0.14016397  1
  Ti  Ti140  1  0.09358267  0.29947015  0.11094061  1
  Ti  Ti141  1  0.49216277  0.49059323  0.89192425  1
  Ti  Ti142  1  -0.00268304  0.39805786  0.24341196  1
  Ti  Ti143  1  0.79029546  0.60586204  0.77213243  1
  Ti  Ti144  1  0.29553072  0.50219491  0.13067535  1
  Ti  Ti145  1  0.01272343  0.79484120  0.74530793  1
  Ti  Ti146  1  0.18607507  0.40092232  0.26604965  1
  Ti  Ti147  1  0.48848319  0.51175564  0.35727232  1
  Ti  Ti148  1  0.91461831  0.09293400  0.09963952  1
  Ti  Ti149  1  0.18731156  0.39339674  0.74433014  1
  Ti  Ti150  1  0.10651929  0.48447136  0.12051459  1
  Ti  Ti151  1  0.61150166  0.59724954  0.77165462  1
  Ti  Ti152  1  0.20718094  -0.00210383  0.48388727  1
  Ti  Ti153  1  0.20517841  0.60198352  0.00658045  1
  Ti  Ti154  1  0.81119671  0.80164420  0.76068017  1
  Ti  Ti155  1  0.50893094  0.69820391  0.35674362  1
  Ti  Ti156  1  0.68879244  0.12014965  0.63626169  1
  Ti  Ti157  1  0.49236343  0.30773022  0.88482156  1
  Ti  Ti158  1  0.09744531  0.30047069  0.61207016  1
  Ti  Ti159  1  0.70469832  0.30755668  0.63695187  1
  Mo  Mo160  1  -0.00077544  -0.00121403  -0.01408610  1
  Mo  Mo161  1  0.18892018  0.79929886  0.75174652  1
  Mo  Mo162  1  0.20269078  0.19636355  0.50466105  1
  Mo  Mo163  1  0.90921764  0.89358160  0.64155244  1
  Mo  Mo164  1  0.31193578  0.89358801  0.37510041  1
  Mo  Mo165  1  0.30263167  0.49594798  0.36669414  1
  Mo  Mo166  1  0.71615756  0.10451707  0.36264456  1
  Mo  Mo167  1  0.20597800  0.79121324  0.00253148  1
  Mo  Mo168  1  0.09853922  0.30028553  0.88252429  1
  Mo  Mo169  1  -0.00341476  0.79898213  0.01430243  1
  Mo  Mo170  1  0.89457914  0.70439559  0.34458987  1
  Mo  Mo171  1  0.09889885  0.08957022  0.39312390  1
  Mo  Mo172  1  0.50500458  0.49852432  0.62148525  1
  Mo  Mo173  1  0.89326012  0.49270440  0.12313843  1
  Mo  Mo174  1  0.20228284  0.40190148  0.01259729  1
  Mo  Mo175  1  0.71753579  0.69970006  0.88417996  1
  Mo  Mo176  1  0.30530500  0.69247403  0.12987175  1
  Mo  Mo177  1  0.58580115  0.40223376  0.00501341  1
  Mo  Mo178  1  0.49785174  0.69990851  0.13898805  1
  Mo  Mo179  1  0.70397684  0.10636385  0.88081682  1
  Mo  Mo180  1  0.00154155  0.81058089  0.22984417  1
  Mo  Mo181  1  0.70055194  0.50257037  0.89445017  1
  Mo  Mo182  1  0.08891889  0.48983378  0.36657839  1
  Mo  Mo183  1  0.80542251  0.80640533  0.23177805  1
  Mo  Mo184  1  0.50400835  0.09799571  0.63310276  1
  Mo  Mo185  1  0.59970623  0.59843744  0.26149841  1
  Mo  Mo186  1  0.71422185  0.89885360  0.87618078  1
  Mo  Mo187  1  0.89750659  0.70835054  0.12712619  1
  Mo  Mo188  1  0.89104353  0.49457842  0.35068399  1
  Mo  Mo189  1  0.60165826  0.80567890  0.26682469  1
  Mo  Mo190  1  -0.00639701  0.20343507  0.51842792  1
  Mo  Mo191  1  -0.00181583  0.39995152  0.01854295  1
  Mo  Mo192  1  0.39809375  0.60448590  0.24250534  1
  Mo  Mo193  1  0.79810969  0.59807815  0.50198026  1
  Mo  Mo194  1  0.29472865  0.90145373  0.61273733  1
  Mo  Mo195  1  0.09991654  0.69368897  0.89140509  1
  Mo  Mo196  1  0.29851706  0.09996237  0.38377744  1
  Mo  Mo197  1  0.00141649  0.80076470  0.50474612  1
  Mo  Mo198  1  0.60723263  0.20785370  0.75805238  1
  Mo  Mo199  1  0.00131141  0.19923335  0.00339671  1
