# generated using pymatgen
data_HfZrTaTiMo
_symmetry_space_group_name_H-M   'P 1'
_cell_length_a   15.82850948
_cell_length_b   15.83644542
_cell_length_c   15.40279748
_cell_angle_alpha   90.01024361
_cell_angle_beta   90.02540178
_cell_angle_gamma   90.03110066
_symmetry_Int_Tables_number   1
_chemical_formula_structural   HfZrTaTiMo
_chemical_formula_sum   'Hf40 Zr40 Ta40 Ti40 Mo40'
_cell_volume   3860.97705262
_cell_formula_units_Z   40
loop_
 _symmetry_equiv_pos_site_id
 _symmetry_equiv_pos_as_xyz
  1  'x, y, z'
loop_
 _atom_site_type_symbol
 _atom_site_label
 _atom_site_symmetry_multiplicity
 _atom_site_fract_x
 _atom_site_fract_y
 _atom_site_fract_z
 _atom_site_occupancy
  Hf  Hf0  1  -0.00480191  0.79744210  -0.01274138  1
  Hf  Hf1  1  0.09840408  0.69608588  0.85097181  1
  Hf  Hf2  1  0.51432434  0.30056896  0.35288018  1
  Hf  Hf3  1  0.90567684  0.09330665  0.63512555  1
  Hf  Hf4  1  0.01054957  -0.00715033  0.24292242  1
  Hf  Hf5  1  0.90476860  0.09747572  0.11242450  1
  Hf  Hf6  1  0.10343819  0.69531917  0.63138040  1
  Hf  Hf7  1  0.38712257  0.79856297  0.26293308  1
  Hf  Hf8  1  0.60701804  0.80660968  0.50039379  1
  Hf  Hf9  1  0.78867129  0.20504114  0.00199556  1
  Hf  Hf10  1  0.20740733  0.40637129  0.25261716  1
  Hf  Hf11  1  0.40505294  0.79388387  -0.01093544  1
  Hf  Hf12  1  0.00112845  0.19384757  0.49657467  1
  Hf  Hf13  1  0.10072076  0.28302975  0.88772111  1
  Hf  Hf14  1  0.40768012  0.38633649  0.49549066  1
  Hf  Hf15  1  0.40327018  0.00476654  0.00300922  1
  Hf  Hf16  1  0.69739969  0.10212778  0.85770009  1
  Hf  Hf17  1  0.80784020  0.59629782  0.25078629  1
  Hf  Hf18  1  0.60230779  0.00335085  0.00246344  1
  Hf  Hf19  1  0.38477610  0.20026404  0.75317972  1
  Hf  Hf20  1  0.90774480  0.89226921  0.36989931  1
  Hf  Hf21  1  0.40891140  0.20568459  0.00949775  1
  Hf  Hf22  1  0.29888150  0.89837920  0.62289907  1
  Hf  Hf23  1  0.09996864  0.50903181  0.13025033  1
  Hf  Hf24  1  0.30069729  0.49838065  0.38549504  1
  Hf  Hf25  1  0.81058622  0.40257904  0.49686011  1
  Hf  Hf26  1  0.19462409  0.59616504  -0.00573988  1
  Hf  Hf27  1  0.50180522  0.70052127  0.37566438  1
  Hf  Hf28  1  0.59388935  0.39273837  -0.00501154  1
  Hf  Hf29  1  0.10741988  0.28513115  0.36201837  1
  Hf  Hf30  1  0.90896008  0.10267632  0.88396937  1
  Hf  Hf31  1  0.38852476  0.59654813  0.24667263  1
  Hf  Hf32  1  0.09618615  0.29969272  0.12834228  1
  Hf  Hf33  1  0.80163673  0.80603529  -0.01856154  1
  Hf  Hf34  1  0.89996699  0.50139247  0.88024741  1
  Hf  Hf35  1  0.08953074  0.69933223  0.37298425  1
  Hf  Hf36  1  0.09529745  0.08339750  0.89342569  1
  Hf  Hf37  1  0.89439662  0.30633969  0.12184349  1
  Hf  Hf38  1  0.69887855  0.49926462  0.62798869  1
  Hf  Hf39  1  0.09160519  0.88638857  0.63390227  1
  Zr  Zr40  1  0.59514122  0.20002401  0.00127672  1
  Zr  Zr41  1  0.49090697  0.91586618  0.38017902  1
  Zr  Zr42  1  0.69960518  0.31160279  0.64332644  1
  Zr  Zr43  1  0.91160171  0.70225519  0.63270368  1
  Zr  Zr44  1  0.60328090  0.21208018  0.49408604  1
  Zr  Zr45  1  0.81903950  0.21227556  0.75258411  1
  Zr  Zr46  1  0.88755779  0.28571435  0.36192381  1
  Zr  Zr47  1  0.50880547  0.30044520  0.64068646  1
  Zr  Zr48  1  0.19551851  0.39457934  0.76317870  1
  Zr  Zr49  1  0.90050683  0.09215469  0.36997504  1
  Zr  Zr50  1  -0.00577214  0.41491957  0.26657789  1
  Zr  Zr51  1  0.09764866  0.48598848  0.62421131  1
  Zr  Zr52  1  0.89366671  0.89123762  0.12758516  1
  Zr  Zr53  1  0.19782340  0.00795844  0.74186110  1
  Zr  Zr54  1  0.70400705  0.90797534  0.36894667  1
  Zr  Zr55  1  0.19553426  0.80424916  0.25571530  1
  Zr  Zr56  1  -0.00894447  0.57619311  0.49751875  1
  Zr  Zr57  1  0.40548198  0.79668485  0.75640677  1
  Zr  Zr58  1  0.80281389  0.80663433  0.51652657  1
  Zr  Zr59  1  0.29476780  0.10100475  0.88014646  1
  Zr  Zr60  1  0.29773840  0.29767827  0.61962080  1
  Zr  Zr61  1  0.29420133  0.69836807  0.62966632  1
  Zr  Zr62  1  0.79499032  0.00645642  0.50668742  1
  Zr  Zr63  1  0.68967331  0.10732691  0.64512706  1
  Zr  Zr64  1  0.21036387  0.19321614  0.02363873  1
  Zr  Zr65  1  0.30295631  0.09201611  0.37410121  1
  Zr  Zr66  1  0.50586940  0.49513691  0.37278141  1
  Zr  Zr67  1  0.89842835  0.70013420  0.38233159  1
  Zr  Zr68  1  0.50514296  0.89581777  0.13699034  1
  Zr  Zr69  1  0.61132470  0.60137018  0.24864412  1
  Zr  Zr70  1  0.50285664  0.49802872  0.61601096  1
  Zr  Zr71  1  0.19563578  0.79421216  -0.01212501  1
  Zr  Zr72  1  0.59719732  0.80806393  -0.01636195  1
  Zr  Zr73  1  0.70137517  0.70871726  0.11713078  1
  Zr  Zr74  1  0.59286725  0.60651718  -0.00736562  1
  Zr  Zr75  1  0.90124418  0.50477459  0.11357976  1
  Zr  Zr76  1  0.70470442  0.70046996  0.85788620  1
  Zr  Zr77  1  0.58736940  0.59874291  0.75891852  1
  Zr  Zr78  1  0.39784886  0.41043162  0.76063411  1
  Zr  Zr79  1  0.29183745  0.90652427  0.11818869  1
  Ta  Ta80  1  0.69876876  0.70167535  0.63399918  1
  Ta  Ta81  1  0.49356423  0.70004742  0.13163370  1
  Ta  Ta82  1  0.69588885  0.30659695  0.86262841  1
  Ta  Ta83  1  0.60861701  0.60757651  0.49786972  1
  Ta  Ta84  1  0.60018257  0.00981929  0.25612490  1
  Ta  Ta85  1  0.79584611  0.79071596  0.25105693  1
  Ta  Ta86  1  0.20076468  0.79667664  0.48734385  1
  Ta  Ta87  1  0.00871907  0.40507811  -0.00783685  1
  Ta  Ta88  1  0.09626151  0.90045519  0.38326075  1
  Ta  Ta89  1  0.69992061  0.91162775  0.85241618  1
  Ta  Ta90  1  0.78818367  0.40362338  0.25578310  1
  Ta  Ta91  1  0.09778656  0.90067853  0.11184979  1
  Ta  Ta92  1  0.20332265  0.19365051  0.50380071  1
  Ta  Ta93  1  0.80577511  0.60878668  -0.00236882  1
  Ta  Ta94  1  0.70317764  0.12151410  0.36080135  1
  Ta  Ta95  1  0.70410818  0.49219685  0.10822164  1
  Ta  Ta96  1  0.69858016  0.49531126  0.38459584  1
  Ta  Ta97  1  0.50109814  0.70423163  0.61667513  1
  Ta  Ta98  1  0.29576653  0.49920838  0.61060941  1
  Ta  Ta99  1  0.29975447  0.30181937  0.88644781  1
  Ta  Ta100  1  0.19236153  0.39347948  0.48675632  1
  Ta  Ta101  1  0.20900657  0.58510361  0.75842717  1
  Ta  Ta102  1  0.29226386  0.90259045  0.87018715  1
  Ta  Ta103  1  0.29520559  0.69336303  0.11945429  1
  Ta  Ta104  1  0.80001218  0.20612841  0.50966282  1
  Ta  Ta105  1  0.48919226  0.10370196  0.62141204  1
  Ta  Ta106  1  0.50071438  0.10080166  0.85743884  1
  Ta  Ta107  1  0.49872997  0.50167253  0.12234244  1
  Ta  Ta108  1  0.39403142  0.80164244  0.49285995  1
  Ta  Ta109  1  0.19764495  -0.00294239  0.50164199  1
  Ta  Ta110  1  0.09900088  0.29241619  0.62318865  1
  Ta  Ta111  1  0.30603944  0.28899419  0.36966167  1
  Ta  Ta112  1  0.00471130  0.18989597  0.23890166  1
  Ta  Ta113  1  0.79469686  -0.00368560  -0.00831389  1
  Ta  Ta114  1  0.39820111  0.19740309  0.24152153  1
  Ta  Ta115  1  0.50043537  0.90565309  0.61896954  1
  Ta  Ta116  1  0.39614504  0.40060487  0.01078730  1
  Ta  Ta117  1  0.80779541  0.81081892  0.74546354  1
  Ta  Ta118  1  0.39836688  0.60696656  0.49918940  1
  Ta  Ta119  1  0.59889785  0.01128356  0.50146363  1
  Ti  Ti120  1  0.50263752  0.91228756  0.85882577  1
  Ti  Ti121  1  0.79753996  0.59994614  0.50305638  1
  Ti  Ti122  1  -0.00134604  0.39062944  0.76414990  1
  Ti  Ti123  1  0.91306273  0.30782566  0.62429068  1
  Ti  Ti124  1  0.00080276  -0.00955738  0.50707830  1
  Ti  Ti125  1  0.48585547  0.50743510  0.88921167  1
  Ti  Ti126  1  0.69875667  0.90489142  0.13243851  1
  Ti  Ti127  1  0.00130607  0.57857897  0.74798068  1
  Ti  Ti128  1  0.69827544  0.91052248  0.64243454  1
  Ti  Ti129  1  0.39902818  0.40316183  0.24033474  1
  Ti  Ti130  1  0.69605586  0.29998103  0.14120507  1
  Ti  Ti131  1  0.00176143  0.39284497  0.48419900  1
  Ti  Ti132  1  0.70077557  0.10129995  0.13583637  1
  Ti  Ti133  1  0.49742468  0.10721865  0.37731898  1
  Ti  Ti134  1  0.50428334  0.10154378  0.13962255  1
  Ti  Ti135  1  0.80536371  0.59533479  0.74321661  1
  Ti  Ti136  1  0.11247089  0.08646165  0.12287282  1
  Ti  Ti137  1  0.70590263  0.49717399  0.88059878  1
  Ti  Ti138  1  0.39398811  0.00037081  0.24420372  1
  Ti  Ti139  1  0.59658611  0.80280473  0.74603441  1
  Ti  Ti140  1  0.39754368  0.59723021  0.74328663  1
  Ti  Ti141  1  0.30058179  0.30125432  0.13587864  1
  Ti  Ti142  1  0.08786157  0.70231030  0.13495265  1
  Ti  Ti143  1  0.20241149  0.40102976  0.00502413  1
  Ti  Ti144  1  0.30747602  0.68958546  0.87229397  1
  Ti  Ti145  1  0.30173631  0.50032369  0.89212135  1
  Ti  Ti146  1  0.90278990  0.69811545  0.85546421  1
  Ti  Ti147  1  0.00117809  0.60702263  -0.00662141  1
  Ti  Ti148  1  0.90282759  0.30102213  0.89460309  1
  Ti  Ti149  1  0.01546883  0.19602016  0.74819446  1
  Ti  Ti150  1  0.79801777  0.00324357  0.24480387  1
  Ti  Ti151  1  0.19850721  0.60286423  0.25650640  1
  Ti  Ti152  1  0.10666878  0.09361624  0.36878091  1
  Ti  Ti153  1  0.10296001  0.09935610  0.62226817  1
  Ti  Ti154  1  0.60600013  0.80012662  0.26011596  1
  Ti  Ti155  1  0.50592340  0.30506230  0.14094032  1
  Ti  Ti156  1  0.39762391  0.00293502  0.74038604  1
  Ti  Ti157  1  0.80998610  0.40600440  0.75603667  1
  Ti  Ti158  1  0.91354886  0.91625175  0.86072706  1
  Ti  Ti159  1  0.19594762  0.59726704  0.49205161  1
  Mo  Mo160  1  0.30176870  0.09905029  0.60895985  1
  Mo  Mo161  1  0.19675896  -0.00198751  0.26169985  1
  Mo  Mo162  1  0.89839055  0.48881839  0.64268456  1
  Mo  Mo163  1  0.40255748  0.19844441  0.48756300  1
  Mo  Mo164  1  0.90362732  0.90540270  0.64098142  1
  Mo  Mo165  1  0.60978319  0.40394870  0.49581988  1
  Mo  Mo166  1  0.00347780  0.60508704  0.25352524  1
  Mo  Mo167  1  0.59649264  0.40855642  0.78007239  1
  Mo  Mo168  1  0.90547732  0.69886939  0.12466914  1
  Mo  Mo169  1  0.20150379  -0.00812196  -0.00366146  1
  Mo  Mo170  1  0.30335478  0.09654669  0.14045253  1
  Mo  Mo171  1  0.79518069  0.40063437  -0.01172736  1
  Mo  Mo172  1  -0.00331070  0.79510643  0.23581058  1
  Mo  Mo173  1  0.29423625  0.90237090  0.38783569  1
  Mo  Mo174  1  0.49412847  0.69906844  0.86406425  1
  Mo  Mo175  1  0.58746401  0.20536314  0.76124857  1
  Mo  Mo176  1  0.80393124  0.00005470  0.75732308  1
  Mo  Mo177  1  0.39497650  0.60091540  0.01267099  1
  Mo  Mo178  1  0.89382478  0.49942253  0.37358936  1
  Mo  Mo179  1  0.40119122  0.00393392  0.51170103  1
  Mo  Mo180  1  0.19256666  0.19893866  0.73935715  1
  Mo  Mo181  1  0.59780784  0.19732952  0.24326129  1
  Mo  Mo182  1  -0.00089086  -0.00815965  0.00946291  1
  Mo  Mo183  1  0.00193431  0.00364347  0.74338627  1
  Mo  Mo184  1  0.49325102  0.30291879  0.87022757  1
  Mo  Mo185  1  0.09832790  0.89856085  0.86821698  1
  Mo  Mo186  1  0.20391097  0.79710799  0.76537895  1
  Mo  Mo187  1  0.70188434  0.69851219  0.38180809  1
  Mo  Mo188  1  0.79786828  0.19811776  0.23177392  1
  Mo  Mo189  1  0.60406263  0.40699537  0.22986228  1
  Mo  Mo190  1  0.00685804  0.80509045  0.50435708  1
  Mo  Mo191  1  -0.00233711  0.80362921  0.76648863  1
  Mo  Mo192  1  0.09853730  0.49534894  0.87967709  1
  Mo  Mo193  1  0.29934305  0.50034643  0.11759905  1
  Mo  Mo194  1  0.58857795  -0.00090338  0.73535526  1
  Mo  Mo195  1  0.70053766  0.30423600  0.36245723  1
  Mo  Mo196  1  0.29562321  0.69585782  0.38303221  1
  Mo  Mo197  1  0.10237755  0.49884062  0.37347106  1
  Mo  Mo198  1  0.20304967  0.19234009  0.24134711  1
  Mo  Mo199  1  0.00188157  0.20185306  0.01850254  1
