# generated using pymatgen
data_HfZrTaTiMo
_symmetry_space_group_name_H-M   'P 1'
_cell_length_a   15.84069066
_cell_length_b   15.85492915
_cell_length_c   15.36014087
_cell_angle_alpha   90.05401658
_cell_angle_beta   89.96972672
_cell_angle_gamma   89.92213177
_symmetry_Int_Tables_number   1
_chemical_formula_structural   HfZrTaTiMo
_chemical_formula_sum   'Hf40 Zr40 Ta40 Ti40 Mo40'
_cell_volume   3857.74007243
_cell_formula_units_Z   40
loop_
 _symmetry_equiv_pos_site_id
 _symmetry_equiv_pos_as_xyz
  1  'x, y, z'
loop_
 _atom_site_type_symbol
 _atom_site_label
 _atom_site_symmetry_multiplicity
 _atom_site_fract_x
 _atom_site_fract_y
 _atom_site_fract_z
 _atom_site_occupancy
  Hf  Hf0  1  0.69861856  0.09531007  0.61405624  1
  Hf  Hf1  1  0.29619039  0.50943019  0.62573389  1
  Hf  Hf2  1  0.30918777  0.73017557  0.88389038  1
  Hf  Hf3  1  0.89209756  0.90047784  0.85993554  1
  Hf  Hf4  1  0.58783515  -0.01542831  0.73258823  1
  Hf  Hf5  1  0.79053752  -0.00764640  0.02086933  1
  Hf  Hf6  1  0.29356752  0.10619181  0.59929164  1
  Hf  Hf7  1  0.40587919  0.21127147  0.25954790  1
  Hf  Hf8  1  0.49616932  0.09367751  0.13830186  1
  Hf  Hf9  1  0.00659365  0.61232028  0.76816938  1
  Hf  Hf10  1  0.40799354  0.39305797  0.51322042  1
  Hf  Hf11  1  -0.00192310  -0.00538280  0.48506392  1
  Hf  Hf12  1  0.39270653  -0.00047784  0.74570664  1
  Hf  Hf13  1  0.89819176  0.70157364  0.38289014  1
  Hf  Hf14  1  0.19478771  0.00430099  0.73670247  1
  Hf  Hf15  1  0.00673673  0.19886868  0.25665190  1
  Hf  Hf16  1  0.80532453  0.58832431  0.25455738  1
  Hf  Hf17  1  0.79671402  -0.01075253  0.49918379  1
  Hf  Hf18  1  -0.00416623  0.41986229  0.00422855  1
  Hf  Hf19  1  0.09906681  0.89456254  0.88030500  1
  Hf  Hf20  1  0.89022317  0.10547436  0.37857997  1
  Hf  Hf21  1  0.59521315  -0.02223611  0.01421100  1
  Hf  Hf22  1  0.39628305  -0.01318434  0.01010193  1
  Hf  Hf23  1  0.89068613  0.09812679  0.88092361  1
  Hf  Hf24  1  0.80477867  0.60434659  0.75194279  1
  Hf  Hf25  1  0.28520608  0.10568970  0.11849840  1
  Hf  Hf26  1  0.20066136  0.20104002  0.75236024  1
  Hf  Hf27  1  0.10820334  0.09764677  0.89910041  1
  Hf  Hf28  1  0.80047778  -0.00886478  0.24487552  1
  Hf  Hf29  1  0.48502900  0.09051034  0.60410139  1
  Hf  Hf30  1  0.59947892  0.58775972  0.25030673  1
  Hf  Hf31  1  0.30555590  0.50455115  0.36696182  1
  Hf  Hf32  1  0.50354658  0.08987692  0.37614052  1
  Hf  Hf33  1  0.89542115  0.10637706  0.12811889  1
  Hf  Hf34  1  0.60599374  0.60204832  0.75540114  1
  Hf  Hf35  1  -0.00074870  -0.01560541  0.02623994  1
  Hf  Hf36  1  0.70393676  0.69638704  0.13121051  1
  Hf  Hf37  1  0.29872859  0.90696433  0.59852801  1
  Hf  Hf38  1  0.60708656  0.59967901  -0.01267094  1
  Hf  Hf39  1  0.30612636  0.30958050  0.12052258  1
  Zr  Zr40  1  0.40566597  0.61302311  0.74779327  1
  Zr  Zr41  1  0.10290250  0.50232530  0.63276478  1
  Zr  Zr42  1  0.70814157  0.48951590  0.10943584  1
  Zr  Zr43  1  0.69791491  0.88706040  0.85710111  1
  Zr  Zr44  1  0.49886264  0.48899893  0.87770235  1
  Zr  Zr45  1  0.91800592  0.68248248  0.12919805  1
  Zr  Zr46  1  0.82363645  0.59016355  -0.01486442  1
  Zr  Zr47  1  0.30196061  0.31451032  0.37095254  1
  Zr  Zr48  1  0.28885480  0.91004604  0.87637526  1
  Zr  Zr49  1  0.50782641  0.49601596  0.39023119  1
  Zr  Zr50  1  0.89619306  0.30504960  0.38190741  1
  Zr  Zr51  1  0.40312375  0.38800085  0.73389410  1
  Zr  Zr52  1  0.19355181  0.20045927  0.25928021  1
  Zr  Zr53  1  0.00291782  0.00564944  0.74304550  1
  Zr  Zr54  1  0.70204615  0.08191305  0.86269814  1
  Zr  Zr55  1  0.69977715  0.29916226  0.39273824  1
  Zr  Zr56  1  0.60133084  0.17791551  -0.01049639  1
  Zr  Zr57  1  0.80396154  0.80630529  0.01837715  1
  Zr  Zr58  1  0.18873560  0.41574971  0.24175847  1
  Zr  Zr59  1  0.50858750  0.69636214  0.60339909  1
  Zr  Zr60  1  0.10309263  0.70293798  0.60523749  1
  Zr  Zr61  1  0.50286027  0.30088426  0.10862346  1
  Zr  Zr62  1  0.29977500  0.30480401  0.88767591  1
  Zr  Zr63  1  0.69465649  0.89198317  0.36372522  1
  Zr  Zr64  1  0.29965504  0.50101843  0.87150359  1
  Zr  Zr65  1  0.30995625  0.52151603  0.13481650  1
  Zr  Zr66  1  0.58161870  0.78791327  0.01041313  1
  Zr  Zr67  1  0.59823547  0.38967059  0.24890407  1
  Zr  Zr68  1  0.89702445  0.30430871  0.13047420  1
  Zr  Zr69  1  0.19588220  0.41871218  0.01083274  1
  Zr  Zr70  1  0.00185687  0.20476208  0.74997739  1
  Zr  Zr71  1  0.90908527  0.49696963  0.38986738  1
  Zr  Zr72  1  0.91135950  0.70464561  0.61601655  1
  Zr  Zr73  1  0.20342991  0.62522226  0.75970941  1
  Zr  Zr74  1  -0.00954731  0.21241763  -0.00918251  1
  Zr  Zr75  1  0.41166044  0.62091655  -0.00370334  1
  Zr  Zr76  1  0.58720773  0.19415783  0.74573815  1
  Zr  Zr77  1  0.60471623  0.38959797  0.74265328  1
  Zr  Zr78  1  0.69369329  0.69390213  0.38708569  1
  Zr  Zr79  1  0.80012399  0.20290252  0.74001253  1
  Ta  Ta80  1  0.31022223  0.71803207  0.13731119  1
  Ta  Ta81  1  0.78853905  0.20291663  0.25156353  1
  Ta  Ta82  1  0.59047558  0.20437165  0.49945905  1
  Ta  Ta83  1  0.39767980  0.80411584  0.72105737  1
  Ta  Ta84  1  0.39823043  0.79623362  0.48752202  1
  Ta  Ta85  1  0.71176417  0.48766183  0.87006650  1
  Ta  Ta86  1  0.29628784  0.10173140  0.89060656  1
  Ta  Ta87  1  0.49950298  0.89320596  0.37366249  1
  Ta  Ta88  1  0.29691726  0.09960192  0.38121844  1
  Ta  Ta89  1  0.19880002  0.80269454  0.48019980  1
  Ta  Ta90  1  0.00257896  0.40913862  0.24066464  1
  Ta  Ta91  1  0.09986484  0.10403319  0.60461528  1
  Ta  Ta92  1  0.70519538  0.49154026  0.39744881  1
  Ta  Ta93  1  0.69460977  0.09699004  0.37698644  1
  Ta  Ta94  1  0.89866747  0.89666771  0.63153083  1
  Ta  Ta95  1  0.09319202  0.31776807  0.38103652  1
  Ta  Ta96  1  0.70665417  0.29184699  0.88246242  1
  Ta  Ta97  1  0.38914875  0.00061065  0.25802566  1
  Ta  Ta98  1  0.70353550  0.28742087  0.11096007  1
  Ta  Ta99  1  0.80183745  0.59486593  0.51474272  1
  Ta  Ta100  1  0.09874894  0.31755041  0.87016605  1
  Ta  Ta101  1  0.10345772  0.29270529  0.11388936  1
  Ta  Ta102  1  0.68989425  0.09755778  0.14332315  1
  Ta  Ta103  1  0.89976583  0.10076778  0.61238471  1
  Ta  Ta104  1  0.39598589  0.19320970  0.75325803  1
  Ta  Ta105  1  0.00647831  -0.00037618  0.25240366  1
  Ta  Ta106  1  0.79744372  0.39947910  0.24824988  1
  Ta  Ta107  1  0.09450630  0.89638654  0.60691237  1
  Ta  Ta108  1  0.19638607  0.61999230  -0.00635196  1
  Ta  Ta109  1  0.90818369  0.50005384  0.63124558  1
  Ta  Ta110  1  0.19861551  0.80191333  0.26492744  1
  Ta  Ta111  1  0.80342090  0.39927488  0.52359169  1
  Ta  Ta112  1  0.48150194  0.88316361  0.15145962  1
  Ta  Ta113  1  0.00266632  0.20596752  0.49909258  1
  Ta  Ta114  1  0.58629569  0.78320053  0.25078273  1
  Ta  Ta115  1  0.00564645  0.80048136  0.25192725  1
  Ta  Ta116  1  0.11246435  0.70447843  0.12972460  1
  Ta  Ta117  1  0.49715753  0.29303828  0.88444826  1
  Ta  Ta118  1  0.81033095  0.38947367  -0.01146040  1
  Ta  Ta119  1  0.48669146  0.88057402  0.86916297  1
  Ti  Ti120  1  0.29869026  0.90372954  0.37131037  1
  Ti  Ti121  1  0.91068082  0.48403688  0.85314367  1
  Ti  Ti122  1  0.29296865  0.90266838  0.14417859  1
  Ti  Ti123  1  0.00689651  0.79718012  0.01853088  1
  Ti  Ti124  1  0.19080660  0.21175107  0.48747073  1
  Ti  Ti125  1  0.39965999  0.20756474  0.48688760  1
  Ti  Ti126  1  0.19680105  0.61370771  0.26284169  1
  Ti  Ti127  1  0.90916004  0.71645975  0.88067847  1
  Ti  Ti128  1  0.79565493  0.80361839  0.50953170  1
  Ti  Ti129  1  0.01414797  0.59456194  0.26719816  1
  Ti  Ti130  1  0.59391246  0.79651360  0.73381316  1
  Ti  Ti131  1  0.41325055  0.61969438  0.26516046  1
  Ti  Ti132  1  0.09202765  0.70251352  0.38378692  1
  Ti  Ti133  1  0.29259754  0.29674492  0.62191268  1
  Ti  Ti134  1  0.49654254  0.49747141  0.11846570  1
  Ti  Ti135  1  0.59827426  -0.01932354  0.50589428  1
  Ti  Ti136  1  0.01156211  0.80039656  0.75028028  1
  Ti  Ti137  1  0.10634965  0.50104043  0.86544080  1
  Ti  Ti138  1  0.89822403  0.88830859  0.36529975  1
  Ti  Ti139  1  0.20363122  0.80584535  0.73099220  1
  Ti  Ti140  1  0.70828607  0.70728577  0.87240049  1
  Ti  Ti141  1  0.60551602  0.39511212  -0.00932670  1
  Ti  Ti142  1  0.80488732  0.39253668  0.74450090  1
  Ti  Ti143  1  0.18922566  0.00067412  0.47912482  1
  Ti  Ti144  1  0.39608226  0.60451182  0.49537904  1
  Ti  Ti145  1  0.19965250  0.81587006  0.02126675  1
  Ti  Ti146  1  0.18577637  0.00636223  0.25450692  1
  Ti  Ti147  1  0.00768984  0.40417249  0.51174382  1
  Ti  Ti148  1  0.70239000  0.49953710  0.62616782  1
  Ti  Ti149  1  0.19994875  0.40501008  0.49997383  1
  Ti  Ti150  1  0.90681234  0.30020061  0.62222832  1
  Ti  Ti151  1  0.08895694  0.52734153  0.11958770  1
  Ti  Ti152  1  0.51153352  0.50044343  0.61737916  1
  Ti  Ti153  1  0.40014743  0.19469163  -0.00409970  1
  Ti  Ti154  1  0.69723557  0.29591719  0.61491833  1
  Ti  Ti155  1  0.60008027  0.20090063  0.26184325  1
  Ti  Ti156  1  0.20044228  0.60214750  0.48503083  1
  Ti  Ti157  1  0.49015078  0.08517816  0.87618687  1
  Ti  Ti158  1  0.70434171  0.70353124  0.62158884  1
  Ti  Ti159  1  0.10486991  0.30491828  0.62830338  1
  Mo  Mo160  1  0.60431034  0.80208534  0.50457008  1
  Mo  Mo161  1  0.61169218  0.59428539  0.51135652  1
  Mo  Mo162  1  0.19586651  0.20866900  -0.00740562  1
  Mo  Mo163  1  0.01399563  0.60569218  -0.01896096  1
  Mo  Mo164  1  0.90666348  0.49946231  0.13375074  1
  Mo  Mo165  1  0.00430078  0.59693998  0.49382115  1
  Mo  Mo166  1  0.49691145  0.89364855  0.60310487  1
  Mo  Mo167  1  0.60416817  0.39763164  0.52143876  1
  Mo  Mo168  1  0.40912913  0.41404170  0.23714416  1
  Mo  Mo169  1  0.10327673  0.50264068  0.38533954  1
  Mo  Mo170  1  0.79926791  0.19881777  0.51133781  1
  Mo  Mo171  1  -0.00312424  0.80715659  0.48111876  1
  Mo  Mo172  1  0.39169386  0.79987635  0.27372677  1
  Mo  Mo173  1  0.50293328  0.29900857  0.38297798  1
  Mo  Mo174  1  0.10410424  0.71827729  0.89228937  1
  Mo  Mo175  1  0.80004640  -0.00493194  0.72658246  1
  Mo  Mo176  1  0.29848044  0.70562168  0.59854688  1
  Mo  Mo177  1  0.19899624  0.39468133  0.74372741  1
  Mo  Mo178  1  0.49254037  0.68843455  0.13898378  1
  Mo  Mo179  1  0.40790594  0.40486009  0.00843355  1
  Mo  Mo180  1  0.70222733  0.88888949  0.62978949  1
  Mo  Mo181  1  0.90238973  0.89017859  0.14706056  1
  Mo  Mo182  1  0.50061407  0.69633927  0.38737831  1
  Mo  Mo183  1  0.49276144  0.28554318  0.62173467  1
  Mo  Mo184  1  0.59320462  -0.00863958  0.24502878  1
  Mo  Mo185  1  0.19476236  -0.00062736  0.02347667  1
  Mo  Mo186  1  0.50475861  0.71292806  0.85440767  1
  Mo  Mo187  1  0.79314242  0.19476092  0.00491941  1
  Mo  Mo188  1  0.29728078  0.69970369  0.37636111  1
  Mo  Mo189  1  0.09899079  0.10178717  0.11699881  1
  Mo  Mo190  1  0.89552117  0.30580068  0.86629129  1
  Mo  Mo191  1  0.09975105  0.90178166  0.36659971  1
  Mo  Mo192  1  0.10560532  0.89739698  0.14612562  1
  Mo  Mo193  1  0.00203370  0.39944464  0.74336949  1
  Mo  Mo194  1  0.09934012  0.10752521  0.38946718  1
  Mo  Mo195  1  0.68817856  0.89222394  0.14838759  1
  Mo  Mo196  1  0.39460688  -0.00369642  0.47465017  1
  Mo  Mo197  1  0.80314122  0.79269602  0.74099923  1
  Mo  Mo198  1  0.39671080  0.80814775  0.01236416  1
  Mo  Mo199  1  0.80227441  0.79391355  0.24088366  1
