# generated using pymatgen
data_HfZrTaTiMo
_symmetry_space_group_name_H-M   'P 1'
_cell_length_a   15.84316153
_cell_length_b   15.82946508
_cell_length_c   15.37757069
_cell_angle_alpha   90.06076308
_cell_angle_beta   89.99415995
_cell_angle_gamma   89.99118002
_symmetry_Int_Tables_number   1
_chemical_formula_structural   HfZrTaTiMo
_chemical_formula_sum   'Hf40 Zr40 Ta40 Ti40 Mo40'
_cell_volume   3856.51983724
_cell_formula_units_Z   40
loop_
 _symmetry_equiv_pos_site_id
 _symmetry_equiv_pos_as_xyz
  1  'x, y, z'
loop_
 _atom_site_type_symbol
 _atom_site_label
 _atom_site_symmetry_multiplicity
 _atom_site_fract_x
 _atom_site_fract_y
 _atom_site_fract_z
 _atom_site_occupancy
  Hf  Hf0  1  0.80710842  0.39646553  0.73598121  1
  Hf  Hf1  1  -0.00735809  0.59331663  0.72760056  1
  Hf  Hf2  1  0.69251997  0.10167747  0.36188279  1
  Hf  Hf3  1  0.49771639  0.10519689  0.36668559  1
  Hf  Hf4  1  0.50033467  0.29932093  0.36733930  1
  Hf  Hf5  1  0.49292020  0.09983913  0.88211665  1
  Hf  Hf6  1  0.59192721  0.39597996  0.00899377  1
  Hf  Hf7  1  0.79783253  0.40566885  0.01581502  1
  Hf  Hf8  1  0.30878767  0.10420820  0.37169728  1
  Hf  Hf9  1  0.40403436  0.60644471  0.49472365  1
  Hf  Hf10  1  0.30010549  0.09502778  0.11248694  1
  Hf  Hf11  1  0.50932538  0.50658749  0.35622203  1
  Hf  Hf12  1  0.39687652  0.20088234  0.74218276  1
  Hf  Hf13  1  0.20438868  0.00234526  0.51685142  1
  Hf  Hf14  1  0.40032259  0.80292087  0.51530591  1
  Hf  Hf15  1  0.39178628  0.41260314  0.48815672  1
  Hf  Hf16  1  0.10372261  0.31188087  0.60836545  1
  Hf  Hf17  1  0.69585424  0.48451872  0.60997898  1
  Hf  Hf18  1  0.89961624  0.89876320  0.38844406  1
  Hf  Hf19  1  0.49898969  0.90830698  0.37790114  1
  Hf  Hf20  1  0.00127060  0.00486211  0.50400085  1
  Hf  Hf21  1  0.19722436  0.59422463  0.00161824  1
  Hf  Hf22  1  0.89639700  0.09496996  0.12131150  1
  Hf  Hf23  1  0.59792244  0.39419785  0.75429091  1
  Hf  Hf24  1  0.20567843  0.20139442  0.24372480  1
  Hf  Hf25  1  0.10193852  0.69152842  0.61439566  1
  Hf  Hf26  1  0.30418783  0.70225105  0.36570404  1
  Hf  Hf27  1  0.09796584  0.10568405  0.87216667  1
  Hf  Hf28  1  0.00230631  0.40581655  0.73214383  1
  Hf  Hf29  1  0.90720465  0.68267221  0.37767701  1
  Hf  Hf30  1  0.39754464  -0.00627011  0.74146104  1
  Hf  Hf31  1  0.09826559  0.30416595  0.38090035  1
  Hf  Hf32  1  0.40583949  0.80194832  0.00999780  1
  Hf  Hf33  1  0.21248808  0.80888707  0.73953084  1
  Hf  Hf34  1  0.70466210  0.28761069  0.87799140  1
  Hf  Hf35  1  0.09453312  0.69796058  0.86294150  1
  Hf  Hf36  1  0.09757518  0.31631110  0.13567338  1
  Hf  Hf37  1  0.29629273  0.69898561  0.86943902  1
  Hf  Hf38  1  0.09668841  0.69801752  0.13929231  1
  Hf  Hf39  1  0.09906187  0.30267185  0.87018447  1
  Zr  Zr40  1  0.90163525  0.69889263  0.13111629  1
  Zr  Zr41  1  0.90181527  0.30282750  0.87969603  1
  Zr  Zr42  1  0.71114627  0.50106876  0.86902869  1
  Zr  Zr43  1  0.60001012  0.81034715  0.75466154  1
  Zr  Zr44  1  0.39927919  0.58905669  0.75841566  1
  Zr  Zr45  1  0.70164665  0.89227772  0.11745744  1
  Zr  Zr46  1  0.60600716  0.00098742  0.76260100  1
  Zr  Zr47  1  0.20361956  0.40558899  0.00211991  1
  Zr  Zr48  1  0.88914109  0.09157537  0.62700070  1
  Zr  Zr49  1  0.09660461  0.09556195  0.12022720  1
  Zr  Zr50  1  0.60369140  0.19958674  0.01212089  1
  Zr  Zr51  1  0.79980084  0.41529497  0.25836391  1
  Zr  Zr52  1  0.59215885  0.78833588  0.49824966  1
  Zr  Zr53  1  0.30186970  0.91255018  0.88987752  1
  Zr  Zr54  1  -0.01151731  0.79761365  0.73971365  1
  Zr  Zr55  1  0.60769656  0.59166483  0.00225239  1
  Zr  Zr56  1  0.69757112  0.67585231  0.37116630  1
  Zr  Zr57  1  0.50600703  0.69225147  0.13121580  1
  Zr  Zr58  1  0.19381983  0.79680194  0.00364579  1
  Zr  Zr59  1  0.59874784  0.80067345  0.25919883  1
  Zr  Zr60  1  0.30643225  0.49693137  0.14678373  1
  Zr  Zr61  1  0.40235581  0.21927768  0.01732582  1
  Zr  Zr62  1  0.50778066  0.70273474  0.87660378  1
  Zr  Zr63  1  0.60615136  0.19853206  0.50927275  1
  Zr  Zr64  1  0.09042427  0.90285113  0.62982295  1
  Zr  Zr65  1  0.79346165  0.21402960  0.24565985  1
  Zr  Zr66  1  0.30079459  0.90476274  0.37538828  1
  Zr  Zr67  1  -0.00630851  0.20298374  0.25383634  1
  Zr  Zr68  1  0.50088119  0.30727871  0.61729581  1
  Zr  Zr69  1  0.29302383  0.10456905  0.88847943  1
  Zr  Zr70  1  0.80164425  -0.00626747  0.25690487  1
  Zr  Zr71  1  0.40143260  -0.00510296  0.23253506  1
  Zr  Zr72  1  0.90029096  0.89552161  0.11653471  1
  Zr  Zr73  1  0.20648618  0.19698286  0.50532519  1
  Zr  Zr74  1  0.20696533  0.79699572  0.50941231  1
  Zr  Zr75  1  0.89174854  0.10917975  0.86988938  1
  Zr  Zr76  1  0.80075761  0.80043142  0.73687994  1
  Zr  Zr77  1  0.69380353  0.68753488  0.62679515  1
  Zr  Zr78  1  0.39883024  0.58719434  -0.00706453  1
  Zr  Zr79  1  0.89628599  0.89599445  0.88186987  1
  Ta  Ta80  1  0.89911595  0.10696454  0.38221617  1
  Ta  Ta81  1  0.79834308  0.79326858  0.50115313  1
  Ta  Ta82  1  0.19921492  0.20398932  0.73467251  1
  Ta  Ta83  1  0.70342496  0.90852118  0.60914341  1
  Ta  Ta84  1  0.49785412  0.50160001  0.62546187  1
  Ta  Ta85  1  0.89598755  0.68678955  0.87896176  1
  Ta  Ta86  1  0.19750635  0.21277546  0.00991406  1
  Ta  Ta87  1  0.10135119  0.89676289  0.37905297  1
  Ta  Ta88  1  0.50127353  0.09968304  0.62397140  1
  Ta  Ta89  1  0.69454280  0.31126454  0.38768358  1
  Ta  Ta90  1  0.19610189  0.59914497  0.26470221  1
  Ta  Ta91  1  -0.00135558  0.20756206  0.00819135  1
  Ta  Ta92  1  0.30704012  0.29988902  0.36751134  1
  Ta  Ta93  1  0.70800891  0.69215547  0.13585580  1
  Ta  Ta94  1  0.39858126  0.80119785  0.23716399  1
  Ta  Ta95  1  0.09934248  0.69893984  0.38096306  1
  Ta  Ta96  1  0.08723831  0.50369228  0.38197739  1
  Ta  Ta97  1  0.39997618  0.40279430  -0.00831776  1
  Ta  Ta98  1  0.90692967  0.50313989  0.87692094  1
  Ta  Ta99  1  0.10130237  0.09613119  0.37276691  1
  Ta  Ta100  1  0.19340516  -0.00484342  0.24752864  1
  Ta  Ta101  1  0.21001664  0.58378662  0.49702067  1
  Ta  Ta102  1  0.20261038  0.01186168  0.73471605  1
  Ta  Ta103  1  0.80151393  0.79458511  0.26658639  1
  Ta  Ta104  1  0.10198636  0.90769794  0.86950984  1
  Ta  Ta105  1  0.30157942  0.31219544  0.61976927  1
  Ta  Ta106  1  0.00225033  0.59553641  0.00187857  1
  Ta  Ta107  1  -0.00173490  0.19773859  0.50504195  1
  Ta  Ta108  1  0.00112158  -0.00423982  0.26107480  1
  Ta  Ta109  1  0.70941090  0.69739302  0.86971402  1
  Ta  Ta110  1  -0.00248151  0.20519415  0.72871923  1
  Ta  Ta111  1  0.90620035  0.31095909  0.12606735  1
  Ta  Ta112  1  0.60345249  -0.00388225  -0.01316687  1
  Ta  Ta113  1  0.29610449  0.30229636  0.86670412  1
  Ta  Ta114  1  0.09365500  0.89902000  0.12642784  1
  Ta  Ta115  1  0.00156202  0.80355533  0.26231943  1
  Ta  Ta116  1  0.69783487  0.90146241  0.38670051  1
  Ta  Ta117  1  0.19824494  0.58498616  0.73763121  1
  Ta  Ta118  1  0.69340829  0.09029041  0.13317645  1
  Ta  Ta119  1  0.00132790  -0.00123445  -0.00931359  1
  Ti  Ti120  1  0.29005876  0.90250905  0.11593472  1
  Ti  Ti121  1  0.78987803  -0.00459426  0.75522660  1
  Ti  Ti122  1  0.79250741  0.00747389  0.49695971  1
  Ti  Ti123  1  0.80783750  0.58703410  0.50325225  1
  Ti  Ti124  1  0.59942248  0.59035803  0.75605135  1
  Ti  Ti125  1  0.78974040  0.00844883  -0.01263484  1
  Ti  Ti126  1  0.59749018  0.20954845  0.23299685  1
  Ti  Ti127  1  0.09024602  0.50307429  0.14704356  1
  Ti  Ti128  1  0.60678415  0.19569112  0.74210126  1
  Ti  Ti129  1  0.60136399  0.00624169  0.50471295  1
  Ti  Ti130  1  0.79515177  0.20013161  0.50318718  1
  Ti  Ti131  1  0.50053839  0.69424396  0.64024095  1
  Ti  Ti132  1  0.29871428  0.69476772  0.13590802  1
  Ti  Ti133  1  0.49903638  0.49677800  0.14304602  1
  Ti  Ti134  1  0.59149897  0.59259273  0.49973754  1
  Ti  Ti135  1  0.00091403  0.79527252  -0.00722825  1
  Ti  Ti136  1  0.79723248  0.20095824  0.01520522  1
  Ti  Ti137  1  0.30627536  0.68964444  0.63272326  1
  Ti  Ti138  1  0.50650600  0.90483136  0.61879184  1
  Ti  Ti139  1  -0.00557675  0.00263235  0.75005084  1
  Ti  Ti140  1  0.20115654  0.40477717  0.26570020  1
  Ti  Ti141  1  0.39599227  0.40386107  0.75819192  1
  Ti  Ti142  1  0.00133152  0.41031678  0.00225178  1
  Ti  Ti143  1  0.20346306  0.40670432  0.74537138  1
  Ti  Ti144  1  0.40606388  0.80690037  0.74910440  1
  Ti  Ti145  1  0.89485005  0.30512914  0.60351158  1
  Ti  Ti146  1  0.78944135  0.19971433  0.73286289  1
  Ti  Ti147  1  0.49594684  0.29763617  0.86962520  1
  Ti  Ti148  1  -0.00762210  0.79525103  0.50731911  1
  Ti  Ti149  1  0.09776498  0.50107230  0.87059226  1
  Ti  Ti150  1  0.61300533  0.39958840  0.23760714  1
  Ti  Ti151  1  0.19888642  0.80483502  0.24880793  1
  Ti  Ti152  1  0.50478579  0.09577541  0.12753011  1
  Ti  Ti153  1  0.39857348  0.01061695  0.51442321  1
  Ti  Ti154  1  0.80718474  0.59683091  0.00701837  1
  Ti  Ti155  1  0.79252685  0.78939765  -0.00657775  1
  Ti  Ti156  1  0.90896031  0.50595667  0.13919787  1
  Ti  Ti157  1  0.51224442  0.90403599  0.11560717  1
  Ti  Ti158  1  0.89970669  0.30798001  0.38722472  1
  Ti  Ti159  1  0.80989526  0.59541077  0.73382114  1
  Mo  Mo160  1  0.39949866  0.20088468  0.51054025  1
  Mo  Mo161  1  0.00349711  0.59744462  0.50903134  1
  Mo  Mo162  1  0.90091051  0.49680284  0.38715872  1
  Mo  Mo163  1  0.00308576  0.59753747  0.25528841  1
  Mo  Mo164  1  0.29742208  0.50125298  0.36130379  1
  Mo  Mo165  1  0.29102927  0.49032763  0.86577682  1
  Mo  Mo166  1  0.30030187  0.30528826  0.14257970  1
  Mo  Mo167  1  0.40346781  0.20545655  0.23206028  1
  Mo  Mo168  1  0.18740365  -0.00031526  0.00647858  1
  Mo  Mo169  1  0.90086643  0.49476910  0.60396177  1
  Mo  Mo170  1  0.88762073  0.90011024  0.60826919  1
  Mo  Mo171  1  0.30895964  0.90256416  0.62823035  1
  Mo  Mo172  1  0.61023957  0.79798234  -0.00670592  1
  Mo  Mo173  1  0.59411536  0.40619822  0.49575228  1
  Mo  Mo174  1  0.70355100  0.50567597  0.12356818  1
  Mo  Mo175  1  0.70479837  0.29394693  0.61641057  1
  Mo  Mo176  1  0.70304868  0.10285599  0.86967021  1
  Mo  Mo177  1  0.69861692  0.49416076  0.39173476  1
  Mo  Mo178  1  0.80267362  0.59729956  0.24978465  1
  Mo  Mo179  1  0.60023096  0.00065726  0.24606938  1
  Mo  Mo180  1  0.30180411  0.49456473  0.63063063  1
  Mo  Mo181  1  0.40021628  0.39961996  0.25984581  1
  Mo  Mo182  1  -0.00485550  0.40176573  0.49647027  1
  Mo  Mo183  1  0.70217160  0.29948371  0.12452596  1
  Mo  Mo184  1  0.89628064  0.69474233  0.60371064  1
  Mo  Mo185  1  0.41026740  -0.00188089  0.01421342  1
  Mo  Mo186  1  0.09554644  0.10687950  0.63717723  1
  Mo  Mo187  1  0.79894347  0.39492167  0.49253236  1
  Mo  Mo188  1  0.20501858  0.40429604  0.48233892  1
  Mo  Mo189  1  0.49946239  0.48617470  0.86833127  1
  Mo  Mo190  1  0.30654178  0.10818805  0.62256270  1
  Mo  Mo191  1  0.69849075  0.09594049  0.63160374  1
  Mo  Mo192  1  0.61148692  0.58734302  0.23696968  1
  Mo  Mo193  1  0.49571016  0.31264960  0.14462481  1
  Mo  Mo194  1  0.40261424  0.60672184  0.25589886  1
  Mo  Mo195  1  -0.00391425  0.40559672  0.26604700  1
  Mo  Mo196  1  0.49572652  0.70102223  0.35794487  1
  Mo  Mo197  1  0.49751546  0.90068699  0.89373983  1
  Mo  Mo198  1  0.10819873  0.49544919  0.60294022  1
  Mo  Mo199  1  0.70255850  0.89381091  0.88950205  1
