# generated using pymatgen
data_HfZrTaTiMo
_symmetry_space_group_name_H-M   'P 1'
_cell_length_a   15.83887557
_cell_length_b   15.83888040
_cell_length_c   15.40474834
_cell_angle_alpha   89.90498301
_cell_angle_beta   89.99366355
_cell_angle_gamma   90.01656170
_symmetry_Int_Tables_number   1
_chemical_formula_structural   HfZrTaTiMo
_chemical_formula_sum   'Hf40 Zr40 Ta40 Ti40 Mo40'
_cell_volume   3864.58457689
_cell_formula_units_Z   40
loop_
 _symmetry_equiv_pos_site_id
 _symmetry_equiv_pos_as_xyz
  1  'x, y, z'
loop_
 _atom_site_type_symbol
 _atom_site_label
 _atom_site_symmetry_multiplicity
 _atom_site_fract_x
 _atom_site_fract_y
 _atom_site_fract_z
 _atom_site_occupancy
  Hf  Hf0  1  0.60662495  0.39185042  -0.00682183  1
  Hf  Hf1  1  0.39753819  0.79841133  0.22206673  1
  Hf  Hf2  1  0.89926751  0.70887921  0.62833227  1
  Hf  Hf3  1  0.10014150  0.30354827  0.13771234  1
  Hf  Hf4  1  0.29890304  0.50375185  0.88907209  1
  Hf  Hf5  1  0.80774203  0.39553557  -0.00231436  1
  Hf  Hf6  1  0.60411360  0.39500440  0.26647842  1
  Hf  Hf7  1  0.89707250  0.90343254  0.37920604  1
  Hf  Hf8  1  0.49748731  0.90131801  0.63351694  1
  Hf  Hf9  1  0.70026219  0.90483252  0.36498326  1
  Hf  Hf10  1  0.30204203  0.29951404  0.12388819  1
  Hf  Hf11  1  0.28703446  0.89988309  0.09923714  1
  Hf  Hf12  1  0.70067253  0.70493315  0.35990391  1
  Hf  Hf13  1  0.39888453  0.60337832  0.75139530  1
  Hf  Hf14  1  0.00422164  0.19280700  0.25447730  1
  Hf  Hf15  1  0.59374608  -0.00969302  0.76777083  1
  Hf  Hf16  1  0.89896320  0.69937169  0.11887857  1
  Hf  Hf17  1  0.59313105  0.80631860  0.22580176  1
  Hf  Hf18  1  0.29742324  0.90402392  0.89371692  1
  Hf  Hf19  1  0.41129162  0.00895842  0.00714957  1
  Hf  Hf20  1  0.11154262  0.29217566  0.39087864  1
  Hf  Hf21  1  0.09781530  0.71700104  0.64178278  1
  Hf  Hf22  1  -0.01267994  0.20480781  0.51132665  1
  Hf  Hf23  1  0.88718251  0.10220264  0.37237566  1
  Hf  Hf24  1  0.89379788  0.70069369  0.37915531  1
  Hf  Hf25  1  0.59753688  0.19132188  0.50095946  1
  Hf  Hf26  1  0.51255751  0.28592273  0.13137966  1
  Hf  Hf27  1  0.39702925  0.00399138  0.22510718  1
  Hf  Hf28  1  0.08355191  0.91342726  0.10049841  1
  Hf  Hf29  1  0.20169186  0.40099041  0.26820689  1
  Hf  Hf30  1  0.02204537  0.80769063  0.48562276  1
  Hf  Hf31  1  0.20167156  0.20678945  0.74916950  1
  Hf  Hf32  1  0.49140600  0.90317407  0.36555829  1
  Hf  Hf33  1  0.18752443  0.39312199  -0.00708878  1
  Hf  Hf34  1  0.10315712  0.30494532  0.62143249  1
  Hf  Hf35  1  0.59464467  0.60069011  0.23822870  1
  Hf  Hf36  1  0.69565746  0.08669746  0.63881748  1
  Hf  Hf37  1  0.28305085  0.90484532  0.37138546  1
  Hf  Hf38  1  0.40000121  0.00380410  0.50953929  1
  Hf  Hf39  1  0.59790275  0.80019955  0.49399489  1
  Zr  Zr40  1  0.20290449  0.79894372  0.77184166  1
  Zr  Zr41  1  0.81274640  0.40270840  0.26799367  1
  Zr  Zr42  1  0.70919928  0.49546853  0.12440913  1
  Zr  Zr43  1  0.30116888  0.10232711  0.38065724  1
  Zr  Zr44  1  -0.00578448  0.79145497  -0.02272104  1
  Zr  Zr45  1  0.70812787  0.29829261  0.86137336  1
  Zr  Zr46  1  0.79870480  -0.00056831  0.23572085  1
  Zr  Zr47  1  0.09805211  0.49334062  0.86436105  1
  Zr  Zr48  1  0.00253236  0.59638944  -0.01496634  1
  Zr  Zr49  1  0.70720569  0.50733618  0.38598905  1
  Zr  Zr50  1  0.59751394  0.59185588  0.75653031  1
  Zr  Zr51  1  0.79815266  0.18920649  0.51708818  1
  Zr  Zr52  1  0.48315712  0.68703792  0.36388250  1
  Zr  Zr53  1  0.40373720  0.19737948  0.00087939  1
  Zr  Zr54  1  0.40594926  0.39282460  0.26357426  1
  Zr  Zr55  1  0.40711419  0.40824733  0.74944919  1
  Zr  Zr56  1  0.90705599  0.09252294  0.11436444  1
  Zr  Zr57  1  0.39742852  0.59308200  0.52769258  1
  Zr  Zr58  1  0.90582665  0.89889286  0.63217091  1
  Zr  Zr59  1  0.79831818  -0.01269100  0.76403756  1
  Zr  Zr60  1  0.27898299  0.69682268  0.35166991  1
  Zr  Zr61  1  0.38111038  0.79269661  0.50159815  1
  Zr  Zr62  1  0.50738155  0.71201598  0.63952155  1
  Zr  Zr63  1  0.60137418  0.00026793  0.50092686  1
  Zr  Zr64  1  0.80171503  0.20081071  -0.00208018  1
  Zr  Zr65  1  0.31463062  0.51399915  0.36698503  1
  Zr  Zr66  1  0.29500127  0.50184343  0.12446177  1
  Zr  Zr67  1  0.01043248  0.20652393  -0.00203528  1
  Zr  Zr68  1  0.49522011  0.49389394  0.12273973  1
  Zr  Zr69  1  0.69026743  0.91436930  0.09776237  1
  Zr  Zr70  1  -0.00025004  0.40753013  0.28119851  1
  Zr  Zr71  1  0.10502260  0.08726999  0.38758214  1
  Zr  Zr72  1  0.81685047  0.38846241  0.49984541  1
  Zr  Zr73  1  0.40424429  0.19933123  0.73867125  1
  Zr  Zr74  1  0.51897934  0.31702543  0.61869844  1
  Zr  Zr75  1  0.18252390  0.80949268  0.23430525  1
  Zr  Zr76  1  0.78769456  0.59569438  0.74431742  1
  Zr  Zr77  1  0.20388707  0.62351796  0.51939605  1
  Zr  Zr78  1  -0.00812664  0.59874055  0.75124589  1
  Zr  Zr79  1  0.60351125  0.60587732  0.51126845  1
  Ta  Ta80  1  0.40423550  0.19525354  0.51690068  1
  Ta  Ta81  1  0.90025337  0.30250553  0.13936672  1
  Ta  Ta82  1  0.21017171  0.41243363  0.50066038  1
  Ta  Ta83  1  -0.00453264  0.39499512  -0.00297869  1
  Ta  Ta84  1  0.68742910  0.48267113  0.61102899  1
  Ta  Ta85  1  0.70324472  0.70173467  0.11147965  1
  Ta  Ta86  1  0.09566140  0.50280927  0.13029035  1
  Ta  Ta87  1  -0.00565959  0.80576331  0.25003084  1
  Ta  Ta88  1  0.60243923  0.19682629  0.74986466  1
  Ta  Ta89  1  0.00369700  0.41149833  0.49802384  1
  Ta  Ta90  1  0.29943832  0.30300408  0.87400212  1
  Ta  Ta91  1  0.09726087  0.90492506  0.64791726  1
  Ta  Ta92  1  0.09330434  0.10907864  0.85673995  1
  Ta  Ta93  1  0.00074624  0.60515842  0.26060975  1
  Ta  Ta94  1  0.60168434  0.59834122  -0.00087629  1
  Ta  Ta95  1  0.91633271  0.30012667  0.85230455  1
  Ta  Ta96  1  0.20291593  0.00387038  0.75772811  1
  Ta  Ta97  1  0.90505325  0.10119577  0.86706842  1
  Ta  Ta98  1  0.70532713  0.28960154  0.14163444  1
  Ta  Ta99  1  0.79081345  0.79781980  0.50681995  1
  Ta  Ta100  1  0.20550991  0.40534352  0.74181201  1
  Ta  Ta101  1  0.19873504  0.20070435  -0.00831839  1
  Ta  Ta102  1  0.40468589  0.39370346  -0.00726268  1
  Ta  Ta103  1  0.29369884  0.89274915  0.63624462  1
  Ta  Ta104  1  0.71001293  0.28058675  0.36764170  1
  Ta  Ta105  1  0.20796790  0.59869832  0.74116824  1
  Ta  Ta106  1  0.09476811  0.09360137  0.63441846  1
  Ta  Ta107  1  0.39680606  -0.00430069  0.75916638  1
  Ta  Ta108  1  0.80864138  0.60119679  0.24339112  1
  Ta  Ta109  1  0.09139300  0.91121901  0.87145553  1
  Ta  Ta110  1  0.80806561  0.19724026  0.74095994  1
  Ta  Ta111  1  0.29302606  0.69513162  0.10940773  1
  Ta  Ta112  1  0.40537544  0.80163870  0.77626415  1
  Ta  Ta113  1  0.91028404  0.49955100  0.12359708  1
  Ta  Ta114  1  0.89580119  0.90080998  0.10129835  1
  Ta  Ta115  1  0.29990468  0.69395274  0.89324574  1
  Ta  Ta116  1  0.29617598  0.09068481  0.63002364  1
  Ta  Ta117  1  0.80568752  0.40559399  0.73495321  1
  Ta  Ta118  1  0.69698751  0.69802248  0.88918766  1
  Ta  Ta119  1  0.11223182  0.52492362  0.38264777  1
  Ti  Ti120  1  -0.00330601  0.00285547  0.50780960  1
  Ti  Ti121  1  0.89229218  0.49262246  0.87048029  1
  Ti  Ti122  1  0.20717473  0.19080870  0.24454264  1
  Ti  Ti123  1  0.19230243  0.00995672  0.23274389  1
  Ti  Ti124  1  0.79758668  0.80270126  -0.01540972  1
  Ti  Ti125  1  0.50073826  0.10364881  0.86820719  1
  Ti  Ti126  1  0.18272928  0.78391862  -0.01072997  1
  Ti  Ti127  1  0.39986527  0.19156414  0.24232875  1
  Ti  Ti128  1  0.69457017  0.09706577  0.35946160  1
  Ti  Ti129  1  0.60051423  0.19231811  -0.00739053  1
  Ti  Ti130  1  0.60773783  0.40819866  0.76228783  1
  Ti  Ti131  1  0.18805795  0.02393531  -0.00708418  1
  Ti  Ti132  1  0.40280661  0.39723619  0.50152942  1
  Ti  Ti133  1  0.30091962  0.10444709  0.87217517  1
  Ti  Ti134  1  0.30327530  0.30577888  0.61862956  1
  Ti  Ti135  1  0.80062744  0.79416364  0.77079935  1
  Ti  Ti136  1  0.79863928  -0.00556054  0.51269938  1
  Ti  Ti137  1  0.80227987  0.59628858  -0.00849303  1
  Ti  Ti138  1  0.20765989  0.19312947  0.51659606  1
  Ti  Ti139  1  0.70202657  0.09692624  0.87700870  1
  Ti  Ti140  1  0.50142262  0.09942122  0.36004314  1
  Ti  Ti141  1  0.10157592  0.50499614  0.61899056  1
  Ti  Ti142  1  0.69791325  0.88154892  0.63488622  1
  Ti  Ti143  1  0.60573549  0.79529974  0.77412506  1
  Ti  Ti144  1  0.80078440  0.60146915  0.51922952  1
  Ti  Ti145  1  -0.00240529  0.40322132  0.73055806  1
  Ti  Ti146  1  0.00152230  0.60562765  0.49904875  1
  Ti  Ti147  1  0.49998468  0.28890265  0.38269883  1
  Ti  Ti148  1  0.19041427  -0.01641512  0.51495635  1
  Ti  Ti149  1  0.50632574  0.89080205  0.89945868  1
  Ti  Ti150  1  0.40736706  0.60516047  0.00514710  1
  Ti  Ti151  1  0.00539532  -0.00717565  0.25015744  1
  Ti  Ti152  1  0.70287219  0.29946891  0.63117554  1
  Ti  Ti153  1  0.80162835  0.80357279  0.23360758  1
  Ti  Ti154  1  0.68596504  0.10550774  0.12687462  1
  Ti  Ti155  1  0.50186615  0.50137559  0.88815127  1
  Ti  Ti156  1  0.09531406  0.69359426  0.12737891  1
  Ti  Ti157  1  0.50175580  0.29687861  0.87015590  1
  Ti  Ti158  1  0.50783261  0.49366632  0.39415785  1
  Ti  Ti159  1  0.30697067  0.28986164  0.38781960  1
  Mo  Mo160  1  0.90206262  0.09255840  0.63712854  1
  Mo  Mo161  1  0.19031755  0.60176647  0.23148674  1
  Mo  Mo162  1  0.29047703  0.10611212  0.11899579  1
  Mo  Mo163  1  0.29827385  0.49220089  0.62681595  1
  Mo  Mo164  1  0.39991354  0.79633295  -0.00186892  1
  Mo  Mo165  1  0.88922526  0.69594433  0.86977315  1
  Mo  Mo166  1  -0.00074592  0.00174437  0.75795185  1
  Mo  Mo167  1  0.19280815  0.60151067  0.00775553  1
  Mo  Mo168  1  0.70432065  0.71048783  0.63746380  1
  Mo  Mo169  1  0.90268943  0.30385506  0.63881145  1
  Mo  Mo170  1  0.59283084  0.00292997  0.24794567  1
  Mo  Mo171  1  0.49968553  0.69970463  0.10542373  1
  Mo  Mo172  1  -0.00106214  0.00680433  -0.02204080  1
  Mo  Mo173  1  0.49879966  0.69922953  0.88676016  1
  Mo  Mo174  1  0.60025788  0.01153029  -0.01850082  1
  Mo  Mo175  1  0.80018421  0.19612065  0.23999490  1
  Mo  Mo176  1  0.49720580  0.09748519  0.64342315  1
  Mo  Mo177  1  0.59719476  0.79528323  0.00118930  1
  Mo  Mo178  1  -0.00795826  0.80334041  0.77089144  1
  Mo  Mo179  1  0.10283584  0.69471936  0.86050504  1
  Mo  Mo180  1  0.59916946  0.19557842  0.26441909  1
  Mo  Mo181  1  0.69556348  0.89345404  0.88768830  1
  Mo  Mo182  1  0.90443362  0.29198017  0.36743709  1
  Mo  Mo183  1  0.49872369  0.90211426  0.10647031  1
  Mo  Mo184  1  0.19888145  0.81209533  0.50799384  1
  Mo  Mo185  1  0.89537304  0.90251552  0.88348237  1
  Mo  Mo186  1  0.50443846  0.49472384  0.61727558  1
  Mo  Mo187  1  0.60761764  0.39012919  0.48149381  1
  Mo  Mo188  1  0.90189942  0.50296396  0.60985469  1
  Mo  Mo189  1  0.70437639  0.49928995  0.88471947  1
  Mo  Mo190  1  0.39961547  0.60540487  0.22399544  1
  Mo  Mo191  1  -0.00157698  0.20105167  0.73395063  1
  Mo  Mo192  1  0.09452640  0.70536358  0.36401710  1
  Mo  Mo193  1  0.09728060  0.90985284  0.36551704  1
  Mo  Mo194  1  0.80022708  0.00248683  -0.01590837  1
  Mo  Mo195  1  0.10497260  0.10163222  0.12518776  1
  Mo  Mo196  1  0.09905734  0.30332485  0.85327672  1
  Mo  Mo197  1  0.51699568  0.09845753  0.13234638  1
  Mo  Mo198  1  0.30400332  0.71100584  0.64998981  1
  Mo  Mo199  1  0.90757764  0.51667343  0.39496754  1
