# generated using pymatgen
data_HfZrTaTiMo
_symmetry_space_group_name_H-M   'P 1'
_cell_length_a   15.83074219
_cell_length_b   15.82786369
_cell_length_c   15.39087436
_cell_angle_alpha   89.99000696
_cell_angle_beta   90.04957412
_cell_angle_gamma   90.04032121
_symmetry_Int_Tables_number   1
_chemical_formula_structural   HfZrTaTiMo
_chemical_formula_sum   'Hf40 Zr40 Ta40 Ti40 Mo40'
_cell_volume   3856.44013705
_cell_formula_units_Z   40
loop_
 _symmetry_equiv_pos_site_id
 _symmetry_equiv_pos_as_xyz
  1  'x, y, z'
loop_
 _atom_site_type_symbol
 _atom_site_label
 _atom_site_symmetry_multiplicity
 _atom_site_fract_x
 _atom_site_fract_y
 _atom_site_fract_z
 _atom_site_occupancy
  Hf  Hf0  1  0.10551291  0.30473465  0.37811330  1
  Hf  Hf1  1  0.90949364  0.09155682  0.64083471  1
  Hf  Hf2  1  0.80272092  0.39613925  0.00581447  1
  Hf  Hf3  1  0.58934587  0.59199413  0.74598732  1
  Hf  Hf4  1  0.38649845  0.39200569  0.00017285  1
  Hf  Hf5  1  0.30115037  0.90251696  0.13399522  1
  Hf  Hf6  1  0.80744378  0.59462492  0.49331189  1
  Hf  Hf7  1  0.19145325  0.81662579  0.51067536  1
  Hf  Hf8  1  0.90532293  0.27883069  0.35588789  1
  Hf  Hf9  1  0.59011858  0.60221965  0.25919978  1
  Hf  Hf10  1  0.28725184  0.90882274  0.36784080  1
  Hf  Hf11  1  0.49694938  0.09923664  0.12349224  1
  Hf  Hf12  1  0.69846542  0.69699991  0.61700931  1
  Hf  Hf13  1  0.59449346  0.19299683  0.74700394  1
  Hf  Hf14  1  0.91759864  0.88683386  0.63692765  1
  Hf  Hf15  1  0.81391304  0.79889667  0.48655475  1
  Hf  Hf16  1  0.21075887  0.01271080  0.74112987  1
  Hf  Hf17  1  0.61171399  0.60277727  0.00716351  1
  Hf  Hf18  1  0.69335937  0.89786438  0.12420013  1
  Hf  Hf19  1  0.29348177  0.69066164  0.13515906  1
  Hf  Hf20  1  0.09651524  0.89820677  0.12445696  1
  Hf  Hf21  1  0.51817808  0.90497249  0.89911301  1
  Hf  Hf22  1  0.70004921  0.29719248  0.87067071  1
  Hf  Hf23  1  0.80973661  0.19792510  0.51449278  1
  Hf  Hf24  1  0.00313877  0.60092252  0.24434354  1
  Hf  Hf25  1  0.80294834  -0.00952828  0.00189334  1
  Hf  Hf26  1  0.39175802  0.19180027  0.74960900  1
  Hf  Hf27  1  0.60344417  0.20561237  0.49237854  1
  Hf  Hf28  1  0.59331085  0.00009243  0.25688665  1
  Hf  Hf29  1  0.58898805  -0.00900195  0.73715240  1
  Hf  Hf30  1  0.59666820  0.79070499  0.25368021  1
  Hf  Hf31  1  0.40405176  0.79297077  0.25868559  1
  Hf  Hf32  1  0.00549495  0.60335447  0.49847658  1
  Hf  Hf33  1  0.11109835  0.31002825  0.87040359  1
  Hf  Hf34  1  0.69126482  0.28925915  0.14088102  1
  Hf  Hf35  1  0.68354670  0.49258542  0.60874982  1
  Hf  Hf36  1  0.70157537  0.69754931  0.87649934  1
  Hf  Hf37  1  0.00320901  0.39869745  0.51653870  1
  Hf  Hf38  1  0.01909694  0.39397786  0.22686798  1
  Hf  Hf39  1  0.19424118  0.60043317  0.52529768  1
  Zr  Zr40  1  0.08807178  0.71948865  0.64557345  1
  Zr  Zr41  1  -0.00423506  0.00542535  0.24792394  1
  Zr  Zr42  1  0.81718117  0.00079144  0.49904780  1
  Zr  Zr43  1  0.60660754  0.80366081  0.74352032  1
  Zr  Zr44  1  0.28140354  0.69914395  0.37467141  1
  Zr  Zr45  1  0.68469248  0.08829430  0.88119679  1
  Zr  Zr46  1  0.69734746  0.49574957  0.13437933  1
  Zr  Zr47  1  0.91195088  0.28582668  0.12152553  1
  Zr  Zr48  1  0.70044097  0.30359487  0.35908758  1
  Zr  Zr49  1  0.39161562  0.79475631  -0.00493040  1
  Zr  Zr50  1  0.90670886  0.48792928  0.36756515  1
  Zr  Zr51  1  0.19992910  0.80165831  -0.01047063  1
  Zr  Zr52  1  0.79780594  0.78877622  0.00425953  1
  Zr  Zr53  1  0.60777144  0.00298326  0.49340128  1
  Zr  Zr54  1  0.01858831  -0.01526664  0.77371943  1
  Zr  Zr55  1  0.31443348  0.92684645  0.88057617  1
  Zr  Zr56  1  0.50016836  0.49534719  0.87754678  1
  Zr  Zr57  1  0.89874477  0.70062829  0.63246067  1
  Zr  Zr58  1  0.71071928  0.89886082  0.36511321  1
  Zr  Zr59  1  0.00578468  0.19919630  0.75975306  1
  Zr  Zr60  1  0.11536115  0.50622834  0.36304628  1
  Zr  Zr61  1  0.49065201  0.50016436  0.12416551  1
  Zr  Zr62  1  0.10505124  0.10848156  0.37306331  1
  Zr  Zr63  1  0.80771167  0.38811264  0.51041273  1
  Zr  Zr64  1  0.48422527  0.90286615  0.38875521  1
  Zr  Zr65  1  0.20320102  0.40645150  0.52163665  1
  Zr  Zr66  1  0.38837420  0.20358197  -0.00920874  1
  Zr  Zr67  1  0.30845920  0.71198844  0.63260698  1
  Zr  Zr68  1  0.89560437  0.10371021  0.87949895  1
  Zr  Zr69  1  0.49325607  0.10110380  0.60490236  1
  Zr  Zr70  1  0.01170077  -0.01075871  0.49031054  1
  Zr  Zr71  1  0.59539777  0.78532013  0.48512044  1
  Zr  Zr72  1  0.09213712  0.12062750  0.11668488  1
  Zr  Zr73  1  0.79651886  0.59345301  0.75020583  1
  Zr  Zr74  1  0.49840619  0.70043533  0.87847160  1
  Zr  Zr75  1  0.79124709  -0.01510218  0.75888830  1
  Zr  Zr76  1  0.30279561  0.49781302  0.37165333  1
  Zr  Zr77  1  0.59469393  0.38903689  0.00119203  1
  Zr  Zr78  1  0.69327571  0.49104723  0.37519372  1
  Zr  Zr79  1  0.72908442  0.10496810  0.35209548  1
  Ta  Ta80  1  0.20047215  0.60522741  0.75324630  1
  Ta  Ta81  1  0.80266019  0.60221958  0.24239111  1
  Ta  Ta82  1  0.48814283  0.88581616  0.60758772  1
  Ta  Ta83  1  0.40387464  0.81069099  0.75478508  1
  Ta  Ta84  1  0.49719725  0.89989713  0.11796273  1
  Ta  Ta85  1  0.00011793  0.20034435  0.51189313  1
  Ta  Ta86  1  0.79715040  0.20202166  0.74155430  1
  Ta  Ta87  1  0.29864306  0.29965222  0.63376837  1
  Ta  Ta88  1  0.00673650  0.40368750  -0.00413076  1
  Ta  Ta89  1  0.29708175  0.49635815  0.86005948  1
  Ta  Ta90  1  0.39888496  0.40269654  0.51636078  1
  Ta  Ta91  1  -0.00186186  0.59964452  0.76401459  1
  Ta  Ta92  1  0.38435627  0.59602409  -0.01197910  1
  Ta  Ta93  1  0.49325189  0.30844903  0.37316351  1
  Ta  Ta94  1  0.81026616  0.40043338  0.23595328  1
  Ta  Ta95  1  -0.00528202  0.80445339  -0.01157785  1
  Ta  Ta96  1  0.29813098  0.30097264  0.36926299  1
  Ta  Ta97  1  0.80705497  0.79379670  0.23650685  1
  Ta  Ta98  1  0.49691805  0.69970076  0.11457819  1
  Ta  Ta99  1  0.40208053  0.40522700  0.73804322  1
  Ta  Ta100  1  0.29576312  0.10875867  0.37791362  1
  Ta  Ta101  1  0.09947027  0.70477504  0.87097726  1
  Ta  Ta102  1  0.49675549  0.29560211  0.86323727  1
  Ta  Ta103  1  0.48494445  0.08710978  0.88581976  1
  Ta  Ta104  1  0.70660647  0.89290906  0.61247786  1
  Ta  Ta105  1  0.10843132  0.50937616  0.10935967  1
  Ta  Ta106  1  0.39572946  0.39843562  0.24770110  1
  Ta  Ta107  1  0.79277650  0.19668786  0.00632749  1
  Ta  Ta108  1  0.09953580  0.70133182  0.12322675  1
  Ta  Ta109  1  0.19667560  0.82172865  0.76124164  1
  Ta  Ta110  1  0.20065104  0.01332581  0.23874265  1
  Ta  Ta111  1  0.21130846  0.01829862  0.01313148  1
  Ta  Ta112  1  0.49211966  0.29221632  0.14347297  1
  Ta  Ta113  1  0.09810304  0.30022519  0.63908845  1
  Ta  Ta114  1  0.89936561  0.49692078  0.87894050  1
  Ta  Ta115  1  0.90608780  0.69716402  0.11713850  1
  Ta  Ta116  1  0.59242824  0.19709539  -0.00254557  1
  Ta  Ta117  1  0.20337193  0.60168536  -0.01690495  1
  Ta  Ta118  1  0.80160937  0.39556165  0.74290133  1
  Ta  Ta119  1  0.10077529  0.50115345  0.87255028  1
  Ti  Ti120  1  0.10253728  0.88663489  0.34779308  1
  Ti  Ti121  1  0.19949239  0.40957993  0.73684505  1
  Ti  Ti122  1  0.90953928  0.70392229  0.35944595  1
  Ti  Ti123  1  0.58730395  0.19439110  0.26202776  1
  Ti  Ti124  1  0.89779771  0.30613760  0.86903026  1
  Ti  Ti125  1  0.89591497  0.09697684  0.12638845  1
  Ti  Ti126  1  0.00698618  0.79931288  0.48070350  1
  Ti  Ti127  1  0.39129829  0.21213034  0.50064334  1
  Ti  Ti128  1  0.19659197  0.21842105  0.23830297  1
  Ti  Ti129  1  0.70654339  0.69164565  0.37228343  1
  Ti  Ti130  1  0.40159478  0.59927622  0.25792212  1
  Ti  Ti131  1  0.90216542  0.89982988  0.35143085  1
  Ti  Ti132  1  0.20613034  0.40290163  0.00350509  1
  Ti  Ti133  1  0.48196201  0.10608619  0.38282971  1
  Ti  Ti134  1  0.29379098  0.50165411  0.13204395  1
  Ti  Ti135  1  0.49602057  0.69315666  0.61795627  1
  Ti  Ti136  1  0.37948873  -0.00218170  0.50968170  1
  Ti  Ti137  1  0.20036907  0.00425731  0.51497390  1
  Ti  Ti138  1  0.00128959  0.20807573  -0.01685764  1
  Ti  Ti139  1  0.90812130  0.49563009  0.64017383  1
  Ti  Ti140  1  0.11549555  0.10052619  0.88962253  1
  Ti  Ti141  1  0.50314099  0.30621552  0.62228269  1
  Ti  Ti142  1  0.30540289  0.11746708  0.13925290  1
  Ti  Ti143  1  0.80918492  0.80139879  0.77162640  1
  Ti  Ti144  1  0.39977597  0.59741249  0.50545799  1
  Ti  Ti145  1  0.69512761  0.29859211  0.62859790  1
  Ti  Ti146  1  0.50036581  0.49490691  0.38870701  1
  Ti  Ti147  1  0.59847306  0.39870052  0.74683437  1
  Ti  Ti148  1  0.20608998  0.19936760  0.75156838  1
  Ti  Ti149  1  0.21004556  0.21652333  -0.00132996  1
  Ti  Ti150  1  0.20013207  0.20529005  0.51039982  1
  Ti  Ti151  1  0.10211552  0.10339772  0.62359051  1
  Ti  Ti152  1  0.90489938  0.50584453  0.11261826  1
  Ti  Ti153  1  0.00010343  0.60461201  -0.01030949  1
  Ti  Ti154  1  0.39854379  0.00192842  0.73122585  1
  Ti  Ti155  1  0.70253555  0.09329650  0.62663454  1
  Ti  Ti156  1  0.39664041  0.00894398  0.25289473  1
  Ti  Ti157  1  0.69742728  0.09832229  0.12892852  1
  Ti  Ti158  1  0.00028220  -0.00399838  -0.00239578  1
  Ti  Ti159  1  0.70572186  0.49439259  0.87787747  1
  Mo  Mo160  1  0.59972600  0.79496634  0.01704896  1
  Mo  Mo161  1  0.29494725  0.10985712  0.60568701  1
  Mo  Mo162  1  0.39668585  0.19749249  0.26785395  1
  Mo  Mo163  1  0.09358918  0.50487362  0.65043422  1
  Mo  Mo164  1  0.59061203  0.59682186  0.48882938  1
  Mo  Mo165  1  0.80789030  0.59202413  0.00707982  1
  Mo  Mo166  1  0.69811233  0.89136663  0.89008091  1
  Mo  Mo167  1  0.39765202  0.60380373  0.75497985  1
  Mo  Mo168  1  0.58790475  0.39118066  0.50468734  1
  Mo  Mo169  1  0.70121269  0.69458710  0.13742079  1
  Mo  Mo170  1  -0.00126984  0.40467910  0.75494235  1
  Mo  Mo171  1  0.10810163  0.30631678  0.09800349  1
  Mo  Mo172  1  0.29861771  0.69995024  0.85394785  1
  Mo  Mo173  1  0.19664929  0.59846651  0.23782942  1
  Mo  Mo174  1  0.90080496  0.89535565  0.88012027  1
  Mo  Mo175  1  0.39074474  0.79754658  0.49866302  1
  Mo  Mo176  1  0.20543525  0.40041153  0.23153686  1
  Mo  Mo177  1  0.30399830  0.50696342  0.64185981  1
  Mo  Mo178  1  0.39585477  0.00686354  0.01990154  1
  Mo  Mo179  1  -0.00281405  0.79558166  0.24655184  1
  Mo  Mo180  1  0.59944631  0.00537609  0.01422553  1
  Mo  Mo181  1  0.29757156  0.30941346  0.85094124  1
  Mo  Mo182  1  0.09692169  0.70640798  0.36456751  1
  Mo  Mo183  1  0.29953284  0.30280724  0.13836700  1
  Mo  Mo184  1  0.30333266  0.90457705  0.63214843  1
  Mo  Mo185  1  0.48632467  0.68583274  0.38941193  1
  Mo  Mo186  1  0.10860387  0.91146371  0.90039050  1
  Mo  Mo187  1  0.49480477  0.50267454  0.61766068  1
  Mo  Mo188  1  0.19526964  0.80211171  0.24215792  1
  Mo  Mo189  1  0.90348030  0.89608413  0.12426841  1
  Mo  Mo190  1  0.90732165  0.09987888  0.36473451  1
  Mo  Mo191  1  0.10274579  0.90418772  0.63029919  1
  Mo  Mo192  1  -0.00163954  0.80041295  0.78075415  1
  Mo  Mo193  1  0.90386704  0.29708200  0.64107464  1
  Mo  Mo194  1  0.80499352  -0.00563842  0.22784758  1
  Mo  Mo195  1  0.00969273  0.19850656  0.24655292  1
  Mo  Mo196  1  0.58705711  0.39754432  0.25250023  1
  Mo  Mo197  1  0.80529191  0.19371487  0.22666649  1
  Mo  Mo198  1  0.90254444  0.69155509  0.88599671  1
  Mo  Mo199  1  0.29530892  0.10822015  0.88035825  1
