# generated using pymatgen
data_HfZrTaTiMo
_symmetry_space_group_name_H-M   'P 1'
_cell_length_a   15.83587133
_cell_length_b   15.83679754
_cell_length_c   15.38369417
_cell_angle_alpha   89.97733759
_cell_angle_beta   89.91942017
_cell_angle_gamma   89.95062071
_symmetry_Int_Tables_number   1
_chemical_formula_structural   HfZrTaTiMo
_chemical_formula_sum   'Hf40 Zr40 Ta40 Ti40 Mo40'
_cell_volume   3858.06323821
_cell_formula_units_Z   40
loop_
 _symmetry_equiv_pos_site_id
 _symmetry_equiv_pos_as_xyz
  1  'x, y, z'
loop_
 _atom_site_type_symbol
 _atom_site_label
 _atom_site_symmetry_multiplicity
 _atom_site_fract_x
 _atom_site_fract_y
 _atom_site_fract_z
 _atom_site_occupancy
  Hf  Hf0  1  0.09584078  0.90042717  0.60797010  1
  Hf  Hf1  1  0.21108155  0.19862716  0.24431864  1
  Hf  Hf2  1  0.19438127  0.78333627  0.49110760  1
  Hf  Hf3  1  0.70292417  0.10116502  0.12310645  1
  Hf  Hf4  1  0.48867239  0.70574548  0.87022031  1
  Hf  Hf5  1  0.91739963  0.50019014  0.64494009  1
  Hf  Hf6  1  0.49968184  0.49642289  0.63576261  1
  Hf  Hf7  1  0.49291799  0.11059848  0.85170178  1
  Hf  Hf8  1  0.00897852  0.18347714  -0.00116162  1
  Hf  Hf9  1  0.58915864  0.20457353  -0.00884328  1
  Hf  Hf10  1  0.19078074  0.60642429  0.75375698  1
  Hf  Hf11  1  0.59953854  0.80412872  0.50019642  1
  Hf  Hf12  1  0.69177802  0.69565072  0.11660610  1
  Hf  Hf13  1  0.80160969  0.19677802  -0.01006541  1
  Hf  Hf14  1  0.18697948  0.58726180  0.51456051  1
  Hf  Hf15  1  0.49386897  0.90853063  0.37116368  1
  Hf  Hf16  1  0.81077312  -0.00126619  0.75453667  1
  Hf  Hf17  1  0.21707715  0.61523803  -0.01747651  1
  Hf  Hf18  1  -0.00093093  0.19947060  0.26062175  1
  Hf  Hf19  1  0.50118527  0.68993842  0.36396291  1
  Hf  Hf20  1  0.69963227  0.89914815  0.87932515  1
  Hf  Hf21  1  0.69317096  0.10382798  0.62407084  1
  Hf  Hf22  1  0.49893929  0.70405084  0.63615702  1
  Hf  Hf23  1  0.09545962  0.48973582  0.87353008  1
  Hf  Hf24  1  -0.00106138  0.20967578  0.49855972  1
  Hf  Hf25  1  0.61779182  -0.00024264  0.26586014  1
  Hf  Hf26  1  0.69071914  0.09642094  0.86252209  1
  Hf  Hf27  1  0.60013910  0.80129179  0.24236807  1
  Hf  Hf28  1  0.39857957  0.79866036  0.49807247  1
  Hf  Hf29  1  0.80066943  0.20462668  0.74411421  1
  Hf  Hf30  1  0.10759787  0.10435497  0.38497328  1
  Hf  Hf31  1  0.79844212  0.81708531  0.23547552  1
  Hf  Hf32  1  0.20580663  0.19044977  0.73172669  1
  Hf  Hf33  1  0.89774228  0.90302999  0.61233186  1
  Hf  Hf34  1  -0.00414745  0.80565929  0.24228595  1
  Hf  Hf35  1  0.39116036  0.79888976  0.24733691  1
  Hf  Hf36  1  0.70263748  0.69655669  0.36196687  1
  Hf  Hf37  1  0.60563370  0.20734629  0.26739380  1
  Hf  Hf38  1  0.60644814  0.60720082  0.51205486  1
  Hf  Hf39  1  0.69916696  0.50064916  0.37979912  1
  Zr  Zr40  1  0.90113209  0.50338808  0.87868788  1
  Zr  Zr41  1  0.18120075  -0.00566917  -0.00560775  1
  Zr  Zr42  1  0.39354112  0.00135992  0.73213138  1
  Zr  Zr43  1  0.51007262  0.31115082  0.13140677  1
  Zr  Zr44  1  0.80851762  0.40088960  0.51278845  1
  Zr  Zr45  1  0.30398962  0.50093465  0.11213347  1
  Zr  Zr46  1  0.39087348  0.00562772  -0.00319613  1
  Zr  Zr47  1  0.89564219  0.69812199  0.36654860  1
  Zr  Zr48  1  0.92810109  0.90362214  0.88702396  1
  Zr  Zr49  1  0.69162984  0.69826645  0.89235212  1
  Zr  Zr50  1  0.39249353  0.59992557  0.50623012  1
  Zr  Zr51  1  0.50199724  0.49220977  0.37933920  1
  Zr  Zr52  1  0.39414553  0.20743074  0.25242072  1
  Zr  Zr53  1  0.49692897  0.10946209  0.39330948  1
  Zr  Zr54  1  0.00630270  0.39742660  0.25963798  1
  Zr  Zr55  1  0.79926730  0.61171909  0.75563789  1
  Zr  Zr56  1  0.90073874  0.47704033  0.10434487  1
  Zr  Zr57  1  0.00342960  0.60418370  0.51039924  1
  Zr  Zr58  1  0.49524537  0.90785666  0.12918824  1
  Zr  Zr59  1  0.19965171  0.79995906  0.25889028  1
  Zr  Zr60  1  0.90063383  0.50577469  0.37285375  1
  Zr  Zr61  1  0.80052425  0.20167798  0.26501575  1
  Zr  Zr62  1  0.80070922  0.59087092  0.22600294  1
  Zr  Zr63  1  0.29512322  0.88492306  0.87459368  1
  Zr  Zr64  1  0.70904563  0.31073595  0.11517988  1
  Zr  Zr65  1  0.20797569  0.18876643  -0.00102822  1
  Zr  Zr66  1  0.91405823  0.30510112  0.88248509  1
  Zr  Zr67  1  0.50499656  0.50334066  0.85523233  1
  Zr  Zr68  1  0.00781144  0.60588554  0.00293072  1
  Zr  Zr69  1  0.69980332  0.49809164  0.62662865  1
  Zr  Zr70  1  0.50159656  0.09763638  0.13706078  1
  Zr  Zr71  1  0.02028998  0.40843618  0.49866193  1
  Zr  Zr72  1  0.41291053  0.40072332  -0.00968400  1
  Zr  Zr73  1  0.38620319  0.77967644  0.01490555  1
  Zr  Zr74  1  0.70104779  0.90529982  0.62435491  1
  Zr  Zr75  1  0.39224058  0.20565733  0.00956547  1
  Zr  Zr76  1  0.79614567  0.39957335  0.75532684  1
  Zr  Zr77  1  0.29547106  0.48960133  0.37911572  1
  Zr  Zr78  1  0.10021177  0.30191440  0.11516941  1
  Zr  Zr79  1  0.19311972  -0.00603707  0.74512759  1
  Ta  Ta80  1  0.20264409  0.39501903  0.74964568  1
  Ta  Ta81  1  0.29946393  0.10440008  0.40134551  1
  Ta  Ta82  1  -0.00642189  -0.00262249  0.26207360  1
  Ta  Ta83  1  0.90158606  0.09512689  0.12930663  1
  Ta  Ta84  1  0.39905078  0.39707723  0.24718194  1
  Ta  Ta85  1  0.11125936  0.49637316  0.11568871  1
  Ta  Ta86  1  0.80452788  0.79930690  0.75772586  1
  Ta  Ta87  1  0.28645565  0.90892223  0.12875312  1
  Ta  Ta88  1  0.10816893  0.28891834  0.86466322  1
  Ta  Ta89  1  0.09829224  0.08663219  0.14030526  1
  Ta  Ta90  1  0.69309393  0.30131909  0.87535264  1
  Ta  Ta91  1  0.29990820  0.49614675  0.63986069  1
  Ta  Ta92  1  0.19881001  -0.00111206  0.26349961  1
  Ta  Ta93  1  0.11014712  0.69711155  0.13064245  1
  Ta  Ta94  1  0.00493333  0.59381204  0.23109537  1
  Ta  Ta95  1  0.80113335  0.20169644  0.50604114  1
  Ta  Ta96  1  0.80451073  0.80691398  0.00903069  1
  Ta  Ta97  1  0.21101841  0.39321677  0.24517909  1
  Ta  Ta98  1  0.80744958  0.00224566  -0.00211922  1
  Ta  Ta99  1  0.80689116  0.00327319  0.26535777  1
  Ta  Ta100  1  -0.00251510  0.79316803  0.49156063  1
  Ta  Ta101  1  0.09758920  0.68017721  0.35784507  1
  Ta  Ta102  1  0.21237515  0.38906626  -0.01858273  1
  Ta  Ta103  1  0.40115982  0.59727111  0.23364172  1
  Ta  Ta104  1  0.31659931  0.29382224  0.84880950  1
  Ta  Ta105  1  0.29331835  0.70341845  0.63301775  1
  Ta  Ta106  1  0.50317990  0.90292445  0.86556928  1
  Ta  Ta107  1  -0.00726019  0.00160089  0.48310064  1
  Ta  Ta108  1  0.09827780  0.09596313  0.60616542  1
  Ta  Ta109  1  0.58909313  0.80533729  0.00768559  1
  Ta  Ta110  1  0.30692934  0.49704428  0.86375328  1
  Ta  Ta111  1  0.69045760  0.30667262  0.40009438  1
  Ta  Ta112  1  0.90180883  0.29440596  0.11435134  1
  Ta  Ta113  1  0.00207593  0.18974002  0.73943278  1
  Ta  Ta114  1  0.09496760  0.72794462  0.88098597  1
  Ta  Ta115  1  0.00020237  0.80519213  0.74050119  1
  Ta  Ta116  1  0.90356334  0.71188384  0.88963697  1
  Ta  Ta117  1  0.60331620  0.80415706  0.74554111  1
  Ta  Ta118  1  0.29334047  0.89750606  0.60948725  1
  Ta  Ta119  1  0.39945115  0.39080082  0.52149668  1
  Ti  Ti120  1  0.90658042  0.30076987  0.63103468  1
  Ti  Ti121  1  0.08670280  0.08368666  0.86014235  1
  Ti  Ti122  1  0.29648055  0.90964175  0.38817537  1
  Ti  Ti123  1  0.29474167  0.68277622  0.36590757  1
  Ti  Ti124  1  0.60328456  0.40618181  0.25378190  1
  Ti  Ti125  1  0.09954281  0.30275300  0.63429771  1
  Ti  Ti126  1  0.00362320  0.61919369  0.75467341  1
  Ti  Ti127  1  0.70109316  0.91166662  0.11128802  1
  Ti  Ti128  1  0.90284618  0.70414965  0.11199985  1
  Ti  Ti129  1  0.50680169  0.29131971  0.63031236  1
  Ti  Ti130  1  0.40231847  -0.00111248  0.51536947  1
  Ti  Ti131  1  0.18945285  0.80432776  0.01330316  1
  Ti  Ti132  1  0.59793836  -0.00326568  0.50145976  1
  Ti  Ti133  1  0.30608716  0.29408802  0.39894690  1
  Ti  Ti134  1  0.89388751  0.30411265  0.38204079  1
  Ti  Ti135  1  0.19279655  0.79924315  0.74262946  1
  Ti  Ti136  1  0.60170587  0.40698588  -0.01524407  1
  Ti  Ti137  1  0.79759871  0.39393329  0.25452194  1
  Ti  Ti138  1  0.50435612  0.10308823  0.62588022  1
  Ti  Ti139  1  0.49848142  0.30539756  0.39397025  1
  Ti  Ti140  1  0.38235393  0.01050834  0.25373366  1
  Ti  Ti141  1  0.89867500  0.70886131  0.62708911  1
  Ti  Ti142  1  0.68956232  0.49540631  0.11414069  1
  Ti  Ti143  1  0.38960819  0.60642817  0.74995494  1
  Ti  Ti144  1  0.90854241  0.09580825  0.87201902  1
  Ti  Ti145  1  0.12325485  0.30613559  0.38242760  1
  Ti  Ti146  1  0.88706222  0.89908322  0.38730616  1
  Ti  Ti147  1  0.80237578  0.60805145  0.51379060  1
  Ti  Ti148  1  0.20414155  0.39611545  0.52265187  1
  Ti  Ti149  1  0.79260568  0.79356112  0.50074735  1
  Ti  Ti150  1  0.39398471  0.80728136  0.73959291  1
  Ti  Ti151  1  0.59418167  0.00270526  -0.00480797  1
  Ti  Ti152  1  0.09463517  0.89601554  0.37997581  1
  Ti  Ti153  1  0.79407691  0.59397659  -0.00165807  1
  Ti  Ti154  1  0.90024860  0.09548171  0.61324900  1
  Ti  Ti155  1  0.57257301  0.59741228  0.01043665  1
  Ti  Ti156  1  0.61156469  0.60776175  0.74875807  1
  Ti  Ti157  1  0.29906535  0.10231444  0.86345053  1
  Ti  Ti158  1  0.60407738  0.38793085  0.74919548  1
  Ti  Ti159  1  0.70523294  0.10090786  0.39742550  1
  Mo  Mo160  1  0.70394182  0.90137677  0.38781755  1
  Mo  Mo161  1  0.70747163  0.70822722  0.63079350  1
  Mo  Mo162  1  0.69339520  0.50138728  0.88517321  1
  Mo  Mo163  1  -0.00141324  0.00654026  0.73017096  1
  Mo  Mo164  1  0.40248972  0.39641832  0.74020216  1
  Mo  Mo165  1  0.00849587  0.38651309  0.74780477  1
  Mo  Mo166  1  0.29283631  0.69857888  0.13620559  1
  Mo  Mo167  1  0.79019107  0.40239444  -0.01442567  1
  Mo  Mo168  1  0.79884972  0.00240383  0.48859984  1
  Mo  Mo169  1  0.10948538  0.49798916  0.35699328  1
  Mo  Mo170  1  0.09719320  0.90236401  0.14300817  1
  Mo  Mo171  1  0.29420663  0.09157700  0.13429249  1
  Mo  Mo172  1  0.50276205  0.29869969  0.85131348  1
  Mo  Mo173  1  0.10173131  0.49598783  0.65104025  1
  Mo  Mo174  1  0.59562360  0.59130550  0.23476512  1
  Mo  Mo175  1  0.40051592  0.20255856  0.51685530  1
  Mo  Mo176  1  0.30054672  0.30586827  0.12071642  1
  Mo  Mo177  1  0.09771860  0.89705682  0.86645485  1
  Mo  Mo178  1  0.49672993  0.69557816  0.12997210  1
  Mo  Mo179  1  0.29739998  0.70256170  0.85376236  1
  Mo  Mo180  1  0.01543150  0.39135411  -0.00396364  1
  Mo  Mo181  1  0.40070913  0.59897476  -0.00232647  1
  Mo  Mo182  1  0.59554135  -0.00455049  0.74487932  1
  Mo  Mo183  1  0.29640685  0.09699835  0.60031348  1
  Mo  Mo184  1  0.19830742  -0.00591323  0.48748421  1
  Mo  Mo185  1  0.50664493  0.49969023  0.13108919  1
  Mo  Mo186  1  0.49899925  0.90404436  0.63128863  1
  Mo  Mo187  1  0.19954858  0.20755420  0.51463026  1
  Mo  Mo188  1  0.89944762  0.10256244  0.38253813  1
  Mo  Mo189  1  0.09234100  0.70574997  0.63215294  1
  Mo  Mo190  1  0.00827724  0.80602380  0.02534978  1
  Mo  Mo191  1  0.30268869  0.29913018  0.62782007  1
  Mo  Mo192  1  -0.00046009  0.00229773  0.01514381  1
  Mo  Mo193  1  0.20049649  0.58972443  0.24619305  1
  Mo  Mo194  1  0.89970427  0.91087599  0.11803125  1
  Mo  Mo195  1  0.59889370  0.20185893  0.50250037  1
  Mo  Mo196  1  0.60013136  0.20591500  0.74474435  1
  Mo  Mo197  1  0.39944357  0.19857674  0.72452765  1
  Mo  Mo198  1  0.69433992  0.29673350  0.61491796  1
  Mo  Mo199  1  0.59489620  0.39676327  0.51240042  1
