# generated using pymatgen
data_HfZrTaTiMo
_symmetry_space_group_name_H-M   'P 1'
_cell_length_a   15.82808636
_cell_length_b   15.83397163
_cell_length_c   15.40369848
_cell_angle_alpha   89.99934855
_cell_angle_beta   89.96244625
_cell_angle_gamma   90.01727269
_symmetry_Int_Tables_number   1
_chemical_formula_structural   HfZrTaTiMo
_chemical_formula_sum   'Hf40 Zr40 Ta40 Ti40 Mo40'
_cell_volume   3860.49655853
_cell_formula_units_Z   40
loop_
 _symmetry_equiv_pos_site_id
 _symmetry_equiv_pos_as_xyz
  1  'x, y, z'
loop_
 _atom_site_type_symbol
 _atom_site_label
 _atom_site_symmetry_multiplicity
 _atom_site_fract_x
 _atom_site_fract_y
 _atom_site_fract_z
 _atom_site_occupancy
  Hf  Hf0  1  0.79650959  0.20322505  0.76097275  1
  Hf  Hf1  1  0.01514003  0.39849257  0.24562237  1
  Hf  Hf2  1  0.89700707  0.89968123  0.88249054  1
  Hf  Hf3  1  0.79616204  0.60771250  0.24697677  1
  Hf  Hf4  1  0.30633028  0.69896511  0.63998109  1
  Hf  Hf5  1  0.31561448  0.49618867  0.39192306  1
  Hf  Hf6  1  0.20319701  0.18872199  0.49506966  1
  Hf  Hf7  1  0.20095906  0.59366363  0.24161298  1
  Hf  Hf8  1  -0.00020374  -0.00112508  0.75660761  1
  Hf  Hf9  1  0.90817178  0.09647258  0.36247820  1
  Hf  Hf10  1  0.58983644  0.00601332  0.50814749  1
  Hf  Hf11  1  0.40931489  0.79292810  0.51624397  1
  Hf  Hf12  1  0.10015080  0.69499113  0.63340847  1
  Hf  Hf13  1  0.58743005  0.21591636  0.24397933  1
  Hf  Hf14  1  0.89896093  0.90030965  0.63083122  1
  Hf  Hf15  1  0.89028029  0.10208542  0.89120684  1
  Hf  Hf16  1  0.80296557  -0.00389234  0.49256491  1
  Hf  Hf17  1  0.69817515  0.49945110  0.88378889  1
  Hf  Hf18  1  0.90391988  0.69898212  0.37354105  1
  Hf  Hf19  1  0.69122096  0.90034625  0.87699551  1
  Hf  Hf20  1  0.29965896  0.09078463  0.87173538  1
  Hf  Hf21  1  0.48975151  0.10463741  0.12206920  1
  Hf  Hf22  1  0.39542112  -0.01656341  0.23596643  1
  Hf  Hf23  1  -0.00074799  0.20098580  0.01385176  1
  Hf  Hf24  1  0.29241102  0.90608304  0.09086907  1
  Hf  Hf25  1  0.71510523  0.90074204  0.10796697  1
  Hf  Hf26  1  0.29014552  0.91438748  0.63272533  1
  Hf  Hf27  1  0.69796855  0.89574803  0.62854989  1
  Hf  Hf28  1  0.88884383  0.08513067  0.12280640  1
  Hf  Hf29  1  0.48737324  0.10489690  0.36334564  1
  Hf  Hf30  1  0.22320317  0.39576203  0.23605674  1
  Hf  Hf31  1  0.20497748  0.39262099  0.75051221  1
  Hf  Hf32  1  0.70044159  0.49731003  0.62029219  1
  Hf  Hf33  1  0.40577740  0.60696649  0.00520241  1
  Hf  Hf34  1  0.09618001  0.29482741  0.62153180  1
  Hf  Hf35  1  0.80194016  0.21020565  0.24280659  1
  Hf  Hf36  1  0.10244190  0.49740493  0.88723272  1
  Hf  Hf37  1  0.49513466  0.09001261  0.88110928  1
  Hf  Hf38  1  0.69010371  0.69372670  0.86702346  1
  Hf  Hf39  1  0.58233946  -0.01094003  0.74341224  1
  Zr  Zr40  1  0.49816455  0.30940966  0.61913568  1
  Zr  Zr41  1  0.69105991  0.88912818  0.37837319  1
  Zr  Zr42  1  0.11734386  0.09050930  0.63489698  1
  Zr  Zr43  1  0.39947970  0.21669128  0.76315764  1
  Zr  Zr44  1  -0.00650410  0.79982492  0.50348757  1
  Zr  Zr45  1  0.91054648  0.50086727  0.88789123  1
  Zr  Zr46  1  0.89980804  0.69165174  0.62977486  1
  Zr  Zr47  1  0.90259289  0.30187898  0.61286438  1
  Zr  Zr48  1  -0.00614152  -0.02412556  0.24377910  1
  Zr  Zr49  1  0.59797312  0.39261640  0.75882007  1
  Zr  Zr50  1  0.69027521  0.10001917  0.36351035  1
  Zr  Zr51  1  0.90229801  0.49705246  0.61925213  1
  Zr  Zr52  1  0.30330448  0.50824884  0.87991115  1
  Zr  Zr53  1  0.50164356  0.50459956  0.87164547  1
  Zr  Zr54  1  0.80084072  0.60709752  0.00931407  1
  Zr  Zr55  1  0.92736596  0.52105458  0.13173797  1
  Zr  Zr56  1  0.90235441  0.10792042  0.62156442  1
  Zr  Zr57  1  0.80318403  0.39379639  0.75955915  1
  Zr  Zr58  1  0.80159953  0.40345675  0.24712763  1
  Zr  Zr59  1  0.00084804  0.20498777  0.76615880  1
  Zr  Zr60  1  0.80035168  0.20615462  0.47595410  1
  Zr  Zr61  1  0.60492372  0.19902530  0.76473427  1
  Zr  Zr62  1  0.20133522  0.79699263  0.25257959  1
  Zr  Zr63  1  0.39928080  0.79886458  0.25479033  1
  Zr  Zr64  1  0.80330062  0.40144844  0.02904750  1
  Zr  Zr65  1  0.29473174  0.70900585  0.11367656  1
  Zr  Zr66  1  0.59285541  -0.01467174  0.23446680  1
  Zr  Zr67  1  0.29173239  0.10903078  0.12127884  1
  Zr  Zr68  1  0.09558058  0.87327551  0.10261216  1
  Zr  Zr69  1  0.68036801  0.50674240  0.36597699  1
  Zr  Zr70  1  0.29803382  0.10122011  0.35808024  1
  Zr  Zr71  1  0.58712791  0.79021910  -0.00039371  1
  Zr  Zr72  1  0.80952331  0.81001110  0.25176890  1
  Zr  Zr73  1  0.10359587  0.89868170  0.39320237  1
  Zr  Zr74  1  0.69914051  0.69683566  0.63543762  1
  Zr  Zr75  1  0.29646214  0.89784057  0.40065250  1
  Zr  Zr76  1  0.70127446  0.29967985  0.60795837  1
  Zr  Zr77  1  0.10642223  0.08928149  0.12515365  1
  Zr  Zr78  1  0.11574382  0.49619721  0.38014974  1
  Zr  Zr79  1  0.50331894  0.69163698  0.36907504  1
  Ta  Ta80  1  0.00619896  0.20701355  0.24612754  1
  Ta  Ta81  1  0.20173089  0.20585287  0.76671163  1
  Ta  Ta82  1  0.19797437  -0.01177096  0.24881417  1
  Ta  Ta83  1  0.58995125  -0.00376077  0.00832286  1
  Ta  Ta84  1  0.69773164  0.10356418  0.62157353  1
  Ta  Ta85  1  0.00188936  0.39216610  0.47744844  1
  Ta  Ta86  1  0.80665171  0.59670262  0.76116823  1
  Ta  Ta87  1  0.00185014  0.59120872  0.49173691  1
  Ta  Ta88  1  0.00440016  0.39991481  0.75648143  1
  Ta  Ta89  1  0.90371225  0.30686912  0.90067410  1
  Ta  Ta90  1  0.10480590  0.89577564  0.62539613  1
  Ta  Ta91  1  0.80165845  0.79982312  0.76136674  1
  Ta  Ta92  1  0.30650627  0.90658116  0.86964913  1
  Ta  Ta93  1  0.11427983  0.29642396  0.12069820  1
  Ta  Ta94  1  0.30125099  0.68845487  0.39485762  1
  Ta  Ta95  1  0.39933244  0.21286591  -0.00821743  1
  Ta  Ta96  1  0.49516811  0.69491434  0.84708742  1
  Ta  Ta97  1  0.39306532  0.59021324  0.23874851  1
  Ta  Ta98  1  0.09691740  0.49360248  0.62127588  1
  Ta  Ta99  1  0.10363483  0.68939728  0.85736682  1
  Ta  Ta100  1  0.59052576  0.20298274  0.48921282  1
  Ta  Ta101  1  0.69857216  0.70431633  0.12585415  1
  Ta  Ta102  1  0.11191557  0.69598080  0.39107060  1
  Ta  Ta103  1  0.78981812  0.00661911  0.75391021  1
  Ta  Ta104  1  0.80572913  0.40589810  0.47210282  1
  Ta  Ta105  1  0.20290277  0.20449635  -0.01588062  1
  Ta  Ta106  1  0.30560653  0.30404082  0.38362696  1
  Ta  Ta107  1  0.41492791  0.81939227  0.74739599  1
  Ta  Ta108  1  0.79322025  0.60073647  0.48327174  1
  Ta  Ta109  1  0.59312391  0.40134865  0.01299935  1
  Ta  Ta110  1  0.00584345  0.00717313  0.50029892  1
  Ta  Ta111  1  0.00129395  0.79699889  0.75999566  1
  Ta  Ta112  1  0.58895122  0.60528532  0.50914412  1
  Ta  Ta113  1  0.59851795  0.20404208  0.00420205  1
  Ta  Ta114  1  0.49434496  0.90357892  0.39074558  1
  Ta  Ta115  1  0.39938182  0.20199431  0.50296352  1
  Ta  Ta116  1  0.20471319  0.59599477  0.51723746  1
  Ta  Ta117  1  -0.00093726  -0.00866170  -0.00058375  1
  Ta  Ta118  1  0.39280317  0.01681881  0.51808276  1
  Ta  Ta119  1  0.09771851  0.30889910  0.89209696  1
  Ti  Ti120  1  0.49374833  0.10961936  0.63290551  1
  Ti  Ti121  1  0.91188134  0.72046846  0.12599938  1
  Ti  Ti122  1  0.40025857  0.79865319  -0.02451570  1
  Ti  Ti123  1  0.59602529  0.60265559  0.23627910  1
  Ti  Ti124  1  0.68624823  0.31032894  0.36960242  1
  Ti  Ti125  1  0.59824948  0.79320560  0.50515457  1
  Ti  Ti126  1  0.00296326  0.62014087  -0.00989789  1
  Ti  Ti127  1  0.00774173  0.79338614  0.26115342  1
  Ti  Ti128  1  0.79327715  0.20484081  0.01720471  1
  Ti  Ti129  1  0.49268260  0.49786363  0.37122534  1
  Ti  Ti130  1  0.20161648  0.78515171  -0.03045221  1
  Ti  Ti131  1  0.10543641  0.09581886  0.36149296  1
  Ti  Ti132  1  0.39551139  0.40256530  0.75462428  1
  Ti  Ti133  1  0.79449520  0.79290343  0.49255639  1
  Ti  Ti134  1  0.68797591  0.30958550  0.13075669  1
  Ti  Ti135  1  0.20083525  0.39109597  0.50395318  1
  Ti  Ti136  1  0.20401544  0.80239398  0.76019870  1
  Ti  Ti137  1  0.30824088  0.49267414  0.61868311  1
  Ti  Ti138  1  0.59772459  0.59747816  0.01799569  1
  Ti  Ti139  1  0.38542216  0.22858247  0.23696004  1
  Ti  Ti140  1  0.30039952  0.29483396  0.61905341  1
  Ti  Ti141  1  0.49542009  0.50795004  0.63051356  1
  Ti  Ti142  1  0.59190940  0.40605170  0.49450658  1
  Ti  Ti143  1  0.10064768  0.09603447  0.88144999  1
  Ti  Ti144  1  0.90852908  0.50498748  0.36353158  1
  Ti  Ti145  1  0.20539212  0.58851491  0.74401137  1
  Ti  Ti146  1  0.69561368  0.09813721  0.12409379  1
  Ti  Ti147  1  0.80986565  0.78983141  -0.00925380  1
  Ti  Ti148  1  0.59960258  0.79907613  0.24441157  1
  Ti  Ti149  1  0.70164252  0.30113706  0.89645874  1
  Ti  Ti150  1  0.10579262  0.89962845  0.87654331  1
  Ti  Ti151  1  0.79831968  -0.00823460  0.25637775  1
  Ti  Ti152  1  0.08941744  0.68629869  0.12599296  1
  Ti  Ti153  1  0.00809341  0.20388075  0.47368657  1
  Ti  Ti154  1  0.19966769  0.60339690  0.00348000  1
  Ti  Ti155  1  0.49801099  0.49213871  0.13433502  1
  Ti  Ti156  1  0.69779284  0.09622759  0.89188183  1
  Ti  Ti157  1  0.49552215  0.70512077  0.13352896  1
  Ti  Ti158  1  0.48825278  0.31633685  0.37463491  1
  Ti  Ti159  1  0.21056179  0.40199545  0.01107197  1
  Mo  Mo160  1  0.90218178  0.89027569  0.10015660  1
  Mo  Mo161  1  0.50081166  0.30649677  0.89561368  1
  Mo  Mo162  1  0.01325608  0.60973376  0.26358256  1
  Mo  Mo163  1  0.00453848  0.78814725  -0.02254870  1
  Mo  Mo164  1  0.30146136  0.30053623  0.10750493  1
  Mo  Mo165  1  0.79141479  0.00316294  -0.00653884  1
  Mo  Mo166  1  0.39918899  0.59668457  0.73749451  1
  Mo  Mo167  1  0.30283506  0.10984507  0.64313895  1
  Mo  Mo168  1  0.29821452  0.30913941  0.88731747  1
  Mo  Mo169  1  0.19432291  -0.00385714  0.76794171  1
  Mo  Mo170  1  0.58986746  0.40299962  0.24381232  1
  Mo  Mo171  1  0.39784168  0.00575128  0.73274188  1
  Mo  Mo172  1  0.10911273  0.50390065  0.10865380  1
  Mo  Mo173  1  0.20144089  0.79109480  0.51594957  1
  Mo  Mo174  1  0.90097285  0.90129417  0.38977566  1
  Mo  Mo175  1  0.59631972  0.80153680  0.75144039  1
  Mo  Mo176  1  0.40581886  0.59541528  0.51853890  1
  Mo  Mo177  1  0.11218088  0.29294173  0.36883702  1
  Mo  Mo178  1  0.19688432  0.00363980  0.49629972  1
  Mo  Mo179  1  0.40378018  0.40233751  0.23906211  1
  Mo  Mo180  1  0.40162210  0.39896111  0.51003962  1
  Mo  Mo181  1  0.30050396  0.70319586  0.85748520  1
  Mo  Mo182  1  0.30586987  0.50441247  0.10976229  1
  Mo  Mo183  1  0.49545678  0.30322203  0.11414257  1
  Mo  Mo184  1  0.90829016  0.30295489  0.36465684  1
  Mo  Mo185  1  0.40077628  0.00222301  0.00622302  1
  Mo  Mo186  1  0.69334863  0.69839060  0.37547844  1
  Mo  Mo187  1  0.19731588  0.20480047  0.25794306  1
  Mo  Mo188  1  0.00784382  0.59059226  0.75239412  1
  Mo  Mo189  1  0.19334899  -0.00207576  -0.01916675  1
  Mo  Mo190  1  0.50644620  0.70043167  0.64268345  1
  Mo  Mo191  1  0.90709775  0.29718357  0.12477373  1
  Mo  Mo192  1  0.01213444  0.39981365  0.02082611  1
  Mo  Mo193  1  0.40054430  0.40386295  0.01393080  1
  Mo  Mo194  1  0.68616495  0.50762309  0.13109185  1
  Mo  Mo195  1  0.90190212  0.69877968  0.86118469  1
  Mo  Mo196  1  0.49191195  0.90078521  0.88415164  1
  Mo  Mo197  1  0.49226909  0.89092794  0.10533132  1
  Mo  Mo198  1  0.49774967  0.90266646  0.60764236  1
  Mo  Mo199  1  0.60171797  0.59565259  0.73575427  1
