# generated using pymatgen
data_HfZrTaTiMo
_symmetry_space_group_name_H-M   'P 1'
_cell_length_a   15.83956591
_cell_length_b   15.82682353
_cell_length_c   15.40406432
_cell_angle_alpha   89.98089432
_cell_angle_beta   89.96239626
_cell_angle_gamma   89.98831449
_symmetry_Int_Tables_number   1
_chemical_formula_structural   HfZrTaTiMo
_chemical_formula_sum   'Hf40 Zr40 Ta40 Ti40 Mo40'
_cell_volume   3861.64397918
_cell_formula_units_Z   40
loop_
 _symmetry_equiv_pos_site_id
 _symmetry_equiv_pos_as_xyz
  1  'x, y, z'
loop_
 _atom_site_type_symbol
 _atom_site_label
 _atom_site_symmetry_multiplicity
 _atom_site_fract_x
 _atom_site_fract_y
 _atom_site_fract_z
 _atom_site_occupancy
  Hf  Hf0  1  0.80443074  0.79899890  0.74659249  1
  Hf  Hf1  1  0.90448101  0.90028897  0.61622148  1
  Hf  Hf2  1  0.79550128  0.41918258  0.23424841  1
  Hf  Hf3  1  0.89960750  0.10169853  0.62466614  1
  Hf  Hf4  1  0.21641477  0.01917270  0.76151699  1
  Hf  Hf5  1  0.01203722  0.79997917  -0.00121651  1
  Hf  Hf6  1  0.49727540  0.70705842  0.13539553  1
  Hf  Hf7  1  -0.00442844  0.79608751  0.25833355  1
  Hf  Hf8  1  0.39384916  0.39719637  0.76192899  1
  Hf  Hf9  1  0.58268143  0.19141270  0.75038424  1
  Hf  Hf10  1  0.10052244  0.69187734  0.86061947  1
  Hf  Hf11  1  0.80001552  0.81580651  0.23975854  1
  Hf  Hf12  1  0.69175529  0.09466812  0.87949573  1
  Hf  Hf13  1  0.00284820  0.00231075  0.75738197  1
  Hf  Hf14  1  0.29658997  0.69796178  0.86099268  1
  Hf  Hf15  1  0.38842123  0.19808837  0.01016280  1
  Hf  Hf16  1  0.70500984  0.89378371  0.61085511  1
  Hf  Hf17  1  0.89876526  0.29428393  0.12734512  1
  Hf  Hf18  1  0.49831233  0.30675357  0.35890962  1
  Hf  Hf19  1  0.89090871  0.50974784  0.62581668  1
  Hf  Hf20  1  0.89823722  0.69891271  0.87834843  1
  Hf  Hf21  1  0.50676803  0.70494169  0.35565989  1
  Hf  Hf22  1  -0.01479402  0.19015701  0.26129145  1
  Hf  Hf23  1  0.47366940  0.50524671  0.35467676  1
  Hf  Hf24  1  0.51343171  0.90832461  0.62210943  1
  Hf  Hf25  1  0.18957285  0.38141592  0.49563944  1
  Hf  Hf26  1  0.20677584  -0.00360374  0.26462236  1
  Hf  Hf27  1  0.68998979  0.30849458  0.63863565  1
  Hf  Hf28  1  0.08951934  0.50252679  0.62606614  1
  Hf  Hf29  1  0.70030862  0.30090742  0.12012240  1
  Hf  Hf30  1  0.39461294  0.19886864  0.24082661  1
  Hf  Hf31  1  -0.00768848  0.21157543  -0.02011599  1
  Hf  Hf32  1  0.08172166  0.48760316  0.38220100  1
  Hf  Hf33  1  0.80515855  0.39844201  -0.01260900  1
  Hf  Hf34  1  0.49534532  0.49832694  0.12868128  1
  Hf  Hf35  1  0.31269134  0.90482759  0.62306996  1
  Hf  Hf36  1  0.11209917  0.10649549  0.61758537  1
  Hf  Hf37  1  0.78669191  0.40752459  0.76143037  1
  Hf  Hf38  1  0.41334837  0.80078279  0.75870372  1
  Hf  Hf39  1  0.18980248  0.20192003  0.26157574  1
  Zr  Zr40  1  0.10825595  0.68501375  0.12835086  1
  Zr  Zr41  1  0.00732247  0.20955598  0.49087356  1
  Zr  Zr42  1  0.89501528  0.31928271  0.36311828  1
  Zr  Zr43  1  0.28205932  0.50043867  0.87873666  1
  Zr  Zr44  1  0.61905547  0.59594500  0.23980708  1
  Zr  Zr45  1  0.39088735  0.60464271  0.00255330  1
  Zr  Zr46  1  0.70649565  0.49649274  0.38543218  1
  Zr  Zr47  1  0.19638622  0.60005407  0.49374672  1
  Zr  Zr48  1  0.59388838  0.59800340  0.48999939  1
  Zr  Zr49  1  0.28034282  0.50186200  0.13048639  1
  Zr  Zr50  1  0.80958684  0.61113532  0.23700458  1
  Zr  Zr51  1  0.21157623  0.79695279  0.49686050  1
  Zr  Zr52  1  0.51581160  0.89282127  0.37213571  1
  Zr  Zr53  1  0.30190732  0.49744072  0.62360169  1
  Zr  Zr54  1  0.62494530  -0.00678272  0.24372210  1
  Zr  Zr55  1  0.69326139  0.09078909  0.63391002  1
  Zr  Zr56  1  0.29033899  0.09092874  0.12592029  1
  Zr  Zr57  1  0.10798849  0.90333253  0.13441390  1
  Zr  Zr58  1  0.48796831  0.30066731  0.62716790  1
  Zr  Zr59  1  0.09007413  0.70006440  0.64295197  1
  Zr  Zr60  1  0.08564204  0.09985143  0.12869981  1
  Zr  Zr61  1  0.21194689  0.79392877  0.00062655  1
  Zr  Zr62  1  0.50069959  0.49698579  0.62133257  1
  Zr  Zr63  1  0.00938121  0.01214869  -0.02062444  1
  Zr  Zr64  1  0.70125726  0.89335546  0.89727874  1
  Zr  Zr65  1  0.38927810  0.39443971  0.00449705  1
  Zr  Zr66  1  -0.01250252  0.39664429  0.75537165  1
  Zr  Zr67  1  0.50193787  0.09859423  0.36400052  1
  Zr  Zr68  1  0.59440852  0.20110872  0.49948628  1
  Zr  Zr69  1  0.81873800  0.01437653  0.24274809  1
  Zr  Zr70  1  0.10739223  0.90425694  0.62618863  1
  Zr  Zr71  1  0.00902053  0.79141495  0.48564405  1
  Zr  Zr72  1  0.38089499  0.19023942  0.75514961  1
  Zr  Zr73  1  0.61137458  0.78835612  0.75967011  1
  Zr  Zr74  1  0.32208168  0.68738234  0.37273237  1
  Zr  Zr75  1  0.49936461  0.09381517  0.89551207  1
  Zr  Zr76  1  0.79995396  0.21260954  0.50639476  1
  Zr  Zr77  1  0.40859879  0.80062695  -0.01187410  1
  Zr  Zr78  1  0.70557207  0.71775698  0.38710208  1
  Zr  Zr79  1  0.51043727  0.69778239  0.62355058  1
  Ta  Ta80  1  0.69897793  0.71470736  0.10759695  1
  Ta  Ta81  1  0.71031516  0.10800256  0.11193078  1
  Ta  Ta82  1  0.51211370  0.89761825  0.12617140  1
  Ta  Ta83  1  0.58931504  0.41251091  0.77446738  1
  Ta  Ta84  1  -0.01392953  0.39070678  0.51881210  1
  Ta  Ta85  1  0.30006550  0.30724582  0.36476935  1
  Ta  Ta86  1  0.59552015  0.40219713  -0.00527015  1
  Ta  Ta87  1  0.09799320  0.29362318  0.63798597  1
  Ta  Ta88  1  0.18716182  0.19722984  -0.00687270  1
  Ta  Ta89  1  0.90983303  0.90806297  0.11139676  1
  Ta  Ta90  1  0.89985087  0.69728351  0.62130945  1
  Ta  Ta91  1  0.17451324  0.39630504  -0.00234715  1
  Ta  Ta92  1  0.90368787  0.89493657  0.87990902  1
  Ta  Ta93  1  0.39331924  0.20672081  0.49299974  1
  Ta  Ta94  1  0.68868246  0.51940457  0.88914031  1
  Ta  Ta95  1  0.20900483  0.79227974  0.26041248  1
  Ta  Ta96  1  0.80421037  0.59732586  0.01389847  1
  Ta  Ta97  1  0.41778754  0.59393651  0.76517659  1
  Ta  Ta98  1  0.08821629  0.30784659  0.13194412  1
  Ta  Ta99  1  0.39990033  -0.00809909  0.00901412  1
  Ta  Ta100  1  0.80100674  -0.00258829  0.76308535  1
  Ta  Ta101  1  -0.00230989  0.19738336  0.75951103  1
  Ta  Ta102  1  0.81141690  0.00756706  -0.00215909  1
  Ta  Ta103  1  0.30997406  0.88926443  0.13314065  1
  Ta  Ta104  1  0.19451158  0.59482654  0.26950609  1
  Ta  Ta105  1  0.69878185  0.30000968  0.36124716  1
  Ta  Ta106  1  0.39034669  0.40219960  0.49100069  1
  Ta  Ta107  1  0.60702227  0.19795376  0.23926257  1
  Ta  Ta108  1  0.49468334  0.29777611  0.88279742  1
  Ta  Ta109  1  0.28596670  0.29462158  0.87954647  1
  Ta  Ta110  1  0.10941916  0.89130948  0.85956163  1
  Ta  Ta111  1  -0.00494778  0.59594082  0.26041848  1
  Ta  Ta112  1  0.50686088  0.09506899  0.12406439  1
  Ta  Ta113  1  0.30329437  0.10151109  0.60646169  1
  Ta  Ta114  1  0.00177630  -0.00193953  0.48706949  1
  Ta  Ta115  1  0.10610661  0.89767976  0.37368595  1
  Ta  Ta116  1  0.20570307  -0.00345040  -0.01461051  1
  Ta  Ta117  1  0.78273492  0.60860406  0.74820034  1
  Ta  Ta118  1  0.41627279  0.00687433  0.74970541  1
  Ta  Ta119  1  0.00665586  0.58704166  -0.00673348  1
  Ti  Ti120  1  0.20669179  -0.00278738  0.48881476  1
  Ti  Ti121  1  0.51633651  0.90938912  0.88184468  1
  Ti  Ti122  1  0.09170359  0.49383558  0.13053859  1
  Ti  Ti123  1  -0.00307236  -0.00624343  0.26947887  1
  Ti  Ti124  1  0.70554747  0.69953674  0.90143448  1
  Ti  Ti125  1  0.09465786  0.50088334  0.86472484  1
  Ti  Ti126  1  0.59510883  0.39609094  0.49191151  1
  Ti  Ti127  1  0.60587564  0.00642524  0.49189931  1
  Ti  Ti128  1  0.68949570  0.29681137  0.87643053  1
  Ti  Ti129  1  0.89292881  0.50658779  0.39319513  1
  Ti  Ti130  1  0.60229409  0.40134679  0.24017913  1
  Ti  Ti131  1  0.30250220  0.10253310  0.38340210  1
  Ti  Ti132  1  0.31023457  0.90556898  0.86910393  1
  Ti  Ti133  1  0.09884320  0.30282006  0.86385119  1
  Ti  Ti134  1  0.10265664  0.09806614  0.38395292  1
  Ti  Ti135  1  0.41412077  0.79450675  0.50280638  1
  Ti  Ti136  1  0.21026594  0.80350656  0.74050490  1
  Ti  Ti137  1  0.20469361  0.59477514  0.73860937  1
  Ti  Ti138  1  0.27941519  0.30382006  0.12861560  1
  Ti  Ti139  1  0.18857840  0.39969167  0.26031153  1
  Ti  Ti140  1  0.79368870  0.39830458  0.51445820  1
  Ti  Ti141  1  0.49798203  0.30118684  0.12853058  1
  Ti  Ti142  1  0.90842808  0.70152052  0.11421692  1
  Ti  Ti143  1  0.89018566  0.09646420  0.39175887  1
  Ti  Ti144  1  0.71944970  0.90557013  0.39385733  1
  Ti  Ti145  1  0.80395185  0.20291199  0.75949531  1
  Ti  Ti146  1  0.31606943  0.69223371  0.62720073  1
  Ti  Ti147  1  0.68917147  0.50861401  0.62609660  1
  Ti  Ti148  1  0.89491138  0.69426016  0.39166518  1
  Ti  Ti149  1  0.40851569  0.00527811  0.49645680  1
  Ti  Ti150  1  0.19771018  0.39304446  0.74647233  1
  Ti  Ti151  1  0.70690208  0.10698607  0.37488851  1
  Ti  Ti152  1  0.80602053  0.19800863  -0.01783639  1
  Ti  Ti153  1  0.59590536  0.20434181  0.00736984  1
  Ti  Ti154  1  0.91395611  0.49548719  0.11484516  1
  Ti  Ti155  1  0.31691989  0.89476805  0.37463796  1
  Ti  Ti156  1  0.89651555  0.50916807  0.87318053  1
  Ti  Ti157  1  0.40423472  -0.00562911  0.24566667  1
  Ti  Ti158  1  0.52421922  0.68056932  0.88831970  1
  Ti  Ti159  1  0.28587619  0.28791744  0.62243893  1
  Mo  Mo160  1  0.70794090  0.69458697  0.61295553  1
  Mo  Mo161  1  0.79731266  0.60110906  0.51444849  1
  Mo  Mo162  1  0.38670673  0.60142129  0.23061441  1
  Mo  Mo163  1  0.09361236  0.30084288  0.36033335  1
  Mo  Mo164  1  0.20579581  0.19854757  0.48264742  1
  Mo  Mo165  1  0.71031332  0.90511030  0.10760716  1
  Mo  Mo166  1  0.30219346  0.09672940  0.89358347  1
  Mo  Mo167  1  0.29707268  0.69951777  0.14004256  1
  Mo  Mo168  1  0.80286595  0.00513747  0.49547172  1
  Mo  Mo169  1  0.40202759  0.80890418  0.24680759  1
  Mo  Mo170  1  0.39783595  0.59874322  0.50247960  1
  Mo  Mo171  1  0.49671432  0.50004859  0.88795538  1
  Mo  Mo172  1  0.89336115  0.09975035  0.86115390  1
  Mo  Mo173  1  0.59982479  0.79985602  0.00060416  1
  Mo  Mo174  1  -0.00210038  0.80302178  0.75632079  1
  Mo  Mo175  1  0.18678590  0.59419738  -0.00240714  1
  Mo  Mo176  1  0.89780026  0.10437061  0.11552551  1
  Mo  Mo177  1  0.81323683  0.80153207  0.01263931  1
  Mo  Mo178  1  0.61428336  0.80609852  0.23542717  1
  Mo  Mo179  1  0.38773964  0.39328159  0.23646070  1
  Mo  Mo180  1  -0.00614717  0.40853464  0.24233234  1
  Mo  Mo181  1  0.70069115  0.50002107  0.10352513  1
  Mo  Mo182  1  -0.00712278  0.59651692  0.48828178  1
  Mo  Mo183  1  0.48912842  0.09332884  0.61251146  1
  Mo  Mo184  1  0.80847467  0.80010809  0.50811800  1
  Mo  Mo185  1  0.60333146  0.80449867  0.49916971  1
  Mo  Mo186  1  0.60683067  0.59473600  0.75508567  1
  Mo  Mo187  1  0.90034996  0.90029795  0.38640980  1
  Mo  Mo188  1  0.60119052  0.59999101  0.01562892  1
  Mo  Mo189  1  0.19538251  0.20401250  0.76007926  1
  Mo  Mo190  1  0.09845087  0.69512594  0.36283150  1
  Mo  Mo191  1  0.10450804  0.10477750  0.87046015  1
  Mo  Mo192  1  0.89045712  0.30100223  0.86493054  1
  Mo  Mo193  1  0.60148433  -0.00321319  0.74972274  1
  Mo  Mo194  1  0.00030367  0.40364329  -0.01279314  1
  Mo  Mo195  1  0.29239918  0.49094608  0.36872367  1
  Mo  Mo196  1  0.79124995  0.20082404  0.25445744  1
  Mo  Mo197  1  0.60462731  0.00141374  0.01992005  1
  Mo  Mo198  1  -0.01393771  0.59990588  0.76359244  1
  Mo  Mo199  1  0.89481086  0.30068898  0.64159521  1
