# generated using pymatgen
data_HfZrTaTiMo
_symmetry_space_group_name_H-M   'P 1'
_cell_length_a   15.82336845
_cell_length_b   15.84197002
_cell_length_c   15.38983300
_cell_angle_alpha   90.02430803
_cell_angle_beta   90.04353052
_cell_angle_gamma   89.99770974
_symmetry_Int_Tables_number   1
_chemical_formula_structural   HfZrTaTiMo
_chemical_formula_sum   'Hf40 Zr40 Ta40 Ti40 Mo40'
_cell_volume   3857.81920099
_cell_formula_units_Z   40
loop_
 _symmetry_equiv_pos_site_id
 _symmetry_equiv_pos_as_xyz
  1  'x, y, z'
loop_
 _atom_site_type_symbol
 _atom_site_label
 _atom_site_symmetry_multiplicity
 _atom_site_fract_x
 _atom_site_fract_y
 _atom_site_fract_z
 _atom_site_occupancy
  Hf  Hf0  1  0.29144534  0.30066167  0.12115163  1
  Hf  Hf1  1  0.91361525  0.10286227  0.14719555  1
  Hf  Hf2  1  0.30506312  0.69203250  0.36523733  1
  Hf  Hf3  1  0.79117135  0.19196852  0.72477193  1
  Hf  Hf4  1  0.30674497  0.89790363  0.88417081  1
  Hf  Hf5  1  0.88364065  0.29445992  0.86207905  1
  Hf  Hf6  1  0.70540844  0.90530630  0.88066925  1
  Hf  Hf7  1  0.70877392  0.49881861  0.87658165  1
  Hf  Hf8  1  0.69057676  0.69256102  0.87290117  1
  Hf  Hf9  1  0.60159120  0.39707906  0.75250544  1
  Hf  Hf10  1  0.10910897  0.09527350  0.63422773  1
  Hf  Hf11  1  0.41067351  0.00408854  0.74549986  1
  Hf  Hf12  1  0.60695864  0.00098625  0.02007271  1
  Hf  Hf13  1  0.59208929  0.19173647  0.49826167  1
  Hf  Hf14  1  0.09809933  0.49188096  0.10966182  1
  Hf  Hf15  1  0.50208834  0.89989152  0.36690575  1
  Hf  Hf16  1  0.50687724  0.90744333  0.60850322  1
  Hf  Hf17  1  0.20212562  0.79637911  0.75715468  1
  Hf  Hf18  1  0.19992125  0.19875228  0.49543879  1
  Hf  Hf19  1  0.09574116  0.91316306  0.13594062  1
  Hf  Hf20  1  -0.00310150  0.40328082  0.74077528  1
  Hf  Hf21  1  0.81063826  0.21191755  0.02017413  1
  Hf  Hf22  1  0.29286460  0.91220649  0.61920500  1
  Hf  Hf23  1  0.58609943  0.58743452  0.48639259  1
  Hf  Hf24  1  0.79840586  0.79508150  0.00798016  1
  Hf  Hf25  1  0.58610601  0.39093565  0.25796812  1
  Hf  Hf26  1  0.70630322  0.90057715  0.38224051  1
  Hf  Hf27  1  0.50331641  0.89468964  0.89105653  1
  Hf  Hf28  1  -0.00516015  0.79539609  0.49461186  1
  Hf  Hf29  1  0.50393064  0.70765435  0.14562361  1
  Hf  Hf30  1  0.78820174  0.40187451  0.25004411  1
  Hf  Hf31  1  0.88694669  0.69031930  0.86356008  1
  Hf  Hf32  1  0.60235509  -0.00072047  0.23931925  1
  Hf  Hf33  1  0.69877238  0.49738485  0.61421414  1
  Hf  Hf34  1  0.59702289  0.20453320  0.74400103  1
  Hf  Hf35  1  0.10041302  0.90053091  0.62715335  1
  Hf  Hf36  1  0.19157419  0.20431975  -0.01578128  1
  Hf  Hf37  1  0.17844198  0.00166675  -0.01430241  1
  Hf  Hf38  1  0.80413093  0.00196369  0.02226842  1
  Hf  Hf39  1  0.89706392  0.49561669  0.87960387  1
  Zr  Zr40  1  0.70618557  0.69624370  0.61887706  1
  Zr  Zr41  1  0.70292169  0.10127041  0.36995736  1
  Zr  Zr42  1  0.79913621  0.80981825  0.74737196  1
  Zr  Zr43  1  0.61707218  0.00783833  0.73272810  1
  Zr  Zr44  1  0.00105343  0.60221719  -0.00201168  1
  Zr  Zr45  1  0.90274066  0.69743304  0.13346168  1
  Zr  Zr46  1  0.00889925  0.80655943  -0.01010543  1
  Zr  Zr47  1  0.29097712  0.10481648  0.13486490  1
  Zr  Zr48  1  0.19313350  0.79517926  0.49885141  1
  Zr  Zr49  1  0.50585819  0.51196911  0.88572170  1
  Zr  Zr50  1  0.00170960  -0.00013802  0.49544005  1
  Zr  Zr51  1  0.71099651  0.10438712  0.87763110  1
  Zr  Zr52  1  0.90028864  0.09435193  0.87030577  1
  Zr  Zr53  1  -0.00038776  0.19958200  0.50103327  1
  Zr  Zr54  1  0.20620808  0.79258473  0.00309786  1
  Zr  Zr55  1  0.30077680  0.10743976  0.86898438  1
  Zr  Zr56  1  0.20203103  0.79650282  0.24371043  1
  Zr  Zr57  1  0.61259959  0.21606808  -0.00579696  1
  Zr  Zr58  1  0.00653293  0.38264572  0.24422854  1
  Zr  Zr59  1  0.20043182  0.60826521  -0.00336801  1
  Zr  Zr60  1  0.39692586  0.78644433  0.50332509  1
  Zr  Zr61  1  0.40199277  0.78736617  0.74767234  1
  Zr  Zr62  1  0.29824890  0.50686804  0.37802676  1
  Zr  Zr63  1  0.39839660  0.20989071  0.49522180  1
  Zr  Zr64  1  0.10453927  0.49581465  0.37950585  1
  Zr  Zr65  1  -0.00531222  0.37339466  0.00247640  1
  Zr  Zr66  1  0.60004275  0.79088780  0.49436912  1
  Zr  Zr67  1  0.20456671  0.59979268  0.74846286  1
  Zr  Zr68  1  0.00151734  0.79995409  0.26474545  1
  Zr  Zr69  1  0.29761332  0.31739552  0.37397024  1
  Zr  Zr70  1  0.30749537  0.50080968  0.88364609  1
  Zr  Zr71  1  0.40688772  0.02264496  0.49799287  1
  Zr  Zr72  1  0.90152856  0.49916196  0.37468784  1
  Zr  Zr73  1  0.70631313  0.69189432  0.37203530  1
  Zr  Zr74  1  0.20233409  0.40269650  0.75392329  1
  Zr  Zr75  1  0.09829243  0.10739279  0.14442209  1
  Zr  Zr76  1  0.50214375  0.09934145  0.88484382  1
  Zr  Zr77  1  0.29894685  0.91007422  0.37654502  1
  Zr  Zr78  1  0.59605477  0.79981874  0.74380819  1
  Zr  Zr79  1  0.50326728  0.11930588  0.12749487  1
  Ta  Ta80  1  0.79799118  0.39962982  0.73327882  1
  Ta  Ta81  1  0.89479942  0.49258959  0.12448488  1
  Ta  Ta82  1  0.09400046  0.28976491  0.85598612  1
  Ta  Ta83  1  0.89632625  0.29322056  0.37364066  1
  Ta  Ta84  1  0.19811484  0.40058262  0.51960689  1
  Ta  Ta85  1  0.29772309  0.10727989  0.35122317  1
  Ta  Ta86  1  -0.00124850  0.79785648  0.75257548  1
  Ta  Ta87  1  0.39565436  0.00111020  0.01655573  1
  Ta  Ta88  1  0.49332390  0.30927207  0.88257856  1
  Ta  Ta89  1  0.39710648  0.40521375  0.23063200  1
  Ta  Ta90  1  0.89905489  0.69277169  0.62804918  1
  Ta  Ta91  1  0.89819060  0.09862335  0.36165337  1
  Ta  Ta92  1  0.80435561  0.80114834  0.25494902  1
  Ta  Ta93  1  0.40319631  0.21332637  0.75009861  1
  Ta  Ta94  1  0.40165613  0.40175732  0.00969730  1
  Ta  Ta95  1  0.00017754  0.39776497  0.51053227  1
  Ta  Ta96  1  0.29677917  0.10779780  0.63894872  1
  Ta  Ta97  1  0.49540006  0.89322378  0.12798990  1
  Ta  Ta98  1  0.19870200  0.40532028  0.23692038  1
  Ta  Ta99  1  0.59283673  0.59808478  0.74276463  1
  Ta  Ta100  1  0.41329133  0.22182475  0.25347802  1
  Ta  Ta101  1  0.80442155  0.19600050  0.50525715  1
  Ta  Ta102  1  0.90115459  0.69337752  0.37655327  1
  Ta  Ta103  1  0.00328515  0.59857953  0.51081816  1
  Ta  Ta104  1  0.40208704  0.62219195  0.00795388  1
  Ta  Ta105  1  0.80760354  0.00497765  0.50823528  1
  Ta  Ta106  1  0.39953587  0.00319146  0.23914402  1
  Ta  Ta107  1  0.69776618  0.69590607  0.14343483  1
  Ta  Ta108  1  0.40449204  0.40623046  0.74296120  1
  Ta  Ta109  1  0.19678433  0.59778978  0.22848304  1
  Ta  Ta110  1  0.69719703  0.30196828  0.60565810  1
  Ta  Ta111  1  0.10261030  0.68275788  0.37328190  1
  Ta  Ta112  1  0.50040621  0.30930339  0.61685464  1
  Ta  Ta113  1  0.30041572  0.30169555  0.63207630  1
  Ta  Ta114  1  -0.00453104  -0.00915511  0.75238976  1
  Ta  Ta115  1  0.10432914  0.09894719  0.36264024  1
  Ta  Ta116  1  0.50330957  0.50293459  0.12178547  1
  Ta  Ta117  1  0.20738537  0.60132034  0.52069936  1
  Ta  Ta118  1  0.90719362  0.90383416  0.12981130  1
  Ta  Ta119  1  0.60556135  0.58224889  0.25649533  1
  Ti  Ti120  1  0.48239517  0.49871952  0.36575265  1
  Ti  Ti121  1  0.79047799  0.39430419  0.01749470  1
  Ti  Ti122  1  0.10480827  0.29449479  0.63408833  1
  Ti  Ti123  1  0.89796755  0.30054172  0.62044076  1
  Ti  Ti124  1  0.40133225  0.41770531  0.51658786  1
  Ti  Ti125  1  0.90054287  0.90351864  0.87958428  1
  Ti  Ti126  1  0.60381989  0.60263563  0.01468112  1
  Ti  Ti127  1  0.68947022  0.29536631  0.14204518  1
  Ti  Ti128  1  0.39669181  0.20948047  -0.00339479  1
  Ti  Ti129  1  0.79761084  0.59038839  0.24841804  1
  Ti  Ti130  1  0.70654307  0.90180863  0.60520634  1
  Ti  Ti131  1  0.80560059  -0.00943223  0.24743851  1
  Ti  Ti132  1  0.70707491  0.11405005  0.14750158  1
  Ti  Ti133  1  0.80244986  0.39686914  0.49634942  1
  Ti  Ti134  1  0.49559823  0.68414761  0.61730503  1
  Ti  Ti135  1  0.09836464  0.50186040  0.62360300  1
  Ti  Ti136  1  0.49510200  0.69620126  0.35671277  1
  Ti  Ti137  1  0.09360344  0.69186962  0.86178817  1
  Ti  Ti138  1  -0.00383092  0.19339922  0.73966895  1
  Ti  Ti139  1  0.18386889  0.22460783  0.26057286  1
  Ti  Ti140  1  0.10507484  0.90786169  0.37361253  1
  Ti  Ti141  1  0.19474526  -0.00043508  0.76813984  1
  Ti  Ti142  1  0.19422684  0.39390649  -0.01814003  1
  Ti  Ti143  1  0.00458809  0.59489993  0.24251278  1
  Ti  Ti144  1  0.80660435  0.59410609  0.49865145  1
  Ti  Ti145  1  0.29882093  0.50220118  0.11067589  1
  Ti  Ti146  1  0.69649560  0.88217626  0.13701164  1
  Ti  Ti147  1  0.09484268  0.69878359  0.63187839  1
  Ti  Ti148  1  0.59624011  0.78878969  0.00539703  1
  Ti  Ti149  1  0.00513953  0.18599456  -0.00640626  1
  Ti  Ti150  1  0.60465434  0.40217261  0.00795310  1
  Ti  Ti151  1  0.50077061  0.10545897  0.35651527  1
  Ti  Ti152  1  0.79235990  0.59397365  0.01922239  1
  Ti  Ti153  1  0.30307908  0.89767747  0.12711934  1
  Ti  Ti154  1  0.59351398  0.39969947  0.48441165  1
  Ti  Ti155  1  -0.00561255  0.59186299  0.74306373  1
  Ti  Ti156  1  0.40030332  0.59837789  0.74163874  1
  Ti  Ti157  1  0.69990193  0.29592945  0.37989721  1
  Ti  Ti158  1  0.89805345  0.89546404  0.62102112  1
  Ti  Ti159  1  0.39472509  0.59482796  0.23130318  1
  Mo  Mo160  1  -0.00357906  0.00151772  -0.01140932  1
  Mo  Mo161  1  0.60615804  0.79619259  0.25757214  1
  Mo  Mo162  1  0.30048713  0.69894532  0.62607971  1
  Mo  Mo163  1  0.50219205  0.49883660  0.62878386  1
  Mo  Mo164  1  0.40460751  0.80138479  0.00850479  1
  Mo  Mo165  1  0.09214637  0.49425582  0.87621042  1
  Mo  Mo166  1  0.09999708  0.30658618  0.39282167  1
  Mo  Mo167  1  0.30742544  0.70155033  0.13811363  1
  Mo  Mo168  1  -0.00306363  -0.00580413  0.27198733  1
  Mo  Mo169  1  0.40006712  0.59731025  0.50647323  1
  Mo  Mo170  1  0.79976143  0.20729516  0.24979715  1
  Mo  Mo171  1  0.09973889  0.69810338  0.13837610  1
  Mo  Mo172  1  0.50212643  0.69603128  0.88253455  1
  Mo  Mo173  1  0.49103257  0.31201561  0.39160321  1
  Mo  Mo174  1  0.20469049  0.01097562  0.48536182  1
  Mo  Mo175  1  0.89263765  0.89991406  0.38017883  1
  Mo  Mo176  1  0.60403550  0.00365982  0.50208383  1
  Mo  Mo177  1  0.49764079  0.30730398  0.11105611  1
  Mo  Mo178  1  0.79912510  0.59074380  0.73675073  1
  Mo  Mo179  1  0.09522600  0.89726842  0.86270897  1
  Mo  Mo180  1  0.31385657  0.69757125  0.86979137  1
  Mo  Mo181  1  0.10202114  0.29361465  0.11360533  1
  Mo  Mo182  1  0.49443871  0.10962923  0.63341917  1
  Mo  Mo183  1  0.20425543  0.00003409  0.25724995  1
  Mo  Mo184  1  0.20152653  0.20239583  0.75311033  1
  Mo  Mo185  1  0.90263060  0.09354449  0.63123243  1
  Mo  Mo186  1  0.00208188  0.20442828  0.27165378  1
  Mo  Mo187  1  0.40135947  0.80412692  0.25036216  1
  Mo  Mo188  1  0.70137980  0.31100128  0.87443771  1
  Mo  Mo189  1  0.09245464  0.10151961  0.85498512  1
  Mo  Mo190  1  0.69786547  0.09727585  0.60496076  1
  Mo  Mo191  1  0.30409946  0.50156794  0.62225918  1
  Mo  Mo192  1  0.69583052  0.50013749  0.11982172  1
  Mo  Mo193  1  0.80848615  -0.00457753  0.72519626  1
  Mo  Mo194  1  0.89866000  0.49903863  0.61422065  1
  Mo  Mo195  1  0.59716017  0.20918296  0.26517706  1
  Mo  Mo196  1  0.70018231  0.49242360  0.38748874  1
  Mo  Mo197  1  0.89673799  0.29522821  0.14173450  1
  Mo  Mo198  1  0.30782129  0.30493429  0.87279622  1
  Mo  Mo199  1  0.81124045  0.79841234  0.49621031  1
