# generated using pymatgen
data_HfZrTaTiMo
_symmetry_space_group_name_H-M   'P 1'
_cell_length_a   15.83507984
_cell_length_b   15.84131349
_cell_length_c   15.44031841
_cell_angle_alpha   90.00075897
_cell_angle_beta   89.99822186
_cell_angle_gamma   90.05774966
_symmetry_Int_Tables_number   1
_chemical_formula_structural   HfZrTaTiMo
_chemical_formula_sum   'Hf40 Zr40 Ta40 Ti40 Mo40'
_cell_volume   3873.17818397
_cell_formula_units_Z   40
loop_
 _symmetry_equiv_pos_site_id
 _symmetry_equiv_pos_as_xyz
  1  'x, y, z'
loop_
 _atom_site_type_symbol
 _atom_site_label
 _atom_site_symmetry_multiplicity
 _atom_site_fract_x
 _atom_site_fract_y
 _atom_site_fract_z
 _atom_site_occupancy
  Hf  Hf0  1  0.81226999  0.19225388  -0.00646834  1
  Hf  Hf1  1  0.49258654  0.29560989  0.63675462  1
  Hf  Hf2  1  0.10032405  0.10162455  0.37725701  1
  Hf  Hf3  1  0.90416088  0.10754397  0.62920647  1
  Hf  Hf4  1  0.49441475  0.50002975  0.35919997  1
  Hf  Hf5  1  0.09517960  0.31040739  0.11424576  1
  Hf  Hf6  1  0.60324226  0.00171162  0.25500857  1
  Hf  Hf7  1  0.79448547  0.59349985  0.00273278  1
  Hf  Hf8  1  0.18687040  0.81431585  0.74758864  1
  Hf  Hf9  1  0.80507058  0.00721768  0.49601705  1
  Hf  Hf10  1  0.50942201  0.09166741  0.61171618  1
  Hf  Hf11  1  0.29804928  0.30397545  0.10792706  1
  Hf  Hf12  1  -0.00342785  0.79374559  0.00938846  1
  Hf  Hf13  1  0.69123914  0.48986719  0.35931627  1
  Hf  Hf14  1  0.39655206  0.00198923  0.48542904  1
  Hf  Hf15  1  0.88902565  0.49805618  0.61888670  1
  Hf  Hf16  1  0.59221081  0.79539872  0.24527422  1
  Hf  Hf17  1  0.08434158  0.69631741  0.86874619  1
  Hf  Hf18  1  0.41739567  0.41277906  -0.00918502  1
  Hf  Hf19  1  0.50183629  0.88760165  0.88965550  1
  Hf  Hf20  1  0.69953914  0.29784525  0.87823594  1
  Hf  Hf21  1  0.20500079  0.01797383  0.75956198  1
  Hf  Hf22  1  0.01397432  -0.00488688  0.74294618  1
  Hf  Hf23  1  0.70363971  0.09219721  0.12006071  1
  Hf  Hf24  1  0.38459940  0.59606143  0.49650296  1
  Hf  Hf25  1  0.58919614  0.78824200  0.74456033  1
  Hf  Hf26  1  0.10506908  0.90340209  0.12507143  1
  Hf  Hf27  1  0.40821645  0.00525817  0.75780331  1
  Hf  Hf28  1  0.20625838  0.40711870  0.49749125  1
  Hf  Hf29  1  0.79826554  0.00024212  0.74766993  1
  Hf  Hf30  1  0.58605042  0.57804154  -0.01598378  1
  Hf  Hf31  1  0.39089012  0.60894878  0.25030495  1
  Hf  Hf32  1  0.42061973  0.60701687  0.75638285  1
  Hf  Hf33  1  0.69663482  0.69849806  0.12317002  1
  Hf  Hf34  1  0.60340077  -0.00644102  0.75736699  1
  Hf  Hf35  1  0.90970428  0.70030564  0.37737556  1
  Hf  Hf36  1  0.80277276  0.41223978  0.76106167  1
  Hf  Hf37  1  0.79237710  0.58989344  0.49462541  1
  Hf  Hf38  1  0.91980255  0.31261940  0.88173718  1
  Hf  Hf39  1  0.02890294  0.21269099  0.75542180  1
  Zr  Zr40  1  0.70412071  0.88975953  0.89826865  1
  Zr  Zr41  1  0.30016999  0.90707535  0.12321865  1
  Zr  Zr42  1  0.29758920  0.50407070  0.12025490  1
  Zr  Zr43  1  0.19073384  0.60308210  0.00348893  1
  Zr  Zr44  1  0.90480342  0.89337180  0.87077108  1
  Zr  Zr45  1  0.28793856  0.50153432  0.86370427  1
  Zr  Zr46  1  0.69915464  0.29659776  0.11846725  1
  Zr  Zr47  1  0.51594477  0.89321557  0.39594574  1
  Zr  Zr48  1  -0.01963571  0.60431460  0.73859030  1
  Zr  Zr49  1  0.58735173  0.59430855  0.50390763  1
  Zr  Zr50  1  0.28602412  0.29294275  0.63957620  1
  Zr  Zr51  1  0.59833610  0.40058608  0.50895038  1
  Zr  Zr52  1  0.10186390  0.30981328  0.36885887  1
  Zr  Zr53  1  0.20079789  0.79752704  -0.00155527  1
  Zr  Zr54  1  0.68875395  0.90061625  0.60297508  1
  Zr  Zr55  1  0.20921723  -0.00372673  0.49286026  1
  Zr  Zr56  1  0.89560821  0.49570119  0.13487776  1
  Zr  Zr57  1  0.71017160  0.89432227  0.11752774  1
  Zr  Zr58  1  0.71228643  0.29721392  0.63964572  1
  Zr  Zr59  1  0.30193487  0.70078318  0.63827176  1
  Zr  Zr60  1  0.11927484  0.11390199  0.61613474  1
  Zr  Zr61  1  0.00134616  0.40173563  0.50006565  1
  Zr  Zr62  1  0.90393949  0.10114064  0.37363589  1
  Zr  Zr63  1  0.61545810  0.20787762  0.49278846  1
  Zr  Zr64  1  0.40359751  0.78510001  0.01906770  1
  Zr  Zr65  1  -0.00087120  0.20070380  0.24069746  1
  Zr  Zr66  1  0.39623649  0.80237080  0.25698066  1
  Zr  Zr67  1  0.18196180  0.79782249  0.51841015  1
  Zr  Zr68  1  0.39721938  0.20932585  0.49261496  1
  Zr  Zr69  1  0.20538075  -0.00410497  0.26521315  1
  Zr  Zr70  1  0.30610989  0.70926224  0.85946067  1
  Zr  Zr71  1  0.80049234  0.79001042  0.73935326  1
  Zr  Zr72  1  0.67811278  0.49266832  0.13929865  1
  Zr  Zr73  1  0.60119737  0.18806243  0.75753401  1
  Zr  Zr74  1  0.68878366  0.70598207  0.37731329  1
  Zr  Zr75  1  0.90387488  0.49900609  0.37141948  1
  Zr  Zr76  1  0.01034670  0.78912209  0.24386606  1
  Zr  Zr77  1  -0.00056287  0.00459667  0.00332924  1
  Zr  Zr78  1  0.40837460  0.00533513  0.25347418  1
  Zr  Zr79  1  0.20869892  0.20718608  0.24391123  1
  Ta  Ta80  1  0.79614993  0.60506709  0.25421558  1
  Ta  Ta81  1  0.39695840  0.40461509  0.50012607  1
  Ta  Ta82  1  0.71125818  0.11014633  0.36555669  1
  Ta  Ta83  1  0.50209709  0.30384348  0.36260942  1
  Ta  Ta84  1  0.30098409  0.10384234  0.11195623  1
  Ta  Ta85  1  0.69999973  0.68853861  0.62109783  1
  Ta  Ta86  1  0.69600191  0.69733074  0.88212614  1
  Ta  Ta87  1  0.38729056  0.79769433  0.49089341  1
  Ta  Ta88  1  0.71031412  0.89867274  0.37883767  1
  Ta  Ta89  1  0.90258459  0.89804926  0.61508857  1
  Ta  Ta90  1  0.89877607  0.30012266  0.11474640  1
  Ta  Ta91  1  0.01014760  -0.01077020  0.50366496  1
  Ta  Ta92  1  0.09911139  0.52121944  0.36467505  1
  Ta  Ta93  1  0.59700000  0.40733723  0.75904715  1
  Ta  Ta94  1  0.39836360  0.39792151  0.23850419  1
  Ta  Ta95  1  0.88957210  0.69763221  0.88520375  1
  Ta  Ta96  1  0.89007389  0.70230402  0.13109393  1
  Ta  Ta97  1  0.80723761  -0.00700561  0.25740615  1
  Ta  Ta98  1  0.79316560  0.38406977  0.49159289  1
  Ta  Ta99  1  0.29329866  0.29970495  0.88530680  1
  Ta  Ta100  1  0.40640082  0.20628754  0.00199557  1
  Ta  Ta101  1  0.79889592  0.38154057  0.25630609  1
  Ta  Ta102  1  0.50393488  0.09759372  0.89418763  1
  Ta  Ta103  1  0.39750609  0.39634733  0.76118709  1
  Ta  Ta104  1  0.18308533  0.61784992  0.23323052  1
  Ta  Ta105  1  0.30056356  0.10467916  0.89583159  1
  Ta  Ta106  1  0.40270486  0.00074662  0.00314190  1
  Ta  Ta107  1  0.27331286  0.70235392  0.37288927  1
  Ta  Ta108  1  0.49353788  0.89678152  0.61362995  1
  Ta  Ta109  1  0.30529525  0.90530972  0.87584038  1
  Ta  Ta110  1  0.90965981  0.09899101  0.86780247  1
  Ta  Ta111  1  0.00054556  -0.00674276  0.24864769  1
  Ta  Ta112  1  0.79510742  0.40628687  -0.00844420  1
  Ta  Ta113  1  0.89917174  0.09372676  0.12893965  1
  Ta  Ta114  1  0.50496216  0.10528704  0.11525607  1
  Ta  Ta115  1  0.00111588  0.20560808  0.50463629  1
  Ta  Ta116  1  0.29811028  0.49431939  0.64254207  1
  Ta  Ta117  1  0.30809062  0.90428935  0.63537371  1
  Ta  Ta118  1  0.19032946  0.59690989  0.51382524  1
  Ta  Ta119  1  0.10071693  0.49060455  0.63731182  1
  Ti  Ti120  1  0.80723175  0.19647096  0.76389237  1
  Ti  Ti121  1  0.00014211  0.59130136  0.01302109  1
  Ti  Ti122  1  0.50443993  0.67706581  0.12421819  1
  Ti  Ti123  1  0.30829294  0.31130555  0.36366160  1
  Ti  Ti124  1  0.51062333  0.31258468  0.12256638  1
  Ti  Ti125  1  0.80440139  0.79466003  0.50278683  1
  Ti  Ti126  1  0.50021317  0.29759972  0.87355973  1
  Ti  Ti127  1  0.50866797  0.11027573  0.37486930  1
  Ti  Ti128  1  0.18295389  0.41194812  -0.00593904  1
  Ti  Ti129  1  0.19685311  0.41203135  0.24379875  1
  Ti  Ti130  1  0.88924028  0.28628275  0.37454878  1
  Ti  Ti131  1  0.10101683  0.88064790  0.37317486  1
  Ti  Ti132  1  0.18731925  0.60043129  0.74358124  1
  Ti  Ti133  1  0.10516251  0.91014856  0.88643417  1
  Ti  Ti134  1  0.60973107  0.59444994  0.75200572  1
  Ti  Ti135  1  0.51371803  0.90646901  0.11113057  1
  Ti  Ti136  1  0.89041184  0.89697844  0.12701799  1
  Ti  Ti137  1  -0.00212936  0.40116494  0.25109925  1
  Ti  Ti138  1  0.39843370  0.60119646  -0.00849716  1
  Ti  Ti139  1  0.18065410  0.38129700  0.75795366  1
  Ti  Ti140  1  0.70539754  0.10311687  0.61746954  1
  Ti  Ti141  1  -0.00215399  0.79549975  0.72462075  1
  Ti  Ti142  1  0.20554058  0.21090231  0.48686544  1
  Ti  Ti143  1  0.11032684  0.09894882  0.11844579  1
  Ti  Ti144  1  0.59817731  0.20198851  -0.00231760  1
  Ti  Ti145  1  0.07995958  0.48758977  0.86211231  1
  Ti  Ti146  1  0.49550620  0.70679436  0.61049747  1
  Ti  Ti147  1  0.70417070  0.08711923  0.89290553  1
  Ti  Ti148  1  0.90167469  0.50952321  0.87916774  1
  Ti  Ti149  1  0.60403503  0.20491194  0.24894599  1
  Ti  Ti150  1  0.00904473  0.61421537  0.51752610  1
  Ti  Ti151  1  0.90756829  0.30077923  0.63235965  1
  Ti  Ti152  1  0.31035200  0.10539428  0.62631189  1
  Ti  Ti153  1  0.30823013  0.11438702  0.36495422  1
  Ti  Ti154  1  0.40958691  0.20589253  0.23505621  1
  Ti  Ti155  1  0.49379956  0.49553630  0.63392485  1
  Ti  Ti156  1  0.39361636  0.19532484  0.76848040  1
  Ti  Ti157  1  0.90622384  0.89396492  0.37952533  1
  Ti  Ti158  1  0.01014934  0.19847337  -0.00332823  1
  Ti  Ti159  1  0.28897465  0.50378321  0.36365896  1
  Mo  Mo160  1  0.09178580  0.69759976  0.11088352  1
  Mo  Mo161  1  0.59717005  0.79349772  0.51162665  1
  Mo  Mo162  1  0.20207137  0.00362724  -0.01047971  1
  Mo  Mo163  1  0.29471081  0.89222522  0.37515803  1
  Mo  Mo164  1  0.19767295  0.20213003  -0.00073303  1
  Mo  Mo165  1  0.80982480  0.00165995  -0.00473077  1
  Mo  Mo166  1  0.00089414  0.40290681  0.74104474  1
  Mo  Mo167  1  0.79131279  0.60440838  0.75377806  1
  Mo  Mo168  1  0.60718597  0.01002883  0.48190314  1
  Mo  Mo169  1  0.59707733  0.78454003  0.01088811  1
  Mo  Mo170  1  -0.00328600  0.59864982  0.23818119  1
  Mo  Mo171  1  0.59254785  0.38888782  0.25101785  1
  Mo  Mo172  1  0.80292140  0.19574146  0.23426752  1
  Mo  Mo173  1  0.20923138  0.20295426  0.77327243  1
  Mo  Mo174  1  0.81118384  0.20705905  0.50762870  1
  Mo  Mo175  1  0.09691222  0.69341971  0.38376475  1
  Mo  Mo176  1  0.40503131  0.80880433  0.74336756  1
  Mo  Mo177  1  0.10079934  0.90650551  0.62779213  1
  Mo  Mo178  1  0.10237128  0.30376487  0.61327367  1
  Mo  Mo179  1  0.48708091  0.69835306  0.38872779  1
  Mo  Mo180  1  0.20055529  0.79544215  0.24698002  1
  Mo  Mo181  1  0.50904514  0.69993126  0.88489593  1
  Mo  Mo182  1  0.69594184  0.50075164  0.63781393  1
  Mo  Mo183  1  -0.00368763  0.80245112  0.50761589  1
  Mo  Mo184  1  0.09338961  0.49875630  0.14114301  1
  Mo  Mo185  1  0.10487152  0.30786142  0.89635360  1
  Mo  Mo186  1  0.29595671  0.70184311  0.13472573  1
  Mo  Mo187  1  0.80425055  0.79117357  -0.00199172  1
  Mo  Mo188  1  0.70341459  0.29254413  0.36373803  1
  Mo  Mo189  1  0.59921374  0.00007465  0.00212130  1
  Mo  Mo190  1  0.89395948  0.70193551  0.60463976  1
  Mo  Mo191  1  0.10406588  0.10607230  0.88767114  1
  Mo  Mo192  1  0.70350479  0.50244970  0.86469962  1
  Mo  Mo193  1  0.49798403  0.49826857  0.85767003  1
  Mo  Mo194  1  0.59918904  0.39240911  -0.02017351  1
  Mo  Mo195  1  -0.00528991  0.41172575  0.00393880  1
  Mo  Mo196  1  0.59012792  0.60363276  0.25616799  1
  Mo  Mo197  1  0.09581491  0.69458175  0.63835108  1
  Mo  Mo198  1  0.80374406  0.80364721  0.26218048  1
  Mo  Mo199  1  0.49615770  0.49702784  0.13764175  1
