# generated using pymatgen
data_HfZrTaTiMo
_symmetry_space_group_name_H-M   'P 1'
_cell_length_a   15.84255827
_cell_length_b   15.83497269
_cell_length_c   15.42385433
_cell_angle_alpha   90.02775277
_cell_angle_beta   90.01915750
_cell_angle_gamma   89.87776223
_symmetry_Int_Tables_number   1
_chemical_formula_structural   HfZrTaTiMo
_chemical_formula_sum   'Hf40 Zr40 Ta40 Ti40 Mo40'
_cell_volume   3869.31853153
_cell_formula_units_Z   40
loop_
 _symmetry_equiv_pos_site_id
 _symmetry_equiv_pos_as_xyz
  1  'x, y, z'
loop_
 _atom_site_type_symbol
 _atom_site_label
 _atom_site_symmetry_multiplicity
 _atom_site_fract_x
 _atom_site_fract_y
 _atom_site_fract_z
 _atom_site_occupancy
  Hf  Hf0  1  0.09054206  0.48810675  0.62384982  1
  Hf  Hf1  1  0.08947869  0.69377596  0.36604610  1
  Hf  Hf2  1  0.90058002  0.90443173  0.11190430  1
  Hf  Hf3  1  0.70311879  0.49771742  0.35591909  1
  Hf  Hf4  1  0.80376045  0.21185454  0.50535205  1
  Hf  Hf5  1  -0.00606842  0.59428449  0.76995959  1
  Hf  Hf6  1  0.10645000  0.30949745  0.37491103  1
  Hf  Hf7  1  0.30343728  0.29444666  0.12085606  1
  Hf  Hf8  1  0.79398187  0.79997818  0.49524876  1
  Hf  Hf9  1  0.49029195  0.90721489  0.86805391  1
  Hf  Hf10  1  0.90638483  0.50421927  0.35624373  1
  Hf  Hf11  1  0.60058482  0.40066259  0.73719761  1
  Hf  Hf12  1  0.08987450  0.28988825  0.63336722  1
  Hf  Hf13  1  0.10713683  0.89978006  0.88217305  1
  Hf  Hf14  1  -0.00918656  0.79895326  0.49913244  1
  Hf  Hf15  1  0.50478140  0.90292622  0.12349939  1
  Hf  Hf16  1  0.51377213  0.29786139  0.36775141  1
  Hf  Hf17  1  0.39616904  0.79542287  0.24873236  1
  Hf  Hf18  1  0.58894350  0.59423257  0.73733192  1
  Hf  Hf19  1  0.69874514  0.71271959  0.63726704  1
  Hf  Hf20  1  0.90124167  0.31401273  0.64670762  1
  Hf  Hf21  1  0.70920253  0.30654539  0.86389688  1
  Hf  Hf22  1  0.18833293  0.00002523  0.50768202  1
  Hf  Hf23  1  0.61751851  0.40374814  0.01405159  1
  Hf  Hf24  1  0.30326958  0.88968024  0.37901828  1
  Hf  Hf25  1  0.58351025  0.02423773  0.76292764  1
  Hf  Hf26  1  0.89499640  0.89873022  0.63572111  1
  Hf  Hf27  1  0.00429671  0.78616010  -0.01307514  1
  Hf  Hf28  1  0.39444428  0.39835868  0.25693126  1
  Hf  Hf29  1  0.89311593  0.09440945  0.37712076  1
  Hf  Hf30  1  0.49882419  0.70639463  0.37949011  1
  Hf  Hf31  1  0.79486464  0.01020191  0.51611600  1
  Hf  Hf32  1  -0.00303695  0.00497792  0.23798165  1
  Hf  Hf33  1  0.30731469  0.08622899  0.37754148  1
  Hf  Hf34  1  0.20271882  0.19430759  0.25387162  1
  Hf  Hf35  1  0.60881030  0.59855981  0.50538529  1
  Hf  Hf36  1  0.69452300  0.90643317  0.65253078  1
  Hf  Hf37  1  0.19317384  -0.00323980  0.24794117  1
  Hf  Hf38  1  0.30249643  0.31014672  0.61034794  1
  Hf  Hf39  1  0.61436104  0.19729462  0.49948981  1
  Zr  Zr40  1  0.41190400  0.19539182  0.74041491  1
  Zr  Zr41  1  0.60858082  0.40114849  0.50457232  1
  Zr  Zr42  1  -0.00134792  0.20339783  0.25400303  1
  Zr  Zr43  1  0.70259270  0.11921237  0.87204973  1
  Zr  Zr44  1  0.10460984  0.50664853  0.38198144  1
  Zr  Zr45  1  0.59940368  0.60157881  0.24014776  1
  Zr  Zr46  1  0.79675510  0.79901037  -0.00561623  1
  Zr  Zr47  1  0.00405999  0.00596393  0.74552277  1
  Zr  Zr48  1  0.30846871  0.09212865  0.86748941  1
  Zr  Zr49  1  0.19794310  0.19527697  0.49566001  1
  Zr  Zr50  1  0.68712503  0.69740022  0.87303818  1
  Zr  Zr51  1  0.09522762  0.69233925  0.62801834  1
  Zr  Zr52  1  0.20064888  0.39417624  0.75858850  1
  Zr  Zr53  1  0.80064761  0.79986170  0.24511510  1
  Zr  Zr54  1  0.09495893  0.31446853  0.12910274  1
  Zr  Zr55  1  0.41432590  0.39267026  0.00471499  1
  Zr  Zr56  1  0.29586842  0.90192669  0.86887151  1
  Zr  Zr57  1  0.59685909  0.81731409  0.49162178  1
  Zr  Zr58  1  0.60076371  0.00792462  -0.00645674  1
  Zr  Zr59  1  0.39162998  0.80229681  -0.00204524  1
  Zr  Zr60  1  0.38802012  0.59263394  0.25158038  1
  Zr  Zr61  1  0.20685365  0.59406506  0.75754642  1
  Zr  Zr62  1  0.90026050  0.90365911  0.37335589  1
  Zr  Zr63  1  0.19441869  0.79339043  0.49833474  1
  Zr  Zr64  1  0.10318381  0.09788857  0.87837425  1
  Zr  Zr65  1  0.40209236  0.59786799  0.00421751  1
  Zr  Zr66  1  0.40634551  0.19422511  0.48957073  1
  Zr  Zr67  1  0.40353966  0.40837996  0.75557388  1
  Zr  Zr68  1  0.80393092  0.59525993  0.75919571  1
  Zr  Zr69  1  0.69859006  0.92318944  0.35862236  1
  Zr  Zr70  1  0.18892934  0.60577431  -0.00368527  1
  Zr  Zr71  1  0.39504604  0.59534401  0.48760018  1
  Zr  Zr72  1  0.49020249  0.71040061  0.62208271  1
  Zr  Zr73  1  0.30653563  0.88875756  0.62822472  1
  Zr  Zr74  1  0.30570544  0.28943423  0.88129317  1
  Zr  Zr75  1  0.80418381  0.40529649  0.49683453  1
  Zr  Zr76  1  0.41145554  0.18454606  0.24966194  1
  Zr  Zr77  1  0.50374202  0.70313272  0.11684317  1
  Zr  Zr78  1  -0.00591647  0.20081782  -0.00562064  1
  Zr  Zr79  1  0.79727237  0.58647604  0.00557581  1
  Ta  Ta80  1  0.19411330  0.79364439  0.74701043  1
  Ta  Ta81  1  0.19670695  0.59256289  0.23541135  1
  Ta  Ta82  1  0.51501239  0.28983516  0.87839671  1
  Ta  Ta83  1  0.50105503  0.90097613  0.64249329  1
  Ta  Ta84  1  0.30011948  0.69172856  0.61945461  1
  Ta  Ta85  1  0.80344305  0.60515730  0.50104864  1
  Ta  Ta86  1  0.90175137  0.91408098  0.88215204  1
  Ta  Ta87  1  -0.01419513  0.59690555  0.50647109  1
  Ta  Ta88  1  -0.00433627  0.39811455  -0.01485451  1
  Ta  Ta89  1  0.41270142  -0.01025320  0.50891575  1
  Ta  Ta90  1  0.70161519  0.30189947  0.14136209  1
  Ta  Ta91  1  0.69903324  0.90883151  0.12819666  1
  Ta  Ta92  1  0.09391717  0.69895400  0.13211943  1
  Ta  Ta93  1  0.20517584  0.19452353  0.00650334  1
  Ta  Ta94  1  0.28878951  0.49149591  0.11256258  1
  Ta  Ta95  1  0.19416854  0.79592491  0.24796233  1
  Ta  Ta96  1  0.81109847  0.19581274  0.23737455  1
  Ta  Ta97  1  0.70277638  0.11171156  0.64416231  1
  Ta  Ta98  1  0.49690262  0.69679527  0.87225412  1
  Ta  Ta99  1  0.69917006  0.10193764  0.13063431  1
  Ta  Ta100  1  0.70330029  0.69790698  0.36683113  1
  Ta  Ta101  1  0.29497084  0.89612412  0.12850208  1
  Ta  Ta102  1  0.51116418  0.50145922  0.88160351  1
  Ta  Ta103  1  -0.00320201  0.79474439  0.76689003  1
  Ta  Ta104  1  0.89638363  0.30019591  0.86244427  1
  Ta  Ta105  1  -0.00871211  0.39214944  0.49044462  1
  Ta  Ta106  1  0.39581057  0.01331292  0.01731919  1
  Ta  Ta107  1  0.89559862  0.69948192  0.63477761  1
  Ta  Ta108  1  0.20423768  -0.00085987  0.01500733  1
  Ta  Ta109  1  0.70219783  0.90744755  0.86457727  1
  Ta  Ta110  1  0.30486954  0.49765003  0.89179499  1
  Ta  Ta111  1  0.90628412  0.69495762  0.12530460  1
  Ta  Ta112  1  0.50156484  0.30200389  0.61223438  1
  Ta  Ta113  1  -0.00271191  0.59283106  -0.00486798  1
  Ta  Ta114  1  0.09621757  0.09791554  0.11274562  1
  Ta  Ta115  1  -0.00062424  0.19525156  0.48994851  1
  Ta  Ta116  1  0.80075899  0.21064975  0.01517689  1
  Ta  Ta117  1  0.91609697  0.48929085  0.12816740  1
  Ta  Ta118  1  0.70948305  0.29880235  0.35050043  1
  Ta  Ta119  1  0.60119708  0.80701770  0.25279325  1
  Ti  Ti120  1  0.91160081  0.11454497  0.63249486  1
  Ti  Ti121  1  0.09168228  0.89614818  0.62815665  1
  Ti  Ti122  1  0.69681205  0.10713257  0.35519943  1
  Ti  Ti123  1  0.80494433  0.01599601  -0.00112170  1
  Ti  Ti124  1  0.28945286  0.70117928  0.12244961  1
  Ti  Ti125  1  0.60157801  0.80618857  -0.00969184  1
  Ti  Ti126  1  0.28613858  0.48375337  0.39189116  1
  Ti  Ti127  1  0.80855275  0.79833292  0.77244785  1
  Ti  Ti128  1  0.50262045  0.49315915  0.13126032  1
  Ti  Ti129  1  0.60275539  0.00606655  0.50371642  1
  Ti  Ti130  1  0.70403932  0.49233828  0.87183453  1
  Ti  Ti131  1  0.20186302  0.40534207  0.24580904  1
  Ti  Ti132  1  0.19198379  0.39245213  -0.00832560  1
  Ti  Ti133  1  0.39589261  0.59480706  0.75424391  1
  Ti  Ti134  1  0.50525758  0.49593158  0.37260316  1
  Ti  Ti135  1  0.19454380  0.19137023  0.74420118  1
  Ti  Ti136  1  0.09865088  0.49101228  0.87748666  1
  Ti  Ti137  1  0.59955558  0.20387721  0.01308724  1
  Ti  Ti138  1  0.30454818  0.09535217  0.62404045  1
  Ti  Ti139  1  0.80105139  0.59960671  0.23117753  1
  Ti  Ti140  1  0.00158246  0.80333352  0.24568686  1
  Ti  Ti141  1  0.60474955  0.59383949  0.00982808  1
  Ti  Ti142  1  0.09096186  0.90664224  0.37834655  1
  Ti  Ti143  1  0.29231695  0.49930440  0.60546585  1
  Ti  Ti144  1  0.69821818  0.70774711  0.12373601  1
  Ti  Ti145  1  0.58573673  0.01757055  0.24318298  1
  Ti  Ti146  1  0.10048881  0.89277547  0.11379756  1
  Ti  Ti147  1  0.48098466  0.49283054  0.61049804  1
  Ti  Ti148  1  0.49584626  0.91320845  0.36748378  1
  Ti  Ti149  1  0.29252025  0.70192180  0.87813351  1
  Ti  Ti150  1  0.50444208  0.10016186  0.61570448  1
  Ti  Ti151  1  0.39846234  0.00093963  0.23604107  1
  Ti  Ti152  1  0.28481674  0.68808022  0.37889750  1
  Ti  Ti153  1  0.71952644  0.49662807  0.63046319  1
  Ti  Ti154  1  0.50934393  0.29422834  0.13691606  1
  Ti  Ti155  1  0.81653314  0.39161466  0.23889875  1
  Ti  Ti156  1  0.19888602  0.00044657  0.73240756  1
  Ti  Ti157  1  0.89843816  0.69327421  0.36023214  1
  Ti  Ti158  1  0.39549203  0.78903591  0.75760976  1
  Ti  Ti159  1  0.80907495  0.01560359  0.75967299  1
  Mo  Mo160  1  0.51303069  0.08484072  0.38576046  1
  Mo  Mo161  1  0.09501321  0.10118007  0.62316201  1
  Mo  Mo162  1  0.19535180  0.39662205  0.50915989  1
  Mo  Mo163  1  0.70809847  0.49759255  0.13951606  1
  Mo  Mo164  1  0.80704244  0.39119978  0.01690685  1
  Mo  Mo165  1  0.89546873  0.10313387  0.87883490  1
  Mo  Mo166  1  0.70227005  0.29976430  0.63957952  1
  Mo  Mo167  1  0.79738843  0.00737632  0.23229429  1
  Mo  Mo168  1  0.00038150  -0.00290685  0.00499923  1
  Mo  Mo169  1  0.90170512  0.30334748  0.12488519  1
  Mo  Mo170  1  0.60671895  0.19750495  0.24628865  1
  Mo  Mo171  1  0.39915973  0.00376166  0.72915244  1
  Mo  Mo172  1  0.09230873  0.09033547  0.38436355  1
  Mo  Mo173  1  0.00158533  0.20058900  0.76815527  1
  Mo  Mo174  1  0.40054724  0.80355750  0.49043152  1
  Mo  Mo175  1  0.10165810  0.49867098  0.11611385  1
  Mo  Mo176  1  0.30055048  0.30523418  0.37774938  1
  Mo  Mo177  1  -0.00093422  0.40328753  0.77389739  1
  Mo  Mo178  1  0.19830764  0.79904371  0.01503141  1
  Mo  Mo179  1  0.80534003  0.20159655  0.74130551  1
  Mo  Mo180  1  0.59465627  0.80538450  0.76624317  1
  Mo  Mo181  1  0.10432783  0.69939733  0.86613158  1
  Mo  Mo182  1  0.29563876  0.09642028  0.13018756  1
  Mo  Mo183  1  0.41005805  0.19720413  0.01057792  1
  Mo  Mo184  1  0.49397943  0.11371215  0.89275892  1
  Mo  Mo185  1  0.59706957  0.20997869  0.73654419  1
  Mo  Mo186  1  0.90364469  0.50545245  0.62003977  1
  Mo  Mo187  1  0.89920344  0.69983333  0.88156021  1
  Mo  Mo188  1  0.10092272  0.29676419  0.86775816  1
  Mo  Mo189  1  0.89704697  0.10124488  0.11453657  1
  Mo  Mo190  1  0.60042191  0.40060443  0.24021696  1
  Mo  Mo191  1  0.89937747  0.30063571  0.37057797  1
  Mo  Mo192  1  0.00026276  0.60099182  0.23236961  1
  Mo  Mo193  1  0.80253236  0.40891440  0.74731481  1
  Mo  Mo194  1  0.50192845  0.10503917  0.11396838  1
  Mo  Mo195  1  0.19516935  0.59657588  0.50764867  1
  Mo  Mo196  1  0.39950523  0.39707747  0.47956759  1
  Mo  Mo197  1  -0.00001935  0.00631857  0.51614263  1
  Mo  Mo198  1  0.89283827  0.49054457  0.89403845  1
  Mo  Mo199  1  0.00242026  0.40356139  0.25798847  1
