# generated using pymatgen
data_HfZrTaTiMo
_symmetry_space_group_name_H-M   'P 1'
_cell_length_a   15.84557974
_cell_length_b   15.83947125
_cell_length_c   15.40727945
_cell_angle_alpha   89.95103592
_cell_angle_beta   89.96195616
_cell_angle_gamma   89.94403476
_symmetry_Int_Tables_number   1
_chemical_formula_structural   HfZrTaTiMo
_chemical_formula_sum   'Hf40 Zr40 Ta40 Ti40 Mo40'
_cell_volume   3867.00124286
_cell_formula_units_Z   40
loop_
 _symmetry_equiv_pos_site_id
 _symmetry_equiv_pos_as_xyz
  1  'x, y, z'
loop_
 _atom_site_type_symbol
 _atom_site_label
 _atom_site_symmetry_multiplicity
 _atom_site_fract_x
 _atom_site_fract_y
 _atom_site_fract_z
 _atom_site_occupancy
  Hf  Hf0  1  0.10063777  0.89674120  0.13142440  1
  Hf  Hf1  1  0.19665889  0.00008456  0.75788548  1
  Hf  Hf2  1  0.70401947  0.90628071  0.36181773  1
  Hf  Hf3  1  0.31864747  0.71105801  0.62091409  1
  Hf  Hf4  1  0.68672136  0.10332550  0.36316273  1
  Hf  Hf5  1  0.21202409  0.59863707  0.49482981  1
  Hf  Hf6  1  0.52306080  0.68427933  0.38811261  1
  Hf  Hf7  1  0.37999043  -0.00481372  0.23139545  1
  Hf  Hf8  1  0.21922304  0.82195484  0.49623765  1
  Hf  Hf9  1  0.48940075  0.29980896  0.87080258  1
  Hf  Hf10  1  0.61306742  0.78445696  0.24634996  1
  Hf  Hf11  1  0.71541825  0.71009621  0.89071585  1
  Hf  Hf12  1  0.30626504  0.28710314  0.38864984  1
  Hf  Hf13  1  0.40847747  0.58286426  0.50227205  1
  Hf  Hf14  1  0.00120782  0.21162833  0.74454216  1
  Hf  Hf15  1  0.90821813  0.70729802  0.61348550  1
  Hf  Hf16  1  0.19894215  0.39180122  0.25799143  1
  Hf  Hf17  1  0.59606939  -0.00376238  0.76504136  1
  Hf  Hf18  1  0.88809987  0.09940923  0.35951410  1
  Hf  Hf19  1  0.20254062  0.79886812  0.75054808  1
  Hf  Hf20  1  0.00271082  0.00594279  0.48618381  1
  Hf  Hf21  1  0.51066367  0.69637425  0.61976523  1
  Hf  Hf22  1  0.40784252  0.60397064  0.24934656  1
  Hf  Hf23  1  0.21638640  0.61092035  -0.01641470  1
  Hf  Hf24  1  0.79757890  0.40316279  -0.00701076  1
  Hf  Hf25  1  0.68491348  0.51427886  0.37333067  1
  Hf  Hf26  1  0.80143402  0.40931073  0.25328722  1
  Hf  Hf27  1  0.69370208  0.10451811  0.63933326  1
  Hf  Hf28  1  0.20295817  0.19043920  0.25038071  1
  Hf  Hf29  1  0.09580762  0.50437881  0.61249624  1
  Hf  Hf30  1  -0.00872928  0.59809790  0.25783012  1
  Hf  Hf31  1  0.90489671  0.89782396  0.35999475  1
  Hf  Hf32  1  0.88863361  0.29934214  0.37017466  1
  Hf  Hf33  1  0.49542069  0.29331165  0.38119631  1
  Hf  Hf34  1  0.40924200  0.59781446  -0.01068424  1
  Hf  Hf35  1  0.09684552  0.70657430  0.60765876  1
  Hf  Hf36  1  0.79258516  0.61435255  0.25009937  1
  Hf  Hf37  1  0.79718170  0.00659464  0.00051837  1
  Hf  Hf38  1  0.09428167  0.90069802  0.62108155  1
  Hf  Hf39  1  0.21204684  0.38720599  0.72514171  1
  Zr  Zr40  1  0.01318376  0.59354531  0.00972888  1
  Zr  Zr41  1  0.61173865  0.59833124  0.76372470  1
  Zr  Zr42  1  0.49068092  0.89881501  0.37262294  1
  Zr  Zr43  1  0.29217543  0.89686848  0.89034226  1
  Zr  Zr44  1  0.09276900  0.89495637  0.89287458  1
  Zr  Zr45  1  0.19711393  0.17057293  0.48756329  1
  Zr  Zr46  1  -0.00642030  0.01078762  0.00475270  1
  Zr  Zr47  1  0.10229730  0.49259479  0.86313640  1
  Zr  Zr48  1  0.29769889  0.10843620  0.88238016  1
  Zr  Zr49  1  0.47758952  0.89967878  0.62303841  1
  Zr  Zr50  1  0.89752993  0.10879292  0.86754841  1
  Zr  Zr51  1  0.31724639  0.48451063  0.85227383  1
  Zr  Zr52  1  0.80832277  0.60521004  0.75459019  1
  Zr  Zr53  1  0.41076659  0.79982633  0.22511282  1
  Zr  Zr54  1  0.69133666  0.50527135  0.12816813  1
  Zr  Zr55  1  0.28943196  0.51365858  0.13767461  1
  Zr  Zr56  1  0.39848899  0.38647523  0.23974817  1
  Zr  Zr57  1  0.78563960  0.23344455  0.76047234  1
  Zr  Zr58  1  -0.00297826  0.39809117  0.73401713  1
  Zr  Zr59  1  0.61054189  0.80819757  0.50169910  1
  Zr  Zr60  1  0.09324965  0.09435298  0.63472592  1
  Zr  Zr61  1  0.60530117  0.80213780  0.75723016  1
  Zr  Zr62  1  -0.01087473  0.20001806  0.49794118  1
  Zr  Zr63  1  0.69052388  0.30745197  0.11911535  1
  Zr  Zr64  1  0.58722218  0.20285943  0.24338490  1
  Zr  Zr65  1  0.10393643  0.71219419  0.37013160  1
  Zr  Zr66  1  0.39405169  0.39850134  0.00959618  1
  Zr  Zr67  1  0.88955139  0.09744575  0.63827120  1
  Zr  Zr68  1  0.40414260  0.79411431  0.00164426  1
  Zr  Zr69  1  0.69126401  0.09756285  0.12306060  1
  Zr  Zr70  1  0.10929203  0.91185868  0.35625700  1
  Zr  Zr71  1  0.59031989  0.01253217  0.50507013  1
  Zr  Zr72  1  0.78461001  0.20469310  0.50694070  1
  Zr  Zr73  1  0.12267931  0.69353149  0.14379526  1
  Zr  Zr74  1  0.20685175  0.60201578  0.74348803  1
  Zr  Zr75  1  0.50359116  0.48810155  0.65235056  1
  Zr  Zr76  1  -0.01148780  0.40598374  0.48839943  1
  Zr  Zr77  1  0.90744061  0.50242227  0.87518285  1
  Zr  Zr78  1  0.19160113  0.40225518  0.00486236  1
  Zr  Zr79  1  0.40258006  -0.00281054  0.01072212  1
  Ta  Ta80  1  0.80422326  0.79536027  0.23350507  1
  Ta  Ta81  1  -0.00084108  0.20890609  0.01030690  1
  Ta  Ta82  1  0.40371093  0.18188121  0.51617820  1
  Ta  Ta83  1  -0.00829424  -0.00998160  0.76624717  1
  Ta  Ta84  1  0.60699592  0.59101889  -0.01744842  1
  Ta  Ta85  1  0.80798273  0.60532912  0.00982884  1
  Ta  Ta86  1  0.39035363  0.19281664  0.22944007  1
  Ta  Ta87  1  0.59594583  0.40125546  0.50463627  1
  Ta  Ta88  1  0.80463809  0.80767944  0.50043533  1
  Ta  Ta89  1  0.09909512  0.11202612  0.87840837  1
  Ta  Ta90  1  0.10551261  0.50036891  0.37401094  1
  Ta  Ta91  1  0.79553471  -0.01309911  0.76469313  1
  Ta  Ta92  1  0.19556734  0.20433274  0.01262205  1
  Ta  Ta93  1  0.09471483  0.10545616  0.13055955  1
  Ta  Ta94  1  0.89181758  0.50729675  0.62111618  1
  Ta  Ta95  1  0.79945071  0.60027116  0.49272026  1
  Ta  Ta96  1  0.40603170  0.79831607  0.77295707  1
  Ta  Ta97  1  -0.00091203  0.40099789  0.25925028  1
  Ta  Ta98  1  0.31831134  0.70982034  0.37750084  1
  Ta  Ta99  1  -0.00212051  0.78884538  0.01869889  1
  Ta  Ta100  1  0.10478091  0.29755363  0.60263458  1
  Ta  Ta101  1  0.39799487  0.39082208  0.52083365  1
  Ta  Ta102  1  0.52204927  0.69003954  0.11011436  1
  Ta  Ta103  1  0.59302815  -0.00404590  -0.01399786  1
  Ta  Ta104  1  0.89858373  0.90074000  0.12483474  1
  Ta  Ta105  1  0.89220360  0.88564660  0.88962066  1
  Ta  Ta106  1  0.69374878  0.89510618  0.11613690  1
  Ta  Ta107  1  0.79569887  -0.00019028  0.50069049  1
  Ta  Ta108  1  0.51142980  0.49571085  0.12876631  1
  Ta  Ta109  1  0.89898540  0.71056190  0.37908800  1
  Ta  Ta110  1  0.49266524  0.10590225  0.87222041  1
  Ta  Ta111  1  0.20003793  0.20254046  0.74027200  1
  Ta  Ta112  1  0.48031082  0.09743082  0.36539707  1
  Ta  Ta113  1  0.38823006  0.20133269  0.73361260  1
  Ta  Ta114  1  0.70821382  0.69583482  0.61497704  1
  Ta  Ta115  1  0.39608520  0.20060454  0.01943404  1
  Ta  Ta116  1  0.68886068  0.30675034  0.37240601  1
  Ta  Ta117  1  0.50199326  0.48798497  0.36914289  1
  Ta  Ta118  1  0.90110604  0.90358638  0.62316634  1
  Ta  Ta119  1  0.80504528  0.20408617  0.00307836  1
  Ti  Ti120  1  0.50576521  0.30472927  0.11524835  1
  Ti  Ti121  1  0.10063919  0.29926436  0.87909030  1
  Ti  Ti122  1  0.90988158  0.30858019  0.88365757  1
  Ti  Ti123  1  0.30652233  0.49503349  0.37128946  1
  Ti  Ti124  1  0.21039827  0.40298763  0.50276952  1
  Ti  Ti125  1  0.09957888  0.49759774  0.14388820  1
  Ti  Ti126  1  0.00405081  0.60896025  0.74726155  1
  Ti  Ti127  1  0.90967578  0.70591412  0.88556274  1
  Ti  Ti128  1  0.50369489  0.09221155  0.12639926  1
  Ti  Ti129  1  0.39567758  -0.00446554  0.76173577  1
  Ti  Ti130  1  0.50989911  0.48544878  0.86290646  1
  Ti  Ti131  1  0.50653688  0.29440452  0.63364165  1
  Ti  Ti132  1  0.40812225  0.61110887  0.76231891  1
  Ti  Ti133  1  0.70681547  0.90485865  0.62757097  1
  Ti  Ti134  1  0.09416642  0.30605022  0.12882212  1
  Ti  Ti135  1  0.80624178  0.80391871  0.74329439  1
  Ti  Ti136  1  0.87866575  0.31785663  0.62146305  1
  Ti  Ti137  1  0.79590729  0.00079161  0.23112847  1
  Ti  Ti138  1  0.22661997  0.80841719  0.24644556  1
  Ti  Ti139  1  0.69648826  0.10888100  0.87676730  1
  Ti  Ti140  1  0.19518150  0.00692037  0.01195283  1
  Ti  Ti141  1  0.59382950  0.19808203  -0.00553782  1
  Ti  Ti142  1  0.90428083  0.30480754  0.12686897  1
  Ti  Ti143  1  -0.00389879  0.01009761  0.23918525  1
  Ti  Ti144  1  0.59265287  0.20139976  0.50515803  1
  Ti  Ti145  1  0.70581021  0.48797248  0.63428134  1
  Ti  Ti146  1  0.90719573  0.49521640  0.12144346  1
  Ti  Ti147  1  0.70239758  0.89440264  0.89059663  1
  Ti  Ti148  1  0.37308615  -0.00982738  0.49257794  1
  Ti  Ti149  1  0.49511265  0.09739392  0.64248850  1
  Ti  Ti150  1  0.29521559  0.29426938  0.87498589  1
  Ti  Ti151  1  -0.00580912  0.60133754  0.48324008  1
  Ti  Ti152  1  0.78860018  0.40876995  0.49135259  1
  Ti  Ti153  1  0.59699432  0.20654795  0.75810757  1
  Ti  Ti154  1  0.09886103  0.29738752  0.38331394  1
  Ti  Ti155  1  0.29851390  0.08331607  0.62735901  1
  Ti  Ti156  1  0.79781739  0.20389450  0.23360306  1
  Ti  Ti157  1  0.10020685  0.70592993  0.87905777  1
  Ti  Ti158  1  -0.00427027  0.80139827  0.75668917  1
  Ti  Ti159  1  0.00010794  0.20489652  0.24806912  1
  Mo  Mo160  1  0.40474177  0.79737734  0.49342347  1
  Mo  Mo161  1  0.80500852  0.80078563  0.01623623  1
  Mo  Mo162  1  0.59426959  0.40284746  -0.01662248  1
  Mo  Mo163  1  0.29301506  0.29786676  0.12326139  1
  Mo  Mo164  1  0.90502239  0.69685441  0.12645258  1
  Mo  Mo165  1  0.51850023  0.90428540  0.12659874  1
  Mo  Mo166  1  0.20873027  0.60050993  0.27886735  1
  Mo  Mo167  1  0.09279113  0.09886318  0.34783172  1
  Mo  Mo168  1  0.59702854  0.60161579  0.24338992  1
  Mo  Mo169  1  0.40134007  0.38006545  0.73396860  1
  Mo  Mo170  1  0.28468052  0.89105952  0.10705955  1
  Mo  Mo171  1  0.89643144  0.50557448  0.38004578  1
  Mo  Mo172  1  -0.00310718  0.80633155  0.49531805  1
  Mo  Mo173  1  0.59045247  -0.00669140  0.24525042  1
  Mo  Mo174  1  0.50846828  0.69889402  0.88592563  1
  Mo  Mo175  1  0.19856568  0.00260651  0.23092115  1
  Mo  Mo176  1  0.68900597  0.31151534  0.61535831  1
  Mo  Mo177  1  0.69003044  0.29688063  0.89720089  1
  Mo  Mo178  1  0.30198034  0.90059140  0.36394297  1
  Mo  Mo179  1  0.50130786  0.90316832  0.87473571  1
  Mo  Mo180  1  0.70518973  0.49667314  0.87766632  1
  Mo  Mo181  1  -0.00025106  0.39316754  0.01822993  1
  Mo  Mo182  1  0.59453613  0.39910338  0.26110544  1
  Mo  Mo183  1  -0.00970937  0.79699897  0.23362953  1
  Mo  Mo184  1  0.20120220  0.00014979  0.49999778  1
  Mo  Mo185  1  0.70385202  0.70008077  0.10495278  1
  Mo  Mo186  1  0.30462917  0.69693693  0.86365209  1
  Mo  Mo187  1  0.19851399  0.79132438  0.00751716  1
  Mo  Mo188  1  0.60969339  0.58540835  0.52057926  1
  Mo  Mo189  1  0.30325061  0.08779875  0.37220684  1
  Mo  Mo190  1  0.30920516  0.69724924  0.13287425  1
  Mo  Mo191  1  0.61627169  0.38372042  0.76019327  1
  Mo  Mo192  1  0.29766174  0.28434648  0.60418478  1
  Mo  Mo193  1  0.89755203  0.11057707  0.13666499  1
  Mo  Mo194  1  0.30282807  0.90470111  0.64014313  1
  Mo  Mo195  1  0.79643264  0.40622122  0.76239430  1
  Mo  Mo196  1  0.30606205  0.49769863  0.62712559  1
  Mo  Mo197  1  0.29198775  0.09848924  0.11035349  1
  Mo  Mo198  1  0.70943713  0.70644910  0.39218363  1
  Mo  Mo199  1  0.60129506  0.80072661  -0.00201241  1
