# generated using pymatgen
data_HfZrTaTiMo
_symmetry_space_group_name_H-M   'P 1'
_cell_length_a   15.82827165
_cell_length_b   15.84292590
_cell_length_c   15.38439362
_cell_angle_alpha   89.92798982
_cell_angle_beta   90.03575230
_cell_angle_gamma   90.05312984
_symmetry_Int_Tables_number   1
_chemical_formula_structural   HfZrTaTiMo
_chemical_formula_sum   'Hf40 Zr40 Ta40 Ti40 Mo40'
_cell_volume   3857.87947152
_cell_formula_units_Z   40
loop_
 _symmetry_equiv_pos_site_id
 _symmetry_equiv_pos_as_xyz
  1  'x, y, z'
loop_
 _atom_site_type_symbol
 _atom_site_label
 _atom_site_symmetry_multiplicity
 _atom_site_fract_x
 _atom_site_fract_y
 _atom_site_fract_z
 _atom_site_occupancy
  Hf  Hf0  1  0.60369631  0.18988656  0.24807164  1
  Hf  Hf1  1  0.70847656  0.70903155  0.12174401  1
  Hf  Hf2  1  0.39417842  0.60726797  0.74657702  1
  Hf  Hf3  1  0.19226391  0.40006130  0.00840191  1
  Hf  Hf4  1  0.48620498  0.29899705  0.62248524  1
  Hf  Hf5  1  0.08393699  0.08504558  0.35211265  1
  Hf  Hf6  1  -0.01195554  0.39087318  -0.00090432  1
  Hf  Hf7  1  0.39298643  0.38975868  0.47310259  1
  Hf  Hf8  1  0.79426659  0.61609970  0.72861501  1
  Hf  Hf9  1  0.69889876  0.50246097  0.85589964  1
  Hf  Hf10  1  0.18989838  0.19224827  0.49419397  1
  Hf  Hf11  1  0.00608412  0.39727645  0.49564920  1
  Hf  Hf12  1  0.18564993  -0.01488872  0.48731511  1
  Hf  Hf13  1  0.39651593  0.60781763  0.00021793  1
  Hf  Hf14  1  0.80349282  0.60844525  0.24658076  1
  Hf  Hf15  1  -0.00847631  0.40485523  0.24779274  1
  Hf  Hf16  1  0.89230896  0.29713920  0.36941444  1
  Hf  Hf17  1  0.29071593  0.08878679  0.36310677  1
  Hf  Hf18  1  0.39394692  0.00171076  0.75234993  1
  Hf  Hf19  1  0.28472652  0.51126035  0.36778119  1
  Hf  Hf20  1  0.10289292  0.29451500  0.63832849  1
  Hf  Hf21  1  0.50604952  0.90092767  0.12177526  1
  Hf  Hf22  1  0.51151242  0.31431617  0.13339061  1
  Hf  Hf23  1  0.39176557  0.20407827  0.24436125  1
  Hf  Hf24  1  0.60329246  0.80477806  -0.01381448  1
  Hf  Hf25  1  0.28890519  0.90394502  0.63228202  1
  Hf  Hf26  1  0.59658164  0.20205474  0.50228719  1
  Hf  Hf27  1  0.71150171  0.10696151  0.87447292  1
  Hf  Hf28  1  0.79119362  0.39983180  -0.00046202  1
  Hf  Hf29  1  0.40403607  0.40740427  0.25101300  1
  Hf  Hf30  1  0.09565648  0.09337771  0.89562273  1
  Hf  Hf31  1  0.50907440  0.10196213  0.88556641  1
  Hf  Hf32  1  0.90308924  0.50170437  0.63066217  1
  Hf  Hf33  1  0.78318933  0.41001823  0.51824991  1
  Hf  Hf34  1  0.49882584  0.50449148  0.86932707  1
  Hf  Hf35  1  0.78967386  0.20045543  0.51573525  1
  Hf  Hf36  1  0.19438473  0.38876545  0.48483650  1
  Hf  Hf37  1  0.50042245  0.49940715  0.63674407  1
  Hf  Hf38  1  0.29164509  0.70804323  0.62611868  1
  Hf  Hf39  1  0.70343932  0.90882323  0.86323886  1
  Zr  Zr40  1  0.39850639  0.60678236  0.23717659  1
  Zr  Zr41  1  0.59716874  0.60456546  0.25135115  1
  Zr  Zr42  1  0.08573091  0.88241219  0.12040279  1
  Zr  Zr43  1  0.69950292  0.30723375  0.36123831  1
  Zr  Zr44  1  0.29458194  0.29634289  0.88098692  1
  Zr  Zr45  1  0.29356113  0.48126172  0.63118817  1
  Zr  Zr46  1  0.20201255  0.18348147  0.75348576  1
  Zr  Zr47  1  0.40693567  0.80388044  0.26273691  1
  Zr  Zr48  1  0.79842383  0.01565493  0.24005547  1
  Zr  Zr49  1  0.50096918  0.09368128  0.37575548  1
  Zr  Zr50  1  0.60066871  0.59313182  0.00884828  1
  Zr  Zr51  1  0.30373739  0.69469422  0.38471921  1
  Zr  Zr52  1  0.00160937  0.62621850  0.74814875  1
  Zr  Zr53  1  0.40569997  0.80626291  0.50334304  1
  Zr  Zr54  1  0.81338293  0.20620278  0.02285611  1
  Zr  Zr55  1  0.51094890  0.90764478  0.38307428  1
  Zr  Zr56  1  0.40802398  0.60036528  0.51095921  1
  Zr  Zr57  1  0.71834979  0.89474188  0.62914895  1
  Zr  Zr58  1  0.90335197  0.72590629  0.60309931  1
  Zr  Zr59  1  0.30950231  0.08867779  0.89972822  1
  Zr  Zr60  1  0.82052862  0.81654555  0.26538271  1
  Zr  Zr61  1  0.89877710  0.29902285  0.63514179  1
  Zr  Zr62  1  0.20200390  0.20057285  0.02111933  1
  Zr  Zr63  1  0.70633730  0.69894092  0.87304751  1
  Zr  Zr64  1  0.20046854  0.39361723  0.24366449  1
  Zr  Zr65  1  0.81634264  0.01402873  0.74610556  1
  Zr  Zr66  1  0.59589919  0.38350689  0.75385634  1
  Zr  Zr67  1  0.49910131  0.71315918  0.11899929  1
  Zr  Zr68  1  0.40802185  0.19747053  0.75327993  1
  Zr  Zr69  1  0.61112253  0.20875881  0.00776186  1
  Zr  Zr70  1  0.59424318  0.40285264  0.49727091  1
  Zr  Zr71  1  0.91266739  0.71839589  0.11360258  1
  Zr  Zr72  1  0.89486105  0.51175260  0.38495220  1
  Zr  Zr73  1  0.38601301  0.19957283  0.48834867  1
  Zr  Zr74  1  0.01405825  0.81931462  0.47109876  1
  Zr  Zr75  1  0.89413880  0.50729495  0.86756379  1
  Zr  Zr76  1  0.20970496  0.79625968  0.24583757  1
  Zr  Zr77  1  0.28601492  0.50524073  0.87668242  1
  Zr  Zr78  1  0.10284002  0.68549584  0.36059029  1
  Zr  Zr79  1  -0.00793386  0.18135527  0.75593910  1
  Ta  Ta80  1  0.83366450  0.80692082  0.76514649  1
  Ta  Ta81  1  0.09725790  0.88545471  0.63901520  1
  Ta  Ta82  1  0.89417182  0.10179218  0.38287447  1
  Ta  Ta83  1  0.71160528  0.70247968  0.39589691  1
  Ta  Ta84  1  0.50468020  0.90555740  0.86388381  1
  Ta  Ta85  1  0.19071921  0.79521616  0.77018323  1
  Ta  Ta86  1  0.31086866  0.89143997  0.10638689  1
  Ta  Ta87  1  0.70780218  0.30969669  0.14898725  1
  Ta  Ta88  1  0.61622732  0.80468491  0.26389715  1
  Ta  Ta89  1  0.70677299  0.89811941  0.12183162  1
  Ta  Ta90  1  0.00940403  0.60184658  0.51278389  1
  Ta  Ta91  1  0.00272023  0.19397648  0.49916617  1
  Ta  Ta92  1  0.60102399  0.39721641  -0.01070034  1
  Ta  Ta93  1  0.40330062  0.40110320  0.00459328  1
  Ta  Ta94  1  0.09813812  0.50003648  0.87069935  1
  Ta  Ta95  1  0.39614902  -0.00451302  0.24048712  1
  Ta  Ta96  1  0.19968877  0.80150487  0.48698389  1
  Ta  Ta97  1  0.00051111  0.59609928  0.00248307  1
  Ta  Ta98  1  0.09934087  0.49283609  0.64258859  1
  Ta  Ta99  1  0.39460638  0.39207313  0.76845152  1
  Ta  Ta100  1  0.09121514  0.28387095  0.35507769  1
  Ta  Ta101  1  0.39639558  0.80418656  0.75728465  1
  Ta  Ta102  1  0.08510534  0.29365098  0.13068284  1
  Ta  Ta103  1  0.69101514  0.49034142  0.13878818  1
  Ta  Ta104  1  0.50471548  0.70324867  0.85953130  1
  Ta  Ta105  1  0.19467114  0.19162839  0.23407079  1
  Ta  Ta106  1  0.09187638  0.07364519  0.63021751  1
  Ta  Ta107  1  0.29529601  0.50718767  0.11870018  1
  Ta  Ta108  1  -0.00188827  0.60449436  0.23471602  1
  Ta  Ta109  1  0.61543426  0.60350701  0.52344466  1
  Ta  Ta110  1  0.00059841  0.39561159  0.76486428  1
  Ta  Ta111  1  0.19909184  -0.01616139  0.00500169  1
  Ta  Ta112  1  0.50245778  0.89959814  0.63513262  1
  Ta  Ta113  1  0.60696629  0.79868936  0.51223422  1
  Ta  Ta114  1  0.08881337  0.08742406  0.12207049  1
  Ta  Ta115  1  0.60981315  0.00134828  0.00530652  1
  Ta  Ta116  1  0.49828506  0.09521585  0.11797589  1
  Ta  Ta117  1  0.92004088  0.91326514  0.61524727  1
  Ta  Ta118  1  -0.02053645  0.18649168  0.23301815  1
  Ta  Ta119  1  0.18870245  0.59524937  0.51681251  1
  Ti  Ti120  1  0.29455452  0.69881644  0.87701375  1
  Ti  Ti121  1  0.80621124  0.80798048  -0.01460596  1
  Ti  Ti122  1  0.49427323  0.09427245  0.61854360  1
  Ti  Ti123  1  0.19197690  0.60369583  0.74166122  1
  Ti  Ti124  1  0.70075850  0.51197967  0.37307829  1
  Ti  Ti125  1  0.90421908  0.10061919  0.89623604  1
  Ti  Ti126  1  0.80389902  0.00160229  0.50267439  1
  Ti  Ti127  1  0.09230079  0.29271769  0.87925541  1
  Ti  Ti128  1  0.40471559  0.20903967  0.01533680  1
  Ti  Ti129  1  0.51653463  0.69947029  0.38601789  1
  Ti  Ti130  1  0.10832061  0.69339302  0.11961943  1
  Ti  Ti131  1  0.09612872  0.50414660  0.12449054  1
  Ti  Ti132  1  0.20335089  0.79303064  -0.00693378  1
  Ti  Ti133  1  0.70192160  0.09662331  0.38236456  1
  Ti  Ti134  1  -0.00136419  0.80527353  -0.03011039  1
  Ti  Ti135  1  0.19576816  -0.01192189  0.77157088  1
  Ti  Ti136  1  0.09496282  0.50359210  0.36591919  1
  Ti  Ti137  1  0.89125461  0.49800724  0.12452475  1
  Ti  Ti138  1  0.89111133  0.29127562  0.86183431  1
  Ti  Ti139  1  0.60606441  -0.00269403  0.24110068  1
  Ti  Ti140  1  0.30482720  0.08786332  0.11802087  1
  Ti  Ti141  1  0.29315646  0.29726284  0.63596790  1
  Ti  Ti142  1  0.90538047  0.09755084  0.61358301  1
  Ti  Ti143  1  0.60122138  0.00722420  0.73743602  1
  Ti  Ti144  1  0.60837631  0.79268399  0.73899894  1
  Ti  Ti145  1  0.50516311  0.51029631  0.38120525  1
  Ti  Ti146  1  0.80219408  0.59867063  0.00508519  1
  Ti  Ti147  1  0.40099707  0.80597978  -0.02336528  1
  Ti  Ti148  1  0.39201971  -0.00368495  0.50252949  1
  Ti  Ti149  1  -0.01960758  -0.01941029  0.23785821  1
  Ti  Ti150  1  0.29058663  0.09575568  0.61993123  1
  Ti  Ti151  1  0.00180040  -0.02015753  0.77371770  1
  Ti  Ti152  1  0.60828872  0.00102012  0.51766227  1
  Ti  Ti153  1  0.70972244  0.29477720  0.85848195  1
  Ti  Ti154  1  0.10207647  0.68993772  0.88850338  1
  Ti  Ti155  1  0.60815371  0.19207849  0.73536194  1
  Ti  Ti156  1  0.20362041  -0.01232457  0.23294394  1
  Ti  Ti157  1  0.80350996  0.00027159  0.01057869  1
  Ti  Ti158  1  0.90344246  0.69940253  0.38474116  1
  Ti  Ti159  1  0.70644155  0.90567101  0.38652576  1
  Mo  Mo160  1  0.30034436  0.90552851  0.37232185  1
  Mo  Mo161  1  0.28767253  0.29256304  0.35223266  1
  Mo  Mo162  1  0.30072699  0.89280736  0.88161945  1
  Mo  Mo163  1  0.29989083  0.30255157  0.12522809  1
  Mo  Mo164  1  0.80580838  0.81384679  0.48383589  1
  Mo  Mo165  1  0.69662605  0.09714528  0.11862156  1
  Mo  Mo166  1  0.50157168  0.49869638  0.11225407  1
  Mo  Mo167  1  0.70914152  0.71025474  0.61633543  1
  Mo  Mo168  1  -0.00068399  0.20224451  0.01088616  1
  Mo  Mo169  1  0.00563703  0.80484702  0.76657687  1
  Mo  Mo170  1  0.00382733  0.00803862  0.49642773  1
  Mo  Mo171  1  0.10530004  0.70664435  0.61939926  1
  Mo  Mo172  1  0.79469058  0.19933901  0.73764046  1
  Mo  Mo173  1  -0.00358642  -0.00489050  0.00115511  1
  Mo  Mo174  1  0.49841072  0.30356909  0.36051139  1
  Mo  Mo175  1  -0.00154898  0.79838770  0.25980691  1
  Mo  Mo176  1  0.69718686  0.09615942  0.62211641  1
  Mo  Mo177  1  0.40896313  -0.00579450  0.00246220  1
  Mo  Mo178  1  0.69886845  0.50114660  0.63937407  1
  Mo  Mo179  1  0.79977129  0.39830448  0.74714879  1
  Mo  Mo180  1  0.59487972  0.40873305  0.26987181  1
  Mo  Mo181  1  0.49862523  0.29824979  0.89092162  1
  Mo  Mo182  1  0.80060770  0.60537614  0.50907949  1
  Mo  Mo183  1  0.19618440  0.59664889  0.22499468  1
  Mo  Mo184  1  0.79860520  0.41368481  0.25119699  1
  Mo  Mo185  1  0.89966555  0.91086687  0.88939795  1
  Mo  Mo186  1  0.90444806  0.92226682  0.38736396  1
  Mo  Mo187  1  0.89663707  0.89762367  0.10415800  1
  Mo  Mo188  1  0.59866358  0.60906928  0.73271764  1
  Mo  Mo189  1  0.10396974  0.89518560  0.88186178  1
  Mo  Mo190  1  0.90475576  0.09379165  0.11324873  1
  Mo  Mo191  1  0.19072099  0.39387092  0.76313773  1
  Mo  Mo192  1  0.10169757  0.90126817  0.34217790  1
  Mo  Mo193  1  0.29619038  0.70621641  0.10302939  1
  Mo  Mo194  1  0.79938857  0.19882898  0.24391463  1
  Mo  Mo195  1  0.69468290  0.29816411  0.63947794  1
  Mo  Mo196  1  0.50496720  0.70883630  0.63858232  1
  Mo  Mo197  1  0.89550333  0.30797184  0.14238422  1
  Mo  Mo198  1  0.19197992  0.60257747  0.00643219  1
  Mo  Mo199  1  0.90132532  0.69925997  0.89012913  1
