# generated using pymatgen
data_HfZrTaTiMo
_symmetry_space_group_name_H-M   'P 1'
_cell_length_a   15.82396746
_cell_length_b   15.84087243
_cell_length_c   15.40943522
_cell_angle_alpha   90.00733101
_cell_angle_beta   90.06347858
_cell_angle_gamma   89.98618010
_symmetry_Int_Tables_number   1
_chemical_formula_structural   HfZrTaTiMo
_chemical_formula_sum   'Hf40 Zr40 Ta40 Ti40 Mo40'
_cell_volume   3862.61049613
_cell_formula_units_Z   40
loop_
 _symmetry_equiv_pos_site_id
 _symmetry_equiv_pos_as_xyz
  1  'x, y, z'
loop_
 _atom_site_type_symbol
 _atom_site_label
 _atom_site_symmetry_multiplicity
 _atom_site_fract_x
 _atom_site_fract_y
 _atom_site_fract_z
 _atom_site_occupancy
  Hf  Hf0  1  0.79998862  0.19566750  0.00612977  1
  Hf  Hf1  1  0.20898451  0.40187413  0.49101975  1
  Hf  Hf2  1  0.41122431  0.60841499  0.75391120  1
  Hf  Hf3  1  0.80170808  0.40675828  0.00419759  1
  Hf  Hf4  1  0.39660480  0.59755863  0.25479782  1
  Hf  Hf5  1  0.29319981  0.28919041  0.36587356  1
  Hf  Hf6  1  -0.00789791  -0.00629079  0.25398505  1
  Hf  Hf7  1  0.49747287  0.49065774  0.38354852  1
  Hf  Hf8  1  0.89977248  0.49054987  0.37883756  1
  Hf  Hf9  1  0.80501528  0.78943205  0.50444731  1
  Hf  Hf10  1  0.90059822  0.89858976  0.38497528  1
  Hf  Hf11  1  0.19538466  0.61096884  0.50035378  1
  Hf  Hf12  1  0.50924428  0.92026517  0.85950052  1
  Hf  Hf13  1  0.19372595  0.79954097  -0.00052141  1
  Hf  Hf14  1  0.59671788  0.81187063  0.23695773  1
  Hf  Hf15  1  0.10079546  0.10093901  0.12982395  1
  Hf  Hf16  1  0.40400405  0.80328499  -0.01507370  1
  Hf  Hf17  1  0.08944012  0.49797121  0.13939375  1
  Hf  Hf18  1  -0.00907971  0.79533428  0.01485484  1
  Hf  Hf19  1  0.19972634  0.59942556  0.74960582  1
  Hf  Hf20  1  0.30875546  0.90423829  0.37787213  1
  Hf  Hf21  1  0.38710842  0.19975670  0.75549889  1
  Hf  Hf22  1  0.28888172  0.30435129  0.88111280  1
  Hf  Hf23  1  0.69315818  0.09671885  0.86209595  1
  Hf  Hf24  1  0.09364463  0.69327778  0.13858873  1
  Hf  Hf25  1  0.19125764  0.59481048  -0.00078647  1
  Hf  Hf26  1  0.59772575  0.40520008  -0.00517292  1
  Hf  Hf27  1  0.39377818  0.80201031  0.75990199  1
  Hf  Hf28  1  0.00034413  0.39771335  -0.00247969  1
  Hf  Hf29  1  0.70784573  0.50407145  0.13999545  1
  Hf  Hf30  1  0.09046881  0.50138897  0.87155607  1
  Hf  Hf31  1  0.50914768  0.90222328  0.39485700  1
  Hf  Hf32  1  0.68971974  0.68519724  0.62157883  1
  Hf  Hf33  1  0.21764964  0.00985614  0.24120020  1
  Hf  Hf34  1  0.29971028  0.70581486  0.37754006  1
  Hf  Hf35  1  0.70587003  0.30198686  0.86564469  1
  Hf  Hf36  1  -0.00957359  0.60792387  0.73219050  1
  Hf  Hf37  1  0.70259025  0.90719630  0.38448947  1
  Hf  Hf38  1  0.11133238  0.10642624  0.36881097  1
  Hf  Hf39  1  0.49678618  0.30285365  0.12585580  1
  Zr  Zr40  1  0.39684888  0.19825539  0.00208530  1
  Zr  Zr41  1  0.90488303  0.88268933  0.85577553  1
  Zr  Zr42  1  0.60848213  0.80528220  0.00137371  1
  Zr  Zr43  1  0.62000010  0.01353354  0.52431517  1
  Zr  Zr44  1  0.30990069  0.49084896  0.62816447  1
  Zr  Zr45  1  0.80038007  0.00456876  0.73085132  1
  Zr  Zr46  1  0.52633946  0.50080936  0.63092198  1
  Zr  Zr47  1  -0.01503223  0.19586574  0.24745962  1
  Zr  Zr48  1  0.70755544  0.89324747  0.85992684  1
  Zr  Zr49  1  0.50041306  0.90570952  0.63290102  1
  Zr  Zr50  1  0.72035074  0.91842401  0.12698779  1
  Zr  Zr51  1  0.39690067  0.80149889  0.51698844  1
  Zr  Zr52  1  0.90344963  0.10875994  0.60678453  1
  Zr  Zr53  1  0.60053146  0.22266136  0.49763974  1
  Zr  Zr54  1  0.38540380  0.18621714  0.23621549  1
  Zr  Zr55  1  0.62133404  0.60225468  0.00305338  1
  Zr  Zr56  1  0.49192103  0.31743108  0.63511779  1
  Zr  Zr57  1  0.59495350  0.78205656  0.74888129  1
  Zr  Zr58  1  0.18841440  0.20167642  0.74354291  1
  Zr  Zr59  1  0.19775659  0.19942379  0.51356841  1
  Zr  Zr60  1  0.49576731  0.10306057  0.63658074  1
  Zr  Zr61  1  0.10009417  0.90801589  0.87618480  1
  Zr  Zr62  1  0.41919848  -0.01232749  0.23470211  1
  Zr  Zr63  1  0.19731260  0.80335227  0.75541932  1
  Zr  Zr64  1  0.18806044  0.20816126  0.00564147  1
  Zr  Zr65  1  0.59783537  0.60506283  0.25174613  1
  Zr  Zr66  1  -0.01052106  0.20129033  0.00632910  1
  Zr  Zr67  1  0.80262356  0.77978145  0.01271574  1
  Zr  Zr68  1  -0.01137483  -0.00375456  0.00610373  1
  Zr  Zr69  1  0.01488156  -0.00547618  0.49858397  1
  Zr  Zr70  1  0.49375052  0.69527316  0.11172254  1
  Zr  Zr71  1  -0.00409818  0.61456106  0.49459168  1
  Zr  Zr72  1  0.09360577  0.49183490  0.61675519  1
  Zr  Zr73  1  0.49974978  0.09908192  0.38136097  1
  Zr  Zr74  1  0.89653342  0.30682753  0.60300316  1
  Zr  Zr75  1  0.39990711  0.59479099  0.50427788  1
  Zr  Zr76  1  0.30663226  0.89237143  0.11842693  1
  Zr  Zr77  1  0.78615746  0.19040728  0.24478872  1
  Zr  Zr78  1  0.50273970  0.29959753  0.87331271  1
  Zr  Zr79  1  0.09894791  0.50197438  0.36443818  1
  Ta  Ta80  1  0.61629860  0.01465845  0.24584552  1
  Ta  Ta81  1  0.40659961  0.00036239  -0.00293675  1
  Ta  Ta82  1  0.69392113  0.32076865  0.63354935  1
  Ta  Ta83  1  -0.00623896  0.39862433  0.75147448  1
  Ta  Ta84  1  0.09851638  0.89668085  0.13962972  1
  Ta  Ta85  1  0.80221176  0.80008584  0.25321766  1
  Ta  Ta86  1  0.89554537  0.68430181  0.14896736  1
  Ta  Ta87  1  0.59980282  0.39298146  0.26205654  1
  Ta  Ta88  1  0.89218370  0.29171473  0.38860661  1
  Ta  Ta89  1  0.19183557  0.39688302  0.75419479  1
  Ta  Ta90  1  0.09235989  0.30192408  0.36452710  1
  Ta  Ta91  1  0.69700748  0.70833742  0.37608000  1
  Ta  Ta92  1  0.10010573  0.30834199  0.14860821  1
  Ta  Ta93  1  0.72489160  0.68483909  0.86198001  1
  Ta  Ta94  1  0.90883334  0.89391244  0.62082409  1
  Ta  Ta95  1  0.20406255  0.00438778  0.74501838  1
  Ta  Ta96  1  0.20786434  0.79584331  0.24365749  1
  Ta  Ta97  1  0.29186717  0.08934933  0.88185241  1
  Ta  Ta98  1  0.39719024  0.20963620  0.50278623  1
  Ta  Ta99  1  0.09542263  0.10262422  0.87341761  1
  Ta  Ta100  1  0.80384590  0.59014907  0.72616381  1
  Ta  Ta101  1  0.49347287  0.49270624  0.12325953  1
  Ta  Ta102  1  0.20543220  -0.00576048  0.50876911  1
  Ta  Ta103  1  0.50663483  0.70861944  0.38915268  1
  Ta  Ta104  1  0.89050747  0.09812722  0.39293656  1
  Ta  Ta105  1  0.39658300  0.41481886  0.77758260  1
  Ta  Ta106  1  0.30132305  0.69003634  0.11452605  1
  Ta  Ta107  1  0.89958199  0.30238537  0.86863096  1
  Ta  Ta108  1  0.20678615  0.60135688  0.25167400  1
  Ta  Ta109  1  0.08097208  0.70278996  0.87100984  1
  Ta  Ta110  1  0.61328117  0.59042309  0.48502761  1
  Ta  Ta111  1  0.51045766  0.09825782  0.11924518  1
  Ta  Ta112  1  0.29520893  0.69447216  0.88404163  1
  Ta  Ta113  1  0.60458435  0.19787980  0.00192894  1
  Ta  Ta114  1  0.79555646  0.39187288  0.25946581  1
  Ta  Ta115  1  0.11372035  0.89367095  0.36489639  1
  Ta  Ta116  1  0.29598460  0.70456838  0.62885354  1
  Ta  Ta117  1  0.88897255  0.51036462  0.87199107  1
  Ta  Ta118  1  0.39738599  0.39890271  0.25656429  1
  Ta  Ta119  1  0.00641097  0.00514644  0.74221920  1
  Ti  Ti120  1  0.80223888  -0.00330281  -0.01609338  1
  Ti  Ti121  1  0.30510146  0.09309769  0.62315618  1
  Ti  Ti122  1  0.79703626  0.59536815  0.49422879  1
  Ti  Ti123  1  0.87636520  0.07349978  0.13158445  1
  Ti  Ti124  1  0.60458707  0.00406478  0.00529344  1
  Ti  Ti125  1  0.20904492  0.40576187  0.25304216  1
  Ti  Ti126  1  0.60451602  0.20421825  0.74151689  1
  Ti  Ti127  1  0.19781470  0.40525165  -0.00130901  1
  Ti  Ti128  1  0.50265886  0.10178519  0.86775525  1
  Ti  Ti129  1  0.69520966  0.30074699  0.12774994  1
  Ti  Ti130  1  -0.01922452  0.60171490  -0.00050670  1
  Ti  Ti131  1  0.29499365  0.30933353  0.12290667  1
  Ti  Ti132  1  0.80013175  0.60260433  0.27419171  1
  Ti  Ti133  1  0.09675424  0.10171922  0.62353648  1
  Ti  Ti134  1  0.59709651  0.20036157  0.25219436  1
  Ti  Ti135  1  0.70887570  0.10436130  0.38951425  1
  Ti  Ti136  1  0.39869519  0.57921036  -0.01652172  1
  Ti  Ti137  1  0.70081183  0.50163457  0.86122814  1
  Ti  Ti138  1  0.30077649  0.30760665  0.62912532  1
  Ti  Ti139  1  0.80501740  0.20640002  0.74007355  1
  Ti  Ti140  1  0.20153901  -0.00018191  0.00753324  1
  Ti  Ti141  1  0.19268762  0.80259111  0.50551852  1
  Ti  Ti142  1  -0.00146199  0.20677703  0.75377592  1
  Ti  Ti143  1  0.51089353  0.68928260  0.88553140  1
  Ti  Ti144  1  0.01201384  0.79281683  0.49843353  1
  Ti  Ti145  1  0.90015294  0.10101197  0.86528081  1
  Ti  Ti146  1  0.30189265  0.90929653  0.62896567  1
  Ti  Ti147  1  0.76861377  0.40033665  0.48215197  1
  Ti  Ti148  1  0.89430961  0.49011094  0.60291549  1
  Ti  Ti149  1  -0.00156199  0.79231602  0.26135043  1
  Ti  Ti150  1  0.10167854  0.89767470  0.63078554  1
  Ti  Ti151  1  0.40646781  0.79415623  0.24515255  1
  Ti  Ti152  1  0.08552749  0.30191118  0.61313559  1
  Ti  Ti153  1  0.80470756  0.40504548  0.74468431  1
  Ti  Ti154  1  0.81660941  0.77999459  0.73008660  1
  Ti  Ti155  1  0.89986464  0.31263653  0.13569642  1
  Ti  Ti156  1  0.70375815  0.89194960  0.62818939  1
  Ti  Ti157  1  0.90213449  0.50170037  0.14493127  1
  Ti  Ti158  1  0.30424622  0.49568149  0.11975713  1
  Ti  Ti159  1  0.30529973  0.09465865  0.38988416  1
  Mo  Mo160  1  0.60449969  0.00846776  0.73752581  1
  Mo  Mo161  1  0.38829101  0.00441396  0.76610461  1
  Mo  Mo162  1  0.20017655  0.20604239  0.23494967  1
  Mo  Mo163  1  0.50185938  0.69476489  0.61016496  1
  Mo  Mo164  1  0.10143597  0.71193910  0.63113373  1
  Mo  Mo165  1  0.49258668  0.29539778  0.36230705  1
  Mo  Mo166  1  0.00410204  0.20153464  0.48469560  1
  Mo  Mo167  1  0.69575140  0.10448095  0.11522015  1
  Mo  Mo168  1  0.60698265  0.59642220  0.76436304  1
  Mo  Mo169  1  0.78858440  0.20345773  0.50144051  1
  Mo  Mo170  1  0.79956856  0.00241278  0.26749143  1
  Mo  Mo171  1  0.69605679  0.29553290  0.36404445  1
  Mo  Mo172  1  0.60122546  0.40082953  0.48411222  1
  Mo  Mo173  1  0.80356204  -0.00209559  0.51393512  1
  Mo  Mo174  1  0.10459842  0.71142971  0.36086919  1
  Mo  Mo175  1  0.81018721  0.59315063  0.00798832  1
  Mo  Mo176  1  0.90473626  0.89193040  0.14261130  1
  Mo  Mo177  1  0.60354244  0.40357853  0.76778557  1
  Mo  Mo178  1  0.70933913  0.69774131  0.14961421  1
  Mo  Mo179  1  0.70513986  0.12439540  0.63404526  1
  Mo  Mo180  1  0.70036631  0.50109039  0.36283768  1
  Mo  Mo181  1  0.40072962  0.38395547  0.48410670  1
  Mo  Mo182  1  0.89828577  0.69727088  0.61077123  1
  Mo  Mo183  1  0.29378495  0.50240105  0.87494008  1
  Mo  Mo184  1  0.39409997  0.00778009  0.50505278  1
  Mo  Mo185  1  0.60218558  0.79246671  0.51178941  1
  Mo  Mo186  1  0.89828819  0.70028304  0.37040047  1
  Mo  Mo187  1  0.30267609  0.09731436  0.10107574  1
  Mo  Mo188  1  -0.01071243  0.39528766  0.25739316  1
  Mo  Mo189  1  -0.00376834  0.60302433  0.26489421  1
  Mo  Mo190  1  0.89959954  0.69114475  0.86866282  1
  Mo  Mo191  1  0.00082584  0.79993399  0.73419411  1
  Mo  Mo192  1  0.70897825  0.49222865  0.62538539  1
  Mo  Mo193  1  0.08846837  0.30150225  0.86650874  1
  Mo  Mo194  1  0.29822652  0.49743698  0.36912667  1
  Mo  Mo195  1  0.29943371  0.90630026  0.88329177  1
  Mo  Mo196  1  0.39230088  0.40625355  -0.00184896  1
  Mo  Mo197  1  0.51057200  0.90571272  0.11512674  1
  Mo  Mo198  1  0.00234285  0.39501776  0.48378715  1
  Mo  Mo199  1  0.50481137  0.50539844  0.87817059  1
