# generated using pymatgen
data_HfZrTaTiMo
_symmetry_space_group_name_H-M   'P 1'
_cell_length_a   15.83395054
_cell_length_b   15.83325799
_cell_length_c   15.40724138
_cell_angle_alpha   89.99025789
_cell_angle_beta   90.00259637
_cell_angle_gamma   89.79968593
_symmetry_Int_Tables_number   1
_chemical_formula_structural   HfZrTaTiMo
_chemical_formula_sum   'Hf40 Zr40 Ta40 Ti40 Mo40'
_cell_volume   3862.61833723
_cell_formula_units_Z   40
loop_
 _symmetry_equiv_pos_site_id
 _symmetry_equiv_pos_as_xyz
  1  'x, y, z'
loop_
 _atom_site_type_symbol
 _atom_site_label
 _atom_site_symmetry_multiplicity
 _atom_site_fract_x
 _atom_site_fract_y
 _atom_site_fract_z
 _atom_site_occupancy
  Hf  Hf0  1  0.01495012  0.59784705  0.00293301  1
  Hf  Hf1  1  0.20421625  0.79860855  0.49577653  1
  Hf  Hf2  1  0.61818321  0.58796986  0.24572242  1
  Hf  Hf3  1  0.70089681  0.09729334  0.12664446  1
  Hf  Hf4  1  0.80134277  0.19109906  0.49726987  1
  Hf  Hf5  1  0.79366284  0.21380431  0.25457289  1
  Hf  Hf6  1  0.41072169  0.39074120  0.76455163  1
  Hf  Hf7  1  0.10950847  0.49183480  0.86882614  1
  Hf  Hf8  1  0.08673462  0.91211290  0.86115122  1
  Hf  Hf9  1  0.59338058  0.80333868  0.76337303  1
  Hf  Hf10  1  0.40158575  0.19353887  0.25301128  1
  Hf  Hf11  1  0.11174010  0.70872327  0.87576461  1
  Hf  Hf12  1  0.40016855  0.79539272  0.75925942  1
  Hf  Hf13  1  0.58774976  0.81219674  0.25479263  1
  Hf  Hf14  1  0.29253287  0.08560274  0.13136051  1
  Hf  Hf15  1  0.40546791  0.60073346  0.25110291  1
  Hf  Hf16  1  0.50490364  0.08745951  0.13324691  1
  Hf  Hf17  1  0.30124727  0.49224389  0.36348987  1
  Hf  Hf18  1  0.00788205  0.82000386  0.24091996  1
  Hf  Hf19  1  0.60416534  0.39798670  0.76361872  1
  Hf  Hf20  1  0.11168716  0.49373899  0.63139052  1
  Hf  Hf21  1  0.09104570  0.12032322  0.87089288  1
  Hf  Hf22  1  -0.01714210  0.80657340  0.73773385  1
  Hf  Hf23  1  0.10307061  0.49745171  0.37334746  1
  Hf  Hf24  1  0.50608778  0.49651588  0.62007847  1
  Hf  Hf25  1  0.30457150  0.90534539  0.61509501  1
  Hf  Hf26  1  0.12221033  0.72038924  0.11947632  1
  Hf  Hf27  1  0.40241179  0.39364870  0.01238352  1
  Hf  Hf28  1  0.30553097  0.29841281  0.62347555  1
  Hf  Hf29  1  0.40173775  0.59857045  0.48497743  1
  Hf  Hf30  1  0.88933795  0.30644950  0.12047923  1
  Hf  Hf31  1  0.49707797  0.89861097  0.61342239  1
  Hf  Hf32  1  -0.00635326  0.80512448  0.50568225  1
  Hf  Hf33  1  0.79769583  0.59901538  0.76110730  1
  Hf  Hf34  1  0.09998255  0.69410541  0.62597912  1
  Hf  Hf35  1  0.79154477  0.80431323  0.75315822  1
  Hf  Hf36  1  0.40340672  0.19098704  0.00716330  1
  Hf  Hf37  1  0.69609247  0.90661029  0.37775137  1
  Hf  Hf38  1  0.29510423  0.29746375  0.36852476  1
  Hf  Hf39  1  0.59136026  0.00575779  -0.02282496  1
  Zr  Zr40  1  0.10207601  0.09976859  0.38008566  1
  Zr  Zr41  1  0.89723217  0.69858261  0.35853569  1
  Zr  Zr42  1  0.41051302  0.60278559  0.76062730  1
  Zr  Zr43  1  0.29940643  0.49665058  0.87831175  1
  Zr  Zr44  1  0.79742721  0.80898376  0.23121247  1
  Zr  Zr45  1  0.00163436  0.39973279  0.24627483  1
  Zr  Zr46  1  0.69008199  0.69335026  0.89387566  1
  Zr  Zr47  1  0.79727209  0.19284459  0.74569262  1
  Zr  Zr48  1  0.80624284  0.39389450  0.75796895  1
  Zr  Zr49  1  0.09613035  0.91311651  0.62029518  1
  Zr  Zr50  1  0.88931316  0.91422815  0.37289116  1
  Zr  Zr51  1  0.10070728  0.70015498  0.37552115  1
  Zr  Zr52  1  0.20165172  0.01475849  0.74352824  1
  Zr  Zr53  1  0.70112790  0.69800931  0.10868008  1
  Zr  Zr54  1  -0.01306874  0.59765663  0.50781208  1
  Zr  Zr55  1  0.49995006  0.70597096  0.12270539  1
  Zr  Zr56  1  0.39349529  0.59655622  0.01510420  1
  Zr  Zr57  1  0.30796857  0.49578847  0.62812756  1
  Zr  Zr58  1  0.28341283  0.89555811  0.87662758  1
  Zr  Zr59  1  0.28670442  0.88674035  0.12504774  1
  Zr  Zr60  1  0.40724074  0.00461384  0.76540876  1
  Zr  Zr61  1  -0.00144239  0.39633256  0.50631122  1
  Zr  Zr62  1  0.68599780  0.31927752  0.38080508  1
  Zr  Zr63  1  0.28987372  0.29671027  0.88012114  1
  Zr  Zr64  1  0.40593923  0.18557369  0.48395532  1
  Zr  Zr65  1  0.80984266  0.40374037  0.49894071  1
  Zr  Zr66  1  0.69162909  0.29287617  0.61811097  1
  Zr  Zr67  1  0.00897089  0.60654870  0.23380731  1
  Zr  Zr68  1  0.89748547  0.50334100  0.12173578  1
  Zr  Zr69  1  0.59541728  0.01625874  0.49916928  1
  Zr  Zr70  1  0.71062071  0.69553835  0.37058184  1
  Zr  Zr71  1  0.70065019  0.50022155  0.62298190  1
  Zr  Zr72  1  0.60373940  0.00306529  0.75602034  1
  Zr  Zr73  1  0.90577416  0.10450849  0.14566965  1
  Zr  Zr74  1  0.90155755  0.70362730  0.88840297  1
  Zr  Zr75  1  0.00169856  0.82329236  0.00781675  1
  Zr  Zr76  1  0.81050810  0.18602298  -0.00584996  1
  Zr  Zr77  1  0.92222058  0.28615884  0.87931512  1
  Zr  Zr78  1  0.80484417  0.79744393  0.51890470  1
  Zr  Zr79  1  0.52120070  0.47827922  0.36804574  1
  Ta  Ta80  1  0.69603649  0.90489489  0.62125861  1
  Ta  Ta81  1  0.18290250  0.00154670  0.00182117  1
  Ta  Ta82  1  0.50281961  0.69820873  0.61366743  1
  Ta  Ta83  1  0.80310424  -0.00733525  0.75557560  1
  Ta  Ta84  1  -0.01160138  0.00915026  0.49617252  1
  Ta  Ta85  1  0.40075577  0.79592393  0.48069929  1
  Ta  Ta86  1  0.10212254  0.29705483  0.37685060  1
  Ta  Ta87  1  0.19399461  0.21224210  0.73455063  1
  Ta  Ta88  1  -0.01287179  0.01929691  -0.00746660  1
  Ta  Ta89  1  0.01120777  0.38667013  0.73787545  1
  Ta  Ta90  1  0.89731944  0.70602611  0.11250192  1
  Ta  Ta91  1  0.19762430  0.39531270  0.23605559  1
  Ta  Ta92  1  0.59369636  0.21182260  0.24629495  1
  Ta  Ta93  1  0.68572063  0.91027569  0.11467524  1
  Ta  Ta94  1  0.19166438  0.19934698  0.24351740  1
  Ta  Ta95  1  0.60770035  0.59867290  0.49096734  1
  Ta  Ta96  1  0.28782331  0.10677753  0.88446399  1
  Ta  Ta97  1  0.38517941  0.79329147  -0.00657993  1
  Ta  Ta98  1  0.59922468  0.79733284  0.49586413  1
  Ta  Ta99  1  0.39314149  -0.00314640  -0.01114201  1
  Ta  Ta100  1  -0.00947683  0.20203444  0.50153369  1
  Ta  Ta101  1  0.50078448  0.29498208  0.61889722  1
  Ta  Ta102  1  0.69977871  0.29686701  0.89270703  1
  Ta  Ta103  1  0.20857009  0.60541728  0.74931584  1
  Ta  Ta104  1  0.50149468  0.69581170  0.89916858  1
  Ta  Ta105  1  0.71138283  0.47998242  0.11567903  1
  Ta  Ta106  1  0.09975146  0.10442845  0.61229333  1
  Ta  Ta107  1  0.39171449  0.79973566  0.26936141  1
  Ta  Ta108  1  0.49043988  0.89953759  0.11262786  1
  Ta  Ta109  1  0.20342292  0.79659688  0.73839863  1
  Ta  Ta110  1  0.70116674  0.09622284  0.35521414  1
  Ta  Ta111  1  0.40833395  0.38957718  0.49002488  1
  Ta  Ta112  1  0.68889272  0.69862783  0.62739427  1
  Ta  Ta113  1  0.20757769  0.59874096  0.49722684  1
  Ta  Ta114  1  0.91113749  0.49051479  0.87736813  1
  Ta  Ta115  1  0.40438577  -0.01503226  0.26518066  1
  Ta  Ta116  1  0.01109071  0.39848822  0.00910929  1
  Ta  Ta117  1  0.19660856  0.40171236  0.02555441  1
  Ta  Ta118  1  -0.00037877  0.59804447  0.75425957  1
  Ta  Ta119  1  0.51861621  0.50229098  0.89753195  1
  Ti  Ti120  1  0.20486219  0.39794973  0.49922606  1
  Ti  Ti121  1  0.00204948  0.20262225  0.72436240  1
  Ti  Ti122  1  0.59935040  0.60014189  0.75808769  1
  Ti  Ti123  1  0.88458606  0.50718561  0.35545123  1
  Ti  Ti124  1  0.79575571  0.81787794  -0.00435529  1
  Ti  Ti125  1  0.39851750  0.19562937  0.75829264  1
  Ti  Ti126  1  0.79963171  -0.00182246  -0.02180578  1
  Ti  Ti127  1  0.51208122  0.49063647  0.12635079  1
  Ti  Ti128  1  0.59416017  0.19878577  0.48381464  1
  Ti  Ti129  1  0.90464180  0.30102054  0.36525200  1
  Ti  Ti130  1  0.41770059  0.38389688  0.24085583  1
  Ti  Ti131  1  0.79400240  0.00939648  0.51371809  1
  Ti  Ti132  1  0.29973173  0.49756263  0.13785741  1
  Ti  Ti133  1  0.29136361  0.09377424  0.36637511  1
  Ti  Ti134  1  -0.00074542  0.00418441  0.26352032  1
  Ti  Ti135  1  0.18548281  -0.01252097  0.25263742  1
  Ti  Ti136  1  0.21265311  0.60717347  0.00716540  1
  Ti  Ti137  1  0.50768423  0.69769238  0.37552519  1
  Ti  Ti138  1  0.28841436  0.90929157  0.38310200  1
  Ti  Ti139  1  0.09178457  0.09969684  0.13297021  1
  Ti  Ti140  1  0.89065720  0.91992885  0.12295087  1
  Ti  Ti141  1  0.50018057  0.10795255  0.63082838  1
  Ti  Ti142  1  0.30830880  0.69810387  0.62066735  1
  Ti  Ti143  1  0.20110398  0.19889735  0.50400436  1
  Ti  Ti144  1  0.50867964  0.28912749  0.89213631  1
  Ti  Ti145  1  0.19234524  0.20024931  0.01744678  1
  Ti  Ti146  1  0.90324244  0.49916568  0.64183712  1
  Ti  Ti147  1  0.08856234  0.28980219  0.13036845  1
  Ti  Ti148  1  0.80289156  0.60136239  0.51058138  1
  Ti  Ti149  1  0.10942004  0.30454518  0.88034854  1
  Ti  Ti150  1  0.60552180  0.38951433  0.00966184  1
  Ti  Ti151  1  0.20122008  0.80444870  0.27044522  1
  Ti  Ti152  1  0.30518558  0.09996303  0.61854692  1
  Ti  Ti153  1  0.59180751  0.19956927  0.75666659  1
  Ti  Ti154  1  0.80012384  0.58523143  -0.00862436  1
  Ti  Ti155  1  0.20650045  0.60523779  0.24591175  1
  Ti  Ti156  1  0.69714395  0.10777538  0.87207520  1
  Ti  Ti157  1  0.40228828  0.00135616  0.47941330  1
  Ti  Ti158  1  0.29973278  0.29327943  0.13242563  1
  Ti  Ti159  1  0.90098500  0.09232497  0.63273391  1
  Mo  Mo160  1  0.49579944  0.89809187  0.38754702  1
  Mo  Mo161  1  0.80706489  0.39673480  -0.01854372  1
  Mo  Mo162  1  0.70221954  0.49153310  0.89431792  1
  Mo  Mo163  1  0.30002545  0.70239541  0.14516149  1
  Mo  Mo164  1  0.69978715  0.90064402  0.88550978  1
  Mo  Mo165  1  0.79183570  0.40907872  0.26122467  1
  Mo  Mo166  1  -0.00809257  0.01136924  0.74455456  1
  Mo  Mo167  1  0.09511140  0.92256292  0.12292213  1
  Mo  Mo168  1  0.60566294  0.39002283  0.22594300  1
  Mo  Mo169  1  0.60023018  0.58784720  0.01799662  1
  Mo  Mo170  1  0.90362571  0.29476853  0.62874786  1
  Mo  Mo171  1  0.49868965  0.29531804  0.37882676  1
  Mo  Mo172  1  0.80297719  0.59946939  0.22918103  1
  Mo  Mo173  1  0.89599652  0.90719969  0.87911836  1
  Mo  Mo174  1  0.29798572  0.69647585  0.86878517  1
  Mo  Mo175  1  0.59199062  0.80822040  -0.00292706  1
  Mo  Mo176  1  0.89075987  0.91091540  0.61755267  1
  Mo  Mo177  1  0.09961979  0.90772439  0.38780182  1
  Mo  Mo178  1  0.59616020  -0.00239789  0.25054341  1
  Mo  Mo179  1  0.00108732  0.20342724  0.26666574  1
  Mo  Mo180  1  0.01141368  0.20136741  0.00671219  1
  Mo  Mo181  1  0.11211603  0.50393209  0.12506895  1
  Mo  Mo182  1  0.90680258  0.09463685  0.85714410  1
  Mo  Mo183  1  0.49149253  0.10946219  0.87071311  1
  Mo  Mo184  1  0.10472565  0.29475266  0.60525743  1
  Mo  Mo185  1  0.60183706  0.19922074  0.00152632  1
  Mo  Mo186  1  0.79378240  0.00182038  0.24472366  1
  Mo  Mo187  1  0.49209974  0.89405029  0.89133155  1
  Mo  Mo188  1  0.29941029  0.69673058  0.36771935  1
  Mo  Mo189  1  0.89274125  0.68807579  0.64188721  1
  Mo  Mo190  1  0.89608822  0.10697489  0.36831140  1
  Mo  Mo191  1  0.20581130  0.00972955  0.50145972  1
  Mo  Mo192  1  0.50388347  0.29355113  0.11739993  1
  Mo  Mo193  1  0.71166451  0.50393838  0.37702582  1
  Mo  Mo194  1  0.19960246  0.39434034  0.74320489  1
  Mo  Mo195  1  0.69297149  0.09852288  0.63665261  1
  Mo  Mo196  1  0.59594409  0.39980265  0.51180046  1
  Mo  Mo197  1  0.19957522  0.80363063  -0.00681470  1
  Mo  Mo198  1  0.50722577  0.09508855  0.35485055  1
  Mo  Mo199  1  0.69925863  0.29651222  0.11193529  1
