# generated using pymatgen
data_HfZrTaTiMo
_symmetry_space_group_name_H-M   'P 1'
_cell_length_a   15.82425234
_cell_length_b   15.84183577
_cell_length_c   15.41130150
_cell_angle_alpha   90.00130535
_cell_angle_beta   89.91752856
_cell_angle_gamma   89.98176689
_symmetry_Int_Tables_number   1
_chemical_formula_structural   HfZrTaTiMo
_chemical_formula_sum   'Hf40 Zr40 Ta40 Ti40 Mo40'
_cell_volume   3863.38110536
_cell_formula_units_Z   40
loop_
 _symmetry_equiv_pos_site_id
 _symmetry_equiv_pos_as_xyz
  1  'x, y, z'
loop_
 _atom_site_type_symbol
 _atom_site_label
 _atom_site_symmetry_multiplicity
 _atom_site_fract_x
 _atom_site_fract_y
 _atom_site_fract_z
 _atom_site_occupancy
  Hf  Hf0  1  0.69874519  0.29673892  0.86628881  1
  Hf  Hf1  1  0.19950887  0.79066060  0.01362146  1
  Hf  Hf2  1  0.81305952  0.60336974  0.51353383  1
  Hf  Hf3  1  0.30260773  0.10204395  0.12181256  1
  Hf  Hf4  1  0.80936867  0.20869728  0.50198023  1
  Hf  Hf5  1  0.79655423  0.80635392  0.75990032  1
  Hf  Hf6  1  0.19754146  0.39604457  0.50579889  1
  Hf  Hf7  1  0.60543802  0.81018295  0.74773408  1
  Hf  Hf8  1  0.40592429  0.79773609  0.73152009  1
  Hf  Hf9  1  0.39456760  0.60372860  0.00542572  1
  Hf  Hf10  1  0.00221538  0.59815873  0.23499397  1
  Hf  Hf11  1  0.79824604  0.81646254  -0.00507837  1
  Hf  Hf12  1  0.60066086  0.80764109  0.49756442  1
  Hf  Hf13  1  0.40268964  0.80229127  0.50996721  1
  Hf  Hf14  1  0.29276345  0.29621975  0.12207930  1
  Hf  Hf15  1  0.19890966  0.59497783  0.23057203  1
  Hf  Hf16  1  0.69662555  0.49883127  0.38563623  1
  Hf  Hf17  1  0.50082496  0.29780788  0.35020700  1
  Hf  Hf18  1  0.50141665  0.69215322  0.37910997  1
  Hf  Hf19  1  0.40265795  0.01037842  0.49779144  1
  Hf  Hf20  1  0.90336111  0.49990154  0.36188061  1
  Hf  Hf21  1  0.69195378  0.71015484  0.11205138  1
  Hf  Hf22  1  0.69183287  0.09803589  0.61455952  1
  Hf  Hf23  1  0.80798314  0.40613202  0.51876159  1
  Hf  Hf24  1  -0.00500187  0.80037554  0.25913417  1
  Hf  Hf25  1  0.29707972  0.50351567  0.87501042  1
  Hf  Hf26  1  0.60227919  0.18727586  0.00284532  1
  Hf  Hf27  1  0.20665924  0.20101076  0.48750710  1
  Hf  Hf28  1  0.08314817  0.89157207  0.61495168  1
  Hf  Hf29  1  0.80400398  0.60727958  0.73763191  1
  Hf  Hf30  1  0.49295547  0.28917998  0.13815100  1
  Hf  Hf31  1  0.09279611  0.10001647  0.12400802  1
  Hf  Hf32  1  -0.01159287  0.20111593  0.00281014  1
  Hf  Hf33  1  0.89772208  0.91770486  0.13125920  1
  Hf  Hf34  1  0.50098094  0.69817528  0.87987296  1
  Hf  Hf35  1  0.82049645  0.81444406  0.47886953  1
  Hf  Hf36  1  0.29253928  0.69870006  0.86528491  1
  Hf  Hf37  1  0.60599526  0.60293450  0.23671460  1
  Hf  Hf38  1  0.69218272  0.51087935  0.88939423  1
  Hf  Hf39  1  0.91448802  0.50735786  0.86929866  1
  Zr  Zr40  1  0.29973226  0.69136612  0.37167229  1
  Zr  Zr41  1  0.58126510  0.20755869  0.50545908  1
  Zr  Zr42  1  0.41704432  -0.00655383  -0.01398507  1
  Zr  Zr43  1  0.09872502  0.69086775  0.38199105  1
  Zr  Zr44  1  0.29321440  0.10955201  0.63254068  1
  Zr  Zr45  1  0.28512621  0.91232101  0.62604641  1
  Zr  Zr46  1  0.70078391  0.09331345  0.37709920  1
  Zr  Zr47  1  0.50094876  0.10447377  0.35767060  1
  Zr  Zr48  1  -0.00069379  0.39132260  0.50269557  1
  Zr  Zr49  1  0.01298449  0.80971274  0.01950493  1
  Zr  Zr50  1  0.20658951  0.38197312  0.76852844  1
  Zr  Zr51  1  0.79331383  0.00512405  0.74493013  1
  Zr  Zr52  1  0.81055272  0.60293153  0.00809576  1
  Zr  Zr53  1  0.70255426  0.69298505  0.38249820  1
  Zr  Zr54  1  0.50351466  0.49433419  0.11255688  1
  Zr  Zr55  1  0.00216037  0.59300191  0.51051479  1
  Zr  Zr56  1  0.80768130  0.39033141  -0.00629824  1
  Zr  Zr57  1  0.50077806  0.49206598  0.37286685  1
  Zr  Zr58  1  0.30680322  0.90215924  0.13049153  1
  Zr  Zr59  1  0.29377918  0.89481154  0.86289587  1
  Zr  Zr60  1  0.18497307  -0.01232319  0.00581633  1
  Zr  Zr61  1  0.69852411  0.30474015  0.37151584  1
  Zr  Zr62  1  0.20132956  0.78803538  0.50731658  1
  Zr  Zr63  1  0.78898277  0.81280074  0.25518197  1
  Zr  Zr64  1  0.09716577  0.88869402  0.85536338  1
  Zr  Zr65  1  0.91762198  0.70596499  0.87718125  1
  Zr  Zr66  1  0.80141855  0.40924640  0.74597985  1
  Zr  Zr67  1  0.39763629  0.39073242  -0.01049917  1
  Zr  Zr68  1  0.39736094  0.58822971  0.23621909  1
  Zr  Zr69  1  0.30727251  0.29809251  0.35198437  1
  Zr  Zr70  1  0.90664183  0.30445541  0.14221675  1
  Zr  Zr71  1  0.10482036  0.27974943  0.63837161  1
  Zr  Zr72  1  0.91052570  0.92027787  0.87756056  1
  Zr  Zr73  1  0.59275420  0.82542591  -0.01611414  1
  Zr  Zr74  1  0.30413808  0.48147267  0.64025112  1
  Zr  Zr75  1  0.39934406  0.59873956  0.52143714  1
  Zr  Zr76  1  0.70372889  0.29081585  0.13614619  1
  Zr  Zr77  1  0.40635084  0.38466603  0.50268719  1
  Zr  Zr78  1  0.48742755  0.29912370  0.65040128  1
  Zr  Zr79  1  0.60513265  0.60918062  0.73334957  1
  Ta  Ta80  1  0.09769985  0.09647834  0.38658668  1
  Ta  Ta81  1  0.00145703  0.00539540  0.25872244  1
  Ta  Ta82  1  0.29504995  0.49462276  0.37732235  1
  Ta  Ta83  1  0.80281022  0.60277915  0.23658169  1
  Ta  Ta84  1  0.60123637  0.40997122  0.74309533  1
  Ta  Ta85  1  0.19644664  0.80132457  0.24531553  1
  Ta  Ta86  1  0.09590535  0.08479993  0.60219948  1
  Ta  Ta87  1  0.50679115  0.90126868  0.13587796  1
  Ta  Ta88  1  0.09997973  0.89979926  0.38041260  1
  Ta  Ta89  1  0.39875063  0.00087106  0.75515008  1
  Ta  Ta90  1  0.89817515  0.10417759  0.87019239  1
  Ta  Ta91  1  0.50137001  0.10369508  0.86198644  1
  Ta  Ta92  1  0.08657034  0.08927162  0.88728023  1
  Ta  Ta93  1  0.89675094  0.10030610  0.37559241  1
  Ta  Ta94  1  0.40706111  0.59973159  0.73968544  1
  Ta  Ta95  1  0.70965532  0.71408042  0.61174862  1
  Ta  Ta96  1  0.90977961  0.09871051  0.61549052  1
  Ta  Ta97  1  0.10005210  0.50457426  0.87311899  1
  Ta  Ta98  1  0.10616341  0.49336308  0.36898895  1
  Ta  Ta99  1  0.91060290  0.29584166  0.64570913  1
  Ta  Ta100  1  0.40162242  -0.00454769  0.25524511  1
  Ta  Ta101  1  0.79950473  0.19493282  -0.00528715  1
  Ta  Ta102  1  0.59834935  0.80612790  0.25752394  1
  Ta  Ta103  1  0.09121486  0.48571696  0.65001178  1
  Ta  Ta104  1  0.00534921  0.39806278  -0.01264325  1
  Ta  Ta105  1  0.91615541  0.72184212  0.62712735  1
  Ta  Ta106  1  0.78699185  0.01460745  0.00980053  1
  Ta  Ta107  1  0.49081210  0.10440927  0.64140320  1
  Ta  Ta108  1  0.90153731  0.90514345  0.63105408  1
  Ta  Ta109  1  0.10037747  0.28501853  0.87917472  1
  Ta  Ta110  1  0.50667898  0.09126124  0.13488476  1
  Ta  Ta111  1  0.28915327  0.10299441  0.87849904  1
  Ta  Ta112  1  0.19760487  0.00105681  0.26015603  1
  Ta  Ta113  1  0.50246409  0.50069985  0.87103458  1
  Ta  Ta114  1  0.00366815  0.19944707  0.26331467  1
  Ta  Ta115  1  0.30504900  0.70296526  0.13026011  1
  Ta  Ta116  1  0.29955642  0.90041884  0.37435174  1
  Ta  Ta117  1  0.69721028  0.30205800  0.63044615  1
  Ta  Ta118  1  0.40539888  0.80033021  0.25592063  1
  Ta  Ta119  1  0.19947612  0.40625226  0.23662010  1
  Ti  Ti120  1  0.50719106  0.90818764  0.37205760  1
  Ti  Ti121  1  0.18679637  0.78019286  0.72874659  1
  Ti  Ti122  1  0.09990788  0.68910933  0.87843794  1
  Ti  Ti123  1  0.90586764  0.29314664  0.85728128  1
  Ti  Ti124  1  0.90054096  0.30560711  0.36004826  1
  Ti  Ti125  1  0.00873804  0.18028517  0.75192326  1
  Ti  Ti126  1  0.19299281  0.19402373  0.25562843  1
  Ti  Ti127  1  0.09912077  0.30671375  0.36282595  1
  Ti  Ti128  1  0.49973979  0.29761435  0.86486119  1
  Ti  Ti129  1  0.69902802  0.70035953  0.88603764  1
  Ti  Ti130  1  0.80051822  0.19688902  0.74207264  1
  Ti  Ti131  1  0.69982584  0.09787359  0.87057968  1
  Ti  Ti132  1  0.30295572  0.10011776  0.36943715  1
  Ti  Ti133  1  0.19559257  0.39495097  -0.00388983  1
  Ti  Ti134  1  0.40220854  0.19491159  -0.00856945  1
  Ti  Ti135  1  0.70143506  0.49985915  0.10908957  1
  Ti  Ti136  1  0.70630556  0.90859627  0.60608047  1
  Ti  Ti137  1  0.00878817  0.61056175  0.73713079  1
  Ti  Ti138  1  0.60447694  0.40614615  0.23758624  1
  Ti  Ti139  1  0.61756711  -0.00958851  0.24348861  1
  Ti  Ti140  1  0.19808946  0.59965837  0.73555975  1
  Ti  Ti141  1  -0.01730709  -0.01499476  0.48271590  1
  Ti  Ti142  1  0.09361958  0.48846367  0.11293358  1
  Ti  Ti143  1  0.59914260  -0.00309609  0.75836225  1
  Ti  Ti144  1  0.79706358  0.41164756  0.24308469  1
  Ti  Ti145  1  0.59722397  0.59234866  0.52380395  1
  Ti  Ti146  1  0.30523063  0.28565675  0.64233273  1
  Ti  Ti147  1  0.49935975  0.71043834  0.11950764  1
  Ti  Ti148  1  0.19219014  0.59763124  0.01464244  1
  Ti  Ti149  1  0.19851156  0.58934588  0.52307786  1
  Ti  Ti150  1  0.09954361  0.29745376  0.12371723  1
  Ti  Ti151  1  0.00042868  0.20479480  0.48961356  1
  Ti  Ti152  1  0.90272524  0.70442046  0.12262745  1
  Ti  Ti153  1  0.50863178  0.91668942  0.62411356  1
  Ti  Ti154  1  0.88690820  0.11187399  0.14544634  1
  Ti  Ti155  1  0.59864606  0.39079146  -0.00364535  1
  Ti  Ti156  1  0.60301566  0.19686840  0.74904440  1
  Ti  Ti157  1  0.18301930  0.01220151  0.75137213  1
  Ti  Ti158  1  0.39876367  0.80458168  -0.00242813  1
  Ti  Ti159  1  0.90671427  0.49413987  0.11993614  1
  Mo  Mo160  1  0.60331879  0.00920513  -0.00354783  1
  Mo  Mo161  1  0.19832405  -0.00027269  0.48168025  1
  Mo  Mo162  1  0.29860660  0.69349047  0.63777364  1
  Mo  Mo163  1  0.09927865  0.90488982  0.15241105  1
  Mo  Mo164  1  0.90881381  0.50098676  0.64664302  1
  Mo  Mo165  1  0.01066244  0.39955957  0.24899479  1
  Mo  Mo166  1  0.00070609  0.00526163  0.73584602  1
  Mo  Mo167  1  0.60443095  0.19374933  0.23910667  1
  Mo  Mo168  1  0.70356701  0.10107587  0.13903814  1
  Mo  Mo169  1  0.79800601  0.00847702  0.24283047  1
  Mo  Mo170  1  0.69238806  0.90990414  0.11623786  1
  Mo  Mo171  1  0.50241903  0.49670676  0.64055392  1
  Mo  Mo172  1  0.19409248  0.19829356  -0.00549875  1
  Mo  Mo173  1  0.01143466  0.59621445  0.01387648  1
  Mo  Mo174  1  0.69990823  0.91465745  0.88239613  1
  Mo  Mo175  1  -0.00586616  0.79940340  0.47879757  1
  Mo  Mo176  1  0.38942584  0.40370474  0.24263708  1
  Mo  Mo177  1  0.80453984  0.20461863  0.26985804  1
  Mo  Mo178  1  0.89716099  0.69384879  0.35670538  1
  Mo  Mo179  1  0.09858641  0.69185384  0.61627865  1
  Mo  Mo180  1  0.50757747  0.70507047  0.61805190  1
  Mo  Mo181  1  0.60276291  0.40645562  0.52539700  1
  Mo  Mo182  1  0.70170184  0.50290762  0.61492304  1
  Mo  Mo183  1  0.29685315  0.28792663  0.89286672  1
  Mo  Mo184  1  0.40477114  0.39894006  0.77387335  1
  Mo  Mo185  1  0.39567239  0.19753683  0.50168648  1
  Mo  Mo186  1  -0.01576348  0.01352685  0.01847685  1
  Mo  Mo187  1  0.10024391  0.70029147  0.12803747  1
  Mo  Mo188  1  0.80396969  0.00499090  0.50994856  1
  Mo  Mo189  1  0.28886818  0.49500288  0.10365066  1
  Mo  Mo190  1  0.59386163  -0.00119618  0.50459232  1
  Mo  Mo191  1  0.39305696  0.19910956  0.77479138  1
  Mo  Mo192  1  0.00124787  0.79592055  0.75191174  1
  Mo  Mo193  1  0.49786966  0.90606158  0.85530110  1
  Mo  Mo194  1  0.19220448  0.18544060  0.76678551  1
  Mo  Mo195  1  0.59718991  0.60369799  0.00455495  1
  Mo  Mo196  1  0.00469778  0.39198141  0.76868709  1
  Mo  Mo197  1  0.69258324  0.91053234  0.38502717  1
  Mo  Mo198  1  0.39424750  0.18832441  0.23521333  1
  Mo  Mo199  1  0.89278364  0.91750382  0.35637948  1
