# generated using pymatgen
data_HfZrTaTiMo
_symmetry_space_group_name_H-M   'P 1'
_cell_length_a   15.83796353
_cell_length_b   15.83878192
_cell_length_c   15.41900554
_cell_angle_alpha   89.99742795
_cell_angle_beta   90.00883464
_cell_angle_gamma   89.96891304
_symmetry_Int_Tables_number   1
_chemical_formula_structural   HfZrTaTiMo
_chemical_formula_sum   'Hf40 Zr40 Ta40 Ti40 Mo40'
_cell_volume   3867.91937301
_cell_formula_units_Z   40
loop_
 _symmetry_equiv_pos_site_id
 _symmetry_equiv_pos_as_xyz
  1  'x, y, z'
loop_
 _atom_site_type_symbol
 _atom_site_label
 _atom_site_symmetry_multiplicity
 _atom_site_fract_x
 _atom_site_fract_y
 _atom_site_fract_z
 _atom_site_occupancy
  Hf  Hf0  1  0.90799222  0.70492296  0.38102303  1
  Hf  Hf1  1  0.81928522  0.20662128  0.74946946  1
  Hf  Hf2  1  0.29215458  0.49242577  0.62667505  1
  Hf  Hf3  1  0.59866896  0.38823329  0.75224480  1
  Hf  Hf4  1  0.19576818  0.80054279  0.25816644  1
  Hf  Hf5  1  0.40159277  0.20575121  0.48035854  1
  Hf  Hf6  1  0.10635046  0.70326571  0.09866403  1
  Hf  Hf7  1  0.50334395  0.29850726  0.12974183  1
  Hf  Hf8  1  0.39529968  -0.00093216  0.76502001  1
  Hf  Hf9  1  0.19906582  0.40325187  0.24921825  1
  Hf  Hf10  1  0.51262229  0.09352042  0.34494602  1
  Hf  Hf11  1  0.39941134  0.60294467  0.75900549  1
  Hf  Hf12  1  0.70575456  0.49547916  0.63450213  1
  Hf  Hf13  1  0.48743291  0.89865707  0.63274959  1
  Hf  Hf14  1  0.70075648  0.50705917  0.87163691  1
  Hf  Hf15  1  0.70756323  0.29355591  0.88778989  1
  Hf  Hf16  1  0.19533099  0.20408900  0.73793028  1
  Hf  Hf17  1  0.70834524  0.69693619  0.37158096  1
  Hf  Hf18  1  0.59914993  0.79629415  0.23533189  1
  Hf  Hf19  1  0.39684040  0.20055106  0.75824811  1
  Hf  Hf20  1  0.39483144  0.19609097  0.24325745  1
  Hf  Hf21  1  0.29878360  0.70388391  0.09915742  1
  Hf  Hf22  1  0.70175752  0.69337288  0.10404684  1
  Hf  Hf23  1  0.40058898  0.58992876  0.49562581  1
  Hf  Hf24  1  0.70840217  0.49134803  0.12029904  1
  Hf  Hf25  1  0.09684133  0.90579658  0.87688094  1
  Hf  Hf26  1  0.52286904  0.08683462  0.87395834  1
  Hf  Hf27  1  0.50768442  0.69703720  0.37207765  1
  Hf  Hf28  1  0.78881243  0.00928819  -0.00486612  1
  Hf  Hf29  1  0.29803479  0.89105682  0.62783679  1
  Hf  Hf30  1  0.30082740  0.50094874  0.11037954  1
  Hf  Hf31  1  0.70278595  0.29974790  0.36941791  1
  Hf  Hf32  1  0.19994499  0.40352700  0.48643851  1
  Hf  Hf33  1  0.80894099  0.79625266  0.24020335  1
  Hf  Hf34  1  0.80267409  0.60704571  0.52088532  1
  Hf  Hf35  1  0.00322529  0.38973395  0.73692332  1
  Hf  Hf36  1  0.59820697  0.79642109  0.74033327  1
  Hf  Hf37  1  0.00435116  0.80131161  0.24174519  1
  Hf  Hf38  1  0.90696726  0.11265091  0.88419381  1
  Hf  Hf39  1  0.50440061  0.28681834  0.88507229  1
  Zr  Zr40  1  0.80821482  0.81558206  0.51727995  1
  Zr  Zr41  1  0.70021089  0.09405365  0.15200071  1
  Zr  Zr42  1  0.91760601  0.29301635  0.38445514  1
  Zr  Zr43  1  0.19034082  0.80307668  0.50104058  1
  Zr  Zr44  1  -0.00517815  0.01702547  0.73371067  1
  Zr  Zr45  1  0.71469222  0.29383981  0.60672094  1
  Zr  Zr46  1  0.40744743  0.00250804  0.00276766  1
  Zr  Zr47  1  -0.00579820  0.40646091  0.00606633  1
  Zr  Zr48  1  0.39722180  -0.00352720  0.47916297  1
  Zr  Zr49  1  0.18992515  0.20942959  0.49707076  1
  Zr  Zr50  1  0.89627544  0.69708340  0.87154992  1
  Zr  Zr51  1  0.10039884  0.10631553  0.88563710  1
  Zr  Zr52  1  0.40071755  0.39488173  -0.00880232  1
  Zr  Zr53  1  0.60252826  -0.00353939  0.50768946  1
  Zr  Zr54  1  0.49505980  0.69773571  0.11266509  1
  Zr  Zr55  1  0.38693082  0.80297354  0.26179827  1
  Zr  Zr56  1  0.09618222  0.50722344  0.37528052  1
  Zr  Zr57  1  0.48790408  0.48444825  0.63552722  1
  Zr  Zr58  1  0.69810737  0.30426220  0.13096057  1
  Zr  Zr59  1  0.39912220  0.59312095  0.25737956  1
  Zr  Zr60  1  0.20076837  0.00294645  0.74900995  1
  Zr  Zr61  1  0.09522958  0.29617309  0.87666855  1
  Zr  Zr62  1  0.90524177  0.92223022  0.12272728  1
  Zr  Zr63  1  0.00647341  0.59356017  0.53046945  1
  Zr  Zr64  1  0.61912582  0.18456283  0.73868372  1
  Zr  Zr65  1  0.60215297  0.79538863  0.51590530  1
  Zr  Zr66  1  0.71198504  0.09543286  0.37104242  1
  Zr  Zr67  1  -0.00709401  0.80839163  -0.00673251  1
  Zr  Zr68  1  0.19816294  0.60460612  0.24669721  1
  Zr  Zr69  1  0.19166864  0.00022601  0.49490779  1
  Zr  Zr70  1  0.69989057  0.70272930  0.88361852  1
  Zr  Zr71  1  0.50881969  0.69883192  0.89286132  1
  Zr  Zr72  1  0.70287426  0.90321953  0.36294594  1
  Zr  Zr73  1  0.59846125  0.60374982  0.51778850  1
  Zr  Zr74  1  0.20113473  0.59800870  0.75457873  1
  Zr  Zr75  1  0.59347063  0.19900101  0.49734545  1
  Zr  Zr76  1  0.30547628  0.10186346  0.61607247  1
  Zr  Zr77  1  0.08398151  0.10573121  0.36847669  1
  Zr  Zr78  1  0.90376052  0.50750357  0.37739559  1
  Zr  Zr79  1  0.58526441  0.40151454  0.48829476  1
  Ta  Ta80  1  0.60400214  0.17920846  0.01442390  1
  Ta  Ta81  1  0.19820225  -0.00696737  0.24599678  1
  Ta  Ta82  1  0.40011527  0.40220160  0.25981713  1
  Ta  Ta83  1  0.19862450  0.00365955  0.01000209  1
  Ta  Ta84  1  0.68642544  0.91886237  0.86612924  1
  Ta  Ta85  1  0.00204644  0.40249540  0.23612400  1
  Ta  Ta86  1  0.29220930  0.29447784  0.35732332  1
  Ta  Ta87  1  0.90123893  0.70584857  0.64603961  1
  Ta  Ta88  1  0.79007132  0.01726240  0.74701351  1
  Ta  Ta89  1  0.80784299  0.40563124  0.26014102  1
  Ta  Ta90  1  0.29583551  0.10700925  0.89202008  1
  Ta  Ta91  1  0.89183908  0.31280661  0.12397409  1
  Ta  Ta92  1  0.00279536  0.59344734  0.74489390  1
  Ta  Ta93  1  0.01131467  0.39230009  0.52015315  1
  Ta  Ta94  1  0.09229552  0.69874185  0.38714368  1
  Ta  Ta95  1  0.70295035  0.50508391  0.37439999  1
  Ta  Ta96  1  0.60610377  0.59229736  0.24244632  1
  Ta  Ta97  1  -0.00818624  -0.00760227  0.51289853  1
  Ta  Ta98  1  0.81569604  0.20192139  0.24938182  1
  Ta  Ta99  1  0.90048624  0.49726691  0.85954542  1
  Ta  Ta100  1  0.79735289  0.81086788  0.75173411  1
  Ta  Ta101  1  0.28659326  0.69026894  0.39284457  1
  Ta  Ta102  1  0.10158972  0.69563986  0.87889517  1
  Ta  Ta103  1  0.29551246  0.89473772  0.11360384  1
  Ta  Ta104  1  0.40162159  0.59121022  -0.01536622  1
  Ta  Ta105  1  0.60116816  0.82664905  0.01046367  1
  Ta  Ta106  1  0.88787444  0.11081459  0.60303466  1
  Ta  Ta107  1  0.80881242  0.39452096  0.75271194  1
  Ta  Ta108  1  0.80479470  0.20243424  0.01290383  1
  Ta  Ta109  1  -0.00248108  0.60422785  0.23186563  1
  Ta  Ta110  1  0.38762370  0.39267896  0.76998955  1
  Ta  Ta111  1  0.89379431  0.91272722  0.86563617  1
  Ta  Ta112  1  0.20293155  0.79633305  0.76182687  1
  Ta  Ta113  1  0.50208921  0.89463265  0.87368505  1
  Ta  Ta114  1  0.00042293  0.20469234  0.02547337  1
  Ta  Ta115  1  0.59717421  0.60676048  0.73542351  1
  Ta  Ta116  1  0.49911108  0.09661514  0.63074911  1
  Ta  Ta117  1  0.89864114  0.69679024  0.10810765  1
  Ta  Ta118  1  0.29669726  0.29951039  0.12664497  1
  Ta  Ta119  1  0.39863654  0.79623536  0.48950045  1
  Ti  Ti120  1  0.10179489  0.50525680  0.11747218  1
  Ti  Ti121  1  0.18903406  0.19915548  0.23773603  1
  Ti  Ti122  1  0.48913216  0.29423142  0.62912777  1
  Ti  Ti123  1  0.39288966  0.79133592  0.76238833  1
  Ti  Ti124  1  0.60145520  0.40166507  -0.00435814  1
  Ti  Ti125  1  0.59460672  0.40607786  0.26132689  1
  Ti  Ti126  1  0.30429139  0.30828911  0.62272806  1
  Ti  Ti127  1  0.40026888  0.19265752  0.01287390  1
  Ti  Ti128  1  0.08543411  0.08508668  0.12843433  1
  Ti  Ti129  1  0.10621157  0.70329512  0.63434542  1
  Ti  Ti130  1  0.28903616  0.29201378  0.89141561  1
  Ti  Ti131  1  0.50372466  0.49807082  0.12105802  1
  Ti  Ti132  1  0.39870629  0.39555723  0.47038925  1
  Ti  Ti133  1  -0.00111985  0.59352536  -0.00362297  1
  Ti  Ti134  1  0.28834680  0.49250107  0.88211080  1
  Ti  Ti135  1  0.81293073  0.58217020  0.00109162  1
  Ti  Ti136  1  0.81254210  0.40632331  0.50059481  1
  Ti  Ti137  1  0.70547162  0.91259245  0.63593118  1
  Ti  Ti138  1  0.50665087  0.49889034  0.87159768  1
  Ti  Ti139  1  0.30265605  0.69951887  0.61820224  1
  Ti  Ti140  1  0.29927515  0.08995535  0.13046170  1
  Ti  Ti141  1  -0.00400335  0.80538814  0.51672575  1
  Ti  Ti142  1  0.50036486  0.90022801  0.36306229  1
  Ti  Ti143  1  0.00194041  0.80072722  0.75517599  1
  Ti  Ti144  1  -0.00097650  0.20339863  0.23145968  1
  Ti  Ti145  1  0.09627747  0.89754980  0.63666633  1
  Ti  Ti146  1  0.80581813  0.59827364  0.24100102  1
  Ti  Ti147  1  0.29881007  0.89661139  0.88992586  1
  Ti  Ti148  1  0.08684751  0.90226057  0.37488064  1
  Ti  Ti149  1  0.70511545  0.90591076  0.13363992  1
  Ti  Ti150  1  0.90051828  0.09436543  0.38431607  1
  Ti  Ti151  1  0.10187935  0.90389066  0.11482485  1
  Ti  Ti152  1  0.90087675  0.91287853  0.36932389  1
  Ti  Ti153  1  0.10178755  0.49646028  0.87272871  1
  Ti  Ti154  1  0.29489530  0.70227763  0.89384184  1
  Ti  Ti155  1  0.19633737  0.19798040  0.02514145  1
  Ti  Ti156  1  0.79588130  0.81431843  -0.00734596  1
  Ti  Ti157  1  0.48928938  0.90925461  0.13301632  1
  Ti  Ti158  1  0.29175620  0.09447727  0.35987856  1
  Ti  Ti159  1  0.19109863  0.39283227  0.00777448  1
  Mo  Mo160  1  0.09788586  0.29985548  0.35246821  1
  Mo  Mo161  1  0.48331564  0.70341057  0.62832495  1
  Mo  Mo162  1  0.90363771  0.29986247  0.60617724  1
  Mo  Mo163  1  0.80554833  0.40029517  -0.01821655  1
  Mo  Mo164  1  0.90168062  0.90309798  0.64761880  1
  Mo  Mo165  1  0.00034803  0.20380611  0.72456640  1
  Mo  Mo166  1  0.49845898  0.29823309  0.35218687  1
  Mo  Mo167  1  0.70591565  0.70357791  0.64310878  1
  Mo  Mo168  1  0.19494264  0.58988312  -0.01659074  1
  Mo  Mo169  1  0.89802362  0.49689575  0.63940660  1
  Mo  Mo170  1  0.10670555  0.49713889  0.63400844  1
  Mo  Mo171  1  0.60194013  -0.00323141  0.73547116  1
  Mo  Mo172  1  0.30149462  0.49796634  0.38144915  1
  Mo  Mo173  1  0.89897369  0.50551827  0.13215164  1
  Mo  Mo174  1  0.59459781  -0.01100593  0.23731097  1
  Mo  Mo175  1  0.10033910  0.29929530  0.13258859  1
  Mo  Mo176  1  0.49855550  0.09594299  0.13354307  1
  Mo  Mo177  1  0.70562007  0.09591314  0.60599418  1
  Mo  Mo178  1  0.90296035  0.30206893  0.89010264  1
  Mo  Mo179  1  0.20790924  0.39470171  0.76154994  1
  Mo  Mo180  1  0.60087856  -0.00411124  0.01938020  1
  Mo  Mo181  1  0.60175500  0.20599209  0.24377232  1
  Mo  Mo182  1  0.90145849  0.10852280  0.12482796  1
  Mo  Mo183  1  0.19849477  0.60406515  0.51282378  1
  Mo  Mo184  1  0.09285097  0.10364088  0.61251224  1
  Mo  Mo185  1  0.80513940  0.20086425  0.48008965  1
  Mo  Mo186  1  0.59743691  0.58204011  0.01169852  1
  Mo  Mo187  1  0.70460641  0.10239933  0.88202297  1
  Mo  Mo188  1  0.80148080  0.60164575  0.74335992  1
  Mo  Mo189  1  0.80655015  -0.00185728  0.50908462  1
  Mo  Mo190  1  -0.00054833  0.00870235  -0.00533583  1
  Mo  Mo191  1  0.40155069  0.80521855  -0.00930488  1
  Mo  Mo192  1  0.11112378  0.30398988  0.63199569  1
  Mo  Mo193  1  0.81398224  0.00063583  0.25321195  1
  Mo  Mo194  1  0.50775020  0.50083231  0.36712795  1
  Mo  Mo195  1  0.00445422  0.00202208  0.25744598  1
  Mo  Mo196  1  0.38759791  -0.00528547  0.24808074  1
  Mo  Mo197  1  0.29296008  0.89814734  0.37355380  1
  Mo  Mo198  1  0.19882850  0.80616777  -0.01653128  1
  Mo  Mo199  1  0.00465606  0.19917407  0.51313788  1
