# generated using pymatgen
data_HfZrTaTiMo
_symmetry_space_group_name_H-M   'P 1'
_cell_length_a   15.85495862
_cell_length_b   15.82672723
_cell_length_c   15.40750806
_cell_angle_alpha   90.03873313
_cell_angle_beta   89.98634820
_cell_angle_gamma   89.95351874
_symmetry_Int_Tables_number   1
_chemical_formula_structural   HfZrTaTiMo
_chemical_formula_sum   'Hf40 Zr40 Ta40 Ti40 Mo40'
_cell_volume   3866.23616988
_cell_formula_units_Z   40
loop_
 _symmetry_equiv_pos_site_id
 _symmetry_equiv_pos_as_xyz
  1  'x, y, z'
loop_
 _atom_site_type_symbol
 _atom_site_label
 _atom_site_symmetry_multiplicity
 _atom_site_fract_x
 _atom_site_fract_y
 _atom_site_fract_z
 _atom_site_occupancy
  Hf  Hf0  1  0.10650211  0.90233326  0.37364232  1
  Hf  Hf1  1  0.20139383  0.19083119  0.25826980  1
  Hf  Hf2  1  0.49121152  0.69578551  0.36041049  1
  Hf  Hf3  1  0.29991521  0.70025607  0.36570817  1
  Hf  Hf4  1  0.01317954  0.39428953  0.74030798  1
  Hf  Hf5  1  0.40721855  0.18958024  -0.00804429  1
  Hf  Hf6  1  0.19770445  0.39821350  0.00609824  1
  Hf  Hf7  1  0.09847161  0.29010992  0.11812217  1
  Hf  Hf8  1  0.60246040  0.02037576  0.75506035  1
  Hf  Hf9  1  0.78191782  0.80467619  0.27001347  1
  Hf  Hf10  1  0.60438961  -0.00406971  0.26104060  1
  Hf  Hf11  1  0.81612728  0.60552634  -0.00875272  1
  Hf  Hf12  1  0.69660446  0.29974035  0.38523739  1
  Hf  Hf13  1  0.21261405  0.59199312  0.48769511  1
  Hf  Hf14  1  0.90021764  0.10857682  0.11753753  1
  Hf  Hf15  1  0.79604752  0.01188059  0.74594930  1
  Hf  Hf16  1  0.38034015  -0.00148800  0.24272864  1
  Hf  Hf17  1  0.68972261  0.10536679  0.10947516  1
  Hf  Hf18  1  0.38257045  0.80486667  0.77648498  1
  Hf  Hf19  1  0.80457402  0.20438129  0.25934837  1
  Hf  Hf20  1  0.19478984  0.39714844  0.24877554  1
  Hf  Hf21  1  0.80166240  0.80517212  -0.02234812  1
  Hf  Hf22  1  0.00029487  0.00221293  0.24746354  1
  Hf  Hf23  1  0.80576004  0.39765636  0.49809168  1
  Hf  Hf24  1  0.20868849  0.39603447  0.76384249  1
  Hf  Hf25  1  -0.00312859  0.78028776  -0.01731639  1
  Hf  Hf26  1  0.10226841  0.50276405  0.88918895  1
  Hf  Hf27  1  0.60194937  -0.00382534  0.50477261  1
  Hf  Hf28  1  0.20559479  0.60149140  0.75504987  1
  Hf  Hf29  1  0.49787954  0.69422135  0.64723897  1
  Hf  Hf30  1  0.50003957  0.89960386  0.12185804  1
  Hf  Hf31  1  0.58101512  0.59908052  0.49391074  1
  Hf  Hf32  1  0.00628612  0.79263162  0.75097915  1
  Hf  Hf33  1  0.30460464  0.49395620  0.12363018  1
  Hf  Hf34  1  0.00317300  0.79677986  0.49383937  1
  Hf  Hf35  1  0.91371869  0.11595187  0.86175361  1
  Hf  Hf36  1  0.49864337  0.69936316  0.87927955  1
  Hf  Hf37  1  0.69090505  0.68855028  0.86392795  1
  Hf  Hf38  1  0.48916007  0.89585596  0.37001120  1
  Hf  Hf39  1  0.50196919  0.89465273  0.64469513  1
  Zr  Zr40  1  0.79014094  0.00730024  -0.02721057  1
  Zr  Zr41  1  0.39321375  0.21070853  0.49317161  1
  Zr  Zr42  1  0.77102252  0.20785461  0.73621503  1
  Zr  Zr43  1  0.70565312  0.71043221  0.11826193  1
  Zr  Zr44  1  0.90771288  0.70051101  0.14683899  1
  Zr  Zr45  1  0.89376046  0.69572481  0.61400516  1
  Zr  Zr46  1  0.60377009  0.19293018  0.26477188  1
  Zr  Zr47  1  0.88889827  0.89498536  0.12937830  1
  Zr  Zr48  1  0.50538230  0.29789858  0.13256872  1
  Zr  Zr49  1  0.09710253  0.88534664  0.12705237  1
  Zr  Zr50  1  0.78836190  0.00666193  0.25981522  1
  Zr  Zr51  1  0.40327509  0.79668369  0.50214395  1
  Zr  Zr52  1  0.90167649  0.69722980  0.36501634  1
  Zr  Zr53  1  0.69848215  0.31560603  0.13077209  1
  Zr  Zr54  1  -0.00643925  -0.00335520  -0.00035476  1
  Zr  Zr55  1  0.59954964  0.20179686  0.51650063  1
  Zr  Zr56  1  0.10096917  0.90656112  0.87846282  1
  Zr  Zr57  1  0.29986529  0.10502862  0.62429176  1
  Zr  Zr58  1  0.40019205  -0.01006928  -0.01542077  1
  Zr  Zr59  1  0.69219115  0.70625190  0.63024196  1
  Zr  Zr60  1  0.69525492  0.50410313  0.62271920  1
  Zr  Zr61  1  0.48560075  0.31424997  0.63073143  1
  Zr  Zr62  1  0.49040214  0.10003352  0.37949086  1
  Zr  Zr63  1  0.80851562  0.41928869  0.27531127  1
  Zr  Zr64  1  0.89390566  0.90077598  0.62527399  1
  Zr  Zr65  1  0.90692652  0.50035930  0.87091767  1
  Zr  Zr66  1  0.20701060  -0.00542635  0.75122766  1
  Zr  Zr67  1  0.51352964  0.49151792  0.12858699  1
  Zr  Zr68  1  0.00839814  0.60256769  0.73983410  1
  Zr  Zr69  1  0.11521228  0.88859587  0.61934513  1
  Zr  Zr70  1  0.61892636  0.60301749  0.25529732  1
  Zr  Zr71  1  0.11919723  0.49035498  0.61296482  1
  Zr  Zr72  1  0.79955427  0.21452716  -0.00644565  1
  Zr  Zr73  1  0.79107374  0.59497370  0.47152120  1
  Zr  Zr74  1  0.89955118  0.10212422  0.39255245  1
  Zr  Zr75  1  0.51816230  0.50072151  0.87414307  1
  Zr  Zr76  1  0.29760612  0.70079565  0.61853127  1
  Zr  Zr77  1  0.90111613  0.30450804  0.86233904  1
  Zr  Zr78  1  0.09815151  0.09899293  0.38436604  1
  Zr  Zr79  1  0.41074608  0.39126587  -0.00963969  1
  Ta  Ta80  1  0.90006544  0.90706627  0.38616966  1
  Ta  Ta81  1  0.28831675  0.10133770  0.87668858  1
  Ta  Ta82  1  0.80240527  0.59494948  0.75244210  1
  Ta  Ta83  1  0.00757220  0.58277757  0.25469346  1
  Ta  Ta84  1  0.19915669  0.78753743  0.77355946  1
  Ta  Ta85  1  0.39177450  0.59582671  0.76630014  1
  Ta  Ta86  1  0.30376242  0.29053867  0.12543731  1
  Ta  Ta87  1  0.09199329  0.28819715  0.88942213  1
  Ta  Ta88  1  0.90514953  0.49696738  0.61585907  1
  Ta  Ta89  1  0.31694942  0.49508550  0.62415452  1
  Ta  Ta90  1  0.39617595  0.40071297  0.76951076  1
  Ta  Ta91  1  0.00749160  0.59167017  0.48959832  1
  Ta  Ta92  1  0.61124432  0.39266470  0.74698485  1
  Ta  Ta93  1  0.58932103  0.01212752  -0.02289907  1
  Ta  Ta94  1  0.18798675  0.20001911  0.75236268  1
  Ta  Ta95  1  0.61144827  0.59661194  0.00721611  1
  Ta  Ta96  1  0.01134414  0.01698177  0.73370551  1
  Ta  Ta97  1  0.49667979  0.09800699  0.12845067  1
  Ta  Ta98  1  0.39943418  0.60276897  0.23004989  1
  Ta  Ta99  1  0.69108872  0.90610118  0.10803318  1
  Ta  Ta100  1  0.19762703  0.21129537  0.48904760  1
  Ta  Ta101  1  0.10509556  0.09800331  0.11916819  1
  Ta  Ta102  1  0.29406840  0.89082405  0.10775505  1
  Ta  Ta103  1  0.01171818  0.39199975  0.49737467  1
  Ta  Ta104  1  0.90372933  0.90680375  0.85338956  1
  Ta  Ta105  1  0.78718284  0.80781437  0.48860634  1
  Ta  Ta106  1  0.80025039  0.79739505  0.75934648  1
  Ta  Ta107  1  0.50206227  0.70442234  0.11688251  1
  Ta  Ta108  1  0.30165819  0.50756348  0.89609911  1
  Ta  Ta109  1  0.39277412  0.19826229  0.25269280  1
  Ta  Ta110  1  0.90641798  0.29787709  0.62569130  1
  Ta  Ta111  1  0.00166958  0.20460025  0.24764132  1
  Ta  Ta112  1  0.00058661  0.00654746  0.51992334  1
  Ta  Ta113  1  0.38882441  0.20487415  0.75954372  1
  Ta  Ta114  1  0.10440742  0.69917161  0.36272622  1
  Ta  Ta115  1  0.59375582  0.81086376  -0.01462932  1
  Ta  Ta116  1  0.80088170  0.19537497  0.51638538  1
  Ta  Ta117  1  -0.00757216  0.40132450  0.01243914  1
  Ta  Ta118  1  0.51681092  0.28727068  0.86597102  1
  Ta  Ta119  1  0.71269920  0.50310335  0.12570616  1
  Ti  Ti120  1  0.20317405  -0.00001386  0.50978640  1
  Ti  Ti121  1  0.11110553  0.69873645  0.60696371  1
  Ti  Ti122  1  0.01647610  0.59973777  0.02249154  1
  Ti  Ti123  1  0.69672664  0.89686216  0.63225452  1
  Ti  Ti124  1  0.19654228  0.59726054  0.23697265  1
  Ti  Ti125  1  0.79761167  0.41195294  -0.00493298  1
  Ti  Ti126  1  0.09941827  0.10980958  0.89071437  1
  Ti  Ti127  1  0.39738274  0.00117990  0.76657048  1
  Ti  Ti128  1  0.59179271  0.40575676  0.49743250  1
  Ti  Ti129  1  0.69355467  0.30938492  0.88121022  1
  Ti  Ti130  1  0.19548672  0.78124517  -0.00875679  1
  Ti  Ti131  1  0.10736839  0.48923039  0.37796352  1
  Ti  Ti132  1  0.40238296  0.60466565  0.00775480  1
  Ti  Ti133  1  0.10853913  0.29372773  0.61438118  1
  Ti  Ti134  1  0.49504545  0.31334376  0.36283034  1
  Ti  Ti135  1  0.90007277  0.50045358  0.13058887  1
  Ti  Ti136  1  0.29328251  0.31037206  0.62229819  1
  Ti  Ti137  1  0.79825221  0.40268210  0.73942069  1
  Ti  Ti138  1  0.29449817  0.08869580  0.38053082  1
  Ti  Ti139  1  0.39777054  -0.00314108  0.50584620  1
  Ti  Ti140  1  0.49464692  0.50299133  0.63971793  1
  Ti  Ti141  1  0.60038217  0.80404533  0.25201841  1
  Ti  Ti142  1  0.69047124  0.89952182  0.86237288  1
  Ti  Ti143  1  0.29535694  0.70064001  0.11563897  1
  Ti  Ti144  1  0.89767078  0.30797675  0.12820027  1
  Ti  Ti145  1  0.30155124  0.30985100  0.36878934  1
  Ti  Ti146  1  0.39294384  0.79844192  0.23500485  1
  Ti  Ti147  1  0.49467980  0.49590587  0.35598392  1
  Ti  Ti148  1  0.30253013  0.89422468  0.62256870  1
  Ti  Ti149  1  0.00248932  0.39505151  0.25457650  1
  Ti  Ti150  1  0.29252087  0.89980138  0.37854898  1
  Ti  Ti151  1  0.29239670  0.29143233  0.88613061  1
  Ti  Ti152  1  0.49121608  0.10368426  0.63611347  1
  Ti  Ti153  1  0.29484412  0.09964892  0.11527621  1
  Ti  Ti154  1  0.39844837  0.41580083  0.48889110  1
  Ti  Ti155  1  0.19950959  -0.00154763  0.00237135  1
  Ti  Ti156  1  0.91704178  0.29305192  0.38847909  1
  Ti  Ti157  1  0.20322715  0.80261163  0.24523875  1
  Ti  Ti158  1  0.31109767  0.50159558  0.35797411  1
  Ti  Ti159  1  0.60069813  0.79835692  0.49049817  1
  Mo  Mo160  1  0.10769709  0.10540469  0.61119845  1
  Mo  Mo161  1  0.59083103  0.20788050  0.73169896  1
  Mo  Mo162  1  0.90004490  0.69971246  0.86091869  1
  Mo  Mo163  1  0.39605045  0.79466438  0.00033689  1
  Mo  Mo164  1  0.19773955  0.60151132  0.01947056  1
  Mo  Mo165  1  0.10046588  0.68975769  0.88082354  1
  Mo  Mo166  1  0.01378530  0.20097537  0.73333553  1
  Mo  Mo167  1  0.80551915  0.59593958  0.25659473  1
  Mo  Mo168  1  0.68829355  0.70363699  0.38102539  1
  Mo  Mo169  1  0.61554366  0.40430360  -0.01113717  1
  Mo  Mo170  1  0.20374996  0.19359255  -0.00269558  1
  Mo  Mo171  1  0.49027490  0.10606947  0.85748872  1
  Mo  Mo172  1  0.39676181  0.39703218  0.25401390  1
  Mo  Mo173  1  0.59718603  0.80665116  0.76244923  1
  Mo  Mo174  1  0.29236223  0.89636408  0.89392487  1
  Mo  Mo175  1  0.69962693  0.09385506  0.61265641  1
  Mo  Mo176  1  0.10407633  0.69724965  0.14721349  1
  Mo  Mo177  1  0.69903049  0.30882171  0.61054164  1
  Mo  Mo178  1  0.40257794  0.58610197  0.49580567  1
  Mo  Mo179  1  0.70711560  0.49396982  0.87095903  1
  Mo  Mo180  1  0.29783759  0.69101950  0.89895608  1
  Mo  Mo181  1  0.68232154  0.49441085  0.38553082  1
  Mo  Mo182  1  0.09353346  0.49541185  0.12750392  1
  Mo  Mo183  1  0.69444638  0.90160436  0.38793636  1
  Mo  Mo184  1  0.60240079  0.40252385  0.26769603  1
  Mo  Mo185  1  0.67990075  0.12804695  0.88326367  1
  Mo  Mo186  1  0.92089699  0.49260759  0.38535855  1
  Mo  Mo187  1  0.20307577  0.79800375  0.48104035  1
  Mo  Mo188  1  0.00228071  0.20269353  0.51785449  1
  Mo  Mo189  1  0.79760389  -0.00127953  0.51365957  1
  Mo  Mo190  1  0.59397051  0.20328475  0.00212363  1
  Mo  Mo191  1  0.00143159  0.80113833  0.26920999  1
  Mo  Mo192  1  0.21414534  0.39468396  0.48433166  1
  Mo  Mo193  1  0.20425297  -0.00428971  0.23348986  1
  Mo  Mo194  1  -0.00098180  0.20392045  0.01205759  1
  Mo  Mo195  1  0.09835521  0.29864236  0.37517458  1
  Mo  Mo196  1  0.50184429  0.90177401  0.86447885  1
  Mo  Mo197  1  0.90420717  0.10609940  0.63047109  1
  Mo  Mo198  1  0.70646831  0.09808237  0.40057172  1
  Mo  Mo199  1  0.59698284  0.59350780  0.74588552  1
