# generated using pymatgen
data_HfZrTaTiMo
_symmetry_space_group_name_H-M   'P 1'
_cell_length_a   15.83509675
_cell_length_b   15.84056895
_cell_length_c   15.40750469
_cell_angle_alpha   90.00058213
_cell_angle_beta   89.95250514
_cell_angle_gamma   89.91041087
_symmetry_Int_Tables_number   1
_chemical_formula_structural   HfZrTaTiMo
_chemical_formula_sum   'Hf40 Zr40 Ta40 Ti40 Mo40'
_cell_volume   3864.76530849
_cell_formula_units_Z   40
loop_
 _symmetry_equiv_pos_site_id
 _symmetry_equiv_pos_as_xyz
  1  'x, y, z'
loop_
 _atom_site_type_symbol
 _atom_site_label
 _atom_site_symmetry_multiplicity
 _atom_site_fract_x
 _atom_site_fract_y
 _atom_site_fract_z
 _atom_site_occupancy
  Hf  Hf0  1  0.89297594  0.50541215  0.09973586  1
  Hf  Hf1  1  -0.02019830  0.41836830  0.25601120  1
  Hf  Hf2  1  0.22236561  0.01166901  0.74445347  1
  Hf  Hf3  1  0.29864533  0.49319019  0.36974007  1
  Hf  Hf4  1  0.50224093  0.29503726  0.37792572  1
  Hf  Hf5  1  0.40200685  0.59984335  0.23920533  1
  Hf  Hf6  1  0.19082593  0.19503006  0.25036789  1
  Hf  Hf7  1  0.50411919  0.91010124  0.63643385  1
  Hf  Hf8  1  0.51562192  0.69371358  0.87629676  1
  Hf  Hf9  1  0.18852877  0.60804790  0.24786880  1
  Hf  Hf10  1  0.08922427  0.30379550  0.12967483  1
  Hf  Hf11  1  0.81122347  0.59024304  0.25878653  1
  Hf  Hf12  1  0.49523284  0.70914300  0.36005677  1
  Hf  Hf13  1  0.30646285  0.30399015  0.36040445  1
  Hf  Hf14  1  0.71061933  0.69234115  0.10705145  1
  Hf  Hf15  1  0.69083345  0.88338605  0.86384087  1
  Hf  Hf16  1  0.19800436  0.60652188  0.00649809  1
  Hf  Hf17  1  0.59370315  0.01192739  0.76380375  1
  Hf  Hf18  1  0.09096818  0.88906913  0.40324693  1
  Hf  Hf19  1  0.29489254  0.49690050  0.63878579  1
  Hf  Hf20  1  0.20314168  0.79749431  0.26477886  1
  Hf  Hf21  1  0.89841506  0.89394450  0.39946380  1
  Hf  Hf22  1  0.20980823  0.78322251  0.50579978  1
  Hf  Hf23  1  0.31711797  0.88596374  0.38751966  1
  Hf  Hf24  1  0.70449215  0.70332530  0.36882969  1
  Hf  Hf25  1  0.41363270  0.37727871  0.74106551  1
  Hf  Hf26  1  0.91317298  0.69899636  0.10612465  1
  Hf  Hf27  1  0.20824666  0.40771809  0.01833569  1
  Hf  Hf28  1  0.08417777  0.08489957  0.11819089  1
  Hf  Hf29  1  0.47565741  0.11400125  0.87853039  1
  Hf  Hf30  1  0.78496944  0.01071774  -0.03052439  1
  Hf  Hf31  1  0.39810690  0.81024665  0.76288357  1
  Hf  Hf32  1  0.39930210  0.58333031  0.00406823  1
  Hf  Hf33  1  0.78577267  -0.00424773  0.52200781  1
  Hf  Hf34  1  0.10449742  0.88702982  0.11233256  1
  Hf  Hf35  1  0.00147303  0.20162189  -0.00828941  1
  Hf  Hf36  1  0.60694017  0.19032439  -0.01454381  1
  Hf  Hf37  1  0.60088619  0.61382966  0.51057167  1
  Hf  Hf38  1  0.91266572  0.09717022  0.85941480  1
  Hf  Hf39  1  0.30779976  0.48418038  0.86027113  1
  Zr  Zr40  1  -0.01531751  0.18887068  0.26210580  1
  Zr  Zr41  1  0.69410533  0.10379597  0.38430461  1
  Zr  Zr42  1  0.90710143  0.90776608  0.10126400  1
  Zr  Zr43  1  0.19208158  -0.00919791  0.26180011  1
  Zr  Zr44  1  0.70331085  0.90290786  0.37135524  1
  Zr  Zr45  1  0.30961012  0.10051624  0.37359952  1
  Zr  Zr46  1  0.60373920  0.39163187  0.52116917  1
  Zr  Zr47  1  0.59858997  0.39537070  0.23628127  1
  Zr  Zr48  1  0.01093401  0.00653432  0.72824960  1
  Zr  Zr49  1  0.59843972  0.80656846  0.23418852  1
  Zr  Zr50  1  -0.01282375  -0.00806210  0.26480039  1
  Zr  Zr51  1  0.69896842  0.90881465  0.10707623  1
  Zr  Zr52  1  0.09914511  0.30577212  0.37341153  1
  Zr  Zr53  1  0.30105527  0.71667318  0.12896583  1
  Zr  Zr54  1  0.88743559  0.30676173  0.39290964  1
  Zr  Zr55  1  0.51383007  0.90989700  0.38810602  1
  Zr  Zr56  1  0.00783006  0.40297688  0.51862193  1
  Zr  Zr57  1  0.81747774  0.80185099  0.24331975  1
  Zr  Zr58  1  0.48943028  0.51156138  0.62438975  1
  Zr  Zr59  1  0.61309717  0.80732191  0.52220276  1
  Zr  Zr60  1  0.39099964  0.79465551  -0.01807279  1
  Zr  Zr61  1  0.69340587  0.32113335  0.87341313  1
  Zr  Zr62  1  0.40533734  -0.02036983  0.24230732  1
  Zr  Zr63  1  0.50045589  0.49967381  0.37997755  1
  Zr  Zr64  1  0.19905746  0.59329921  0.50301394  1
  Zr  Zr65  1  0.50736724  0.09598719  0.11500562  1
  Zr  Zr66  1  0.20004794  0.20762416  0.49841212  1
  Zr  Zr67  1  0.30707032  0.28349526  0.88286243  1
  Zr  Zr68  1  0.09201839  0.50331876  0.37739764  1
  Zr  Zr69  1  0.20254453  0.80891964  0.75170589  1
  Zr  Zr70  1  0.80316851  0.20510206  -0.02054854  1
  Zr  Zr71  1  0.70060085  0.49509339  0.38289255  1
  Zr  Zr72  1  0.10789746  0.49841289  0.86118558  1
  Zr  Zr73  1  0.10843864  0.30392547  0.86755189  1
  Zr  Zr74  1  0.89061813  0.30629596  0.11950508  1
  Zr  Zr75  1  0.79470926  0.20036866  0.25791725  1
  Zr  Zr76  1  0.09473093  0.91858475  0.87435314  1
  Zr  Zr77  1  0.57978580  0.22046077  0.74603853  1
  Zr  Zr78  1  0.29987836  0.09328144  0.12811934  1
  Zr  Zr79  1  0.41108277  0.78577651  0.52025970  1
  Ta  Ta80  1  0.80524088  0.79537400  -0.01962228  1
  Ta  Ta81  1  0.08749536  0.09385458  0.39639548  1
  Ta  Ta82  1  0.70304444  0.10366629  0.12693230  1
  Ta  Ta83  1  0.30995093  0.68517946  0.65045834  1
  Ta  Ta84  1  0.49843066  0.89620166  0.09820621  1
  Ta  Ta85  1  0.01206732  0.79038029  0.25340574  1
  Ta  Ta86  1  0.89705628  0.49586852  0.86797383  1
  Ta  Ta87  1  0.89273724  0.30163252  0.63392823  1
  Ta  Ta88  1  0.20076053  0.19710811  0.01243587  1
  Ta  Ta89  1  0.79967135  0.79095374  0.52351643  1
  Ta  Ta90  1  0.00005287  0.59563808  0.74437968  1
  Ta  Ta91  1  0.38962135  -0.00224947  -0.01088543  1
  Ta  Ta92  1  0.70468684  0.49306975  0.09626784  1
  Ta  Ta93  1  0.70147303  0.68670759  0.87049889  1
  Ta  Ta94  1  0.90048263  0.69516768  0.86284728  1
  Ta  Ta95  1  0.69765012  0.29910506  0.11337544  1
  Ta  Ta96  1  0.00213490  0.79720600  0.74769856  1
  Ta  Ta97  1  -0.00220573  0.60272892  0.51994887  1
  Ta  Ta98  1  0.10458683  0.69518073  0.63564582  1
  Ta  Ta99  1  0.89082405  0.09513885  0.11153710  1
  Ta  Ta100  1  0.89491356  0.50131319  0.63480127  1
  Ta  Ta101  1  0.80150882  0.60211532  0.50882172  1
  Ta  Ta102  1  0.00683121  0.79317414  -0.02508835  1
  Ta  Ta103  1  0.69304002  0.10662502  0.63621359  1
  Ta  Ta104  1  0.50801606  0.10583693  0.37705749  1
  Ta  Ta105  1  0.89931606  0.89689053  0.86184328  1
  Ta  Ta106  1  0.50829441  0.70029080  0.11149099  1
  Ta  Ta107  1  0.38090194  0.18115775  0.72892026  1
  Ta  Ta108  1  0.70386224  0.50938484  0.64030688  1
  Ta  Ta109  1  0.19817743  0.40875590  0.23262134  1
  Ta  Ta110  1  0.60425907  0.59297674  0.22992135  1
  Ta  Ta111  1  0.19945806  0.79879988  -0.02036602  1
  Ta  Ta112  1  0.91266221  0.70244903  0.39493382  1
  Ta  Ta113  1  0.79586534  0.00130702  0.74616086  1
  Ta  Ta114  1  0.30613115  0.29682974  0.13014005  1
  Ta  Ta115  1  0.70349176  0.70001400  0.65796623  1
  Ta  Ta116  1  0.00682398  0.20486190  0.73461754  1
  Ta  Ta117  1  0.19948263  0.19905127  0.73325464  1
  Ta  Ta118  1  -0.00327889  0.61286297  0.25583388  1
  Ta  Ta119  1  0.89684990  0.89322159  0.63556778  1
  Ti  Ti120  1  0.29439825  0.29969468  0.61906543  1
  Ti  Ti121  1  0.79154233  0.40293414  0.25056937  1
  Ti  Ti122  1  0.10163185  0.89551667  0.61484615  1
  Ti  Ti123  1  0.29649908  0.68197263  0.85813652  1
  Ti  Ti124  1  0.69127964  0.29725810  0.37545243  1
  Ti  Ti125  1  0.48992130  0.31127251  0.90148638  1
  Ti  Ti126  1  0.10744937  0.10404499  0.61011061  1
  Ti  Ti127  1  0.20172056  0.00055567  -0.00577845  1
  Ti  Ti128  1  0.79002168  0.20728306  0.51344895  1
  Ti  Ti129  1  0.59883987  0.40725482  0.73840779  1
  Ti  Ti130  1  0.50182433  0.29807356  0.10940255  1
  Ti  Ti131  1  0.79719812  0.40426800  0.75023519  1
  Ti  Ti132  1  -0.00011815  0.40225031  -0.00891338  1
  Ti  Ti133  1  0.40258332  0.20119714  0.50862123  1
  Ti  Ti134  1  0.79628874  0.40384544  0.51643731  1
  Ti  Ti135  1  0.89187127  0.10757623  0.62680959  1
  Ti  Ti136  1  0.00536454  0.60141221  -0.01944377  1
  Ti  Ti137  1  -0.00929097  0.00402911  0.51570600  1
  Ti  Ti138  1  0.51550961  0.49271232  0.88407104  1
  Ti  Ti139  1  0.59974158  0.20160283  0.51922387  1
  Ti  Ti140  1  0.79567720  0.20378770  0.75209701  1
  Ti  Ti141  1  0.30985766  0.90590426  0.61947198  1
  Ti  Ti142  1  0.08538147  0.51239741  0.12391736  1
  Ti  Ti143  1  0.49379514  0.09919749  0.62408440  1
  Ti  Ti144  1  0.10996124  0.10859467  0.87355135  1
  Ti  Ti145  1  0.50284534  0.90254210  0.88366953  1
  Ti  Ti146  1  0.39200546  0.39675960  0.50456363  1
  Ti  Ti147  1  0.60380686  0.00883745  0.24380717  1
  Ti  Ti148  1  0.00613410  0.39901691  0.73677079  1
  Ti  Ti149  1  0.50341286  0.69507032  0.65792442  1
  Ti  Ti150  1  0.40734613  0.00724802  0.50136130  1
  Ti  Ti151  1  0.38968400  0.60921013  0.48951599  1
  Ti  Ti152  1  0.40373010  0.40635017  0.22740948  1
  Ti  Ti153  1  0.10276304  0.69579642  0.85660093  1
  Ti  Ti154  1  0.41692548  0.20018319  0.24022841  1
  Ti  Ti155  1  0.90636533  0.30646884  0.85859719  1
  Ti  Ti156  1  -0.00861483  0.20156827  0.51041430  1
  Ti  Ti157  1  0.89710083  0.69715241  0.64053599  1
  Ti  Ti158  1  0.80542583  0.00786309  0.25638034  1
  Ti  Ti159  1  0.20754776  -0.00019358  0.50176585  1
  Mo  Mo160  1  0.59852123  0.20021112  0.24150708  1
  Mo  Mo161  1  0.69574876  0.50340814  0.87266730  1
  Mo  Mo162  1  0.59685265  0.39865622  0.00891880  1
  Mo  Mo163  1  0.09416109  0.70103476  0.11195045  1
  Mo  Mo164  1  -0.00435413  0.00085702  -0.01239626  1
  Mo  Mo165  1  0.89897780  0.09947980  0.41217705  1
  Mo  Mo166  1  0.59716544  0.79988090  0.74827654  1
  Mo  Mo167  1  0.29820891  0.50077986  0.13625861  1
  Mo  Mo168  1  0.70514889  0.30369902  0.64064667  1
  Mo  Mo169  1  0.60056323  0.59069713  0.75195017  1
  Mo  Mo170  1  0.28869285  0.10482609  0.88587023  1
  Mo  Mo171  1  0.40168280  0.39841301  0.01501795  1
  Mo  Mo172  1  -0.00184485  0.79395489  0.53239611  1
  Mo  Mo173  1  0.70021690  0.90055952  0.64846893  1
  Mo  Mo174  1  0.40469551  0.80415894  0.23401257  1
  Mo  Mo175  1  0.80302082  0.59879012  -0.02527998  1
  Mo  Mo176  1  0.19877440  0.59729360  0.75022140  1
  Mo  Mo177  1  0.30303145  0.09397630  0.60286439  1
  Mo  Mo178  1  0.29742180  0.90616180  0.88117221  1
  Mo  Mo179  1  0.59521353  0.00006503  -0.01891486  1
  Mo  Mo180  1  0.20804410  0.39819647  0.51145424  1
  Mo  Mo181  1  0.09974361  0.49866637  0.63841147  1
  Mo  Mo182  1  0.30400106  0.69565176  0.36683434  1
  Mo  Mo183  1  0.80360942  0.39990810  -0.01971544  1
  Mo  Mo184  1  0.60337535  0.79818267  0.00199977  1
  Mo  Mo185  1  0.60238155  0.59540463  0.00708126  1
  Mo  Mo186  1  0.59600498  0.01550878  0.51872748  1
  Mo  Mo187  1  0.10049375  0.29847905  0.62811962  1
  Mo  Mo188  1  0.89561103  0.50969747  0.40123887  1
  Mo  Mo189  1  0.39704044  0.00162623  0.76074715  1
  Mo  Mo190  1  0.49049646  0.29748842  0.61071254  1
  Mo  Mo191  1  0.29538800  0.89977029  0.10404298  1
  Mo  Mo192  1  0.80359931  0.59354083  0.75820047  1
  Mo  Mo193  1  0.20159827  0.38688300  0.73479323  1
  Mo  Mo194  1  0.09218049  0.70093769  0.39303814  1
  Mo  Mo195  1  0.40555868  0.59142890  0.77198603  1
  Mo  Mo196  1  0.39637495  0.20029352  0.01836784  1
  Mo  Mo197  1  0.80407861  0.79685080  0.75272818  1
  Mo  Mo198  1  0.50483771  0.49958401  0.11511955  1
  Mo  Mo199  1  0.70005849  0.10850802  0.84936336  1
