# generated using pymatgen
data_HfZrTaTiMo
_symmetry_space_group_name_H-M   'P 1'
_cell_length_a   15.82811324
_cell_length_b   15.84935917
_cell_length_c   15.40157584
_cell_angle_alpha   90.00613960
_cell_angle_beta   89.96280472
_cell_angle_gamma   90.03127571
_symmetry_Int_Tables_number   1
_chemical_formula_structural   HfZrTaTiMo
_chemical_formula_sum   'Hf40 Zr40 Ta40 Ti40 Mo40'
_cell_volume   3863.72186857
_cell_formula_units_Z   40
loop_
 _symmetry_equiv_pos_site_id
 _symmetry_equiv_pos_as_xyz
  1  'x, y, z'
loop_
 _atom_site_type_symbol
 _atom_site_label
 _atom_site_symmetry_multiplicity
 _atom_site_fract_x
 _atom_site_fract_y
 _atom_site_fract_z
 _atom_site_occupancy
  Hf  Hf0  1  0.10747747  0.09511374  0.87781863  1
  Hf  Hf1  1  0.30970525  0.49028740  0.87615249  1
  Hf  Hf2  1  -0.00260603  0.80257763  0.26607071  1
  Hf  Hf3  1  0.79886699  0.60913629  0.48849010  1
  Hf  Hf4  1  0.29936705  0.90384004  0.86598011  1
  Hf  Hf5  1  0.69489372  0.10084677  0.87857815  1
  Hf  Hf6  1  0.69659918  0.69157737  0.62818732  1
  Hf  Hf7  1  0.90136427  0.49386263  0.37783654  1
  Hf  Hf8  1  0.59267589  0.20731329  0.74092897  1
  Hf  Hf9  1  0.18587421  0.17862709  0.24607826  1
  Hf  Hf10  1  -0.00078415  0.58182411  0.73704950  1
  Hf  Hf11  1  0.71088077  0.90040076  0.11197520  1
  Hf  Hf12  1  0.90272353  0.49944840  0.12131936  1
  Hf  Hf13  1  0.40620535  -0.00516714  0.52588529  1
  Hf  Hf14  1  0.89152336  0.71143980  0.12865882  1
  Hf  Hf15  1  0.30543753  0.29195358  0.89420754  1
  Hf  Hf16  1  0.19723531  0.40160059  0.25009466  1
  Hf  Hf17  1  0.20780669  0.20160817  0.73985616  1
  Hf  Hf18  1  0.21157170  -0.00282810  0.52120556  1
  Hf  Hf19  1  0.29620549  0.52030816  0.37927053  1
  Hf  Hf20  1  0.49073934  0.10213530  0.87126509  1
  Hf  Hf21  1  0.80078713  0.20503283  0.75202413  1
  Hf  Hf22  1  0.81119817  0.00043571  0.76143563  1
  Hf  Hf23  1  0.88526509  0.90454006  0.37242741  1
  Hf  Hf24  1  0.90516004  0.69975930  0.86628454  1
  Hf  Hf25  1  0.10461973  0.70525361  0.85734076  1
  Hf  Hf26  1  0.80215488  0.80717128  0.75216111  1
  Hf  Hf27  1  0.90350169  0.91247696  0.12693806  1
  Hf  Hf28  1  0.49535874  0.28872640  0.37052504  1
  Hf  Hf29  1  0.60831851  0.58107296  0.47773421  1
  Hf  Hf30  1  0.00970451  0.59795245  0.49606160  1
  Hf  Hf31  1  0.50187832  0.89982184  0.38491218  1
  Hf  Hf32  1  0.00457015  0.80054834  0.49273818  1
  Hf  Hf33  1  0.09120381  0.48779677  0.88490830  1
  Hf  Hf34  1  0.49426290  0.89868290  0.86830256  1
  Hf  Hf35  1  0.90275728  0.31260989  0.88981320  1
  Hf  Hf36  1  0.68907542  0.09406399  0.36728054  1
  Hf  Hf37  1  0.20201429  0.40511540  0.02120465  1
  Hf  Hf38  1  0.48996008  0.70800048  0.39165392  1
  Hf  Hf39  1  0.89571752  0.49346410  0.88847105  1
  Zr  Zr40  1  0.20549995  0.58994663  0.74251004  1
  Zr  Zr41  1  0.70030984  0.70970592  0.11714494  1
  Zr  Zr42  1  0.76786737  0.41008951  0.48968645  1
  Zr  Zr43  1  0.19778004  0.39239286  0.74285932  1
  Zr  Zr44  1  0.69498967  0.30958422  0.88765667  1
  Zr  Zr45  1  0.39473840  -0.01224966  0.23394518  1
  Zr  Zr46  1  0.08751107  0.28930346  0.12141307  1
  Zr  Zr47  1  0.90012993  0.70366252  0.62769111  1
  Zr  Zr48  1  0.10067699  0.70855421  0.13004475  1
  Zr  Zr49  1  0.00176355  0.80852366  -0.00534273  1
  Zr  Zr50  1  0.70227390  0.50372169  0.12576178  1
  Zr  Zr51  1  0.00095757  0.20310470  0.75723463  1
  Zr  Zr52  1  -0.00503678  0.18864204  -0.00804002  1
  Zr  Zr53  1  0.90223138  0.30119520  0.60286544  1
  Zr  Zr54  1  0.49384738  0.09396261  0.36907206  1
  Zr  Zr55  1  0.12847930  0.69746250  0.37870455  1
  Zr  Zr56  1  0.89946759  0.29374514  0.38008847  1
  Zr  Zr57  1  0.49823258  0.69574565  0.63158999  1
  Zr  Zr58  1  0.12876594  0.90878783  0.36870571  1
  Zr  Zr59  1  0.49270289  0.29719030  0.89272555  1
  Zr  Zr60  1  0.01185548  0.59722366  0.25921758  1
  Zr  Zr61  1  0.39970633  0.40044226  0.48463594  1
  Zr  Zr62  1  0.20312228  0.80442653  -0.00620704  1
  Zr  Zr63  1  0.89654996  0.09810352  0.60898625  1
  Zr  Zr64  1  0.10729129  0.71189677  0.63374874  1
  Zr  Zr65  1  0.58651631  0.60398189  0.25556494  1
  Zr  Zr66  1  0.22497514  0.79780339  0.24321837  1
  Zr  Zr67  1  0.79282640  0.40465601  0.73761202  1
  Zr  Zr68  1  0.39363498  0.40826724  0.25260867  1
  Zr  Zr69  1  0.79345105  0.20045002  0.01137533  1
  Zr  Zr70  1  0.09922962  0.29968632  0.59909801  1
  Zr  Zr71  1  0.79801932  0.61399327  0.26796470  1
  Zr  Zr72  1  0.00132013  -0.00440871  0.49552463  1
  Zr  Zr73  1  0.51669181  0.49249015  0.62174902  1
  Zr  Zr74  1  0.59530176  0.60121244  -0.00544435  1
  Zr  Zr75  1  0.20383435  0.60255557  0.00163665  1
  Zr  Zr76  1  0.59285190  0.00377865  0.00932123  1
  Zr  Zr77  1  0.59666543  0.80861952  0.24479876  1
  Zr  Zr78  1  0.78204393  0.19788811  0.49343527  1
  Zr  Zr79  1  0.00679251  0.39563330  0.25253462  1
  Ta  Ta80  1  -0.00055667  0.00295655  0.74344332  1
  Ta  Ta81  1  0.69914967  0.70322296  0.87240296  1
  Ta  Ta82  1  0.80220740  0.60799679  -0.00950944  1
  Ta  Ta83  1  0.01428903  0.01914934  0.26252168  1
  Ta  Ta84  1  0.30742906  0.49211101  0.62170067  1
  Ta  Ta85  1  0.31219612  0.70434893  0.86086979  1
  Ta  Ta86  1  0.59697514  0.39649427  0.02184707  1
  Ta  Ta87  1  0.21031831  0.59193315  0.23054694  1
  Ta  Ta88  1  0.59405547  0.40100182  0.25087679  1
  Ta  Ta89  1  0.90726477  0.09926336  0.13587355  1
  Ta  Ta90  1  0.71027614  0.90673144  0.62525787  1
  Ta  Ta91  1  0.19946059  0.00544194  0.73653133  1
  Ta  Ta92  1  0.60639094  0.59071066  0.76607150  1
  Ta  Ta93  1  0.79496320  0.59187935  0.75454562  1
  Ta  Ta94  1  0.29280428  0.08665476  0.37675908  1
  Ta  Ta95  1  0.59973656  0.00283506  0.51969762  1
  Ta  Ta96  1  0.69887536  0.90291881  0.87901728  1
  Ta  Ta97  1  0.89907240  0.49480164  0.60702856  1
  Ta  Ta98  1  0.39624331  0.00683028  0.73423902  1
  Ta  Ta99  1  0.40019668  0.38843222  0.74151372  1
  Ta  Ta100  1  0.79287370  0.39161703  0.24522193  1
  Ta  Ta101  1  0.79825183  0.19874399  0.24423158  1
  Ta  Ta102  1  0.60390488  0.80258882  0.74936400  1
  Ta  Ta103  1  0.09813353  0.10733473  0.61179075  1
  Ta  Ta104  1  0.58923682  0.19550930  0.50862842  1
  Ta  Ta105  1  0.49354452  0.29871110  0.13098981  1
  Ta  Ta106  1  0.20698807  0.59971662  0.52143884  1
  Ta  Ta107  1  0.69897443  0.09972669  0.63037693  1
  Ta  Ta108  1  0.39392714  0.20224671  0.73336987  1
  Ta  Ta109  1  0.10249628  0.91356601  0.13571151  1
  Ta  Ta110  1  0.30148731  0.29487646  0.12530276  1
  Ta  Ta111  1  0.59967102  0.80925471  0.51823503  1
  Ta  Ta112  1  0.38817554  0.18967933  0.23979191  1
  Ta  Ta113  1  0.39601903  -0.00140454  0.01125274  1
  Ta  Ta114  1  0.49504919  0.30181326  0.61141641  1
  Ta  Ta115  1  0.10067235  0.90757282  0.86165573  1
  Ta  Ta116  1  0.00287228  0.60297913  0.00426926  1
  Ta  Ta117  1  0.70709317  0.09451050  0.12772943  1
  Ta  Ta118  1  0.49968695  0.48941585  0.88064648  1
  Ta  Ta119  1  0.49624962  0.69845674  0.86538639  1
  Ti  Ti120  1  0.00098367  0.39782880  0.73634703  1
  Ti  Ti121  1  0.48872753  0.50341486  0.12159189  1
  Ti  Ti122  1  0.68143384  0.31335702  0.61740855  1
  Ti  Ti123  1  -0.00929975  0.82208578  0.74844693  1
  Ti  Ti124  1  0.70209153  0.49476777  0.89263300  1
  Ti  Ti125  1  0.20391858  0.18942932  0.01349332  1
  Ti  Ti126  1  0.39649365  0.61033666  0.24787637  1
  Ti  Ti127  1  0.20132664  0.40227642  0.49116186  1
  Ti  Ti128  1  0.59936407  -0.00132756  0.74071668  1
  Ti  Ti129  1  0.10305247  0.89804345  0.63319912  1
  Ti  Ti130  1  0.09942793  0.28847011  0.38278880  1
  Ti  Ti131  1  0.40645474  0.58787046  0.74960490  1
  Ti  Ti132  1  0.59384549  0.19840587  0.02178811  1
  Ti  Ti133  1  0.31425220  0.69858687  0.11028468  1
  Ti  Ti134  1  0.59648842  0.19514370  0.23184317  1
  Ti  Ti135  1  0.19854374  0.00170436  0.01078721  1
  Ti  Ti136  1  0.29326900  0.28240098  0.37567885  1
  Ti  Ti137  1  0.39974242  0.18450682  0.02438204  1
  Ti  Ti138  1  0.40096811  0.59935663  0.50939318  1
  Ti  Ti139  1  0.68651937  0.29437363  0.36224207  1
  Ti  Ti140  1  0.59716938  0.40319829  0.75738419  1
  Ti  Ti141  1  0.40006247  0.59731052  -0.00614835  1
  Ti  Ti142  1  0.30272472  0.09840016  0.87883550  1
  Ti  Ti143  1  0.30759912  0.71172627  0.39702874  1
  Ti  Ti144  1  0.80530287  0.80774388  -0.02005754  1
  Ti  Ti145  1  0.79508511  0.00102749  0.25166734  1
  Ti  Ti146  1  0.89695112  0.10058668  0.37298046  1
  Ti  Ti147  1  0.38861257  0.18919398  0.51308564  1
  Ti  Ti148  1  0.89536759  0.29869551  0.12643697  1
  Ti  Ti149  1  0.59445556  0.80205555  -0.00994363  1
  Ti  Ti150  1  0.59353999  -0.00423472  0.22957735  1
  Ti  Ti151  1  0.80148317  0.80928083  0.50632842  1
  Ti  Ti152  1  0.31377537  0.89130984  0.38705982  1
  Ti  Ti153  1  0.40800685  0.79643446  0.24027122  1
  Ti  Ti154  1  0.49269868  0.70765328  0.10742759  1
  Ti  Ti155  1  0.30518228  0.70877168  0.63637621  1
  Ti  Ti156  1  0.70069470  0.72663852  0.37812476  1
  Ti  Ti157  1  0.10462984  0.30143507  0.88921939  1
  Ti  Ti158  1  0.30376440  0.89218726  0.11194602  1
  Ti  Ti159  1  0.69506728  0.90781875  0.38520005  1
  Mo  Mo160  1  0.59443340  0.38980935  0.47525026  1
  Mo  Mo161  1  0.00060440  0.39974734  0.01618070  1
  Mo  Mo162  1  0.30806873  0.50599283  0.12526170  1
  Mo  Mo163  1  0.90609830  0.90885002  0.88627314  1
  Mo  Mo164  1  0.90095013  0.90264537  0.61397244  1
  Mo  Mo165  1  0.10185026  0.49314784  0.60902474  1
  Mo  Mo166  1  0.00215276  0.19445732  0.47981569  1
  Mo  Mo167  1  0.09171541  0.08870206  0.11270752  1
  Mo  Mo168  1  0.20132961  0.80575859  0.75302538  1
  Mo  Mo169  1  0.79515649  0.40271823  0.02281753  1
  Mo  Mo170  1  0.29298676  0.09364512  0.11886126  1
  Mo  Mo171  1  0.40324874  0.79919851  0.74565115  1
  Mo  Mo172  1  0.69750963  0.49239965  0.34828225  1
  Mo  Mo173  1  0.50219317  0.10414365  0.63446655  1
  Mo  Mo174  1  0.69848108  0.50142432  0.63179147  1
  Mo  Mo175  1  0.40289335  0.40169584  0.01924349  1
  Mo  Mo176  1  0.09887458  0.50415698  0.11501505  1
  Mo  Mo177  1  0.20701163  0.19759293  0.49160401  1
  Mo  Mo178  1  0.29994519  0.89118057  0.64492525  1
  Mo  Mo179  1  0.11184948  0.49607955  0.38933550  1
  Mo  Mo180  1  0.90105770  0.10005029  0.87375607  1
  Mo  Mo181  1  0.10832072  0.10271749  0.39184364  1
  Mo  Mo182  1  0.39976662  0.80243577  0.52346258  1
  Mo  Mo183  1  0.40318592  0.79484270  -0.00729332  1
  Mo  Mo184  1  0.29708990  0.10298149  0.62485807  1
  Mo  Mo185  1  0.20772879  -0.00158498  0.23976601  1
  Mo  Mo186  1  0.50806985  0.89936628  0.64264557  1
  Mo  Mo187  1  0.49427798  0.50623877  0.36555185  1
  Mo  Mo188  1  0.00503576  -0.00196560  -0.00330587  1
  Mo  Mo189  1  0.81074008  0.00434509  -0.01292696  1
  Mo  Mo190  1  0.89224938  0.70886667  0.38192069  1
  Mo  Mo191  1  0.49851471  0.09872797  0.13329748  1
  Mo  Mo192  1  0.30387745  0.30265509  0.60708190  1
  Mo  Mo193  1  0.79435319  0.81317732  0.26030317  1
  Mo  Mo194  1  -0.00582451  0.19214631  0.26264718  1
  Mo  Mo195  1  0.69232410  0.29597048  0.13759688  1
  Mo  Mo196  1  0.78765404  -0.00158581  0.49508888  1
  Mo  Mo197  1  0.21454126  0.80304400  0.51566006  1
  Mo  Mo198  1  0.00939851  0.40323988  0.48770826  1
  Mo  Mo199  1  0.49671365  0.88988782  0.10749785  1
