# generated using pymatgen
data_HfZrTaTiMo
_symmetry_space_group_name_H-M   'P 1'
_cell_length_a   15.83879318
_cell_length_b   15.82200290
_cell_length_c   15.41537908
_cell_angle_alpha   89.93030932
_cell_angle_beta   89.99537680
_cell_angle_gamma   89.99902047
_symmetry_Int_Tables_number   1
_chemical_formula_structural   HfZrTaTiMo
_chemical_formula_sum   'Hf40 Zr40 Ta40 Ti40 Mo40'
_cell_volume   3863.11319525
_cell_formula_units_Z   40
loop_
 _symmetry_equiv_pos_site_id
 _symmetry_equiv_pos_as_xyz
  1  'x, y, z'
loop_
 _atom_site_type_symbol
 _atom_site_label
 _atom_site_symmetry_multiplicity
 _atom_site_fract_x
 _atom_site_fract_y
 _atom_site_fract_z
 _atom_site_occupancy
  Hf  Hf0  1  0.01255047  0.59879624  0.75690018  1
  Hf  Hf1  1  0.90124476  0.09894283  0.62186424  1
  Hf  Hf2  1  0.08616647  0.30391471  0.61562099  1
  Hf  Hf3  1  0.09871879  0.89479227  0.63975255  1
  Hf  Hf4  1  0.69154602  0.69010825  0.12842777  1
  Hf  Hf5  1  -0.00457016  0.19992041  0.75462504  1
  Hf  Hf6  1  0.59831826  0.39806854  0.50538432  1
  Hf  Hf7  1  0.20350597  0.00713779  0.24762523  1
  Hf  Hf8  1  0.40320516  0.40604769  -0.00996169  1
  Hf  Hf9  1  0.60349999  0.82602297  -0.00489639  1
  Hf  Hf10  1  0.78795895  -0.01324080  0.00697884  1
  Hf  Hf11  1  0.80779644  0.78995362  0.01016646  1
  Hf  Hf12  1  0.09184760  0.30372000  0.37375218  1
  Hf  Hf13  1  0.19470953  0.21026562  -0.00318010  1
  Hf  Hf14  1  0.38863557  0.19277759  0.50045215  1
  Hf  Hf15  1  0.59535419  0.19531463  0.49390224  1
  Hf  Hf16  1  0.20942526  0.59330903  0.24047378  1
  Hf  Hf17  1  0.90780968  0.50486283  0.14622411  1
  Hf  Hf18  1  0.19847405  0.19803348  0.75479597  1
  Hf  Hf19  1  0.69806832  0.49701408  0.39156860  1
  Hf  Hf20  1  0.20785275  0.80239864  0.23211645  1
  Hf  Hf21  1  0.91435601  0.30347732  0.13258103  1
  Hf  Hf22  1  0.29866993  0.10004918  0.11326118  1
  Hf  Hf23  1  0.70953224  0.10705475  0.36871992  1
  Hf  Hf24  1  0.81621838  -0.00341998  0.48320078  1
  Hf  Hf25  1  0.19560620  0.81011592  0.50118270  1
  Hf  Hf26  1  0.79664159  0.19881808  0.01824571  1
  Hf  Hf27  1  0.09893493  0.50966627  0.61365710  1
  Hf  Hf28  1  -0.00284383  0.60385285  0.48756912  1
  Hf  Hf29  1  0.68288511  0.09586594  0.13123468  1
  Hf  Hf30  1  0.70218968  0.09651570  0.61705369  1
  Hf  Hf31  1  0.59509072  -0.00548612  0.48173046  1
  Hf  Hf32  1  -0.00605407  0.59997529  -0.00976771  1
  Hf  Hf33  1  0.79118332  0.40711304  0.01393589  1
  Hf  Hf34  1  0.51780547  0.31544696  0.13238770  1
  Hf  Hf35  1  0.30386025  0.90187199  0.36514608  1
  Hf  Hf36  1  0.39313058  0.20335636  0.24153925  1
  Hf  Hf37  1  0.39728101  0.39459715  0.74963947  1
  Hf  Hf38  1  0.60184083  0.19999880  0.75430513  1
  Hf  Hf39  1  0.09891723  0.10645651  0.37270109  1
  Zr  Zr40  1  0.09303654  0.10725939  0.11647730  1
  Zr  Zr41  1  0.80022654  -0.00131033  0.76080567  1
  Zr  Zr42  1  0.00620559  0.79221752  0.77419794  1
  Zr  Zr43  1  0.79232655  0.59943302  0.26196632  1
  Zr  Zr44  1  0.70507427  0.88548842  0.36227316  1
  Zr  Zr45  1  0.81103063  0.80251706  0.74817135  1
  Zr  Zr46  1  0.81802376  0.79618942  0.50079463  1
  Zr  Zr47  1  0.78659255  0.37660277  0.26396349  1
  Zr  Zr48  1  -0.00114468  -0.00653342  0.76344940  1
  Zr  Zr49  1  0.68005557  0.48326757  0.14506968  1
  Zr  Zr50  1  0.49748543  0.69979571  0.87820026  1
  Zr  Zr51  1  0.29454586  0.50986483  0.62206527  1
  Zr  Zr52  1  0.69859968  0.49996021  0.84889710  1
  Zr  Zr53  1  0.49557626  0.08981859  0.64207970  1
  Zr  Zr54  1  0.00595288  -0.01317100  0.49060525  1
  Zr  Zr55  1  0.50365038  0.50491169  0.85570575  1
  Zr  Zr56  1  0.48874102  0.90473496  0.86343890  1
  Zr  Zr57  1  0.09837946  0.71260920  0.35788321  1
  Zr  Zr58  1  0.70636111  0.69023443  0.87993788  1
  Zr  Zr59  1  0.49691989  0.51330834  0.62260473  1
  Zr  Zr60  1  0.38976867  0.41468140  0.25565146  1
  Zr  Zr61  1  0.08598520  0.90863084  0.12126481  1
  Zr  Zr62  1  0.49340249  0.50868119  0.12547553  1
  Zr  Zr63  1  0.61045238  0.79034178  0.75051649  1
  Zr  Zr64  1  0.08482473  0.69054190  0.13157333  1
  Zr  Zr65  1  0.50250848  0.90155466  0.63281855  1
  Zr  Zr66  1  0.69696828  0.30502643  0.87518369  1
  Zr  Zr67  1  0.29173023  0.50504131  0.39333546  1
  Zr  Zr68  1  0.89392348  0.30114342  0.87764304  1
  Zr  Zr69  1  0.20645468  0.00533143  0.49712172  1
  Zr  Zr70  1  0.39474889  0.00669005  0.49597248  1
  Zr  Zr71  1  0.39513805  0.20083554  0.75366040  1
  Zr  Zr72  1  0.88924677  0.50216676  0.86757549  1
  Zr  Zr73  1  0.50372594  0.70531043  0.10928902  1
  Zr  Zr74  1  0.49654767  0.30748379  0.37275592  1
  Zr  Zr75  1  0.40920275  0.20251339  0.00510397  1
  Zr  Zr76  1  0.81714880  -0.00203317  0.24258290  1
  Zr  Zr77  1  0.39884407  0.61346640  0.25857967  1
  Zr  Zr78  1  0.70225027  0.89569266  0.61286300  1
  Zr  Zr79  1  0.19176220  0.40668748  0.75385636  1
  Ta  Ta80  1  0.30750601  0.09132605  0.88510330  1
  Ta  Ta81  1  0.39406160  0.39860493  0.50327221  1
  Ta  Ta82  1  0.20251338  -0.00761238  -0.00788773  1
  Ta  Ta83  1  0.28825314  0.29669977  0.37994161  1
  Ta  Ta84  1  0.70915472  0.29220936  0.61663373  1
  Ta  Ta85  1  0.81508584  0.39000849  0.50428627  1
  Ta  Ta86  1  0.09765110  0.09701094  0.88582424  1
  Ta  Ta87  1  0.50449439  0.70278321  0.61086286  1
  Ta  Ta88  1  0.40330535  0.80658600  0.23222537  1
  Ta  Ta89  1  0.70546556  0.50126797  0.61850302  1
  Ta  Ta90  1  0.10295473  0.09797283  0.62775334  1
  Ta  Ta91  1  0.20268401  -0.00372170  0.76906138  1
  Ta  Ta92  1  0.91947666  0.69971791  0.62511269  1
  Ta  Ta93  1  0.80404251  0.60851513  0.72542481  1
  Ta  Ta94  1  0.19348465  0.40763940  -0.00118934  1
  Ta  Ta95  1  0.41739348  -0.00796584  0.01937895  1
  Ta  Ta96  1  0.00746583  0.40268810  -0.00264486  1
  Ta  Ta97  1  0.49325035  0.09974932  0.35460680  1
  Ta  Ta98  1  0.49861120  0.70624398  0.39433513  1
  Ta  Ta99  1  0.19796327  0.59309356  0.00956006  1
  Ta  Ta100  1  0.61334718  0.21785469  0.25635406  1
  Ta  Ta101  1  -0.00175505  0.79532624  -0.00407384  1
  Ta  Ta102  1  0.90277741  0.70069150  0.35746146  1
  Ta  Ta103  1  0.60610721  0.58008068  -0.00352961  1
  Ta  Ta104  1  0.50079923  0.09652355  0.87542557  1
  Ta  Ta105  1  0.39131617  0.79745926  0.73792027  1
  Ta  Ta106  1  0.20006616  0.79862674  0.00171031  1
  Ta  Ta107  1  0.29827626  0.30482449  0.88305542  1
  Ta  Ta108  1  0.29349059  0.31454699  0.11682289  1
  Ta  Ta109  1  0.09424969  0.48711781  0.13814021  1
  Ta  Ta110  1  0.89811424  0.10060122  0.89204177  1
  Ta  Ta111  1  0.60030664  0.39266471  0.72814954  1
  Ta  Ta112  1  0.20633066  0.79225766  0.75855308  1
  Ta  Ta113  1  0.19937607  0.19656748  0.50587043  1
  Ta  Ta114  1  0.29570028  0.70208933  0.61829062  1
  Ta  Ta115  1  0.49477910  0.89312445  0.36381574  1
  Ta  Ta116  1  -0.00425657  0.40221874  0.75029572  1
  Ta  Ta117  1  0.59607266  0.20272235  -0.00014246  1
  Ta  Ta118  1  0.39762011  0.80848937  0.51105164  1
  Ta  Ta119  1  0.29021190  0.51368121  0.87185803  1
  Ti  Ti120  1  0.69808400  0.09654389  0.88767226  1
  Ti  Ti121  1  0.58725547  0.59307441  0.27564460  1
  Ti  Ti122  1  0.61296687  -0.00535839  0.76639271  1
  Ti  Ti123  1  0.30466601  0.70510811  0.88481256  1
  Ti  Ti124  1  0.19809564  0.20905549  0.24114365  1
  Ti  Ti125  1  0.90659981  0.48855009  0.37261039  1
  Ti  Ti126  1  0.29956089  0.91165843  0.63869561  1
  Ti  Ti127  1  0.30678109  0.71029595  0.38374710  1
  Ti  Ti128  1  0.00047410  0.20809331  -0.00278211  1
  Ti  Ti129  1  0.80243678  0.59762338  0.01243023  1
  Ti  Ti130  1  0.89884716  0.28694823  0.37502060  1
  Ti  Ti131  1  0.91430115  0.08172390  0.11017981  1
  Ti  Ti132  1  0.80760134  0.79542503  0.23379441  1
  Ti  Ti133  1  0.69541757  0.69888466  0.39015732  1
  Ti  Ti134  1  0.30589523  0.70070486  0.10758118  1
  Ti  Ti135  1  0.19487721  0.39663039  0.49975003  1
  Ti  Ti136  1  0.49613281  0.29545681  0.61965285  1
  Ti  Ti137  1  -0.00645156  0.19006093  0.24887526  1
  Ti  Ti138  1  0.29232585  0.29901302  0.61990741  1
  Ti  Ti139  1  0.30506648  0.89302290  0.88614585  1
  Ti  Ti140  1  0.11720027  0.69054495  0.88463206  1
  Ti  Ti141  1  0.59345959  0.78914811  0.25525948  1
  Ti  Ti142  1  0.00569845  0.80011723  0.49978561  1
  Ti  Ti143  1  0.92157107  0.88901851  0.35153072  1
  Ti  Ti144  1  0.80369759  0.39403892  0.72760232  1
  Ti  Ti145  1  -0.01108667  0.20078618  0.50090325  1
  Ti  Ti146  1  0.09574303  0.30724228  0.87278909  1
  Ti  Ti147  1  0.40231403  0.00054109  0.23357441  1
  Ti  Ti148  1  0.90077921  0.89899944  0.89357221  1
  Ti  Ti149  1  0.39554488  0.59834097  -0.00504164  1
  Ti  Ti150  1  0.39194632  0.61473073  0.74798289  1
  Ti  Ti151  1  0.19882754  0.39663967  0.24447397  1
  Ti  Ti152  1  0.19197491  0.61684364  0.49376900  1
  Ti  Ti153  1  0.09514343  0.49657865  0.36736319  1
  Ti  Ti154  1  0.79972414  0.19670825  0.75241683  1
  Ti  Ti155  1  0.80793926  0.60037353  0.50388837  1
  Ti  Ti156  1  0.80517359  0.19386293  0.23827807  1
  Ti  Ti157  1  0.69059715  0.89564030  0.13984103  1
  Ti  Ti158  1  0.90711441  0.49449939  0.61901821  1
  Ti  Ti159  1  0.59374083  -0.00166032  0.25564148  1
  Mo  Mo160  1  0.39690969  0.80486165  0.01298712  1
  Mo  Mo161  1  0.28609775  0.09786221  0.64334431  1
  Mo  Mo162  1  0.70209771  0.90261814  0.87724941  1
  Mo  Mo163  1  0.59623548  0.01111936  -0.00416996  1
  Mo  Mo164  1  0.90680760  0.10727177  0.37239055  1
  Mo  Mo165  1  0.69842290  0.29405895  0.11974506  1
  Mo  Mo166  1  0.00234744  0.00264627  0.26013560  1
  Mo  Mo167  1  -0.00110303  0.39494652  0.26665801  1
  Mo  Mo168  1  0.59850246  0.80136437  0.48717180  1
  Mo  Mo169  1  -0.00784399  0.80114271  0.22988738  1
  Mo  Mo170  1  0.70590600  0.69285958  0.60592726  1
  Mo  Mo171  1  0.89803514  0.29832353  0.62935247  1
  Mo  Mo172  1  0.80515165  0.19892759  0.49714366  1
  Mo  Mo173  1  0.09922940  0.30502252  0.13541487  1
  Mo  Mo174  1  0.30228030  0.90045921  0.11407325  1
  Mo  Mo175  1  0.38589573  -0.00325962  0.75819427  1
  Mo  Mo176  1  -0.00509621  0.40266083  0.48813507  1
  Mo  Mo177  1  0.29983467  0.11167044  0.35745061  1
  Mo  Mo178  1  0.70717900  0.29510564  0.39625745  1
  Mo  Mo179  1  0.59518155  0.39671725  -0.01508397  1
  Mo  Mo180  1  0.20624686  0.61375083  0.75696721  1
  Mo  Mo181  1  0.89942232  0.69583856  0.87079007  1
  Mo  Mo182  1  0.50365762  0.30160616  0.87454502  1
  Mo  Mo183  1  0.60559454  0.60238102  0.72219633  1
  Mo  Mo184  1  0.29407435  0.50200215  0.11193000  1
  Mo  Mo185  1  0.89759292  0.69463842  0.13981177  1
  Mo  Mo186  1  0.09997546  0.90092982  0.35287334  1
  Mo  Mo187  1  0.59521433  0.40538799  0.27785722  1
  Mo  Mo188  1  0.00184660  0.59381709  0.26824222  1
  Mo  Mo189  1  0.39558933  0.61028642  0.49506245  1
  Mo  Mo190  1  0.50473232  0.10361034  0.14119173  1
  Mo  Mo191  1  0.50975566  0.90650483  0.14257818  1
  Mo  Mo192  1  0.90251384  0.89574594  0.11925379  1
  Mo  Mo193  1  0.49597825  0.51149156  0.39865586  1
  Mo  Mo194  1  0.60519679  0.60529167  0.50393707  1
  Mo  Mo195  1  0.91056946  0.89445307  0.62307050  1
  Mo  Mo196  1  0.10127353  0.49846211  0.87946070  1
  Mo  Mo197  1  0.10624678  0.70102080  0.62096704  1
  Mo  Mo198  1  -0.00230057  -0.00241951  -0.01673272  1
  Mo  Mo199  1  0.10932676  0.89255395  0.88480454  1
