# generated using pymatgen
data_HfZrTaTiMo
_symmetry_space_group_name_H-M   'P 1'
_cell_length_a   15.84232486
_cell_length_b   15.84446200
_cell_length_c   15.39962101
_cell_angle_alpha   90.04454118
_cell_angle_beta   89.97166242
_cell_angle_gamma   90.09116163
_symmetry_Int_Tables_number   1
_chemical_formula_structural   HfZrTaTiMo
_chemical_formula_sum   'Hf40 Zr40 Ta40 Ti40 Mo40'
_cell_volume   3865.50029777
_cell_formula_units_Z   40
loop_
 _symmetry_equiv_pos_site_id
 _symmetry_equiv_pos_as_xyz
  1  'x, y, z'
loop_
 _atom_site_type_symbol
 _atom_site_label
 _atom_site_symmetry_multiplicity
 _atom_site_fract_x
 _atom_site_fract_y
 _atom_site_fract_z
 _atom_site_occupancy
  Hf  Hf0  1  -0.00202614  0.20867926  0.77283193  1
  Hf  Hf1  1  0.31099618  0.50413680  0.13376631  1
  Hf  Hf2  1  0.00766925  0.80379046  0.75061591  1
  Hf  Hf3  1  0.80458102  0.40633071  0.24168483  1
  Hf  Hf4  1  0.49465474  0.89549000  0.88557616  1
  Hf  Hf5  1  0.80260063  0.20581943  0.49241616  1
  Hf  Hf6  1  0.59458496  0.81736053  0.72517880  1
  Hf  Hf7  1  0.89469397  0.90430832  0.62672961  1
  Hf  Hf8  1  0.30209926  0.87286682  0.86867562  1
  Hf  Hf9  1  0.48732235  0.09875328  0.13800490  1
  Hf  Hf10  1  0.69762700  0.49427324  0.88737044  1
  Hf  Hf11  1  0.59029644  0.60361844  0.01021381  1
  Hf  Hf12  1  0.69666385  0.49558145  0.61647916  1
  Hf  Hf13  1  0.60302409  0.20469803  0.77177750  1
  Hf  Hf14  1  0.80617320  0.20685308  0.23365587  1
  Hf  Hf15  1  0.09628194  0.49348921  0.37114848  1
  Hf  Hf16  1  0.90000845  0.10602003  0.62934123  1
  Hf  Hf17  1  0.40246627  0.59180973  0.74640885  1
  Hf  Hf18  1  0.80272336  0.39671056  0.76802307  1
  Hf  Hf19  1  0.18703981  0.60257291  0.01414711  1
  Hf  Hf20  1  0.37756082  0.20175162  0.01415713  1
  Hf  Hf21  1  0.90572991  0.50224277  0.39298820  1
  Hf  Hf22  1  0.90563947  0.49504824  0.61202411  1
  Hf  Hf23  1  0.80482797  0.59778974  0.74933113  1
  Hf  Hf24  1  0.79149831  0.00060366  0.76859176  1
  Hf  Hf25  1  0.70044826  0.09937969  0.36831026  1
  Hf  Hf26  1  0.00720509  0.59839289  0.23510759  1
  Hf  Hf27  1  0.09038753  0.88827292  0.39054089  1
  Hf  Hf28  1  0.01599953  0.20725772  0.50053170  1
  Hf  Hf29  1  0.59832439  0.00485204  0.75016530  1
  Hf  Hf30  1  0.20766360  0.39861877  -0.00140170  1
  Hf  Hf31  1  0.70042942  0.70744008  0.13644322  1
  Hf  Hf32  1  0.00110582  0.01018627  0.50176207  1
  Hf  Hf33  1  -0.00239519  -0.00811575  0.24978282  1
  Hf  Hf34  1  0.90140051  0.09993137  0.37391534  1
  Hf  Hf35  1  0.19578559  0.79993837  0.26178023  1
  Hf  Hf36  1  0.30858560  0.48000627  0.62630840  1
  Hf  Hf37  1  0.29712751  0.48871370  0.36792630  1
  Hf  Hf38  1  0.70323660  0.09825885  0.61756214  1
  Hf  Hf39  1  0.91171116  0.31441947  0.38068747  1
  Zr  Zr40  1  0.59713884  0.41255270  0.24928110  1
  Zr  Zr41  1  0.39650990  0.00065957  0.48822430  1
  Zr  Zr42  1  0.50528780  0.68823103  0.61647007  1
  Zr  Zr43  1  0.10532499  0.70630882  0.61241651  1
  Zr  Zr44  1  0.91151527  0.70257879  0.40044356  1
  Zr  Zr45  1  0.00243315  0.00587449  0.76840771  1
  Zr  Zr46  1  0.79657841  0.20021346  0.77683724  1
  Zr  Zr47  1  0.10488354  0.09392907  0.11451773  1
  Zr  Zr48  1  0.60483682  0.00669316  -0.00008673  1
  Zr  Zr49  1  0.49101880  0.70924108  0.86653276  1
  Zr  Zr50  1  0.49522679  0.11191885  0.62358518  1
  Zr  Zr51  1  0.20906960  0.20159988  0.23179797  1
  Zr  Zr52  1  0.59064962  0.40028210  0.76306582  1
  Zr  Zr53  1  0.38844567  0.61500555  0.00003736  1
  Zr  Zr54  1  0.79860685  0.60376576  -0.00626907  1
  Zr  Zr55  1  0.59954873  0.59961423  0.25988391  1
  Zr  Zr56  1  0.49438427  0.88941280  0.12047526  1
  Zr  Zr57  1  0.30139451  0.09743924  0.86135148  1
  Zr  Zr58  1  0.69650121  0.30538490  0.61577494  1
  Zr  Zr59  1  0.20451185  -0.00445783  -0.01454918  1
  Zr  Zr60  1  0.90696719  0.30753890  0.62293758  1
  Zr  Zr61  1  0.29396831  0.10342761  0.63449886  1
  Zr  Zr62  1  0.59705875  -0.01507113  0.25730810  1
  Zr  Zr63  1  0.38785874  0.22049625  0.47306352  1
  Zr  Zr64  1  0.90314799  0.49973187  0.10246786  1
  Zr  Zr65  1  0.80319962  -0.00542207  0.23836930  1
  Zr  Zr66  1  0.00231056  0.60053690  0.74856780  1
  Zr  Zr67  1  0.80699950  0.60516935  0.25195834  1
  Zr  Zr68  1  0.20249449  0.58395412  0.50696727  1
  Zr  Zr69  1  0.40434729  -0.01781427  0.73547189  1
  Zr  Zr70  1  0.40655527  0.80907043  0.27861263  1
  Zr  Zr71  1  0.19855690  0.20140281  0.49188881  1
  Zr  Zr72  1  0.59081365  0.20429122  0.48306970  1
  Zr  Zr73  1  0.69676522  0.71033129  0.85849187  1
  Zr  Zr74  1  -0.00151593  0.20689208  0.23647795  1
  Zr  Zr75  1  0.79269568  0.19229986  0.00016650  1
  Zr  Zr76  1  0.48485070  0.31071943  0.62469170  1
  Zr  Zr77  1  0.10192225  0.89655969  0.12032149  1
  Zr  Zr78  1  0.89441686  0.89081772  0.88008865  1
  Zr  Zr79  1  -0.00854667  0.79169109  0.24273310  1
  Ta  Ta80  1  0.19385279  0.40175538  0.22908994  1
  Ta  Ta81  1  0.30011249  0.91080268  0.14145824  1
  Ta  Ta82  1  0.11044596  0.48569680  0.64556440  1
  Ta  Ta83  1  0.79783404  0.79811464  0.00337205  1
  Ta  Ta84  1  0.28378240  0.89018484  0.60991830  1
  Ta  Ta85  1  0.10305919  0.90516781  0.61380658  1
  Ta  Ta86  1  0.59164203  0.40077658  0.47319321  1
  Ta  Ta87  1  0.59694707  -0.00440080  0.49792759  1
  Ta  Ta88  1  0.49560708  0.30406969  0.12655866  1
  Ta  Ta89  1  0.49462811  0.10127838  0.35817517  1
  Ta  Ta90  1  0.69686346  0.30546141  0.11851430  1
  Ta  Ta91  1  0.19850440  0.00542279  0.48773518  1
  Ta  Ta92  1  0.49534773  0.50056435  0.88844702  1
  Ta  Ta93  1  0.39813931  0.40111106  0.00097252  1
  Ta  Ta94  1  0.70300911  0.69850058  0.62647678  1
  Ta  Ta95  1  0.30552583  0.71166902  0.14510627  1
  Ta  Ta96  1  0.39796361  0.79795104  0.49994010  1
  Ta  Ta97  1  0.09710412  0.69007145  0.39238945  1
  Ta  Ta98  1  0.40474273  0.60088932  0.26337375  1
  Ta  Ta99  1  0.90141553  0.89780155  0.10250625  1
  Ta  Ta100  1  0.50091142  0.49228999  0.60610189  1
  Ta  Ta101  1  0.09783251  0.30121645  0.10449808  1
  Ta  Ta102  1  0.70249986  0.89575691  0.11961918  1
  Ta  Ta103  1  0.19059259  -0.01641049  0.75641394  1
  Ta  Ta104  1  0.38313554  0.78530629  0.72035298  1
  Ta  Ta105  1  0.70437268  0.30704026  0.36442880  1
  Ta  Ta106  1  0.90373446  0.69897634  0.87619023  1
  Ta  Ta107  1  0.79547132  0.80182018  0.51724445  1
  Ta  Ta108  1  0.00880470  0.41011799  -0.01132913  1
  Ta  Ta109  1  0.10920929  0.50434055  0.86250543  1
  Ta  Ta110  1  0.49298865  0.10208576  0.88319469  1
  Ta  Ta111  1  0.70905771  0.70838594  0.38258570  1
  Ta  Ta112  1  0.19740005  0.60434856  0.24522260  1
  Ta  Ta113  1  0.10354955  0.10175558  0.63971272  1
  Ta  Ta114  1  0.60696323  0.59719601  0.48646826  1
  Ta  Ta115  1  0.89213921  0.89800938  0.39407765  1
  Ta  Ta116  1  0.40336590  0.59420787  0.48725978  1
  Ta  Ta117  1  0.21265182  0.79031284  0.00902279  1
  Ta  Ta118  1  0.60196657  0.80333357  0.50146002  1
  Ta  Ta119  1  0.01475322  0.78776741  -0.00776051  1
  Ti  Ti120  1  0.90624690  0.09329285  0.10852910  1
  Ti  Ti121  1  0.11354998  0.30092372  0.65147235  1
  Ti  Ti122  1  0.60598544  0.80210970  0.26704521  1
  Ti  Ti123  1  0.40415926  0.39586978  0.25132521  1
  Ti  Ti124  1  0.00137780  0.39869408  0.22656447  1
  Ti  Ti125  1  0.80644341  0.80713289  0.24813582  1
  Ti  Ti126  1  0.29444908  0.29764652  0.64476770  1
  Ti  Ti127  1  0.59762568  0.20988169  0.24796763  1
  Ti  Ti128  1  0.29644665  0.50803419  0.87310565  1
  Ti  Ti129  1  0.70831640  0.89946307  0.38664135  1
  Ti  Ti130  1  0.59872063  0.79444804  0.00442811  1
  Ti  Ti131  1  0.03041726  0.39787847  0.51113205  1
  Ti  Ti132  1  0.89523549  0.31143261  0.90086443  1
  Ti  Ti133  1  0.49461670  0.29968884  0.89449904  1
  Ti  Ti134  1  0.10837450  0.30544444  0.35897666  1
  Ti  Ti135  1  0.69906300  0.50077607  0.11554909  1
  Ti  Ti136  1  0.10375399  0.09982866  0.35918959  1
  Ti  Ti137  1  0.29958582  0.09764774  0.35117824  1
  Ti  Ti138  1  0.00247337  -0.00074947  -0.01969858  1
  Ti  Ti139  1  0.11909945  0.70455549  0.86567425  1
  Ti  Ti140  1  0.40323571  0.20722736  0.76257912  1
  Ti  Ti141  1  0.21514787  0.61188911  0.74018126  1
  Ti  Ti142  1  0.29336825  0.69782356  0.38240946  1
  Ti  Ti143  1  0.50655212  0.70167065  0.38473654  1
  Ti  Ti144  1  0.39233042  -0.00176886  0.00308708  1
  Ti  Ti145  1  0.59528016  0.20093579  0.00181865  1
  Ti  Ti146  1  0.28146447  0.29073500  0.86923102  1
  Ti  Ti147  1  0.00013102  0.20251845  -0.00776054  1
  Ti  Ti148  1  0.59748666  0.59168525  0.74980961  1
  Ti  Ti149  1  0.39616344  0.39636310  0.77481928  1
  Ti  Ti150  1  0.79713148  0.00017836  -0.00468368  1
  Ti  Ti151  1  0.59274466  0.40026350  0.00948649  1
  Ti  Ti152  1  0.69274244  0.09998783  0.13208472  1
  Ti  Ti153  1  0.79944223  0.60365223  0.50689554  1
  Ti  Ti154  1  0.00133802  0.39936551  0.77105946  1
  Ti  Ti155  1  0.69481126  0.89302974  0.88279180  1
  Ti  Ti156  1  0.21218246  0.38080919  0.49711340  1
  Ti  Ti157  1  0.49395299  0.70166961  0.13679376  1
  Ti  Ti158  1  0.11167477  0.11575299  0.87930460  1
  Ti  Ti159  1  0.90828142  0.70124496  0.10437826  1
  Mo  Mo160  1  0.30319092  0.69304812  0.60465774  1
  Mo  Mo161  1  0.19586024  0.19811977  0.75078662  1
  Mo  Mo162  1  0.20618057  0.40060331  0.76888673  1
  Mo  Mo163  1  0.10036203  0.30115484  0.88568172  1
  Mo  Mo164  1  0.49558393  0.50018637  0.38338516  1
  Mo  Mo165  1  0.10556125  0.88938346  0.88407965  1
  Mo  Mo166  1  0.79910117  0.79654609  0.73399304  1
  Mo  Mo167  1  0.20110193  0.79785911  0.74141504  1
  Mo  Mo168  1  0.00693643  0.59147755  0.52045375  1
  Mo  Mo169  1  0.49300050  0.89821799  0.60586296  1
  Mo  Mo170  1  0.29400106  0.69176656  0.86830211  1
  Mo  Mo171  1  0.90481296  0.30194524  0.10463467  1
  Mo  Mo172  1  0.30196618  0.08620867  0.13860686  1
  Mo  Mo173  1  0.39676331  0.39851539  0.48323870  1
  Mo  Mo174  1  0.69166795  0.09597465  0.88329543  1
  Mo  Mo175  1  0.89667857  0.70140246  0.62346349  1
  Mo  Mo176  1  0.70779594  0.50468112  0.38592450  1
  Mo  Mo177  1  0.69844813  0.90503160  0.61309895  1
  Mo  Mo178  1  0.29421085  0.90144649  0.38460294  1
  Mo  Mo179  1  0.90190565  0.09905648  0.89270013  1
  Mo  Mo180  1  0.50547085  0.89749001  0.39069344  1
  Mo  Mo181  1  0.30416583  0.30631433  0.13112944  1
  Mo  Mo182  1  0.49531342  0.49977103  0.11267176  1
  Mo  Mo183  1  0.68765298  0.30280630  0.90436061  1
  Mo  Mo184  1  0.10387221  0.70130324  0.12435576  1
  Mo  Mo185  1  0.79716606  0.39642495  0.00479510  1
  Mo  Mo186  1  0.00666663  0.60357779  -0.01945772  1
  Mo  Mo187  1  0.40193344  0.20570816  0.24544067  1
  Mo  Mo188  1  -0.00434257  0.80037636  0.51740422  1
  Mo  Mo189  1  0.49962710  0.30043071  0.34971212  1
  Mo  Mo190  1  0.10106006  0.49869873  0.12549395  1
  Mo  Mo191  1  0.39338615  0.80116073  0.01578339  1
  Mo  Mo192  1  0.39608364  -0.00077056  0.26484165  1
  Mo  Mo193  1  0.19755083  0.20004698  0.00866012  1
  Mo  Mo194  1  0.78943573  0.40391838  0.48597662  1
  Mo  Mo195  1  0.19874967  -0.00421139  0.26840363  1
  Mo  Mo196  1  0.20307922  0.79844193  0.48444184  1
  Mo  Mo197  1  0.29542190  0.30425777  0.34943096  1
  Mo  Mo198  1  0.79562258  -0.00018288  0.49530050  1
  Mo  Mo199  1  0.90713923  0.50101167  0.88130230  1
