# generated using pymatgen
data_HfZrTaTiMo
_symmetry_space_group_name_H-M   'P 1'
_cell_length_a   15.84777552
_cell_length_b   15.83407804
_cell_length_c   15.41961365
_cell_angle_alpha   89.98718313
_cell_angle_beta   89.95814051
_cell_angle_gamma   90.02848203
_symmetry_Int_Tables_number   1
_chemical_formula_structural   HfZrTaTiMo
_chemical_formula_sum   'Hf40 Zr40 Ta40 Ti40 Mo40'
_cell_volume   3869.31782361
_cell_formula_units_Z   40
loop_
 _symmetry_equiv_pos_site_id
 _symmetry_equiv_pos_as_xyz
  1  'x, y, z'
loop_
 _atom_site_type_symbol
 _atom_site_label
 _atom_site_symmetry_multiplicity
 _atom_site_fract_x
 _atom_site_fract_y
 _atom_site_fract_z
 _atom_site_occupancy
  Hf  Hf0  1  0.69446175  0.09025926  0.61728855  1
  Hf  Hf1  1  0.50013471  0.70696000  0.64289610  1
  Hf  Hf2  1  0.70172140  0.09855534  0.13180067  1
  Hf  Hf3  1  0.60422411  0.60790538  0.48776034  1
  Hf  Hf4  1  0.00422720  0.19697083  0.75328629  1
  Hf  Hf5  1  -0.01549061  0.58976303  0.51253236  1
  Hf  Hf6  1  0.39010521  0.01237647  0.75551199  1
  Hf  Hf7  1  0.30552848  0.70945711  0.85709670  1
  Hf  Hf8  1  0.59821707  0.39292627  -0.00575443  1
  Hf  Hf9  1  0.49935123  0.10975771  0.87462900  1
  Hf  Hf10  1  0.70242795  0.30331168  0.35093859  1
  Hf  Hf11  1  0.29319144  0.70378663  0.37479048  1
  Hf  Hf12  1  0.29156657  0.89886393  0.61974574  1
  Hf  Hf13  1  0.50352556  0.90814812  0.37796301  1
  Hf  Hf14  1  0.69073258  0.89496855  0.62326147  1
  Hf  Hf15  1  0.49330421  0.29189634  0.35854007  1
  Hf  Hf16  1  0.81233279  0.19416906  0.24297907  1
  Hf  Hf17  1  0.00147812  0.19366986  0.01019471  1
  Hf  Hf18  1  0.49766843  0.89580523  0.87105878  1
  Hf  Hf19  1  0.89241577  0.68283053  0.37133049  1
  Hf  Hf20  1  0.71221699  0.30754941  0.62754919  1
  Hf  Hf21  1  0.09699046  0.71569141  0.62632286  1
  Hf  Hf22  1  0.79317191  0.78659427  0.49634284  1
  Hf  Hf23  1  0.30359380  0.49823634  0.86827911  1
  Hf  Hf24  1  0.40374340  0.79585974  0.01389278  1
  Hf  Hf25  1  0.79476872  0.39242039  0.00357848  1
  Hf  Hf26  1  0.39643448  0.79807151  0.50267720  1
  Hf  Hf27  1  0.90916145  0.49079129  0.11594607  1
  Hf  Hf28  1  0.08280452  0.72016043  0.86156595  1
  Hf  Hf29  1  0.59432864  0.39921065  0.48688369  1
  Hf  Hf30  1  0.89331527  0.69918364  0.88686795  1
  Hf  Hf31  1  0.91514159  0.09426494  0.60594950  1
  Hf  Hf32  1  0.80022177  0.59249417  0.23623846  1
  Hf  Hf33  1  0.31278367  0.29234664  0.86762734  1
  Hf  Hf34  1  0.20153391  0.18417345  0.75155838  1
  Hf  Hf35  1  0.71208268  0.89740479  0.88671546  1
  Hf  Hf36  1  0.40522813  0.20576939  0.50437387  1
  Hf  Hf37  1  0.91562039  0.89483348  0.88850364  1
  Hf  Hf38  1  0.31467321  0.10736551  0.36146117  1
  Hf  Hf39  1  0.50677014  0.50745935  0.63473543  1
  Zr  Zr40  1  0.41191570  0.20948328  0.02313871  1
  Zr  Zr41  1  0.81072002  0.79733946  0.74165219  1
  Zr  Zr42  1  0.59226930  0.78913189  0.24192201  1
  Zr  Zr43  1  0.20827625  0.19793825  -0.00149520  1
  Zr  Zr44  1  0.80752961  0.19312194  0.74041576  1
  Zr  Zr45  1  0.89996956  0.09195934  0.88856986  1
  Zr  Zr46  1  0.60015145  0.59922538  -0.01841833  1
  Zr  Zr47  1  0.00323665  0.60730958  0.00830559  1
  Zr  Zr48  1  0.59853051  0.18869909  0.49022352  1
  Zr  Zr49  1  0.19558990  0.41374395  0.25858239  1
  Zr  Zr50  1  0.40350512  0.60174650  0.24585816  1
  Zr  Zr51  1  0.80228254  0.20549401  0.48999329  1
  Zr  Zr52  1  0.19891205  0.60763328  0.51649003  1
  Zr  Zr53  1  0.19505688  0.38965032  0.74546857  1
  Zr  Zr54  1  0.70620983  0.09725570  0.88792842  1
  Zr  Zr55  1  0.39552093  0.40235417  0.25014329  1
  Zr  Zr56  1  0.50285191  0.30117310  0.86179659  1
  Zr  Zr57  1  0.29619832  0.09188799  0.61277999  1
  Zr  Zr58  1  0.39733314  0.00959919  0.00892308  1
  Zr  Zr59  1  0.72317139  0.50190233  0.37998229  1
  Zr  Zr60  1  0.09805066  0.31034275  0.12748053  1
  Zr  Zr61  1  0.30057223  0.50668084  0.38525482  1
  Zr  Zr62  1  0.40429930  0.80050061  0.24002409  1
  Zr  Zr63  1  0.50286089  0.90734567  0.62580141  1
  Zr  Zr64  1  0.20136808  0.20700587  0.48910745  1
  Zr  Zr65  1  0.80015501  0.59599166  0.75150488  1
  Zr  Zr66  1  0.80150394  -0.00988320  0.49354065  1
  Zr  Zr67  1  0.50711762  0.50228907  0.12446708  1
  Zr  Zr68  1  0.18675492  0.79930810  0.01049878  1
  Zr  Zr69  1  0.19881820  0.60258004  -0.00285504  1
  Zr  Zr70  1  0.08496213  0.49625547  0.86810474  1
  Zr  Zr71  1  0.90066747  0.90050609  0.35226635  1
  Zr  Zr72  1  0.19996048  0.40240402  0.50613917  1
  Zr  Zr73  1  0.28703906  0.90949808  0.87538120  1
  Zr  Zr74  1  0.70831804  0.49711108  0.61941508  1
  Zr  Zr75  1  0.10009358  0.91564645  0.60251579  1
  Zr  Zr76  1  -0.01153710  0.80709641  0.49838090  1
  Zr  Zr77  1  0.29021199  0.90656121  0.13739287  1
  Zr  Zr78  1  0.19422680  0.60243433  0.74433802  1
  Zr  Zr79  1  0.00863661  -0.01163644  0.74621332  1
  Ta  Ta80  1  0.09255013  0.90702805  0.14643888  1
  Ta  Ta81  1  0.40043140  0.39958735  0.50764032  1
  Ta  Ta82  1  0.69025718  0.68680490  0.12057618  1
  Ta  Ta83  1  0.18979036  0.00430966  0.01288513  1
  Ta  Ta84  1  0.79476747  0.79012266  0.24032586  1
  Ta  Ta85  1  0.40044518  0.60282446  -0.00187988  1
  Ta  Ta86  1  0.70425610  0.29275937  0.86666849  1
  Ta  Ta87  1  0.39994439  0.40480546  0.00620109  1
  Ta  Ta88  1  0.79815498  0.79384711  0.02044770  1
  Ta  Ta89  1  0.41066772  0.00414538  0.24103120  1
  Ta  Ta90  1  0.49288296  0.50128449  0.86095460  1
  Ta  Ta91  1  0.60011107  0.59499561  0.26691553  1
  Ta  Ta92  1  0.08201818  0.30003930  0.61983806  1
  Ta  Ta93  1  0.30003127  0.90429455  0.36886803  1
  Ta  Ta94  1  0.09254419  0.30299475  0.37403264  1
  Ta  Ta95  1  0.19093848  0.79827140  0.25558008  1
  Ta  Ta96  1  0.10469247  0.10211786  0.14593445  1
  Ta  Ta97  1  0.59889027  0.79692968  0.00374160  1
  Ta  Ta98  1  0.08484993  0.48877027  0.63252207  1
  Ta  Ta99  1  0.89977901  0.30084673  0.87831983  1
  Ta  Ta100  1  0.40049180  0.40063072  0.73305902  1
  Ta  Ta101  1  0.29271494  0.69363244  0.13214140  1
  Ta  Ta102  1  0.09298670  0.10363899  0.36145227  1
  Ta  Ta103  1  0.80677154  -0.00732306  0.73930028  1
  Ta  Ta104  1  0.90592983  0.10071006  0.37093959  1
  Ta  Ta105  1  0.20440057  0.21311070  0.26055920  1
  Ta  Ta106  1  0.69865974  0.89887446  0.35858429  1
  Ta  Ta107  1  0.69427511  0.69608703  0.62413333  1
  Ta  Ta108  1  0.19880547  0.00224746  0.47112292  1
  Ta  Ta109  1  0.59706277  -0.00244251  0.01148852  1
  Ta  Ta110  1  0.60478916  0.19516950  0.74341796  1
  Ta  Ta111  1  0.69801131  0.89587200  0.13206262  1
  Ta  Ta112  1  0.09482324  0.70052856  0.37652455  1
  Ta  Ta113  1  -0.00928732  0.40418500  0.26504419  1
  Ta  Ta114  1  0.29555740  0.10690801  0.14475086  1
  Ta  Ta115  1  0.50763434  0.29946926  0.63234207  1
  Ta  Ta116  1  0.81301260  -0.00913196  0.02912397  1
  Ta  Ta117  1  0.60828509  0.00066872  0.76277342  1
  Ta  Ta118  1  0.60708922  0.20406018  0.01687490  1
  Ta  Ta119  1  0.10305629  0.08333902  0.88317649  1
  Ti  Ti120  1  0.00610923  0.59574291  0.24602393  1
  Ti  Ti121  1  0.30356310  0.50692405  0.63198669  1
  Ti  Ti122  1  0.29775718  0.30750345  0.12793799  1
  Ti  Ti123  1  0.90447160  0.30174494  0.12840614  1
  Ti  Ti124  1  0.70550295  0.49264599  0.87009026  1
  Ti  Ti125  1  0.49259789  0.70075174  0.86148166  1
  Ti  Ti126  1  0.59519563  -0.00124995  0.23879597  1
  Ti  Ti127  1  0.89962111  0.49248844  0.87894628  1
  Ti  Ti128  1  0.18186951  0.82653111  0.75477441  1
  Ti  Ti129  1  0.09568181  0.90621218  0.36279942  1
  Ti  Ti130  1  0.90218593  0.47331668  0.64119142  1
  Ti  Ti131  1  0.89924405  0.69590659  0.12617465  1
  Ti  Ti132  1  0.83452080  0.39709989  0.48994501  1
  Ti  Ti133  1  -0.01591375  0.01280554  0.23555301  1
  Ti  Ti134  1  0.09993772  0.49690056  0.11817226  1
  Ti  Ti135  1  0.60759523  0.40106711  0.75353886  1
  Ti  Ti136  1  0.10214271  0.10273001  0.60394547  1
  Ti  Ti137  1  -0.01250772  0.60676420  0.73764277  1
  Ti  Ti138  1  0.08976251  0.50769613  0.38625478  1
  Ti  Ti139  1  0.60817068  0.60540560  0.76481023  1
  Ti  Ti140  1  0.50371597  0.09825094  0.63300680  1
  Ti  Ti141  1  0.20107167  0.39957628  -0.00607929  1
  Ti  Ti142  1  0.41087373  0.00958098  0.49168710  1
  Ti  Ti143  1  0.61172139  0.79499932  0.76700333  1
  Ti  Ti144  1  0.30167958  0.29479160  0.63181823  1
  Ti  Ti145  1  0.18931988  0.60236432  0.24591145  1
  Ti  Ti146  1  0.60215469  0.79873713  0.48773059  1
  Ti  Ti147  1  -0.00803193  0.21503755  0.48938695  1
  Ti  Ti148  1  0.69354361  0.48288212  0.13743025  1
  Ti  Ti149  1  0.09547984  0.29873523  0.88151939  1
  Ti  Ti150  1  0.49440507  0.69757103  0.37994280  1
  Ti  Ti151  1  -0.00192616  0.78880535  0.24460825  1
  Ti  Ti152  1  0.30167066  0.71005360  0.64216277  1
  Ti  Ti153  1  0.69402453  0.08959203  0.36090558  1
  Ti  Ti154  1  -0.00203785  0.80837161  0.02927437  1
  Ti  Ti155  1  0.29453431  0.50122714  0.11617197  1
  Ti  Ti156  1  0.79954437  0.20299681  0.01428371  1
  Ti  Ti157  1  0.79242038  0.59404365  0.00472672  1
  Ti  Ti158  1  0.51986799  0.30503297  0.14780056  1
  Ti  Ti159  1  0.40409451  0.59910105  0.50751138  1
  Mo  Mo160  1  0.69971503  0.70136990  0.36820491  1
  Mo  Mo161  1  0.40230322  0.60036334  0.75042404  1
  Mo  Mo162  1  0.50441205  0.10420360  0.13389329  1
  Mo  Mo163  1  0.79733725  -0.00440350  0.24622372  1
  Mo  Mo164  1  0.00334514  0.20404034  0.24608199  1
  Mo  Mo165  1  0.29635289  0.10436792  0.88158457  1
  Mo  Mo166  1  0.09189198  0.90213357  0.89363616  1
  Mo  Mo167  1  0.49864425  0.50145092  0.38730852  1
  Mo  Mo168  1  0.70261451  0.70131299  0.89310006  1
  Mo  Mo169  1  0.19710886  0.80773743  0.47418973  1
  Mo  Mo170  1  0.50652554  0.09797965  0.35459677  1
  Mo  Mo171  1  0.00359995  0.01031183  0.48068698  1
  Mo  Mo172  1  0.89539749  0.69274161  0.62243316  1
  Mo  Mo173  1  0.40380018  0.20153393  0.73025399  1
  Mo  Mo174  1  0.50543973  0.90375796  0.11727281  1
  Mo  Mo175  1  0.90511133  0.50048701  0.36611395  1
  Mo  Mo176  1  0.00623178  -0.00263954  0.02444555  1
  Mo  Mo177  1  0.90198700  0.29901824  0.35936731  1
  Mo  Mo178  1  0.19626161  0.00324499  0.26121464  1
  Mo  Mo179  1  0.90876219  0.30425363  0.63187175  1
  Mo  Mo180  1  0.19406277  0.00311549  0.75791797  1
  Mo  Mo181  1  0.39829555  0.80613546  0.74147216  1
  Mo  Mo182  1  0.60206134  0.40877956  0.26363681  1
  Mo  Mo183  1  0.70104007  0.30218154  0.13720360  1
  Mo  Mo184  1  0.29928870  0.30295011  0.37802698  1
  Mo  Mo185  1  0.80353619  0.59588703  0.51884355  1
  Mo  Mo186  1  -0.00420204  0.80137951  0.73605386  1
  Mo  Mo187  1  -0.00477142  0.39321205  0.76330150  1
  Mo  Mo188  1  -0.00048619  0.39374898  -0.01150308  1
  Mo  Mo189  1  0.89905507  0.89833704  0.62234630  1
  Mo  Mo190  1  0.50051175  0.69438588  0.11443805  1
  Mo  Mo191  1  0.80007258  0.39636110  0.76842949  1
  Mo  Mo192  1  0.40036565  0.20368082  0.23363956  1
  Mo  Mo193  1  0.89887872  0.89236140  0.13736470  1
  Mo  Mo194  1  0.00014806  0.39820865  0.48775985  1
  Mo  Mo195  1  0.80426318  0.39802480  0.23270686  1
  Mo  Mo196  1  0.90487436  0.10042760  0.12048056  1
  Mo  Mo197  1  0.60148721  0.19470791  0.24309744  1
  Mo  Mo198  1  0.09663225  0.69980589  0.14617955  1
  Mo  Mo199  1  0.60031720  -0.00165718  0.48236098  1
