# generated using pymatgen
data_HfZrTaTiMo
_symmetry_space_group_name_H-M   'P 1'
_cell_length_a   15.84053687
_cell_length_b   15.83794916
_cell_length_c   15.38207749
_cell_angle_alpha   90.05160170
_cell_angle_beta   90.03185283
_cell_angle_gamma   89.82915611
_symmetry_Int_Tables_number   1
_chemical_formula_structural   HfZrTaTiMo
_chemical_formula_sum   'Hf40 Zr40 Ta40 Ti40 Mo40'
_cell_volume   3859.06117134
_cell_formula_units_Z   40
loop_
 _symmetry_equiv_pos_site_id
 _symmetry_equiv_pos_as_xyz
  1  'x, y, z'
loop_
 _atom_site_type_symbol
 _atom_site_label
 _atom_site_symmetry_multiplicity
 _atom_site_fract_x
 _atom_site_fract_y
 _atom_site_fract_z
 _atom_site_occupancy
  Hf  Hf0  1  0.60759838  0.60267594  0.25880922  1
  Hf  Hf1  1  0.30458610  0.30090369  0.87316516  1
  Hf  Hf2  1  0.69640043  0.08820122  0.12969881  1
  Hf  Hf3  1  0.90674687  0.50051969  0.62983656  1
  Hf  Hf4  1  0.29244544  0.70866447  0.12178801  1
  Hf  Hf5  1  0.90927947  0.50543907  0.87105462  1
  Hf  Hf6  1  0.01955885  -0.01546268  0.25207632  1
  Hf  Hf7  1  0.79525272  0.41036154  0.24678326  1
  Hf  Hf8  1  0.30519543  0.90477329  0.64241732  1
  Hf  Hf9  1  0.59203675  0.38829604  0.51244486  1
  Hf  Hf10  1  0.90804721  0.08899881  0.11180743  1
  Hf  Hf11  1  0.11334533  0.09171466  0.38773589  1
  Hf  Hf12  1  0.38619690  0.20085677  0.50561937  1
  Hf  Hf13  1  0.70251258  0.89331766  0.11573447  1
  Hf  Hf14  1  0.50040339  0.70715210  0.11297592  1
  Hf  Hf15  1  0.48113224  0.52726270  0.60384862  1
  Hf  Hf16  1  0.69665100  0.29250267  0.87316808  1
  Hf  Hf17  1  0.89282370  0.08753845  0.88250827  1
  Hf  Hf18  1  0.60363631  0.39292761  0.02154873  1
  Hf  Hf19  1  0.49639124  0.50683513  0.39166201  1
  Hf  Hf20  1  0.79565087  0.60805491  0.50843761  1
  Hf  Hf21  1  0.31340654  0.69677437  0.61587299  1
  Hf  Hf22  1  0.40171348  0.40705435  0.24299911  1
  Hf  Hf23  1  0.79607256  0.40436670  0.01284482  1
  Hf  Hf24  1  0.29837308  0.71306245  0.37692290  1
  Hf  Hf25  1  0.10195281  0.29502563  0.88455960  1
  Hf  Hf26  1  0.18780566  0.81989499  0.24509023  1
  Hf  Hf27  1  0.90398733  0.29548392  0.38330566  1
  Hf  Hf28  1  0.10440540  0.28764536  0.11884687  1
  Hf  Hf29  1  0.79822910  0.19580673  0.25145097  1
  Hf  Hf30  1  0.89546545  0.70322462  0.37710274  1
  Hf  Hf31  1  0.90927149  0.89126902  0.39157097  1
  Hf  Hf32  1  0.09315459  0.69095047  0.87852848  1
  Hf  Hf33  1  0.01003497  0.18700475  0.75026388  1
  Hf  Hf34  1  0.90527481  0.09315737  0.38805929  1
  Hf  Hf35  1  0.20284823  0.80256879  0.76026438  1
  Hf  Hf36  1  0.78822253  0.60788116  0.74974400  1
  Hf  Hf37  1  0.89669197  0.09832147  0.61572524  1
  Hf  Hf38  1  0.60582692  0.40599584  0.24598697  1
  Hf  Hf39  1  0.90178330  0.29272211  0.87421754  1
  Zr  Zr40  1  0.21325544  0.58971728  0.76319501  1
  Zr  Zr41  1  0.90845165  0.89801085  0.10213401  1
  Zr  Zr42  1  0.01084876  0.41178404  0.24754547  1
  Zr  Zr43  1  0.11002451  0.69583177  0.62500138  1
  Zr  Zr44  1  0.59793881  0.79874797  0.24130091  1
  Zr  Zr45  1  0.70294406  0.92108147  0.87166119  1
  Zr  Zr46  1  0.00212624  0.40266825  0.00564619  1
  Zr  Zr47  1  0.79611529  0.79324788  -0.02591304  1
  Zr  Zr48  1  0.58974532  0.40228840  0.73378808  1
  Zr  Zr49  1  0.29203246  0.50766659  0.60055933  1
  Zr  Zr50  1  0.50219444  0.29650856  0.87561246  1
  Zr  Zr51  1  0.69319993  0.50336289  0.61700961  1
  Zr  Zr52  1  0.11235156  0.29791542  0.36471417  1
  Zr  Zr53  1  0.40325007  0.61096367  0.25095403  1
  Zr  Zr54  1  0.39394461  0.81980394  0.00020389  1
  Zr  Zr55  1  0.89145640  0.70282652  0.11560504  1
  Zr  Zr56  1  0.78792342  0.79432244  0.51745068  1
  Zr  Zr57  1  0.40058549  0.39778807  0.01416465  1
  Zr  Zr58  1  0.21542032  0.18294922  -0.00226273  1
  Zr  Zr59  1  0.90445246  0.29219084  0.61881940  1
  Zr  Zr60  1  0.00101527  0.79751935  0.24951548  1
  Zr  Zr61  1  0.90140804  0.50150208  0.38078628  1
  Zr  Zr62  1  0.18473607  0.60705692  0.25318009  1
  Zr  Zr63  1  0.50138303  0.92009729  0.86656842  1
  Zr  Zr64  1  0.49560163  0.29369003  0.36560139  1
  Zr  Zr65  1  0.79635913  0.39016579  0.74575106  1
  Zr  Zr66  1  0.49515065  0.09512209  0.36416309  1
  Zr  Zr67  1  0.29028686  0.49587004  0.37775794  1
  Zr  Zr68  1  0.69358911  0.50411235  0.88507579  1
  Zr  Zr69  1  0.00770598  0.18293007  0.24865879  1
  Zr  Zr70  1  0.69518528  0.09140298  0.37027932  1
  Zr  Zr71  1  0.79104345  0.20263607  0.00965923  1
  Zr  Zr72  1  0.58072912  0.61291760  0.75670725  1
  Zr  Zr73  1  0.78674257  -0.00760565  0.50690380  1
  Zr  Zr74  1  0.41075485  0.18357152  0.01421079  1
  Zr  Zr75  1  0.59563491  0.18982797  0.51120369  1
  Zr  Zr76  1  0.60246292  0.20438782  0.73144976  1
  Zr  Zr77  1  0.39535033  0.41503080  0.74624585  1
  Zr  Zr78  1  0.39382845  -0.00039882  0.50427809  1
  Zr  Zr79  1  0.90527259  0.29824537  0.12945417  1
  Ta  Ta80  1  0.90321354  0.90086742  0.86285664  1
  Ta  Ta81  1  0.70062029  0.29795842  0.37837478  1
  Ta  Ta82  1  0.50851345  0.51507541  0.11607528  1
  Ta  Ta83  1  -0.00068945  0.60488450  0.24797446  1
  Ta  Ta84  1  0.69711104  0.50187129  0.39216709  1
  Ta  Ta85  1  0.90352802  0.89814106  0.63866115  1
  Ta  Ta86  1  0.39608796  0.59941193  -0.00473546  1
  Ta  Ta87  1  0.29341123  0.29134893  0.35385010  1
  Ta  Ta88  1  0.80849138  -0.01936356  0.25273254  1
  Ta  Ta89  1  0.30088033  0.70503927  0.88631195  1
  Ta  Ta90  1  0.49004481  0.09174820  0.63412493  1
  Ta  Ta91  1  0.29572246  0.10072357  0.36180546  1
  Ta  Ta92  1  0.10517383  0.49724542  0.61924883  1
  Ta  Ta93  1  0.01259976  0.39758334  0.74526074  1
  Ta  Ta94  1  0.19885211  0.39727520  0.74914890  1
  Ta  Ta95  1  0.40779862  0.80904646  0.50216326  1
  Ta  Ta96  1  0.20219553  0.81416161  0.50253436  1
  Ta  Ta97  1  0.20265184  0.59619829  -0.00210530  1
  Ta  Ta98  1  0.18993527  0.01043825  0.75859952  1
  Ta  Ta99  1  0.59659984  0.80244500  -0.01272380  1
  Ta  Ta100  1  0.11071035  0.06872079  0.10126691  1
  Ta  Ta101  1  0.11023857  0.29149368  0.62828299  1
  Ta  Ta102  1  0.00309585  0.60402288  0.50586328  1
  Ta  Ta103  1  0.60368766  0.62917446  0.49924686  1
  Ta  Ta104  1  0.49753491  0.90002093  0.37081736  1
  Ta  Ta105  1  0.69872650  0.68464945  0.10389664  1
  Ta  Ta106  1  0.00480546  0.80115929  0.75263679  1
  Ta  Ta107  1  0.20744669  0.40355607  0.00872009  1
  Ta  Ta108  1  0.90529180  0.69483293  0.86472062  1
  Ta  Ta109  1  0.29814880  0.29513576  0.13907836  1
  Ta  Ta110  1  0.59866993  0.80859368  0.50836210  1
  Ta  Ta111  1  0.01082905  0.39778169  0.50637690  1
  Ta  Ta112  1  0.89455784  0.51874540  0.12075333  1
  Ta  Ta113  1  0.09035127  0.70408292  0.10276048  1
  Ta  Ta114  1  0.41025184  0.79013637  0.75959348  1
  Ta  Ta115  1  0.90672373  0.70166785  0.63922955  1
  Ta  Ta116  1  0.19587147  0.81100239  -0.00554186  1
  Ta  Ta117  1  0.20130481  0.38259551  0.50403496  1
  Ta  Ta118  1  0.59190485  -0.01181340  0.50989379  1
  Ta  Ta119  1  0.10299467  0.49585304  0.87835009  1
  Ti  Ti120  1  0.61181658  0.01652494  0.73481310  1
  Ti  Ti121  1  0.39456616  0.82110257  0.23894094  1
  Ti  Ti122  1  0.19774801  0.19442421  0.75910917  1
  Ti  Ti123  1  0.31303805  0.09429876  0.86203715  1
  Ti  Ti124  1  0.39968668  0.60472320  0.77374030  1
  Ti  Ti125  1  0.79224252  0.60727385  0.25524378  1
  Ti  Ti126  1  0.39343007  0.38713035  0.49913161  1
  Ti  Ti127  1  0.10015631  0.50885016  0.11778769  1
  Ti  Ti128  1  0.39857144  0.18499816  0.23673352  1
  Ti  Ti129  1  0.20275439  0.00537657  0.51476483  1
  Ti  Ti130  1  0.80133597  0.39800790  0.49905422  1
  Ti  Ti131  1  0.01201652  -0.01099349  0.51187914  1
  Ti  Ti132  1  0.50144378  0.89842820  0.64256828  1
  Ti  Ti133  1  0.49301415  0.92250539  0.11440350  1
  Ti  Ti134  1  0.40233642  0.20130546  0.74192036  1
  Ti  Ti135  1  0.10230154  0.90115105  0.62954855  1
  Ti  Ti136  1  0.50468227  0.28991538  0.14240367  1
  Ti  Ti137  1  0.59402106  -0.00703233  0.24663584  1
  Ti  Ti138  1  0.50502789  0.10032329  0.86650645  1
  Ti  Ti139  1  0.29404438  0.91197503  0.37202643  1
  Ti  Ti140  1  0.59709237  0.19476215  0.01936259  1
  Ti  Ti141  1  0.09649364  0.90658602  0.88052576  1
  Ti  Ti142  1  0.29636567  0.50515537  0.12955389  1
  Ti  Ti143  1  0.29594122  0.29763273  0.63514990  1
  Ti  Ti144  1  0.10220014  0.50355227  0.38812256  1
  Ti  Ti145  1  0.00477593  0.00133490  0.74914282  1
  Ti  Ti146  1  0.28939403  0.10455473  0.63824378  1
  Ti  Ti147  1  0.71950873  0.28105571  0.60709390  1
  Ti  Ti148  1  0.69788570  0.90136741  0.64322468  1
  Ti  Ti149  1  0.60043860  0.79460420  0.75985093  1
  Ti  Ti150  1  0.49972551  0.71421363  0.37798165  1
  Ti  Ti151  1  0.69027503  0.09760938  0.89022838  1
  Ti  Ti152  1  0.49708016  0.49975594  0.89182392  1
  Ti  Ti153  1  0.69828894  0.88718605  0.36599380  1
  Ti  Ti154  1  0.79638243  0.80037484  0.75259801  1
  Ti  Ti155  1  0.79099581  0.17806644  0.74959796  1
  Ti  Ti156  1  0.09356950  0.71341584  0.39465600  1
  Ti  Ti157  1  0.20042664  0.17857382  0.23095893  1
  Ti  Ti158  1  0.30422132  0.91019995  0.86556422  1
  Ti  Ti159  1  0.01949328  0.19809040  0.50672324  1
  Mo  Mo160  1  0.79979317  0.59920343  -0.01840809  1
  Mo  Mo161  1  0.58825414  0.01046850  0.00643016  1
  Mo  Mo162  1  0.69397441  0.71304024  0.64594113  1
  Mo  Mo163  1  0.69789536  0.09563447  0.61297331  1
  Mo  Mo164  1  0.20753626  0.19893110  0.50428416  1
  Mo  Mo165  1  0.49551253  0.70632457  0.89093083  1
  Mo  Mo166  1  0.69976402  0.70565819  0.37008855  1
  Mo  Mo167  1  0.10468286  0.09536547  0.61839303  1
  Mo  Mo168  1  0.00454290  -0.00641137  -0.01677191  1
  Mo  Mo169  1  0.28780101  0.91766537  0.12101119  1
  Mo  Mo170  1  0.70386059  0.51230968  0.11910976  1
  Mo  Mo171  1  0.50312550  0.09447650  0.14112674  1
  Mo  Mo172  1  0.60180724  0.20100385  0.24519665  1
  Mo  Mo173  1  0.39519676  -0.00849681  0.25367032  1
  Mo  Mo174  1  0.59507685  0.60328928  -0.01114855  1
  Mo  Mo175  1  0.39828675  0.00573251  0.74803103  1
  Mo  Mo176  1  0.40182652  0.61981611  0.47739814  1
  Mo  Mo177  1  0.39536712  0.01169992  -0.00973964  1
  Mo  Mo178  1  0.00019821  0.59778570  0.00787730  1
  Mo  Mo179  1  0.10681426  0.89893696  0.39862813  1
  Mo  Mo180  1  0.00737838  0.18856987  -0.00732709  1
  Mo  Mo181  1  0.09909703  0.09476986  0.88479427  1
  Mo  Mo182  1  0.00501825  0.59489740  0.73678857  1
  Mo  Mo183  1  0.00212804  0.80169426  0.52526533  1
  Mo  Mo184  1  0.20043629  -0.00188953  0.24959120  1
  Mo  Mo185  1  0.69420434  0.29654215  0.14412204  1
  Mo  Mo186  1  0.49738465  0.71581119  0.62045678  1
  Mo  Mo187  1  0.21225259  -0.00610748  -0.02367080  1
  Mo  Mo188  1  0.29903395  0.49921066  0.88699384  1
  Mo  Mo189  1  0.69537358  0.70609778  0.87036229  1
  Mo  Mo190  1  0.00022501  0.79778926  -0.02696206  1
  Mo  Mo191  1  0.47965193  0.29765918  0.62587112  1
  Mo  Mo192  1  0.80261001  0.19963609  0.48319462  1
  Mo  Mo193  1  0.20325195  0.40152482  0.22803615  1
  Mo  Mo194  1  0.79321912  0.79696745  0.25090017  1
  Mo  Mo195  1  0.19314975  0.60539488  0.48329014  1
  Mo  Mo196  1  0.79999096  0.00146265  0.73691999  1
  Mo  Mo197  1  0.10048519  0.89550769  0.10022525  1
  Mo  Mo198  1  0.79617403  -0.00248275  0.00233301  1
  Mo  Mo199  1  0.30402890  0.08511710  0.13636214  1
