# generated using pymatgen
data_HfZrTaTiMo
_symmetry_space_group_name_H-M   'P 1'
_cell_length_a   15.85026611
_cell_length_b   15.83808098
_cell_length_c   15.40866868
_cell_angle_alpha   90.04222829
_cell_angle_beta   89.97852490
_cell_angle_gamma   89.94857271
_symmetry_Int_Tables_number   1
_chemical_formula_structural   HfZrTaTiMo
_chemical_formula_sum   'Hf40 Zr40 Ta40 Ti40 Mo40'
_cell_volume   3868.15537949
_cell_formula_units_Z   40
loop_
 _symmetry_equiv_pos_site_id
 _symmetry_equiv_pos_as_xyz
  1  'x, y, z'
loop_
 _atom_site_type_symbol
 _atom_site_label
 _atom_site_symmetry_multiplicity
 _atom_site_fract_x
 _atom_site_fract_y
 _atom_site_fract_z
 _atom_site_occupancy
  Hf  Hf0  1  0.81843000  0.79898856  0.24072748  1
  Hf  Hf1  1  0.38679429  0.00283965  -0.02555205  1
  Hf  Hf2  1  0.29938133  0.09305185  0.63731133  1
  Hf  Hf3  1  0.89685715  0.29855093  0.11914232  1
  Hf  Hf4  1  0.39982496  0.80141268  0.50027515  1
  Hf  Hf5  1  0.48449972  0.71509565  0.12112786  1
  Hf  Hf6  1  0.59964905  0.60824776  0.00459455  1
  Hf  Hf7  1  0.29934586  0.29751584  0.36456114  1
  Hf  Hf8  1  -0.00064819  0.40030436  0.74434378  1
  Hf  Hf9  1  0.88938434  0.28925595  0.62170217  1
  Hf  Hf10  1  0.60490214  0.39791773  0.00920252  1
  Hf  Hf11  1  0.49612817  0.70266667  0.63758836  1
  Hf  Hf12  1  0.21220637  0.18952275  0.23629420  1
  Hf  Hf13  1  0.01345954  0.40026614  0.50760367  1
  Hf  Hf14  1  0.18750823  0.39625112  0.72753729  1
  Hf  Hf15  1  0.19852790  0.19586551  0.50360434  1
  Hf  Hf16  1  0.30346560  0.07641416  0.37533416  1
  Hf  Hf17  1  0.28798394  0.70114555  0.37896081  1
  Hf  Hf18  1  0.80179692  0.19590286  0.46694600  1
  Hf  Hf19  1  0.71231196  0.49648034  0.89013104  1
  Hf  Hf20  1  0.56834572  0.02156041  0.23259119  1
  Hf  Hf21  1  0.60435060  0.80192236  0.75330545  1
  Hf  Hf22  1  0.39303570  0.39536250  0.01672275  1
  Hf  Hf23  1  0.09705615  0.29684388  0.13151745  1
  Hf  Hf24  1  0.49652962  0.50066646  0.88626979  1
  Hf  Hf25  1  0.81056684  0.79744272  -0.00033419  1
  Hf  Hf26  1  0.49824018  0.11890459  0.63481058  1
  Hf  Hf27  1  0.79318490  0.40321421  0.74282613  1
  Hf  Hf28  1  0.00704824  0.78753862  -0.00579347  1
  Hf  Hf29  1  0.60009209  0.80168941  -0.00468515  1
  Hf  Hf30  1  0.70730011  0.91454236  0.88638618  1
  Hf  Hf31  1  0.08673103  0.07992160  0.13058406  1
  Hf  Hf32  1  -0.00782835  0.19957649  0.75931106  1
  Hf  Hf33  1  0.39881915  0.59636560  0.75597062  1
  Hf  Hf34  1  0.09397744  0.08224516  0.87313269  1
  Hf  Hf35  1  0.00494472  0.19913411  0.48868903  1
  Hf  Hf36  1  0.88583578  0.30973441  0.88830649  1
  Hf  Hf37  1  0.70554156  0.10162879  0.61827364  1
  Hf  Hf38  1  0.60754497  0.00105941  0.74743822  1
  Hf  Hf39  1  0.29033591  0.89250732  0.62701089  1
  Zr  Zr40  1  0.49933867  0.50655610  0.35908211  1
  Zr  Zr41  1  -0.02164701  0.18591905  0.26225254  1
  Zr  Zr42  1  0.78994305  0.40057716  0.49304932  1
  Zr  Zr43  1  0.19664483  0.39271598  0.50950272  1
  Zr  Zr44  1  0.89796020  0.09453281  0.61949738  1
  Zr  Zr45  1  0.60533772  0.81564926  0.24212537  1
  Zr  Zr46  1  0.51007335  0.48737632  0.62491532  1
  Zr  Zr47  1  0.68450380  0.30012245  0.62619047  1
  Zr  Zr48  1  0.00239286  0.82132193  0.74566941  1
  Zr  Zr49  1  0.20969684  0.18855141  0.00640198  1
  Zr  Zr50  1  0.28626747  0.49336299  0.87285474  1
  Zr  Zr51  1  0.19187844  0.19717047  0.75371848  1
  Zr  Zr52  1  0.70273795  0.11304257  0.12810189  1
  Zr  Zr53  1  0.50864706  0.28159029  0.13459332  1
  Zr  Zr54  1  0.09161557  0.50999661  0.12433565  1
  Zr  Zr55  1  0.81559406  0.41313278  0.24781394  1
  Zr  Zr56  1  0.58971393  0.21225353  0.48021397  1
  Zr  Zr57  1  0.09453365  0.70112903  0.37727703  1
  Zr  Zr58  1  0.18748427  0.60443345  -0.00607211  1
  Zr  Zr59  1  0.70295590  0.70932811  0.36921316  1
  Zr  Zr60  1  0.81796891  0.00165261  0.26522536  1
  Zr  Zr61  1  0.29786647  0.29715989  0.87191198  1
  Zr  Zr62  1  0.68636177  0.08243446  0.37376339  1
  Zr  Zr63  1  0.71748254  0.51474257  0.12564269  1
  Zr  Zr64  1  0.60102050  0.60201369  0.50246829  1
  Zr  Zr65  1  0.39859613  0.60014492  0.49786169  1
  Zr  Zr66  1  0.10771583  0.08451835  0.36825052  1
  Zr  Zr67  1  0.38775906  0.82498233  0.26426214  1
  Zr  Zr68  1  0.00451425  0.19808574  -0.00740285  1
  Zr  Zr69  1  0.51217686  0.91750556  0.39053822  1
  Zr  Zr70  1  0.70931535  0.91787856  0.11310664  1
  Zr  Zr71  1  0.38971571  0.39752073  0.23445585  1
  Zr  Zr72  1  0.80168374  0.81072861  0.74805106  1
  Zr  Zr73  1  0.79029046  0.60042127  0.50901107  1
  Zr  Zr74  1  0.60862727  0.20325078  -0.01317083  1
  Zr  Zr75  1  0.38802041  0.60352240  0.24230358  1
  Zr  Zr76  1  0.32131459  0.28734432  0.63025515  1
  Zr  Zr77  1  0.30608976  0.49802651  0.62268942  1
  Zr  Zr78  1  0.48691300  0.91109454  0.10048325  1
  Zr  Zr79  1  0.90371383  0.50863997  0.62303668  1
  Ta  Ta80  1  0.39871394  0.19461841  -0.00643416  1
  Ta  Ta81  1  0.19830178  -0.00646088  0.00385055  1
  Ta  Ta82  1  0.90240554  0.50776922  0.88473370  1
  Ta  Ta83  1  0.09414497  0.08567885  0.62864855  1
  Ta  Ta84  1  0.10129830  0.70335411  0.63368773  1
  Ta  Ta85  1  0.19186812  0.59523372  0.51286769  1
  Ta  Ta86  1  0.91613499  0.90979081  0.11385312  1
  Ta  Ta87  1  0.10377325  0.30405641  0.35577101  1
  Ta  Ta88  1  0.28933706  0.49682754  0.38151895  1
  Ta  Ta89  1  0.40977398  0.39049785  0.75267716  1
  Ta  Ta90  1  0.60105075  0.40364614  0.47783954  1
  Ta  Ta91  1  0.89993749  0.70525762  0.39503072  1
  Ta  Ta92  1  0.89122682  0.09613277  0.10862925  1
  Ta  Ta93  1  -0.01520924  0.60129228  0.25717886  1
  Ta  Ta94  1  0.00504827  -0.00928593  0.49688006  1
  Ta  Ta95  1  0.50464053  0.71039201  0.36987372  1
  Ta  Ta96  1  0.49483366  0.70206845  0.87598357  1
  Ta  Ta97  1  0.09537344  0.70266348  0.13614287  1
  Ta  Ta98  1  0.49900789  0.90588511  0.63156006  1
  Ta  Ta99  1  0.41803723  0.17760621  0.25964263  1
  Ta  Ta100  1  0.70139473  0.50963101  0.35338637  1
  Ta  Ta101  1  0.41592111  0.38548854  0.48827099  1
  Ta  Ta102  1  0.40182818  0.00322157  0.51360447  1
  Ta  Ta103  1  0.90703860  0.70450661  0.62393755  1
  Ta  Ta104  1  0.21162504  -0.02258376  0.23845082  1
  Ta  Ta105  1  0.10177894  0.31626346  0.88816128  1
  Ta  Ta106  1  0.50352130  0.09904304  0.87100717  1
  Ta  Ta107  1  0.38725532  0.60683270  0.00285011  1
  Ta  Ta108  1  0.40221918  0.19876596  0.48343531  1
  Ta  Ta109  1  0.10363310  0.88841738  0.11923457  1
  Ta  Ta110  1  0.60618253  0.80425948  0.51832760  1
  Ta  Ta111  1  0.28686507  0.70733469  0.12309853  1
  Ta  Ta112  1  0.00295485  0.40979734  0.25068949  1
  Ta  Ta113  1  0.71039833  0.29851210  0.13819643  1
  Ta  Ta114  1  0.59961896  0.39955925  0.76498651  1
  Ta  Ta115  1  0.29844582  0.88780610  0.10545190  1
  Ta  Ta116  1  0.79996381  0.60254237  0.75049132  1
  Ta  Ta117  1  0.60904591  0.59583726  0.75630449  1
  Ta  Ta118  1  0.39711283  0.80507971  0.76019709  1
  Ta  Ta119  1  0.90525255  0.50955083  0.38618570  1
  Ti  Ti120  1  0.00401956  -0.02249573  0.26705425  1
  Ti  Ti121  1  0.71135391  0.70169028  0.12610383  1
  Ti  Ti122  1  0.29347295  0.70028920  0.86387151  1
  Ti  Ti123  1  0.90983123  0.91801570  0.88646884  1
  Ti  Ti124  1  0.29073303  0.70057887  0.63774504  1
  Ti  Ti125  1  0.10231346  0.49875463  0.36945386  1
  Ti  Ti126  1  0.50041102  0.90000666  0.87379678  1
  Ti  Ti127  1  0.90474277  0.69676673  0.86356982  1
  Ti  Ti128  1  0.49719097  0.50986288  0.12425432  1
  Ti  Ti129  1  0.11877462  0.88958655  0.39693514  1
  Ti  Ti130  1  0.70428257  0.70241936  0.63359285  1
  Ti  Ti131  1  0.90369861  0.67751820  0.11455115  1
  Ti  Ti132  1  0.28662718  0.89520102  0.86693864  1
  Ti  Ti133  1  0.59869146  0.40555847  0.24294833  1
  Ti  Ti134  1  0.90293099  0.88608932  0.39716973  1
  Ti  Ti135  1  0.89467651  0.90197142  0.60784651  1
  Ti  Ti136  1  0.89318526  0.09652483  0.88472413  1
  Ti  Ti137  1  -0.00082284  0.79881061  0.24884028  1
  Ti  Ti138  1  0.18303179  -0.01604377  0.74640995  1
  Ti  Ti139  1  0.90676226  0.31179844  0.37024272  1
  Ti  Ti140  1  0.20085296  0.79345996  -0.01041880  1
  Ti  Ti141  1  0.09350574  0.50683181  0.86257317  1
  Ti  Ti142  1  0.60491693  0.20791677  0.76291220  1
  Ti  Ti143  1  0.20422077  0.39699607  0.02092411  1
  Ti  Ti144  1  0.39783132  -0.00066599  0.75897249  1
  Ti  Ti145  1  0.70634740  0.69816007  0.87585713  1
  Ti  Ti146  1  0.32014522  0.08461383  0.12957683  1
  Ti  Ti147  1  0.19524538  0.80251285  0.25067531  1
  Ti  Ti148  1  0.19704028  0.59552115  0.24650554  1
  Ti  Ti149  1  0.10251793  0.69815958  0.84872785  1
  Ti  Ti150  1  0.81061046  0.00372591  0.75018210  1
  Ti  Ti151  1  0.49917691  0.29890327  0.87639983  1
  Ti  Ti152  1  0.71136577  0.10443084  0.87653174  1
  Ti  Ti153  1  0.09984634  0.89634602  0.88254262  1
  Ti  Ti154  1  0.00196863  0.41240868  0.00292777  1
  Ti  Ti155  1  0.00794522  0.60080942  0.50261778  1
  Ti  Ti156  1  0.59887473  0.61310736  0.23932930  1
  Ti  Ti157  1  0.69787580  0.30348534  0.34695974  1
  Ti  Ti158  1  0.20359840  0.40626406  0.23706052  1
  Ti  Ti159  1  0.71053246  0.89683073  0.40253107  1
  Mo  Mo160  1  0.80351339  0.61191453  -0.01639342  1
  Mo  Mo161  1  0.08578506  0.27784247  0.62624126  1
  Mo  Mo162  1  0.90297167  0.08189690  0.38944731  1
  Mo  Mo163  1  0.70409498  0.90494781  0.62088987  1
  Mo  Mo164  1  0.29559777  0.08844575  0.85743851  1
  Mo  Mo165  1  0.81123373  0.61120830  0.25987408  1
  Mo  Mo166  1  0.49661520  0.10037314  0.09707089  1
  Mo  Mo167  1  0.70094527  0.30120040  0.86927305  1
  Mo  Mo168  1  0.29259182  0.50627793  0.11531161  1
  Mo  Mo169  1  0.49574991  0.09759137  0.39049834  1
  Mo  Mo170  1  0.60082483  0.20349710  0.25815395  1
  Mo  Mo171  1  0.00409900  -0.00665592  0.00069296  1
  Mo  Mo172  1  0.80276706  -0.00587002  0.49412408  1
  Mo  Mo173  1  0.19812663  0.78892887  0.51224303  1
  Mo  Mo174  1  0.40612052  0.19553136  0.77370086  1
  Mo  Mo175  1  0.38863578  0.79494937  -0.02634358  1
  Mo  Mo176  1  0.60011206  -0.00058043  0.52629061  1
  Mo  Mo177  1  0.79917075  0.79794660  0.51885141  1
  Mo  Mo178  1  0.79944156  0.20403513  -0.01006979  1
  Mo  Mo179  1  0.80273858  0.20291423  0.26321531  1
  Mo  Mo180  1  0.09711085  0.51728016  0.63726637  1
  Mo  Mo181  1  -0.00682190  -0.00230112  0.74286777  1
  Mo  Mo182  1  0.39182420  -0.00304113  0.24621746  1
  Mo  Mo183  1  0.80265475  0.40365717  0.01719711  1
  Mo  Mo184  1  0.30210862  0.28870658  0.13353303  1
  Mo  Mo185  1  0.50226819  0.30077067  0.63276380  1
  Mo  Mo186  1  0.79339689  0.19717946  0.76719952  1
  Mo  Mo187  1  0.80474372  0.00656264  -0.00292820  1
  Mo  Mo188  1  0.19926367  -0.00506725  0.51436399  1
  Mo  Mo189  1  0.29069551  0.90020371  0.39604884  1
  Mo  Mo190  1  0.90641626  0.50688397  0.10555187  1
  Mo  Mo191  1  0.00197104  0.60690434  -0.02111381  1
  Mo  Mo192  1  0.19976392  0.80037442  0.75801259  1
  Mo  Mo193  1  -0.00469529  0.60618741  0.75795954  1
  Mo  Mo194  1  0.09884034  0.89801104  0.61242858  1
  Mo  Mo195  1  0.69438073  0.50269684  0.63693875  1
  Mo  Mo196  1  0.00153661  0.79793198  0.51266307  1
  Mo  Mo197  1  0.59659197  0.00725634  -0.01197640  1
  Mo  Mo198  1  0.50195620  0.30295587  0.35341860  1
  Mo  Mo199  1  0.19649658  0.60085428  0.74171843  1
