# generated using pymatgen
data_HfZrTaTiMo
_symmetry_space_group_name_H-M   'P 1'
_cell_length_a   15.83959192
_cell_length_b   15.85053614
_cell_length_c   15.40111483
_cell_angle_alpha   90.00758501
_cell_angle_beta   90.02260915
_cell_angle_gamma   90.08745672
_symmetry_Int_Tables_number   1
_chemical_formula_structural   HfZrTaTiMo
_chemical_formula_sum   'Hf40 Zr40 Ta40 Ti40 Mo40'
_cell_volume   3866.69183054
_cell_formula_units_Z   40
loop_
 _symmetry_equiv_pos_site_id
 _symmetry_equiv_pos_as_xyz
  1  'x, y, z'
loop_
 _atom_site_type_symbol
 _atom_site_label
 _atom_site_symmetry_multiplicity
 _atom_site_fract_x
 _atom_site_fract_y
 _atom_site_fract_z
 _atom_site_occupancy
  Hf  Hf0  1  0.39927062  -0.01046294  0.51140322  1
  Hf  Hf1  1  0.79466324  0.79212164  0.00836100  1
  Hf  Hf2  1  0.69961919  0.90788874  0.36031485  1
  Hf  Hf3  1  -0.00241999  0.60127785  -0.01260905  1
  Hf  Hf4  1  0.90731001  0.30161311  0.38194094  1
  Hf  Hf5  1  0.79165669  0.20335365  0.74507235  1
  Hf  Hf6  1  0.79633626  -0.01174426  0.01386745  1
  Hf  Hf7  1  0.01756328  0.59558848  0.24831807  1
  Hf  Hf8  1  0.29048741  0.10826623  0.13301195  1
  Hf  Hf9  1  0.51357647  0.69075229  0.60074979  1
  Hf  Hf10  1  0.70862221  0.89354278  0.86274751  1
  Hf  Hf11  1  0.79399181  0.19592625  0.50329234  1
  Hf  Hf12  1  -0.01535523  -0.00880675  0.50833922  1
  Hf  Hf13  1  0.21077823  0.60334057  -0.01412261  1
  Hf  Hf14  1  0.09929254  0.89622376  0.38458044  1
  Hf  Hf15  1  0.20620447  0.79559155  0.51356586  1
  Hf  Hf16  1  0.09792270  0.10074024  0.38753420  1
  Hf  Hf17  1  0.30207802  0.89907856  0.35957228  1
  Hf  Hf18  1  0.19901587  0.39424821  0.74890645  1
  Hf  Hf19  1  0.09067728  0.48291852  0.87587586  1
  Hf  Hf20  1  0.09617174  0.89002126  0.63738025  1
  Hf  Hf21  1  0.20669050  0.00337010  0.75427799  1
  Hf  Hf22  1  0.89391942  0.10062602  0.86767254  1
  Hf  Hf23  1  0.90339079  0.69459412  0.12806372  1
  Hf  Hf24  1  0.30201516  0.10385240  0.62356426  1
  Hf  Hf25  1  0.49260789  0.10443228  0.13172019  1
  Hf  Hf26  1  0.40360787  0.79986818  0.50486616  1
  Hf  Hf27  1  0.81038943  0.40185721  0.00565089  1
  Hf  Hf28  1  0.40646617  0.19928082  0.48323364  1
  Hf  Hf29  1  0.69320665  0.89519409  0.61707861  1
  Hf  Hf30  1  0.29565144  0.30964354  0.37003049  1
  Hf  Hf31  1  0.41458651  0.59951550  0.24785791  1
  Hf  Hf32  1  0.59101559  -0.00651476  0.74650584  1
  Hf  Hf33  1  0.60312623  0.80135166  0.01649366  1
  Hf  Hf34  1  0.09843198  0.30564686  0.38575027  1
  Hf  Hf35  1  -0.00563818  0.21398057  0.01389503  1
  Hf  Hf36  1  0.20447364  0.00650105  -0.01465361  1
  Hf  Hf37  1  0.00526851  0.39941789  0.24134963  1
  Hf  Hf38  1  0.78883117  0.40670139  0.74347182  1
  Hf  Hf39  1  -0.00108618  0.59797987  0.75370296  1
  Zr  Zr40  1  0.17963546  0.20039814  0.74381887  1
  Zr  Zr41  1  0.21307748  0.38320559  -0.00298564  1
  Zr  Zr42  1  0.71568499  0.51878816  0.38227209  1
  Zr  Zr43  1  0.01035924  0.00026444  0.24373516  1
  Zr  Zr44  1  0.70786043  0.69702777  0.59517614  1
  Zr  Zr45  1  0.29437149  0.09452479  0.37126023  1
  Zr  Zr46  1  0.68591165  0.31353328  0.13223180  1
  Zr  Zr47  1  0.50186990  0.30558367  0.62234098  1
  Zr  Zr48  1  0.48706652  0.31322949  0.87291064  1
  Zr  Zr49  1  0.68606184  0.09806482  0.13302397  1
  Zr  Zr50  1  0.48652316  0.50288124  0.60444095  1
  Zr  Zr51  1  0.39929164  -0.00365945  0.00584925  1
  Zr  Zr52  1  0.59751349  0.20525955  0.74928511  1
  Zr  Zr53  1  0.89599818  0.68735956  0.37351798  1
  Zr  Zr54  1  0.90893953  0.30153893  0.63266649  1
  Zr  Zr55  1  0.40784863  0.79781243  0.73385738  1
  Zr  Zr56  1  0.79622566  0.39580178  0.50732197  1
  Zr  Zr57  1  0.81127033  0.81049373  0.48693993  1
  Zr  Zr58  1  0.30442427  0.88599410  0.87122326  1
  Zr  Zr59  1  0.68795197  0.31211668  0.88772523  1
  Zr  Zr60  1  0.60725627  0.60696106  0.01913202  1
  Zr  Zr61  1  0.31891232  0.49049432  0.86967879  1
  Zr  Zr62  1  0.92590877  0.31091494  0.85748490  1
  Zr  Zr63  1  0.79970264  0.20757332  0.24863326  1
  Zr  Zr64  1  0.69260728  0.09667755  0.88511934  1
  Zr  Zr65  1  0.10293396  0.89328931  0.11015119  1
  Zr  Zr66  1  0.40128522  0.79230262  0.01670424  1
  Zr  Zr67  1  0.89382601  0.09326683  0.37206147  1
  Zr  Zr68  1  0.18853661  0.79164119  0.24599220  1
  Zr  Zr69  1  0.31310512  0.30916139  0.62590746  1
  Zr  Zr70  1  -0.00302243  0.00138761  -0.00324671  1
  Zr  Zr71  1  0.59215077  -0.00033029  0.49018530  1
  Zr  Zr72  1  0.79873300  0.20438517  0.00732635  1
  Zr  Zr73  1  0.60003712  0.20201495  0.48164135  1
  Zr  Zr74  1  0.68543341  0.50871202  0.61112467  1
  Zr  Zr75  1  0.88843110  0.89592857  0.65120226  1
  Zr  Zr76  1  0.01002356  0.01870846  0.74851247  1
  Zr  Zr77  1  0.49172701  0.10030368  0.88482559  1
  Zr  Zr78  1  0.60409009  0.78076384  0.75561940  1
  Zr  Zr79  1  0.29919870  0.69217231  0.36880523  1
  Ta  Ta80  1  0.69679391  0.50468310  0.88247118  1
  Ta  Ta81  1  0.80878852  0.41115424  0.25114374  1
  Ta  Ta82  1  0.29524548  0.69246541  0.13585762  1
  Ta  Ta83  1  -0.00397795  0.79868019  -0.01300666  1
  Ta  Ta84  1  0.91414088  0.50014315  0.38777783  1
  Ta  Ta85  1  0.00400117  0.20268365  0.23989064  1
  Ta  Ta86  1  0.89823487  0.09701927  0.13400570  1
  Ta  Ta87  1  0.40176013  -0.00370410  0.74239187  1
  Ta  Ta88  1  0.00088494  0.79335910  0.25308460  1
  Ta  Ta89  1  0.37457224  0.21300058  0.00038769  1
  Ta  Ta90  1  0.20524122  0.40974886  0.50765900  1
  Ta  Ta91  1  0.89779816  0.89784135  0.86081213  1
  Ta  Ta92  1  0.09827245  0.89310214  0.86839393  1
  Ta  Ta93  1  0.10487082  0.70567225  0.86422688  1
  Ta  Ta94  1  0.49198537  0.30213303  0.14247076  1
  Ta  Ta95  1  0.01133193  0.41060870  0.51518779  1
  Ta  Ta96  1  0.10310462  0.69552304  0.63850429  1
  Ta  Ta97  1  0.79430903  0.79260387  0.24621088  1
  Ta  Ta98  1  0.59363593  0.40046298  0.48036609  1
  Ta  Ta99  1  0.40469258  0.39728538  0.02064295  1
  Ta  Ta100  1  0.89980007  0.89413207  0.13728346  1
  Ta  Ta101  1  0.69842988  0.09386675  0.62267688  1
  Ta  Ta102  1  0.19810577  0.20466393  0.50848858  1
  Ta  Ta103  1  0.30162748  0.49964451  0.13175016  1
  Ta  Ta104  1  0.59663923  0.79009658  0.24592719  1
  Ta  Ta105  1  0.40411389  0.59629544  0.01183706  1
  Ta  Ta106  1  0.78854495  0.60703426  0.75248455  1
  Ta  Ta107  1  0.49269913  0.89366453  0.35395831  1
  Ta  Ta108  1  0.51087466  0.49801327  0.89119514  1
  Ta  Ta109  1  0.89825739  0.90136980  0.35532379  1
  Ta  Ta110  1  0.10978779  0.29880812  0.12109790  1
  Ta  Ta111  1  0.00875850  0.60231823  0.51202835  1
  Ta  Ta112  1  0.60640491  0.60667265  0.25552752  1
  Ta  Ta113  1  0.19785242  0.40717917  0.24360035  1
  Ta  Ta114  1  0.89151858  0.70637125  0.86466700  1
  Ta  Ta115  1  0.90569356  0.50208767  0.12138509  1
  Ta  Ta116  1  0.49852058  0.10265308  0.62796701  1
  Ta  Ta117  1  0.49467962  0.69250313  0.88667166  1
  Ta  Ta118  1  0.59053120  0.20515028  0.26752226  1
  Ta  Ta119  1  0.89868517  0.51014905  0.62506047  1
  Ti  Ti120  1  0.20258842  0.59672306  0.50935798  1
  Ti  Ti121  1  0.71011798  0.50703211  0.13434761  1
  Ti  Ti122  1  0.30426938  0.49979061  0.36837246  1
  Ti  Ti123  1  0.59677971  0.41491716  0.26337216  1
  Ti  Ti124  1  0.19440961  0.00030973  0.24456429  1
  Ti  Ti125  1  0.10620621  0.50320109  0.63489857  1
  Ti  Ti126  1  0.19898629  -0.00458383  0.51677543  1
  Ti  Ti127  1  0.58063081  0.21502380  0.00674225  1
  Ti  Ti128  1  0.49138114  0.08246622  0.35113286  1
  Ti  Ti129  1  0.90466813  0.70424207  0.63495518  1
  Ti  Ti130  1  0.30748428  0.50310990  0.62742647  1
  Ti  Ti131  1  0.59813038  0.59653375  0.76018897  1
  Ti  Ti132  1  0.10291892  0.69206980  0.38383988  1
  Ti  Ti133  1  0.50965953  0.49319531  0.12742614  1
  Ti  Ti134  1  0.89280757  0.09659038  0.63209503  1
  Ti  Ti135  1  0.70091520  0.30857956  0.36601028  1
  Ti  Ti136  1  0.09500445  0.12033410  0.88412740  1
  Ti  Ti137  1  0.70323582  0.09346638  0.36310709  1
  Ti  Ti138  1  0.39391766  0.20409900  0.25514214  1
  Ti  Ti139  1  0.89409335  0.50014005  0.86903425  1
  Ti  Ti140  1  0.20442500  0.79310458  -0.00601627  1
  Ti  Ti141  1  0.79905886  0.60228343  -0.00460125  1
  Ti  Ti142  1  0.10647010  0.50096198  0.10894117  1
  Ti  Ti143  1  0.21057589  0.79063977  0.74650503  1
  Ti  Ti144  1  0.59596551  0.40993856  0.74396046  1
  Ti  Ti145  1  0.10291050  0.69546006  0.11207054  1
  Ti  Ti146  1  0.50066329  0.90444051  0.14843984  1
  Ti  Ti147  1  0.00189899  0.79147899  0.50023109  1
  Ti  Ti148  1  0.59813412  -0.01228419  0.00903031  1
  Ti  Ti149  1  0.18951075  0.20445980  0.25465562  1
  Ti  Ti150  1  0.29980792  0.89789303  0.13497731  1
  Ti  Ti151  1  0.48828239  0.31872980  0.36144607  1
  Ti  Ti152  1  0.00472747  0.19622885  0.52028497  1
  Ti  Ti153  1  0.39038868  0.19722068  0.76068182  1
  Ti  Ti154  1  0.30719242  0.68354542  0.62624489  1
  Ti  Ti155  1  0.11116870  0.50438208  0.38143813  1
  Ti  Ti156  1  0.50197394  0.89290059  0.87865765  1
  Ti  Ti157  1  0.41107231  0.59949631  0.75776602  1
  Ti  Ti158  1  0.10246168  0.10509081  0.11715910  1
  Ti  Ti159  1  0.21115175  0.60084613  0.75921676  1
  Mo  Mo160  1  0.29847065  0.29942072  0.14606606  1
  Mo  Mo161  1  0.69607060  0.89775707  0.14188719  1
  Mo  Mo162  1  0.69981298  0.70508466  0.36989681  1
  Mo  Mo163  1  0.59360015  0.60380486  0.46861225  1
  Mo  Mo164  1  0.29925887  0.89679192  0.63600268  1
  Mo  Mo165  1  0.79603178  0.00592901  0.50622128  1
  Mo  Mo166  1  0.79887341  -0.00426814  0.23249055  1
  Mo  Mo167  1  0.69080639  0.30186400  0.61895202  1
  Mo  Mo168  1  0.39205286  -0.00225467  0.23592278  1
  Mo  Mo169  1  0.00330160  0.79541398  0.76301173  1
  Mo  Mo170  1  0.79776756  0.79075253  0.74948824  1
  Mo  Mo171  1  0.10016926  0.29865774  0.88742588  1
  Mo  Mo172  1  0.59509443  0.00134790  0.25153785  1
  Mo  Mo173  1  0.00320064  0.40345336  0.01830714  1
  Mo  Mo174  1  0.80832141  0.59324669  0.24201051  1
  Mo  Mo175  1  0.81806851  0.60340519  0.51029841  1
  Mo  Mo176  1  0.00312694  0.20088123  0.73725900  1
  Mo  Mo177  1  0.49937892  0.69731047  0.12737614  1
  Mo  Mo178  1  0.40138536  0.79668942  0.23587382  1
  Mo  Mo179  1  0.09950681  0.09669147  0.60739739  1
  Mo  Mo180  1  0.30035895  0.10386103  0.86822726  1
  Mo  Mo181  1  0.40859833  0.41015064  0.75139983  1
  Mo  Mo182  1  0.50093441  0.70307082  0.37758191  1
  Mo  Mo183  1  0.90160852  0.30479641  0.13952691  1
  Mo  Mo184  1  0.30556400  0.69136059  0.86717840  1
  Mo  Mo185  1  0.50397676  0.89921379  0.62220457  1
  Mo  Mo186  1  0.79268349  0.00296863  0.74443191  1
  Mo  Mo187  1  0.19719548  0.19774659  -0.00693597  1
  Mo  Mo188  1  0.49628774  0.50238895  0.37870074  1
  Mo  Mo189  1  0.00688760  0.40594396  0.73034712  1
  Mo  Mo190  1  0.59813732  0.40554041  0.01706132  1
  Mo  Mo191  1  0.70473305  0.69396893  0.14435318  1
  Mo  Mo192  1  0.38781738  0.59936057  0.48592196  1
  Mo  Mo193  1  0.30114435  0.29358592  0.86324573  1
  Mo  Mo194  1  0.39407392  0.40546726  0.48083812  1
  Mo  Mo195  1  0.59730761  0.79963234  0.46865945  1
  Mo  Mo196  1  0.19826353  0.59084437  0.24177723  1
  Mo  Mo197  1  0.10470175  0.30533667  0.60761522  1
  Mo  Mo198  1  0.69860134  0.69141032  0.87695325  1
  Mo  Mo199  1  0.40038926  0.40484888  0.24382979  1
