# generated using pymatgen
data_HfZrTaTiMo
_symmetry_space_group_name_H-M   'P 1'
_cell_length_a   15.84385207
_cell_length_b   15.83505699
_cell_length_c   15.41651158
_cell_angle_alpha   89.99565417
_cell_angle_beta   90.03844806
_cell_angle_gamma   90.07233430
_symmetry_Int_Tables_number   1
_chemical_formula_structural   HfZrTaTiMo
_chemical_formula_sum   'Hf40 Zr40 Ta40 Ti40 Mo40'
_cell_volume   3867.81842776
_cell_formula_units_Z   40
loop_
 _symmetry_equiv_pos_site_id
 _symmetry_equiv_pos_as_xyz
  1  'x, y, z'
loop_
 _atom_site_type_symbol
 _atom_site_label
 _atom_site_symmetry_multiplicity
 _atom_site_fract_x
 _atom_site_fract_y
 _atom_site_fract_z
 _atom_site_occupancy
  Hf  Hf0  1  0.20993775  0.02076092  0.48827920  1
  Hf  Hf1  1  0.38542174  0.79511177  0.73596703  1
  Hf  Hf2  1  0.48636860  0.68040865  0.61489998  1
  Hf  Hf3  1  0.08556584  0.92163114  0.38981903  1
  Hf  Hf4  1  0.89165247  0.69309944  0.62796145  1
  Hf  Hf5  1  0.27813176  0.69366567  0.14267862  1
  Hf  Hf6  1  0.70993761  0.49646169  0.64074848  1
  Hf  Hf7  1  0.09785334  0.11191175  0.10161588  1
  Hf  Hf8  1  0.69150834  0.90333298  0.36747383  1
  Hf  Hf9  1  0.50190220  0.30449126  0.61581040  1
  Hf  Hf10  1  0.20508274  0.60465701  0.72639820  1
  Hf  Hf11  1  0.28950281  0.89487415  0.86621717  1
  Hf  Hf12  1  0.29383360  0.70149476  0.60057419  1
  Hf  Hf13  1  0.79197894  0.60146050  0.00093596  1
  Hf  Hf14  1  0.70201366  0.10280434  0.11987633  1
  Hf  Hf15  1  0.48726933  0.92366654  0.64014150  1
  Hf  Hf16  1  0.49568661  0.09974686  0.35835853  1
  Hf  Hf17  1  0.60142371  0.60425632  0.23633490  1
  Hf  Hf18  1  0.62050719  0.39521039  0.49853022  1
  Hf  Hf19  1  0.50161626  0.10822562  0.89223084  1
  Hf  Hf20  1  -0.01294972  0.80455040  0.50014852  1
  Hf  Hf21  1  0.08827749  0.49570280  0.62152044  1
  Hf  Hf22  1  0.70970803  0.29564946  0.63732440  1
  Hf  Hf23  1  0.49145192  0.89065519  0.88141446  1
  Hf  Hf24  1  0.80063317  0.18697837  0.77473748  1
  Hf  Hf25  1  0.40425797  0.60120044  0.25577372  1
  Hf  Hf26  1  0.40065086  0.21036439  0.74897953  1
  Hf  Hf27  1  0.79535991  -0.00334485  -0.00724453  1
  Hf  Hf28  1  0.91218951  0.50560914  0.88456156  1
  Hf  Hf29  1  0.09948515  0.10192436  0.63259368  1
  Hf  Hf30  1  -0.00098642  0.20441185  0.49948536  1
  Hf  Hf31  1  0.11802750  0.52012004  0.87730142  1
  Hf  Hf32  1  0.20202042  0.00589645  0.25069185  1
  Hf  Hf33  1  0.09638508  0.31125343  0.11483934  1
  Hf  Hf34  1  0.30337710  0.70327745  0.38286695  1
  Hf  Hf35  1  0.39564761  -0.01003815  0.00538072  1
  Hf  Hf36  1  0.28167645  0.69503160  0.87383583  1
  Hf  Hf37  1  0.40173936  0.00099603  0.49237821  1
  Hf  Hf38  1  0.09767373  0.69767473  0.38508703  1
  Hf  Hf39  1  0.49656089  0.49558213  0.38747530  1
  Zr  Zr40  1  0.00540158  0.79460411  0.74693729  1
  Zr  Zr41  1  0.30544855  0.29167973  0.38683713  1
  Zr  Zr42  1  0.20210510  0.21229191  0.76918266  1
  Zr  Zr43  1  0.69896583  0.69613052  0.63491049  1
  Zr  Zr44  1  0.09820757  0.89019414  0.11938178  1
  Zr  Zr45  1  0.60444541  0.39915588  0.23873751  1
  Zr  Zr46  1  0.22071971  0.41483418  -0.00241470  1
  Zr  Zr47  1  0.89453675  0.90658813  0.62879736  1
  Zr  Zr48  1  0.37334174  0.58622569  0.01370212  1
  Zr  Zr49  1  0.70308631  0.90302141  0.62134483  1
  Zr  Zr50  1  -0.00626306  0.00599267  0.76028163  1
  Zr  Zr51  1  0.20155868  0.19849433  0.24467956  1
  Zr  Zr52  1  0.82809361  0.40418255  0.49201819  1
  Zr  Zr53  1  0.09841965  0.29841187  0.37118499  1
  Zr  Zr54  1  0.79820129  0.20524356  0.48307682  1
  Zr  Zr55  1  0.59528766  0.79997666  0.74954645  1
  Zr  Zr56  1  0.10437415  0.09668440  0.88572421  1
  Zr  Zr57  1  -0.01646708  0.80759184  0.26594150  1
  Zr  Zr58  1  0.48232904  0.68927307  0.88022369  1
  Zr  Zr59  1  0.10252571  0.29933725  0.62460600  1
  Zr  Zr60  1  0.58944463  0.79018223  0.24165205  1
  Zr  Zr61  1  0.39943507  0.39002478  0.23605813  1
  Zr  Zr62  1  0.50096154  0.30578296  0.88785891  1
  Zr  Zr63  1  0.71404260  0.50367037  0.36190824  1
  Zr  Zr64  1  0.79936991  0.40202176  -0.00506540  1
  Zr  Zr65  1  0.68480526  0.68958872  0.86926597  1
  Zr  Zr66  1  0.70643310  0.09420700  0.62101921  1
  Zr  Zr67  1  0.50519415  0.29093479  0.38334648  1
  Zr  Zr68  1  0.22181046  0.40353309  0.74933660  1
  Zr  Zr69  1  0.11508476  0.51731785  0.13035652  1
  Zr  Zr70  1  0.30194959  0.07760926  0.65480101  1
  Zr  Zr71  1  0.00409187  0.00537601  0.23267805  1
  Zr  Zr72  1  0.90188836  0.70779027  0.11362640  1
  Zr  Zr73  1  0.59002439  0.80158992  0.49918517  1
  Zr  Zr74  1  -0.01053414  0.59585373  0.25832442  1
  Zr  Zr75  1  0.92246038  0.10232785  0.36576767  1
  Zr  Zr76  1  0.60872427  0.00820394  0.77145490  1
  Zr  Zr77  1  0.69294225  0.10527989  0.36035812  1
  Zr  Zr78  1  0.80853674  -0.00693417  0.24448004  1
  Zr  Zr79  1  0.90430521  0.30181468  0.64516776  1
  Ta  Ta80  1  0.79865657  0.80276247  0.77162407  1
  Ta  Ta81  1  0.80530025  0.59766121  0.76747940  1
  Ta  Ta82  1  0.70766476  0.29727440  0.11662843  1
  Ta  Ta83  1  0.20546874  0.39730493  0.50734983  1
  Ta  Ta84  1  0.81098640  0.20796147  0.24055937  1
  Ta  Ta85  1  0.79703007  -0.00426619  0.78049737  1
  Ta  Ta86  1  0.90428342  0.11172978  0.10877177  1
  Ta  Ta87  1  0.59614493  0.79409514  0.00839425  1
  Ta  Ta88  1  0.19441246  0.58899951  0.49583411  1
  Ta  Ta89  1  0.90514245  0.89322989  0.88621349  1
  Ta  Ta90  1  0.49867659  0.49812940  0.11695772  1
  Ta  Ta91  1  0.60020914  0.59594960  0.01523879  1
  Ta  Ta92  1  0.39687065  0.19691192  0.22669128  1
  Ta  Ta93  1  0.90870001  0.29933780  0.10938402  1
  Ta  Ta94  1  0.30451575  0.90317339  0.36481700  1
  Ta  Ta95  1  -0.01619536  0.58445636  0.49368149  1
  Ta  Ta96  1  0.60414563  0.59519526  0.50072211  1
  Ta  Ta97  1  0.30459573  0.09761670  0.88224186  1
  Ta  Ta98  1  0.81396418  0.40596080  0.22959884  1
  Ta  Ta99  1  0.41073759  0.41331304  0.74163197  1
  Ta  Ta100  1  0.59913068  0.39475018  0.75565669  1
  Ta  Ta101  1  0.49945955  0.09860994  0.11742086  1
  Ta  Ta102  1  0.79132652  0.79135983  0.25406962  1
  Ta  Ta103  1  0.19246726  0.80624362  0.26659669  1
  Ta  Ta104  1  0.69457564  0.28906037  0.88810856  1
  Ta  Ta105  1  0.49321353  0.89946806  0.36045277  1
  Ta  Ta106  1  0.39503025  0.00015732  0.23471992  1
  Ta  Ta107  1  0.79501428  0.79657583  0.48341168  1
  Ta  Ta108  1  0.49760859  0.49878883  0.88946894  1
  Ta  Ta109  1  0.01179944  0.39649811  0.77591771  1
  Ta  Ta110  1  0.09355734  0.48713275  0.37714409  1
  Ta  Ta111  1  0.79792596  0.59674166  0.50087597  1
  Ta  Ta112  1  0.91639851  0.49721915  0.10899004  1
  Ta  Ta113  1  0.81233087  -0.00201987  0.48294902  1
  Ta  Ta114  1  0.29548658  0.09857169  0.10635388  1
  Ta  Ta115  1  0.70115181  0.89021186  0.12135379  1
  Ta  Ta116  1  0.39112772  0.18624780  0.51695064  1
  Ta  Ta117  1  0.29527560  0.49414089  0.37748397  1
  Ta  Ta118  1  0.60018800  -0.00833302  0.00451386  1
  Ta  Ta119  1  0.11209093  0.90940596  0.62475618  1
  Ti  Ti120  1  0.59425706  0.00377202  0.49779951  1
  Ti  Ti121  1  0.90149908  0.49488464  0.64511307  1
  Ti  Ti122  1  0.79675414  0.60046878  0.22819711  1
  Ti  Ti123  1  0.21076066  0.21683835  -0.01084390  1
  Ti  Ti124  1  0.00120584  -0.00909841  -0.00189174  1
  Ti  Ti125  1  0.80509501  0.39469293  0.77582002  1
  Ti  Ti126  1  0.39648584  0.20961923  0.01222335  1
  Ti  Ti127  1  0.00276941  0.60280285  0.75076145  1
  Ti  Ti128  1  0.57729537  0.57848895  0.74270315  1
  Ti  Ti129  1  0.59469166  0.20711359  0.23076826  1
  Ti  Ti130  1  0.19911344  -0.01129939  -0.00153545  1
  Ti  Ti131  1  0.01816983  0.61918165  -0.00201975  1
  Ti  Ti132  1  0.90958311  0.70311516  0.88027704  1
  Ti  Ti133  1  0.88323186  0.68915850  0.37570061  1
  Ti  Ti134  1  0.60318773  0.40198644  0.01100955  1
  Ti  Ti135  1  0.20081168  0.81723027  0.49688541  1
  Ti  Ti136  1  0.39647351  0.39582917  0.01423463  1
  Ti  Ti137  1  0.79118957  0.79654286  -0.01156273  1
  Ti  Ti138  1  0.18634293  0.78480175  0.00186951  1
  Ti  Ti139  1  0.32504637  0.50465767  0.60241272  1
  Ti  Ti140  1  0.59632675  0.18782987  0.50666222  1
  Ti  Ti141  1  0.68769154  0.49560894  0.87053637  1
  Ti  Ti142  1  0.20531235  0.40120545  0.24649804  1
  Ti  Ti143  1  0.60010079  0.19816180  0.74944959  1
  Ti  Ti144  1  0.91552093  0.31655491  0.34985595  1
  Ti  Ti145  1  0.89775466  0.10004893  0.62516888  1
  Ti  Ti146  1  0.10267633  0.88639698  0.87077233  1
  Ti  Ti147  1  0.39669978  0.79976286  0.24834668  1
  Ti  Ti148  1  0.49308449  0.89218369  0.12267715  1
  Ti  Ti149  1  0.09529071  0.70114006  0.60617074  1
  Ti  Ti150  1  0.90378737  0.10689528  0.90006993  1
  Ti  Ti151  1  0.29454096  0.88701893  0.12506210  1
  Ti  Ti152  1  0.48310888  0.70175827  0.10926208  1
  Ti  Ti153  1  0.59314065  -0.00499944  0.23209034  1
  Ti  Ti154  1  0.70900412  0.30055573  0.35382420  1
  Ti  Ti155  1  0.09653203  0.70444744  0.14264268  1
  Ti  Ti156  1  0.69244748  0.69566867  0.37651909  1
  Ti  Ti157  1  0.00016323  0.20847040  0.77511977  1
  Ti  Ti158  1  0.40025832  0.81166995  0.50047798  1
  Ti  Ti159  1  0.89660110  0.89400388  0.10858435  1
  Mo  Mo160  1  0.19669480  0.59922844  0.28183716  1
  Mo  Mo161  1  0.10380999  0.31124056  0.88879559  1
  Mo  Mo162  1  0.00206957  0.40123296  0.23393610  1
  Mo  Mo163  1  0.30467680  0.30095876  0.61142915  1
  Mo  Mo164  1  0.50422070  0.10487084  0.62781256  1
  Mo  Mo165  1  0.69507697  0.10330243  0.89517923  1
  Mo  Mo166  1  0.50854919  0.49632371  0.61055240  1
  Mo  Mo167  1  0.31699506  0.50478979  0.86376291  1
  Mo  Mo168  1  0.00265645  0.79993800  -0.00978402  1
  Mo  Mo169  1  0.19620023  0.60823349  0.00452143  1
  Mo  Mo170  1  0.40113781  0.00377465  0.77678828  1
  Mo  Mo171  1  0.19602559  -0.00441359  0.76674579  1
  Mo  Mo172  1  0.19402319  0.80092032  0.72784478  1
  Mo  Mo173  1  0.70035165  0.70427286  0.11788309  1
  Mo  Mo174  1  0.89279274  0.89847083  0.37963394  1
  Mo  Mo175  1  0.10795733  0.11036137  0.38251764  1
  Mo  Mo176  1  0.00106897  0.40293868  0.49967056  1
  Mo  Mo177  1  0.20599836  0.19820302  0.49849174  1
  Mo  Mo178  1  0.29918586  0.49941197  0.15411467  1
  Mo  Mo179  1  0.29322652  0.89883014  0.63068720  1
  Mo  Mo180  1  -0.00359200  0.20581103  0.23478514  1
  Mo  Mo181  1  0.31267457  0.30393432  0.88827152  1
  Mo  Mo182  1  0.39443193  0.58883039  0.74857184  1
  Mo  Mo183  1  0.29695936  0.29657071  0.11656208  1
  Mo  Mo184  1  0.80146813  0.20046040  -0.00323695  1
  Mo  Mo185  1  0.09838929  0.70452600  0.86611737  1
  Mo  Mo186  1  0.50390377  0.29766809  0.11152787  1
  Mo  Mo187  1  0.70510876  0.49944792  0.12761599  1
  Mo  Mo188  1  0.60048388  0.20105544  0.01556732  1
  Mo  Mo189  1  0.69715191  0.89305085  0.89348041  1
  Mo  Mo190  1  0.40064945  0.59871261  0.47970467  1
  Mo  Mo191  1  -0.00156558  0.00742062  0.51571431  1
  Mo  Mo192  1  0.38791278  0.79717244  0.01587959  1
  Mo  Mo193  1  0.31200731  0.10161453  0.36065941  1
  Mo  Mo194  1  0.50121626  0.70249201  0.39046679  1
  Mo  Mo195  1  0.00198898  0.21172361  -0.01449574  1
  Mo  Mo196  1  0.90273023  0.30047782  0.88129806  1
  Mo  Mo197  1  0.00911553  0.40947701  -0.01076945  1
  Mo  Mo198  1  0.40158538  0.39601565  0.50873164  1
  Mo  Mo199  1  0.90051758  0.50099601  0.36162083  1
