# generated using pymatgen
data_HfZrTaTiMo
_symmetry_space_group_name_H-M   'P 1'
_cell_length_a   15.82164140
_cell_length_b   15.85179988
_cell_length_c   15.39689384
_cell_angle_alpha   89.95584843
_cell_angle_beta   90.08637897
_cell_angle_gamma   89.92988554
_symmetry_Int_Tables_number   1
_chemical_formula_structural   HfZrTaTiMo
_chemical_formula_sum   'Hf40 Zr40 Ta40 Ti40 Mo40'
_cell_volume   3861.55553271
_cell_formula_units_Z   40
loop_
 _symmetry_equiv_pos_site_id
 _symmetry_equiv_pos_as_xyz
  1  'x, y, z'
loop_
 _atom_site_type_symbol
 _atom_site_label
 _atom_site_symmetry_multiplicity
 _atom_site_fract_x
 _atom_site_fract_y
 _atom_site_fract_z
 _atom_site_occupancy
  Hf  Hf0  1  0.19960783  0.59634699  -0.01503946  1
  Hf  Hf1  1  0.29694833  0.70465071  0.11199216  1
  Hf  Hf2  1  0.50025619  0.69959780  0.87936079  1
  Hf  Hf3  1  -0.00260428  0.80013441  0.50343808  1
  Hf  Hf4  1  0.89201461  0.49421578  0.62529103  1
  Hf  Hf5  1  0.19007066  0.81005154  0.25538420  1
  Hf  Hf6  1  0.60862682  0.80263235  0.75824139  1
  Hf  Hf7  1  0.29771213  0.70374603  0.38310342  1
  Hf  Hf8  1  0.80968167  0.79978167  0.74697833  1
  Hf  Hf9  1  0.50415218  0.49517707  0.87732817  1
  Hf  Hf10  1  0.80264758  0.40133656  0.22506235  1
  Hf  Hf11  1  0.00776615  0.39968093  0.49038706  1
  Hf  Hf12  1  0.20651234  0.00013930  0.23908858  1
  Hf  Hf13  1  0.50354833  0.10308047  0.60967133  1
  Hf  Hf14  1  0.70372239  0.30279916  0.35441414  1
  Hf  Hf15  1  0.10081267  0.28762019  0.36066911  1
  Hf  Hf16  1  0.69614793  0.50556698  0.89401423  1
  Hf  Hf17  1  0.39700100  0.79488406  0.24997644  1
  Hf  Hf18  1  -0.01526430  0.61103512  0.74961964  1
  Hf  Hf19  1  0.30712223  0.29740974  0.11855973  1
  Hf  Hf20  1  0.49689663  0.90842739  0.37963738  1
  Hf  Hf21  1  0.40161958  0.38117714  0.74671894  1
  Hf  Hf22  1  0.09390925  0.50512645  0.11288763  1
  Hf  Hf23  1  0.40196687  0.00949234  0.23726868  1
  Hf  Hf24  1  0.69783147  0.10250196  0.88321409  1
  Hf  Hf25  1  0.30450373  0.50326872  0.36938006  1
  Hf  Hf26  1  0.49475880  0.70558059  0.38872727  1
  Hf  Hf27  1  0.89964077  0.69320236  0.10519626  1
  Hf  Hf28  1  0.18258210  0.79385527  -0.03093731  1
  Hf  Hf29  1  0.20703380  -0.00989241  0.51846981  1
  Hf  Hf30  1  0.30869053  0.28757826  0.36505037  1
  Hf  Hf31  1  0.78522886  0.39058373  0.76998143  1
  Hf  Hf32  1  0.90597930  0.10561168  0.37382256  1
  Hf  Hf33  1  0.49487039  0.90897267  0.88434415  1
  Hf  Hf34  1  0.11044065  0.09674193  0.38047719  1
  Hf  Hf35  1  0.61715019  0.00433426  0.49262728  1
  Hf  Hf36  1  -0.00149734  0.19573950  0.76713819  1
  Hf  Hf37  1  0.00254488  0.38840462  -0.00511079  1
  Hf  Hf38  1  0.79698546  0.00046277  0.22987970  1
  Hf  Hf39  1  0.30129790  0.90029587  0.87043244  1
  Zr  Zr40  1  0.79835621  0.00261607  0.02272159  1
  Zr  Zr41  1  0.80537236  0.78802743  0.24996624  1
  Zr  Zr42  1  0.00214369  0.40740560  0.25025357  1
  Zr  Zr43  1  0.39061408  0.59450701  0.51884328  1
  Zr  Zr44  1  0.70215495  0.90385915  0.88048898  1
  Zr  Zr45  1  0.91381174  0.88867314  0.11461166  1
  Zr  Zr46  1  0.31223964  0.10001675  0.87556556  1
  Zr  Zr47  1  0.51017038  0.28846996  0.61349414  1
  Zr  Zr48  1  -0.01351948  0.60669307  0.26819625  1
  Zr  Zr49  1  0.50107003  0.89209627  0.12467663  1
  Zr  Zr50  1  0.69533994  0.71433417  0.61053130  1
  Zr  Zr51  1  0.89219561  0.50381831  0.88642232  1
  Zr  Zr52  1  0.30203402  0.49138580  0.86563205  1
  Zr  Zr53  1  0.90163136  0.09699928  0.61963756  1
  Zr  Zr54  1  0.49989579  0.70152490  0.62213139  1
  Zr  Zr55  1  0.60416960  0.22006529  0.76843942  1
  Zr  Zr56  1  0.00950253  0.00258023  0.24225519  1
  Zr  Zr57  1  0.19733309  0.19931782  0.00430079  1
  Zr  Zr58  1  0.29978622  0.89860312  0.09772099  1
  Zr  Zr59  1  0.60000616  0.59519751  0.49340736  1
  Zr  Zr60  1  0.88451380  0.49441870  0.38811270  1
  Zr  Zr61  1  0.70134592  0.11111744  0.62866975  1
  Zr  Zr62  1  0.18981920  0.59777989  0.51279998  1
  Zr  Zr63  1  0.19409100  0.60046723  0.24919410  1
  Zr  Zr64  1  0.70241985  0.48840393  0.62086591  1
  Zr  Zr65  1  0.09940383  0.10154280  0.63308386  1
  Zr  Zr66  1  0.51069767  0.49025263  0.63913734  1
  Zr  Zr67  1  0.09421968  0.48999475  0.64540204  1
  Zr  Zr68  1  0.58249843  0.60235165  0.24258960  1
  Zr  Zr69  1  0.69648526  0.50298049  0.36172689  1
  Zr  Zr70  1  0.20561499  0.40252121  0.24115944  1
  Zr  Zr71  1  0.20045071  0.39695832  0.50088929  1
  Zr  Zr72  1  0.39677231  0.39193989  0.50596171  1
  Zr  Zr73  1  0.08684241  0.70963157  0.12174904  1
  Zr  Zr74  1  0.89288514  0.29909949  0.61259348  1
  Zr  Zr75  1  0.51899721  0.89791817  0.61326616  1
  Zr  Zr76  1  0.59663454  0.00941729  0.02372432  1
  Zr  Zr77  1  0.80649701  0.20624577  0.77001580  1
  Zr  Zr78  1  0.42301058  0.39993185  0.23626744  1
  Zr  Zr79  1  0.89874499  0.90425854  0.37519142  1
  Ta  Ta80  1  0.60952762  0.60166656  0.75421768  1
  Ta  Ta81  1  0.38318430  0.81498535  0.51648502  1
  Ta  Ta82  1  0.79296221  0.60978619  0.74685326  1
  Ta  Ta83  1  0.09830633  0.49230343  0.86385398  1
  Ta  Ta84  1  0.69226578  0.50585746  0.11877321  1
  Ta  Ta85  1  0.18623556  0.00923568  -0.01509447  1
  Ta  Ta86  1  0.19958465  0.00185373  0.75366090  1
  Ta  Ta87  1  0.39743779  0.59591426  0.00274834  1
  Ta  Ta88  1  0.80663267  -0.00355998  0.75262032  1
  Ta  Ta89  1  0.79005278  0.19863047  0.48464248  1
  Ta  Ta90  1  0.00630122  0.18784282  -0.00140685  1
  Ta  Ta91  1  -0.01316370  0.38647096  0.76737570  1
  Ta  Ta92  1  0.28886150  0.70864355  0.64079753  1
  Ta  Ta93  1  0.69276908  0.70088546  0.11586729  1
  Ta  Ta94  1  0.20750840  0.20532423  0.51225189  1
  Ta  Ta95  1  0.09695589  0.70154942  0.38413269  1
  Ta  Ta96  1  0.80815979  0.19843733  0.23353118  1
  Ta  Ta97  1  0.49809083  0.29778703  0.89655796  1
  Ta  Ta98  1  0.69685204  0.90337682  0.35901307  1
  Ta  Ta99  1  0.19268165  0.80489128  0.50954409  1
  Ta  Ta100  1  0.00965959  -0.00812898  0.50018138  1
  Ta  Ta101  1  0.30055295  0.90645009  0.38104926  1
  Ta  Ta102  1  0.11073388  0.29963598  0.86956960  1
  Ta  Ta103  1  0.09847080  0.90198834  0.10051258  1
  Ta  Ta104  1  0.70003540  0.10043031  0.35623825  1
  Ta  Ta105  1  -0.00395814  0.60422571  0.50429404  1
  Ta  Ta106  1  0.20666849  0.18404386  0.23346509  1
  Ta  Ta107  1  0.19499806  0.60286330  0.75414975  1
  Ta  Ta108  1  0.79939822  0.20421784  0.01309100  1
  Ta  Ta109  1  0.60118761  0.38927085  0.48068674  1
  Ta  Ta110  1  0.90001872  0.29265493  0.36911336  1
  Ta  Ta111  1  0.30860083  0.10356594  0.62367284  1
  Ta  Ta112  1  0.90036696  0.08954545  0.89243555  1
  Ta  Ta113  1  0.58678323  0.20661698  0.25441894  1
  Ta  Ta114  1  0.30899795  0.09625371  0.39116970  1
  Ta  Ta115  1  0.30804165  0.29684965  0.88424668  1
  Ta  Ta116  1  0.40076179  0.80574538  0.74410477  1
  Ta  Ta117  1  0.40609099  -0.00099482  0.73482370  1
  Ta  Ta118  1  0.30444498  0.70085243  0.86128406  1
  Ta  Ta119  1  0.88861026  0.70549641  0.89020954  1
  Ti  Ti120  1  0.70255981  0.70619996  0.37972119  1
  Ti  Ti121  1  0.70161437  0.69512089  0.89212574  1
  Ti  Ti122  1  0.80327613  0.00027919  0.49975734  1
  Ti  Ti123  1  0.40094858  0.19207471  0.23952579  1
  Ti  Ti124  1  0.10367789  0.30075081  0.64175497  1
  Ti  Ti125  1  0.41156171  0.18502935  0.01171080  1
  Ti  Ti126  1  0.69841635  0.30217526  0.61121313  1
  Ti  Ti127  1  0.68470181  0.11868714  0.13644577  1
  Ti  Ti128  1  -0.00384526  -0.00513475  0.76837104  1
  Ti  Ti129  1  0.39626253  0.59427807  0.22677203  1
  Ti  Ti130  1  0.29204993  0.49188910  0.64366963  1
  Ti  Ti131  1  0.60544231  0.00290362  0.74538641  1
  Ti  Ti132  1  0.89931715  0.50897356  0.10675204  1
  Ti  Ti133  1  0.79632542  0.60314223  0.24171845  1
  Ti  Ti134  1  -0.00220843  0.80470334  0.76847106  1
  Ti  Ti135  1  0.40028320  0.40542128  0.01128829  1
  Ti  Ti136  1  0.49809854  0.49453298  0.37353060  1
  Ti  Ti137  1  0.00886871  0.60899851  -0.02307861  1
  Ti  Ti138  1  0.09305226  0.70782508  0.63742393  1
  Ti  Ti139  1  0.09951097  0.89610071  0.64749216  1
  Ti  Ti140  1  0.79862096  0.39196357  0.01133150  1
  Ti  Ti141  1  0.21170628  0.20437848  0.74958623  1
  Ti  Ti142  1  0.49755331  0.69998110  0.10661471  1
  Ti  Ti143  1  0.91088870  0.29088197  0.12422296  1
  Ti  Ti144  1  0.79267669  0.80535092  0.00533220  1
  Ti  Ti145  1  0.49578394  0.10816018  0.38420833  1
  Ti  Ti146  1  0.09858604  0.29227050  0.13239789  1
  Ti  Ti147  1  0.40670576  0.19573634  0.75292223  1
  Ti  Ti148  1  0.50222992  0.09789704  0.87829950  1
  Ti  Ti149  1  0.60121812  0.39602448  0.01333970  1
  Ti  Ti150  1  0.90368825  0.90179098  0.62563299  1
  Ti  Ti151  1  0.79598731  0.81272454  0.50133124  1
  Ti  Ti152  1  0.60102035  0.79849766  0.25159587  1
  Ti  Ti153  1  0.51301959  0.29047967  0.11412407  1
  Ti  Ti154  1  0.40134933  0.60153975  0.74498499  1
  Ti  Ti155  1  0.80427310  0.61181961  0.50544223  1
  Ti  Ti156  1  0.20250574  0.40004243  0.00098227  1
  Ti  Ti157  1  0.00227659  0.80192280  0.26875588  1
  Ti  Ti158  1  0.60206319  0.80253551  0.00152044  1
  Ti  Ti159  1  0.00741195  0.20094446  0.50362014  1
  Mo  Mo160  1  0.39751333  0.79246497  -0.01749935  1
  Mo  Mo161  1  0.50058189  0.29610141  0.37487993  1
  Mo  Mo162  1  0.59952501  0.20305942  -0.00118108  1
  Mo  Mo163  1  -0.00442668  0.80252607  -0.02494186  1
  Mo  Mo164  1  0.29825219  0.28870489  0.63472438  1
  Mo  Mo165  1  0.59459128  0.60435847  0.00635577  1
  Mo  Mo166  1  0.09446707  0.90478687  0.86862078  1
  Mo  Mo167  1  0.89234744  0.70130427  0.39418442  1
  Mo  Mo168  1  0.10301591  0.10176574  0.85937580  1
  Mo  Mo169  1  0.69734305  0.30146228  0.12973212  1
  Mo  Mo170  1  0.69389949  0.88621829  0.14110373  1
  Mo  Mo171  1  0.69775732  0.30608580  0.90856486  1
  Mo  Mo172  1  0.30071788  0.50118192  0.11426368  1
  Mo  Mo173  1  0.19363122  0.80121259  0.75090695  1
  Mo  Mo174  1  0.39724405  0.00438724  0.00710666  1
  Mo  Mo175  1  0.59807875  0.39923046  0.23482578  1
  Mo  Mo176  1  0.09818040  0.50733619  0.38180906  1
  Mo  Mo177  1  0.30205996  0.09796260  0.10809537  1
  Mo  Mo178  1  0.40144515  0.00009744  0.51010323  1
  Mo  Mo179  1  0.29741088  0.90156977  0.64397590  1
  Mo  Mo180  1  0.39674802  0.19734340  0.49623026  1
  Mo  Mo181  1  0.90569671  0.10438590  0.11520040  1
  Mo  Mo182  1  0.79810229  0.38803874  0.49184720  1
  Mo  Mo183  1  0.60139542  0.39743782  0.76952734  1
  Mo  Mo184  1  0.89661886  0.90098690  0.88505489  1
  Mo  Mo185  1  0.79525219  0.60170502  0.01112019  1
  Mo  Mo186  1  0.89708919  0.70252609  0.61480438  1
  Mo  Mo187  1  0.50108463  0.50210312  0.10561749  1
  Mo  Mo188  1  0.09974692  0.09642380  0.12437208  1
  Mo  Mo189  1  0.00462638  0.00092545  -0.01104253  1
  Mo  Mo190  1  0.61074769  0.80704670  0.47764472  1
  Mo  Mo191  1  0.09347360  0.69583412  0.85568027  1
  Mo  Mo192  1  0.90165274  0.29287079  0.89971056  1
  Mo  Mo193  1  0.71538592  0.91272125  0.62885096  1
  Mo  Mo194  1  0.10781009  0.89766332  0.38367418  1
  Mo  Mo195  1  0.19872314  0.38995316  0.75511633  1
  Mo  Mo196  1  0.59820837  0.00736104  0.25295786  1
  Mo  Mo197  1  0.00396205  0.19769318  0.23394099  1
  Mo  Mo198  1  0.50033520  0.10638696  0.13253102  1
  Mo  Mo199  1  0.60338655  0.20164369  0.47227353  1
