# generated using pymatgen
data_HfZrTaTiMo
_symmetry_space_group_name_H-M   'P 1'
_cell_length_a   15.84569725
_cell_length_b   15.83136300
_cell_length_c   15.40287911
_cell_angle_alpha   90.01679491
_cell_angle_beta   89.99401859
_cell_angle_gamma   90.00217203
_symmetry_Int_Tables_number   1
_chemical_formula_structural   HfZrTaTiMo
_chemical_formula_sum   'Hf40 Zr40 Ta40 Ti40 Mo40'
_cell_volume   3863.95043141
_cell_formula_units_Z   40
loop_
 _symmetry_equiv_pos_site_id
 _symmetry_equiv_pos_as_xyz
  1  'x, y, z'
loop_
 _atom_site_type_symbol
 _atom_site_label
 _atom_site_symmetry_multiplicity
 _atom_site_fract_x
 _atom_site_fract_y
 _atom_site_fract_z
 _atom_site_occupancy
  Hf  Hf0  1  0.29641636  0.89811389  0.37507987  1
  Hf  Hf1  1  0.19952036  0.59902950  0.75107905  1
  Hf  Hf2  1  0.00110749  0.20084928  0.00123063  1
  Hf  Hf3  1  0.89964650  0.70814902  0.36756053  1
  Hf  Hf4  1  0.70680763  0.49996619  0.62214892  1
  Hf  Hf5  1  0.02713085  0.01653499  0.76263314  1
  Hf  Hf6  1  0.49386664  0.30496627  0.36949918  1
  Hf  Hf7  1  0.08849067  0.29578992  0.62104262  1
  Hf  Hf8  1  0.89970001  0.90488857  0.63802631  1
  Hf  Hf9  1  0.78768410  0.59806115  0.24648421  1
  Hf  Hf10  1  0.78860280  0.60330597  0.00278493  1
  Hf  Hf11  1  0.88958833  0.72047271  0.14268383  1
  Hf  Hf12  1  0.39949406  -0.00543758  -0.01248361  1
  Hf  Hf13  1  -0.00016663  0.59585611  0.25046666  1
  Hf  Hf14  1  0.80808216  0.80076938  -0.01058881  1
  Hf  Hf15  1  0.60182381  0.81254862  0.49467168  1
  Hf  Hf16  1  0.09451032  0.49568301  0.12145644  1
  Hf  Hf17  1  0.39542237  0.39098612  -0.00821409  1
  Hf  Hf18  1  0.29446665  0.09123432  0.62952832  1
  Hf  Hf19  1  0.10183080  0.10077687  0.59869660  1
  Hf  Hf20  1  0.58991400  0.18275597  0.50255832  1
  Hf  Hf21  1  0.61155740  0.00176718  0.24589385  1
  Hf  Hf22  1  0.80354448  0.39714469  0.25962498  1
  Hf  Hf23  1  0.50543429  0.68825994  0.38165843  1
  Hf  Hf24  1  0.30342317  0.70905063  0.88134913  1
  Hf  Hf25  1  0.09593305  0.89422750  0.37548747  1
  Hf  Hf26  1  0.19842980  0.00008645  -0.00143687  1
  Hf  Hf27  1  0.70849123  0.70326527  0.62295852  1
  Hf  Hf28  1  0.39933814  0.79398657  0.24035432  1
  Hf  Hf29  1  0.41490290  0.00772851  0.49453045  1
  Hf  Hf30  1  0.79815931  0.20592535  0.00898834  1
  Hf  Hf31  1  0.10156569  0.08989706  0.38380141  1
  Hf  Hf32  1  0.39710275  0.20384249  0.49636463  1
  Hf  Hf33  1  0.49003282  0.09447557  0.13736184  1
  Hf  Hf34  1  0.30677678  0.69300567  0.62255303  1
  Hf  Hf35  1  0.01859463  0.80133251  0.74725684  1
  Hf  Hf36  1  0.08805265  0.49417856  0.63156032  1
  Hf  Hf37  1  0.20379072  0.80661317  0.01881767  1
  Hf  Hf38  1  0.30597131  0.68899474  0.38153184  1
  Hf  Hf39  1  -0.00259439  0.79807405  0.50571874  1
  Zr  Zr40  1  0.11224934  0.69566235  0.37214336  1
  Zr  Zr41  1  0.29023759  0.29309580  0.64256050  1
  Zr  Zr42  1  0.00551542  0.80797495  -0.00090096  1
  Zr  Zr43  1  0.60324219  0.40787023  0.23803315  1
  Zr  Zr44  1  0.79562865  0.20304563  0.73557675  1
  Zr  Zr45  1  0.60710958  -0.00160642  0.01058789  1
  Zr  Zr46  1  0.89872077  0.10051373  0.13997468  1
  Zr  Zr47  1  0.60531936  0.79658201  0.25210957  1
  Zr  Zr48  1  0.70019454  0.90187172  0.62977540  1
  Zr  Zr49  1  0.10845887  0.91600141  0.60860365  1
  Zr  Zr50  1  0.51771207  0.68961823  0.88874387  1
  Zr  Zr51  1  0.70377778  0.89636768  0.85736816  1
  Zr  Zr52  1  0.49104218  0.50785116  0.37561994  1
  Zr  Zr53  1  0.19690348  0.20384337  0.25743597  1
  Zr  Zr54  1  0.40853207  0.58426521  0.75254205  1
  Zr  Zr55  1  -0.00327449  0.20770243  0.26671578  1
  Zr  Zr56  1  0.58208038  0.40147696  0.51506235  1
  Zr  Zr57  1  0.70130601  0.30506825  0.62000989  1
  Zr  Zr58  1  0.60731115  0.20103772  0.24564493  1
  Zr  Zr59  1  0.40651757  0.80369188  0.50004669  1
  Zr  Zr60  1  0.29051957  0.49266083  0.12054875  1
  Zr  Zr61  1  0.29457717  0.50185140  0.35943395  1
  Zr  Zr62  1  0.89886256  0.90392255  0.85436832  1
  Zr  Zr63  1  0.00505017  -0.00498043  0.00533611  1
  Zr  Zr64  1  0.39759292  0.59436852  -0.00016879  1
  Zr  Zr65  1  0.17866092  0.18684841  0.76354899  1
  Zr  Zr66  1  -0.01062045  0.40108874  -0.00616005  1
  Zr  Zr67  1  0.41084367  0.79178651  0.74394786  1
  Zr  Zr68  1  -0.01197400  0.61005514  0.00234046  1
  Zr  Zr69  1  0.39754304  0.19306414  -0.00240653  1
  Zr  Zr70  1  0.70113882  0.29766751  0.38838596  1
  Zr  Zr71  1  0.69178592  0.50961748  0.39306779  1
  Zr  Zr72  1  0.81068393  0.18358277  0.50585119  1
  Zr  Zr73  1  0.37986604  0.41380012  0.51838692  1
  Zr  Zr74  1  -0.00167633  0.58953288  0.49455228  1
  Zr  Zr75  1  0.49649338  0.28821612  0.86472166  1
  Zr  Zr76  1  0.89877377  0.10481744  0.87012843  1
  Zr  Zr77  1  0.20044660  0.20049613  -0.00414446  1
  Zr  Zr78  1  0.50826062  0.88444338  0.87740391  1
  Zr  Zr79  1  0.69687171  0.10294402  0.88127169  1
  Ta  Ta80  1  0.30250425  0.09851082  0.86093743  1
  Ta  Ta81  1  0.09880202  0.30544139  0.12492862  1
  Ta  Ta82  1  0.19949143  -0.00298131  0.24524421  1
  Ta  Ta83  1  0.90461898  0.69261021  0.63688658  1
  Ta  Ta84  1  0.69678347  0.30607480  0.87191866  1
  Ta  Ta85  1  0.72152207  0.89101849  0.13677516  1
  Ta  Ta86  1  -0.00108728  0.39929596  0.26745389  1
  Ta  Ta87  1  0.60097991  0.19565541  0.74252213  1
  Ta  Ta88  1  0.79349783  0.40457256  -0.00573056  1
  Ta  Ta89  1  0.80389886  0.59183594  0.74978849  1
  Ta  Ta90  1  0.40378523  -0.00457925  0.75881567  1
  Ta  Ta91  1  0.49058221  0.29606043  0.64148773  1
  Ta  Ta92  1  0.19454950  0.39464898  -0.01697747  1
  Ta  Ta93  1  0.30872094  0.09538499  0.36361753  1
  Ta  Ta94  1  0.80549629  -0.00394970  0.01672032  1
  Ta  Ta95  1  0.49585333  0.09717721  0.64014881  1
  Ta  Ta96  1  0.60070400  0.60363260  0.22783063  1
  Ta  Ta97  1  0.20097419  0.80091540  0.23420204  1
  Ta  Ta98  1  0.50203560  0.70323899  0.10778074  1
  Ta  Ta99  1  0.20507149  0.20571031  0.48385042  1
  Ta  Ta100  1  0.10797329  0.70524738  0.87185402  1
  Ta  Ta101  1  0.19337525  0.39873156  0.76583916  1
  Ta  Ta102  1  0.20868159  0.58443020  0.51502098  1
  Ta  Ta103  1  0.09178286  0.50882371  0.87540858  1
  Ta  Ta104  1  0.70198288  0.69932083  0.39022729  1
  Ta  Ta105  1  0.59861425  0.20257851  0.00989372  1
  Ta  Ta106  1  0.30085604  0.90277640  0.62886599  1
  Ta  Ta107  1  0.39941459  0.39961983  0.23448952  1
  Ta  Ta108  1  0.29402369  0.29809264  0.13153752  1
  Ta  Ta109  1  0.89002441  0.30368493  0.86226621  1
  Ta  Ta110  1  0.19234671  0.60428606  -0.00005197  1
  Ta  Ta111  1  0.60088688  0.40073587  -0.00470265  1
  Ta  Ta112  1  -0.03362120  0.00492473  0.48379738  1
  Ta  Ta113  1  0.59359219  0.40680940  0.75311928  1
  Ta  Ta114  1  0.50644428  0.90622467  0.63237770  1
  Ta  Ta115  1  0.70200191  0.70120819  0.85564069  1
  Ta  Ta116  1  0.90229701  0.31685514  0.62950458  1
  Ta  Ta117  1  0.40579258  0.60115221  0.22629151  1
  Ta  Ta118  1  0.20165770  0.79509583  0.51135085  1
  Ta  Ta119  1  -0.00823691  0.40660314  0.75844767  1
  Ti  Ti120  1  0.29269160  0.89289283  0.86216953  1
  Ti  Ti121  1  0.90397417  0.69664168  0.85540262  1
  Ti  Ti122  1  0.91756422  0.10859131  0.63358420  1
  Ti  Ti123  1  0.39843185  0.20317074  0.25273295  1
  Ti  Ti124  1  -0.00562420  0.39992229  0.48130235  1
  Ti  Ti125  1  0.79473673  0.19461416  0.25574249  1
  Ti  Ti126  1  0.29348506  0.49769494  0.87749842  1
  Ti  Ti127  1  0.08585432  0.29952479  0.86943771  1
  Ti  Ti128  1  0.10650229  0.49961751  0.37465506  1
  Ti  Ti129  1  0.39439761  0.40038514  0.75798521  1
  Ti  Ti130  1  0.20858570  0.61122678  0.22876825  1
  Ti  Ti131  1  0.89323786  0.50284602  0.86952279  1
  Ti  Ti132  1  0.18981835  0.39548005  0.25333295  1
  Ti  Ti133  1  0.68871204  0.50741343  0.87355171  1
  Ti  Ti134  1  0.31044099  0.90986589  0.13195557  1
  Ti  Ti135  1  0.70302089  0.30703699  0.12132880  1
  Ti  Ti136  1  0.70396669  0.08674124  0.38665083  1
  Ti  Ti137  1  -0.00802876  0.20787546  0.48063088  1
  Ti  Ti138  1  0.10300060  0.69482845  0.62634469  1
  Ti  Ti139  1  0.82005825  0.40669734  0.48861443  1
  Ti  Ti140  1  0.30018448  0.09966244  0.13823607  1
  Ti  Ti141  1  0.09447512  0.70532414  0.12941446  1
  Ti  Ti142  1  0.50189359  0.91399083  0.36309507  1
  Ti  Ti143  1  0.79103930  0.01928647  0.73104888  1
  Ti  Ti144  1  0.50195318  0.89519716  0.12140753  1
  Ti  Ti145  1  0.29878443  0.30811524  0.36689123  1
  Ti  Ti146  1  0.19324713  0.39783595  0.50013681  1
  Ti  Ti147  1  0.50619039  0.49881982  0.11028506  1
  Ti  Ti148  1  0.10093645  0.09960663  0.13437040  1
  Ti  Ti149  1  0.89315616  0.49491385  0.12811283  1
  Ti  Ti150  1  0.59919443  0.59729804  0.73963320  1
  Ti  Ti151  1  0.71508025  0.90725606  0.37710489  1
  Ti  Ti152  1  -0.00703611  -0.00685969  0.25684396  1
  Ti  Ti153  1  0.81090097  0.81217704  0.49530549  1
  Ti  Ti154  1  0.61952220  0.79285986  0.01220397  1
  Ti  Ti155  1  0.81417805  0.59825229  0.50229594  1
  Ti  Ti156  1  0.49588065  0.29944577  0.12281170  1
  Ti  Ti157  1  0.59768087  0.00490895  0.75487328  1
  Ti  Ti158  1  0.50946144  0.69070195  0.61237824  1
  Ti  Ti159  1  0.90221691  0.30629286  0.13192552  1
  Mo  Mo160  1  0.11629354  0.89314646  0.86796541  1
  Mo  Mo161  1  0.90230530  0.90152279  0.14583393  1
  Mo  Mo162  1  0.60459776  0.60355234  0.51390288  1
  Mo  Mo163  1  0.89715289  0.49629214  0.63308966  1
  Mo  Mo164  1  0.10288384  0.30830712  0.39059170  1
  Mo  Mo165  1  0.21576502  0.00137393  0.48233585  1
  Mo  Mo166  1  0.79755564  0.00425297  0.24519856  1
  Mo  Mo167  1  0.68589522  0.09250983  0.61794949  1
  Mo  Mo168  1  0.60117474  0.79216288  0.73523091  1
  Mo  Mo169  1  -0.00460309  0.20877804  0.74948474  1
  Mo  Mo170  1  0.40167867  0.59354699  0.51575555  1
  Mo  Mo171  1  0.00003126  0.60156137  0.75693831  1
  Mo  Mo172  1  0.49804620  0.49798775  0.63576280  1
  Mo  Mo173  1  0.10173029  0.09929157  0.89100628  1
  Mo  Mo174  1  0.40234767  -0.00369528  0.25182205  1
  Mo  Mo175  1  0.79668486  -0.00191048  0.51228163  1
  Mo  Mo176  1  0.29908240  0.70166400  0.11657426  1
  Mo  Mo177  1  0.70073237  0.49615248  0.11405636  1
  Mo  Mo178  1  0.00378768  0.80526268  0.24709589  1
  Mo  Mo179  1  0.49853048  0.09938752  0.35639587  1
  Mo  Mo180  1  0.09988523  0.90422161  0.14551746  1
  Mo  Mo181  1  0.50112682  0.09528802  0.86085357  1
  Mo  Mo182  1  0.88842070  0.09655985  0.36192002  1
  Mo  Mo183  1  0.28916286  0.49146658  0.64155736  1
  Mo  Mo184  1  0.50818303  0.49141153  0.87706153  1
  Mo  Mo185  1  0.59887932  -0.00098588  0.48779615  1
  Mo  Mo186  1  0.29253384  0.30142789  0.86328745  1
  Mo  Mo187  1  0.39806509  0.19323926  0.75246687  1
  Mo  Mo188  1  0.20438711  0.79887684  0.73283756  1
  Mo  Mo189  1  0.89657548  0.29943421  0.37878278  1
  Mo  Mo190  1  0.79550064  0.80441413  0.27210110  1
  Mo  Mo191  1  0.20492593  -0.00933734  0.76245816  1
  Mo  Mo192  1  0.89978818  0.50343893  0.36682540  1
  Mo  Mo193  1  0.70006394  0.10151033  0.11660857  1
  Mo  Mo194  1  0.89456207  0.90263205  0.36406196  1
  Mo  Mo195  1  0.69906281  0.70435129  0.12656678  1
  Mo  Mo196  1  0.60696007  0.59643399  0.00992807  1
  Mo  Mo197  1  0.80780650  0.78960721  0.75216180  1
  Mo  Mo198  1  0.40144152  0.80657718  0.01311212  1
  Mo  Mo199  1  0.79382505  0.40778287  0.76707035  1
