# generated using pymatgen
data_HfZrTaTiMo
_symmetry_space_group_name_H-M   'P 1'
_cell_length_a   15.84661833
_cell_length_b   15.83406047
_cell_length_c   15.41449201
_cell_angle_alpha   90.01162730
_cell_angle_beta   89.96570078
_cell_angle_gamma   89.83022147
_symmetry_Int_Tables_number   1
_chemical_formula_structural   HfZrTaTiMo
_chemical_formula_sum   'Hf40 Zr40 Ta40 Ti40 Mo40'
_cell_volume   3867.72974438
_cell_formula_units_Z   40
loop_
 _symmetry_equiv_pos_site_id
 _symmetry_equiv_pos_as_xyz
  1  'x, y, z'
loop_
 _atom_site_type_symbol
 _atom_site_label
 _atom_site_symmetry_multiplicity
 _atom_site_fract_x
 _atom_site_fract_y
 _atom_site_fract_z
 _atom_site_occupancy
  Hf  Hf0  1  0.40873006  0.40336639  -0.00794695  1
  Hf  Hf1  1  0.10575099  0.30165357  0.63250995  1
  Hf  Hf2  1  0.82969321  0.79661953  0.75074454  1
  Hf  Hf3  1  0.41211708  0.01222496  0.51295057  1
  Hf  Hf4  1  0.59712194  0.38683711  0.50053875  1
  Hf  Hf5  1  0.50194672  0.89830623  0.86387404  1
  Hf  Hf6  1  0.40251474  0.60074078  -0.00250917  1
  Hf  Hf7  1  0.79853182  -0.00752223  -0.00444497  1
  Hf  Hf8  1  0.39439556  0.81457009  0.24045579  1
  Hf  Hf9  1  0.71740882  0.69114169  0.87450161  1
  Hf  Hf10  1  0.19380983  0.59884882  0.74510654  1
  Hf  Hf11  1  0.10505296  0.08456998  0.88208318  1
  Hf  Hf12  1  0.90068857  0.10165810  0.12324601  1
  Hf  Hf13  1  0.08214475  0.72194026  0.88061552  1
  Hf  Hf14  1  -0.00982861  0.19455057  0.51600413  1
  Hf  Hf15  1  -0.01713737  0.00872422  0.50971285  1
  Hf  Hf16  1  0.61200879  0.00175686  0.49910247  1
  Hf  Hf17  1  0.70165080  0.50168133  0.61428199  1
  Hf  Hf18  1  0.29685672  0.70416937  0.86651695  1
  Hf  Hf19  1  0.90954984  0.28057878  0.36240879  1
  Hf  Hf20  1  0.29099060  0.89938176  0.39806256  1
  Hf  Hf21  1  0.41033736  0.78852851  0.51379739  1
  Hf  Hf22  1  0.20207345  0.40387817  -0.00671441  1
  Hf  Hf23  1  -0.00114292  -0.02449605  0.74504232  1
  Hf  Hf24  1  -0.00191602  0.41488123  0.75777666  1
  Hf  Hf25  1  0.18525853  0.81337460  0.74626166  1
  Hf  Hf26  1  0.59998585  0.61295870  0.49246917  1
  Hf  Hf27  1  -0.01406251  0.79947146  0.47978517  1
  Hf  Hf28  1  0.89404261  0.29718102  0.64201210  1
  Hf  Hf29  1  0.59740432  0.40662047  -0.01307473  1
  Hf  Hf30  1  0.59036479  0.00146401  0.25751601  1
  Hf  Hf31  1  0.51277121  0.12037800  0.64479313  1
  Hf  Hf32  1  0.70792992  0.90429251  0.64289955  1
  Hf  Hf33  1  0.09929244  0.90617505  0.37421206  1
  Hf  Hf34  1  0.40653528  0.39895597  0.75050850  1
  Hf  Hf35  1  0.30711052  0.29028224  0.10984346  1
  Hf  Hf36  1  0.08414223  0.11003909  0.36270899  1
  Hf  Hf37  1  0.88079429  0.52073744  0.88914253  1
  Hf  Hf38  1  0.69708465  0.70722160  0.13869183  1
  Hf  Hf39  1  0.39735877  0.39491300  0.24854169  1
  Zr  Zr40  1  0.50080724  0.50119072  0.62452987  1
  Zr  Zr41  1  0.29034943  0.90594346  0.87959319  1
  Zr  Zr42  1  0.40024510  0.79605231  0.00560525  1
  Zr  Zr43  1  0.49479957  0.10259603  0.11847592  1
  Zr  Zr44  1  0.80371151  0.38371948  0.50102921  1
  Zr  Zr45  1  0.20833832  0.00066260  0.23859380  1
  Zr  Zr46  1  -0.01285352  0.61410878  0.75086392  1
  Zr  Zr47  1  -0.01659526  0.60932724  0.01783841  1
  Zr  Zr48  1  0.81128203  0.40940228  0.24373390  1
  Zr  Zr49  1  0.00454238  0.17967210  0.74576752  1
  Zr  Zr50  1  0.39196258  0.01026180  0.74792387  1
  Zr  Zr51  1  0.20338509  0.40509909  0.74690119  1
  Zr  Zr52  1  0.49579670  0.49943051  0.37533323  1
  Zr  Zr53  1  0.10417615  0.29187570  0.87300314  1
  Zr  Zr54  1  0.19392972  0.20422315  0.49883093  1
  Zr  Zr55  1  0.10284096  0.69374251  0.14706479  1
  Zr  Zr56  1  0.10046422  0.89602240  0.60024491  1
  Zr  Zr57  1  0.50280771  0.90226205  0.11494224  1
  Zr  Zr58  1  0.60181849  0.00469350  -0.01732407  1
  Zr  Zr59  1  0.09859813  0.49474204  0.13052523  1
  Zr  Zr60  1  0.49191935  0.90268355  0.37858575  1
  Zr  Zr61  1  0.78971311  0.39883470  0.00277471  1
  Zr  Zr62  1  0.69392751  0.27101491  0.63833259  1
  Zr  Zr63  1  0.79371412  0.41174169  0.75210286  1
  Zr  Zr64  1  0.11043496  0.69975408  0.36809580  1
  Zr  Zr65  1  0.70765725  0.10547802  0.36138351  1
  Zr  Zr66  1  0.70729626  0.29025562  0.36596485  1
  Zr  Zr67  1  -0.01470934  0.58586874  0.26069370  1
  Zr  Zr68  1  0.30384538  0.69780956  0.36747414  1
  Zr  Zr69  1  0.69713215  0.10898417  0.13109257  1
  Zr  Zr70  1  0.20001946  0.60454185  -0.00311302  1
  Zr  Zr71  1  0.49977492  0.50894266  0.13908870  1
  Zr  Zr72  1  0.19964742  0.39433387  0.26036140  1
  Zr  Zr73  1  0.51364382  0.89533407  0.64034254  1
  Zr  Zr74  1  0.60621492  0.20966149  -0.01737077  1
  Zr  Zr75  1  0.78854049  0.80894160  0.48321948  1
  Zr  Zr76  1  0.59873924  0.60377172  -0.00721740  1
  Zr  Zr77  1  0.09393074  0.69776494  0.61207832  1
  Zr  Zr78  1  0.20604698  0.19899340  0.25562067  1
  Zr  Zr79  1  0.09758457  0.29130060  0.11809983  1
  Ta  Ta80  1  0.00128931  -0.00397636  0.23519720  1
  Ta  Ta81  1  -0.00822228  0.40133659  -0.00628193  1
  Ta  Ta82  1  0.88897386  0.89321638  0.13325779  1
  Ta  Ta83  1  0.30193706  0.29496489  0.87480405  1
  Ta  Ta84  1  0.29625278  0.90146608  0.61453296  1
  Ta  Ta85  1  0.60705272  0.58911709  0.75789443  1
  Ta  Ta86  1  0.30849233  0.10058046  0.38948128  1
  Ta  Ta87  1  0.70602225  0.89047254  0.86630415  1
  Ta  Ta88  1  0.69781562  0.70510386  0.63218899  1
  Ta  Ta89  1  0.60845705  0.39802760  0.24802631  1
  Ta  Ta90  1  0.29647603  0.10243090  0.88783898  1
  Ta  Ta91  1  0.30988794  0.30008484  0.39162281  1
  Ta  Ta92  1  -0.00350991  0.59601426  0.48424909  1
  Ta  Ta93  1  0.31837311  0.29192586  0.62018751  1
  Ta  Ta94  1  0.19613805  -0.00731823  0.01695406  1
  Ta  Ta95  1  0.90265221  0.09255772  0.88069807  1
  Ta  Ta96  1  0.90377785  0.50490562  0.60720047  1
  Ta  Ta97  1  0.30257882  0.49969570  0.38155232  1
  Ta  Ta98  1  0.49948100  0.70208060  0.35812819  1
  Ta  Ta99  1  0.50120103  0.70257908  0.85401046  1
  Ta  Ta100  1  0.50380849  0.29153590  0.36558746  1
  Ta  Ta101  1  0.70164605  0.50768270  0.13110809  1
  Ta  Ta102  1  0.41404262  0.20225599  -0.02184421  1
  Ta  Ta103  1  0.89469203  0.70028203  0.60328291  1
  Ta  Ta104  1  0.89294112  0.91243210  0.35940712  1
  Ta  Ta105  1  0.19581034  0.80444549  0.01933878  1
  Ta  Ta106  1  0.60551303  0.80015953  0.48603331  1
  Ta  Ta107  1  0.40006201  0.19258338  0.25828182  1
  Ta  Ta108  1  0.50932878  0.29528766  0.13336153  1
  Ta  Ta109  1  0.69777902  0.89473557  0.13267605  1
  Ta  Ta110  1  0.79855605  0.20025275  -0.00980138  1
  Ta  Ta111  1  -0.01095606  0.79964105  0.25259974  1
  Ta  Ta112  1  0.30294407  0.50313266  0.86843785  1
  Ta  Ta113  1  0.90027121  0.29767851  0.11940957  1
  Ta  Ta114  1  0.30800899  0.09977164  0.10204044  1
  Ta  Ta115  1  0.89909257  0.29510274  0.87322096  1
  Ta  Ta116  1  0.79758881  0.60847192  0.48370826  1
  Ta  Ta117  1  0.20285767  0.59352558  0.49945995  1
  Ta  Ta118  1  -0.00327691  0.19661385  -0.00513039  1
  Ta  Ta119  1  0.30066781  0.69198072  0.14236071  1
  Ti  Ti120  1  0.29357034  0.70122068  0.62274838  1
  Ti  Ti121  1  0.39860889  0.60039252  0.74479968  1
  Ti  Ti122  1  0.79587178  -0.00285042  0.24203593  1
  Ti  Ti123  1  0.79766115  0.00668812  0.49790616  1
  Ti  Ti124  1  0.70077660  0.30321481  0.85695352  1
  Ti  Ti125  1  0.80251915  0.60194505  0.73488811  1
  Ti  Ti126  1  0.20262404  0.39960895  0.50068809  1
  Ti  Ti127  1  0.19981190  0.81541696  0.23419241  1
  Ti  Ti128  1  0.39087296  0.00590237  0.25249755  1
  Ti  Ti129  1  0.70223937  0.09860637  0.85346999  1
  Ti  Ti130  1  0.91742718  0.88447376  0.89198784  1
  Ti  Ti131  1  0.80978694  -0.00648081  0.76466884  1
  Ti  Ti132  1  0.10162094  0.10395599  0.11967471  1
  Ti  Ti133  1  0.70224072  0.49796990  0.37743182  1
  Ti  Ti134  1  0.19229689  0.01513724  0.50569465  1
  Ti  Ti135  1  0.00761866  0.39176456  0.49651960  1
  Ti  Ti136  1  0.09400022  0.50106046  0.61379120  1
  Ti  Ti137  1  0.86956958  0.09782366  0.64044055  1
  Ti  Ti138  1  0.21244137  0.19188528  0.74503411  1
  Ti  Ti139  1  0.39264680  0.80015188  0.73920715  1
  Ti  Ti140  1  0.59715837  0.19139026  0.49528045  1
  Ti  Ti141  1  0.40043518  0.60171035  0.50572753  1
  Ti  Ti142  1  0.40607337  0.39257420  0.50663764  1
  Ti  Ti143  1  0.60559481  0.59966990  0.26205476  1
  Ti  Ti144  1  0.29936395  0.49976429  0.61658317  1
  Ti  Ti145  1  0.80160134  0.60509111  0.26057300  1
  Ti  Ti146  1  0.00255335  -0.01017110  0.01357014  1
  Ti  Ti147  1  0.60527050  0.79793581  -0.01033173  1
  Ti  Ti148  1  0.89732105  0.49017931  0.39015136  1
  Ti  Ti149  1  0.80792451  0.78914652  0.00606089  1
  Ti  Ti150  1  0.51240951  0.70064272  0.64309811  1
  Ti  Ti151  1  0.09476668  0.50988705  0.88136209  1
  Ti  Ti152  1  -0.00063481  0.80155061  0.03131008  1
  Ti  Ti153  1  0.10322065  0.49174105  0.38003437  1
  Ti  Ti154  1  0.89426427  0.10206514  0.35426011  1
  Ti  Ti155  1  0.00316034  0.39049579  0.25238904  1
  Ti  Ti156  1  0.19594383  0.00555164  0.73716217  1
  Ti  Ti157  1  0.30164724  0.10905666  0.61669825  1
  Ti  Ti158  1  0.50398233  0.70310641  0.14260075  1
  Ti  Ti159  1  0.29647218  0.50725491  0.13614035  1
  Mo  Mo160  1  0.69754184  0.30407571  0.13121914  1
  Mo  Mo161  1  0.61268513  0.79110471  0.76110347  1
  Mo  Mo162  1  0.80295789  0.17711864  0.50429327  1
  Mo  Mo163  1  0.79384914  0.60413576  0.02560909  1
  Mo  Mo164  1  0.59466511  0.20467182  0.24831792  1
  Mo  Mo165  1  0.40102703  0.60058081  0.24656796  1
  Mo  Mo166  1  0.20196645  0.19475357  -0.00231583  1
  Mo  Mo167  1  0.49848821  0.10212291  0.86201849  1
  Mo  Mo168  1  0.09307895  0.89917391  0.13026644  1
  Mo  Mo169  1  0.20701735  0.79488143  0.50703553  1
  Mo  Mo170  1  0.09440752  0.90036153  0.89794296  1
  Mo  Mo171  1  -0.00165440  0.80386276  0.74145783  1
  Mo  Mo172  1  0.49651070  0.50820137  0.86119733  1
  Mo  Mo173  1  0.69943882  0.90323842  0.35976135  1
  Mo  Mo174  1  0.69475296  0.70006686  0.35904518  1
  Mo  Mo175  1  0.89860328  0.70862420  0.89029330  1
  Mo  Mo176  1  0.10973420  0.09725428  0.63313031  1
  Mo  Mo177  1  0.89508501  0.49811353  0.11829023  1
  Mo  Mo178  1  0.89514937  0.69782762  0.37072288  1
  Mo  Mo179  1  0.89446608  0.90151528  0.61267843  1
  Mo  Mo180  1  0.88986054  0.70467004  0.14875914  1
  Mo  Mo181  1  0.41067246  0.20415686  0.49277500  1
  Mo  Mo182  1  0.80355340  0.19546898  0.77333637  1
  Mo  Mo183  1  0.50245809  0.30326477  0.85773914  1
  Mo  Mo184  1  0.59952972  0.40119949  0.75863821  1
  Mo  Mo185  1  0.69874045  0.50283554  0.87252060  1
  Mo  Mo186  1  0.20451814  0.58936078  0.26734991  1
  Mo  Mo187  1  0.39822828  0.00477576  -0.01709556  1
  Mo  Mo188  1  0.50153766  0.29875258  0.63515498  1
  Mo  Mo189  1  0.09805444  0.30630714  0.38262088  1
  Mo  Mo190  1  0.00134357  0.19773580  0.23418377  1
  Mo  Mo191  1  0.39368384  0.20323861  0.76356581  1
  Mo  Mo192  1  0.30220755  0.90325283  0.11393208  1
  Mo  Mo193  1  0.80184535  0.20516151  0.22574219  1
  Mo  Mo194  1  0.49665018  0.10564403  0.37370707  1
  Mo  Mo195  1  0.79585051  0.80432225  0.26128816  1
  Mo  Mo196  1  0.70259123  0.09166299  0.64314159  1
  Mo  Mo197  1  0.59893271  0.80267339  0.26145884  1
  Mo  Mo198  1  0.59801847  0.20113840  0.76975516  1
  Mo  Mo199  1  0.60787160  -0.00036818  0.76029782  1
