# generated using pymatgen
data_HfZrTaTiMo
_symmetry_space_group_name_H-M   'P 1'
_cell_length_a   15.83381099
_cell_length_b   15.83418261
_cell_length_c   15.40485166
_cell_angle_alpha   89.97254050
_cell_angle_beta   89.95220490
_cell_angle_gamma   89.99596671
_symmetry_Int_Tables_number   1
_chemical_formula_structural   HfZrTaTiMo
_chemical_formula_sum   'Hf40 Zr40 Ta40 Ti40 Mo40'
_cell_volume   3862.23258972
_cell_formula_units_Z   40
loop_
 _symmetry_equiv_pos_site_id
 _symmetry_equiv_pos_as_xyz
  1  'x, y, z'
loop_
 _atom_site_type_symbol
 _atom_site_label
 _atom_site_symmetry_multiplicity
 _atom_site_fract_x
 _atom_site_fract_y
 _atom_site_fract_z
 _atom_site_occupancy
  Hf  Hf0  1  0.80259135  0.39592442  -0.01015991  1
  Hf  Hf1  1  0.59813803  0.39750025  0.00817432  1
  Hf  Hf2  1  0.20562977  0.19903279  -0.00434207  1
  Hf  Hf3  1  0.28059763  0.50029574  0.12992146  1
  Hf  Hf4  1  0.79416320  0.19109423  0.49243487  1
  Hf  Hf5  1  0.39523844  0.39552455  0.01220488  1
  Hf  Hf6  1  0.08446890  0.49613726  0.13573595  1
  Hf  Hf7  1  0.19706223  0.79382434  0.73910974  1
  Hf  Hf8  1  0.60910189  0.79424976  0.50614906  1
  Hf  Hf9  1  0.70737144  0.49450863  0.62387674  1
  Hf  Hf10  1  0.49619199  0.11686121  0.86880200  1
  Hf  Hf11  1  0.18846929  0.59704259  -0.00976328  1
  Hf  Hf12  1  0.00315015  0.01122749  0.51429121  1
  Hf  Hf13  1  0.49456094  0.90023044  0.62299275  1
  Hf  Hf14  1  0.49692641  0.90141382  0.37945517  1
  Hf  Hf15  1  0.29578938  0.90657485  0.61367234  1
  Hf  Hf16  1  0.49075173  0.49276403  0.60762031  1
  Hf  Hf17  1  0.80220142  0.39514898  0.49520991  1
  Hf  Hf18  1  0.00355880  0.79236919  0.74653725  1
  Hf  Hf19  1  0.29955967  0.69807825  0.61957623  1
  Hf  Hf20  1  0.60808405  0.59750884  0.49603109  1
  Hf  Hf21  1  0.59895921  0.39961841  0.74747492  1
  Hf  Hf22  1  0.90338769  0.31158331  0.12979718  1
  Hf  Hf23  1  0.79688871  0.79345604  -0.00394844  1
  Hf  Hf24  1  0.87708590  0.09999411  0.64474040  1
  Hf  Hf25  1  0.49330800  0.10289075  0.38459386  1
  Hf  Hf26  1  0.81177378  0.79145149  0.51489048  1
  Hf  Hf27  1  -0.01865617  0.59583712  0.27123910  1
  Hf  Hf28  1  0.89976343  0.68825962  0.11668745  1
  Hf  Hf29  1  0.60380225  0.19881655  0.50811637  1
  Hf  Hf30  1  0.90738581  0.51209439  0.61876273  1
  Hf  Hf31  1  0.39527821  0.19959632  0.24713891  1
  Hf  Hf32  1  0.60134063  0.01159313  0.74533467  1
  Hf  Hf33  1  0.39548709  0.01578229  0.74489846  1
  Hf  Hf34  1  0.38184800  0.60960875  0.25404603  1
  Hf  Hf35  1  0.69314524  0.69484846  0.86971779  1
  Hf  Hf36  1  0.39401179  -0.00612305  0.24653069  1
  Hf  Hf37  1  0.50079130  0.70058860  0.36699243  1
  Hf  Hf38  1  -0.00975169  0.20565788  0.51181609  1
  Hf  Hf39  1  0.29897521  0.70465058  0.87294518  1
  Zr  Zr40  1  0.90030356  0.89971569  0.87847505  1
  Zr  Zr41  1  0.21362810  0.79248638  0.24867798  1
  Zr  Zr42  1  0.10517826  0.31127356  0.12509502  1
  Zr  Zr43  1  0.80531549  -0.00909807  0.24884561  1
  Zr  Zr44  1  -0.00477421  0.21594582  0.74789562  1
  Zr  Zr45  1  0.29810740  0.90160999  0.11871878  1
  Zr  Zr46  1  0.01033322  0.00462834  0.75480414  1
  Zr  Zr47  1  0.10329634  0.89880541  0.38646552  1
  Zr  Zr48  1  0.69982332  0.29518398  0.36295165  1
  Zr  Zr49  1  0.29815952  0.49539159  0.38789111  1
  Zr  Zr50  1  0.59726434  0.20579086  0.01748442  1
  Zr  Zr51  1  0.10972183  0.89228894  0.88466749  1
  Zr  Zr52  1  0.81356966  0.38959838  0.75598639  1
  Zr  Zr53  1  0.59301974  -0.00615560  -0.00282897  1
  Zr  Zr54  1  0.18576420  0.19111609  0.50985144  1
  Zr  Zr55  1  0.49707297  0.50833238  0.12826011  1
  Zr  Zr56  1  0.39736413  0.01039061  -0.00138219  1
  Zr  Zr57  1  0.10657477  0.89881245  0.11376331  1
  Zr  Zr58  1  0.49766171  0.70933387  0.14026942  1
  Zr  Zr59  1  0.00132566  0.79762613  0.24290522  1
  Zr  Zr60  1  0.39524616  0.20052484  0.02055549  1
  Zr  Zr61  1  0.61299450  0.80619701  0.25001468  1
  Zr  Zr62  1  0.49337955  0.30526715  0.86432141  1
  Zr  Zr63  1  0.70975632  0.09758361  0.12434316  1
  Zr  Zr64  1  0.59569169  0.60071051  0.73909377  1
  Zr  Zr65  1  0.71339993  0.90968778  0.63623223  1
  Zr  Zr66  1  0.73025164  0.68972286  0.36966420  1
  Zr  Zr67  1  0.00271060  0.19967321  -0.00002667  1
  Zr  Zr68  1  0.30404932  0.89978791  0.86986438  1
  Zr  Zr69  1  0.61471089  0.00743247  0.50120215  1
  Zr  Zr70  1  0.00070501  0.19704931  0.24042805  1
  Zr  Zr71  1  0.69299243  0.89644815  0.86863024  1
  Zr  Zr72  1  0.80431417  0.43079775  0.26309432  1
  Zr  Zr73  1  0.39820926  0.59964833  0.74103034  1
  Zr  Zr74  1  0.90309310  0.09564306  0.37030572  1
  Zr  Zr75  1  0.29381495  0.48937713  0.87595739  1
  Zr  Zr76  1  0.41041075  0.80536722  0.00691526  1
  Zr  Zr77  1  0.48582197  0.29426523  0.61807218  1
  Zr  Zr78  1  0.59805896  0.39986392  0.24430410  1
  Zr  Zr79  1  0.10427287  0.31914997  0.87684769  1
  Ta  Ta80  1  0.89585071  0.10425266  0.87302002  1
  Ta  Ta81  1  0.18696470  0.60126997  0.26804358  1
  Ta  Ta82  1  0.19388595  0.60294704  0.49471549  1
  Ta  Ta83  1  0.00446199  0.01129873  0.00067879  1
  Ta  Ta84  1  0.69411902  0.49880025  0.87886507  1
  Ta  Ta85  1  0.40217741  0.60447398  0.49540762  1
  Ta  Ta86  1  0.39546260  0.60519775  0.00456713  1
  Ta  Ta87  1  0.09279346  0.49700970  0.38661328  1
  Ta  Ta88  1  0.29807355  0.90197721  0.39229788  1
  Ta  Ta89  1  -0.00386771  0.39893181  0.49651608  1
  Ta  Ta90  1  0.29336557  0.49328091  0.60620827  1
  Ta  Ta91  1  0.29434028  0.09150860  0.38461780  1
  Ta  Ta92  1  0.49747748  0.50776757  0.88325020  1
  Ta  Ta93  1  0.10496799  0.90061005  0.61557818  1
  Ta  Ta94  1  0.60415714  0.00177074  0.25368345  1
  Ta  Ta95  1  0.39312974  0.39702240  0.25532716  1
  Ta  Ta96  1  0.20440031  0.19974791  0.74019789  1
  Ta  Ta97  1  0.49699047  0.70398433  0.87405472  1
  Ta  Ta98  1  0.29684513  0.29336235  0.38821636  1
  Ta  Ta99  1  0.61747588  0.59032855  0.25698212  1
  Ta  Ta100  1  0.90096661  0.90311726  0.10463811  1
  Ta  Ta101  1  0.19974259  0.01911791  -0.01608525  1
  Ta  Ta102  1  0.90410506  0.90167672  0.63095730  1
  Ta  Ta103  1  0.49257183  0.30170871  0.37898683  1
  Ta  Ta104  1  0.00860201  0.59765984  0.76076266  1
  Ta  Ta105  1  0.30250160  0.29461779  0.86354511  1
  Ta  Ta106  1  0.10268230  0.09409426  0.36351648  1
  Ta  Ta107  1  0.80112964  0.20101803  -0.00695245  1
  Ta  Ta108  1  0.80495785  0.79177472  0.74631693  1
  Ta  Ta109  1  0.70316813  0.89708792  0.11793560  1
  Ta  Ta110  1  0.70786203  0.51178756  0.11023759  1
  Ta  Ta111  1  0.59699254  0.19606911  0.24635909  1
  Ta  Ta112  1  0.90546434  0.89176555  0.38560840  1
  Ta  Ta113  1  0.19414392  0.39639601  0.27063197  1
  Ta  Ta114  1  0.00119207  0.59313526  -0.01968629  1
  Ta  Ta115  1  -0.00006390  -0.00397130  0.23406497  1
  Ta  Ta116  1  0.00938827  0.78491976  -0.00270332  1
  Ta  Ta117  1  0.20022681  0.39962702  0.73066057  1
  Ta  Ta118  1  0.69525103  0.29042218  0.87038537  1
  Ta  Ta119  1  0.40229655  0.79651697  0.50005933  1
  Ti  Ti120  1  0.81296470  0.79850058  0.24174941  1
  Ti  Ti121  1  0.70305932  0.69439612  0.12609220  1
  Ti  Ti122  1  0.20322589  0.19640714  0.25622658  1
  Ti  Ti123  1  0.11341329  0.09396448  0.13589289  1
  Ti  Ti124  1  0.30770652  0.10466583  0.60878071  1
  Ti  Ti125  1  0.19199770  0.59239726  0.74646313  1
  Ti  Ti126  1  0.71408506  0.68902468  0.63211485  1
  Ti  Ti127  1  0.10153392  0.50176910  0.60906578  1
  Ti  Ti128  1  0.70908522  0.30414036  0.13303438  1
  Ti  Ti129  1  0.19941988  0.01183213  0.75098862  1
  Ti  Ti130  1  0.59656954  0.79970837  0.00817998  1
  Ti  Ti131  1  0.10454934  0.68963899  0.12553290  1
  Ti  Ti132  1  0.49550308  0.88992683  0.85344810  1
  Ti  Ti133  1  0.80821860  0.59444231  0.75969752  1
  Ti  Ti134  1  0.79919349  0.00737501  -0.00937019  1
  Ti  Ti135  1  0.50095850  0.49667059  0.37555170  1
  Ti  Ti136  1  0.00466462  0.40577178  0.73724321  1
  Ti  Ti137  1  -0.00221305  0.79215755  0.51384777  1
  Ti  Ti138  1  0.29993755  0.30538501  0.60624032  1
  Ti  Ti139  1  0.60450310  0.39555054  0.49379292  1
  Ti  Ti140  1  0.09397345  0.68909952  0.61481743  1
  Ti  Ti141  1  0.50034100  0.09254761  0.13314836  1
  Ti  Ti142  1  0.91242408  0.48804874  0.87341420  1
  Ti  Ti143  1  0.29262074  0.70905676  0.39126166  1
  Ti  Ti144  1  0.59259155  0.78998611  0.73306214  1
  Ti  Ti145  1  0.28977191  0.30383516  0.13627147  1
  Ti  Ti146  1  0.59487362  0.60591071  0.00146281  1
  Ti  Ti147  1  0.80255118  0.00042885  0.49456347  1
  Ti  Ti148  1  0.80229468  0.59484938  -0.01517543  1
  Ti  Ti149  1  0.90028385  0.50040745  0.11475999  1
  Ti  Ti150  1  0.10063607  0.30822818  0.62056238  1
  Ti  Ti151  1  0.39150394  0.40070755  0.74429701  1
  Ti  Ti152  1  0.09376221  0.70333577  0.38779896  1
  Ti  Ti153  1  0.71191595  0.89853553  0.37694878  1
  Ti  Ti154  1  0.80272504  0.19339013  0.24653664  1
  Ti  Ti155  1  0.90319703  0.69613314  0.87227416  1
  Ti  Ti156  1  0.09751967  0.29710397  0.37768549  1
  Ti  Ti157  1  0.60005309  0.19741039  0.73505173  1
  Ti  Ti158  1  0.71607259  0.28867762  0.63553366  1
  Ti  Ti159  1  0.90570228  0.30494137  0.36264282  1
  Mo  Mo160  1  0.90251708  0.09578492  0.11127254  1
  Mo  Mo161  1  0.40088431  0.39918357  0.48407582  1
  Mo  Mo162  1  0.10190896  0.69668924  0.87263276  1
  Mo  Mo163  1  0.89914536  0.30591003  0.61980835  1
  Mo  Mo164  1  0.29095641  0.69522098  0.11692725  1
  Mo  Mo165  1  0.20163561  0.39722906  0.00123545  1
  Mo  Mo166  1  0.39390796  0.19867113  0.49576993  1
  Mo  Mo167  1  0.89286380  0.51614883  0.39964222  1
  Mo  Mo168  1  0.10285731  0.10474385  0.86233494  1
  Mo  Mo169  1  0.10314691  0.10090497  0.64209325  1
  Mo  Mo170  1  0.00092206  0.40177554  0.27681531  1
  Mo  Mo171  1  0.20161731  0.78747433  0.01005574  1
  Mo  Mo172  1  0.50171959  0.69989021  0.61038154  1
  Mo  Mo173  1  -0.00146401  0.60758696  0.49277420  1
  Mo  Mo174  1  0.80592797  0.60309309  0.51207383  1
  Mo  Mo175  1  0.39062224  0.20614029  0.73312447  1
  Mo  Mo176  1  0.80011318  0.60407084  0.23718281  1
  Mo  Mo177  1  0.49429310  0.10102968  0.61536792  1
  Mo  Mo178  1  0.69959646  0.10653570  0.87081218  1
  Mo  Mo179  1  0.90431009  0.69683233  0.64446684  1
  Mo  Mo180  1  0.39425332  0.80069038  0.26884136  1
  Mo  Mo181  1  0.69858940  0.09646221  0.35872306  1
  Mo  Mo182  1  0.19839562  0.00217278  0.26088892  1
  Mo  Mo183  1  0.29801549  0.11122466  0.86057348  1
  Mo  Mo184  1  0.28507483  0.10010480  0.14040316  1
  Mo  Mo185  1  -0.00066991  0.41039664  -0.00554987  1
  Mo  Mo186  1  0.40708588  0.79907916  0.74209837  1
  Mo  Mo187  1  0.90818267  0.71213336  0.37613356  1
  Mo  Mo188  1  0.70019095  0.10649761  0.64082569  1
  Mo  Mo189  1  0.90202866  0.30162845  0.88770560  1
  Mo  Mo190  1  0.50940759  0.90531331  0.13955819  1
  Mo  Mo191  1  0.79408072  0.20061873  0.77033962  1
  Mo  Mo192  1  0.39995374  0.00226106  0.50569797  1
  Mo  Mo193  1  0.69673972  0.50090690  0.38833001  1
  Mo  Mo194  1  0.19583849  0.00330038  0.50079285  1
  Mo  Mo195  1  0.19130359  0.39498920  0.50266647  1
  Mo  Mo196  1  0.49520791  0.30131897  0.14759452  1
  Mo  Mo197  1  0.80082153  -0.00186403  0.77052038  1
  Mo  Mo198  1  0.19542195  0.79443241  0.50840820  1
  Mo  Mo199  1  0.10212787  0.49818443  0.85807909  1
