# generated using pymatgen
data_HfZrTaTiMo
_symmetry_space_group_name_H-M   'P 1'
_cell_length_a   15.83276345
_cell_length_b   15.84140545
_cell_length_c   15.42625443
_cell_angle_alpha   89.96669027
_cell_angle_beta   90.01574488
_cell_angle_gamma   89.93549194
_symmetry_Int_Tables_number   1
_chemical_formula_structural   HfZrTaTiMo
_chemical_formula_sum   'Hf40 Zr40 Ta40 Ti40 Mo40'
_cell_volume   3869.10537334
_cell_formula_units_Z   40
loop_
 _symmetry_equiv_pos_site_id
 _symmetry_equiv_pos_as_xyz
  1  'x, y, z'
loop_
 _atom_site_type_symbol
 _atom_site_label
 _atom_site_symmetry_multiplicity
 _atom_site_fract_x
 _atom_site_fract_y
 _atom_site_fract_z
 _atom_site_occupancy
  Hf  Hf0  1  0.60081410  0.79433567  -0.00138130  1
  Hf  Hf1  1  0.09349208  0.50008522  0.12417974  1
  Hf  Hf2  1  0.58803611  0.00438346  0.75755673  1
  Hf  Hf3  1  0.10329410  0.69477014  0.10769476  1
  Hf  Hf4  1  0.60270265  0.59868251  -0.00434881  1
  Hf  Hf5  1  0.90909500  0.89670555  0.61659474  1
  Hf  Hf6  1  0.71396148  0.90438543  0.89542048  1
  Hf  Hf7  1  0.20559718  -0.00263831  0.00935475  1
  Hf  Hf8  1  0.20197415  0.40594885  0.25449335  1
  Hf  Hf9  1  -0.01318811  0.21037845  0.25104491  1
  Hf  Hf10  1  0.38292960  0.59740325  0.25513381  1
  Hf  Hf11  1  0.32211989  0.90277275  0.86095819  1
  Hf  Hf12  1  0.50297386  0.29337079  0.13160431  1
  Hf  Hf13  1  0.90708366  0.30906768  0.10800090  1
  Hf  Hf14  1  0.09402709  0.29286026  0.63378299  1
  Hf  Hf15  1  -0.00547504  0.40287578  0.50908344  1
  Hf  Hf16  1  0.49571136  0.89763488  0.14280875  1
  Hf  Hf17  1  0.68977684  0.09902046  0.60855617  1
  Hf  Hf18  1  0.61869277  0.40060470  0.75346084  1
  Hf  Hf19  1  0.60478088  0.81083360  0.75198185  1
  Hf  Hf20  1  0.30318092  0.29219669  0.37520817  1
  Hf  Hf21  1  0.69282836  0.11531867  0.89499059  1
  Hf  Hf22  1  0.50223623  0.30577632  0.63256884  1
  Hf  Hf23  1  0.11202291  0.30740941  0.86481931  1
  Hf  Hf24  1  0.78782497  0.19685284  0.23067523  1
  Hf  Hf25  1  0.90730009  0.50003194  0.37168181  1
  Hf  Hf26  1  0.59273963  -0.00302937  0.01235132  1
  Hf  Hf27  1  0.29952732  0.70366398  0.86031151  1
  Hf  Hf28  1  0.59318597  0.20607485  0.48861341  1
  Hf  Hf29  1  0.81539968  0.39084655  0.24773827  1
  Hf  Hf30  1  0.50624245  0.28581972  0.87600593  1
  Hf  Hf31  1  0.11094642  0.51318125  0.37927355  1
  Hf  Hf32  1  0.30282381  0.29912239  0.85846812  1
  Hf  Hf33  1  0.60584405  0.39500243  -0.00507254  1
  Hf  Hf34  1  0.38957364  0.79768450  0.26730585  1
  Hf  Hf35  1  0.21002631  0.79641447  -0.00006767  1
  Hf  Hf36  1  0.70623221  0.50516485  0.13112560  1
  Hf  Hf37  1  0.41315173  0.17807712  0.73913864  1
  Hf  Hf38  1  0.71718792  0.87983885  0.12974871  1
  Hf  Hf39  1  0.39468668  0.19051672  0.00330740  1
  Zr  Zr40  1  0.50526928  0.69515430  0.14277346  1
  Zr  Zr41  1  0.19242624  0.78790780  0.24763221  1
  Zr  Zr42  1  0.39749077  0.79749844  0.48797323  1
  Zr  Zr43  1  0.60887322  0.60210782  0.74182325  1
  Zr  Zr44  1  0.80217216  0.81143285  0.74731717  1
  Zr  Zr45  1  0.00410527  0.41379153  -0.02524960  1
  Zr  Zr46  1  0.89143176  0.70789807  0.11638192  1
  Zr  Zr47  1  0.28501076  0.09795577  0.37581815  1
  Zr  Zr48  1  0.08718236  0.09845987  0.11574720  1
  Zr  Zr49  1  0.09735502  0.29934984  0.37816181  1
  Zr  Zr50  1  0.48813651  0.49715070  0.86414423  1
  Zr  Zr51  1  0.20426707  0.39467532  0.51110914  1
  Zr  Zr52  1  0.19287369  0.60312713  0.74737337  1
  Zr  Zr53  1  0.60975491  0.38483404  0.26023463  1
  Zr  Zr54  1  0.38811774  0.60959152  0.00119167  1
  Zr  Zr55  1  0.49301107  0.71123996  0.86247407  1
  Zr  Zr56  1  0.70621504  0.50219181  0.37189822  1
  Zr  Zr57  1  0.60658479  0.60068513  0.51043816  1
  Zr  Zr58  1  0.49754411  0.49428277  0.13231308  1
  Zr  Zr59  1  0.01100981  0.61315139  0.25722323  1
  Zr  Zr60  1  0.49838511  0.49865289  0.62472827  1
  Zr  Zr61  1  0.81454672  0.00265199  0.24231929  1
  Zr  Zr62  1  0.00293204  0.00502493  0.25869992  1
  Zr  Zr63  1  0.70622245  0.69576535  0.36733357  1
  Zr  Zr64  1  0.90912131  0.69897361  0.63649670  1
  Zr  Zr65  1  0.29556572  0.09477650  0.86647606  1
  Zr  Zr66  1  0.61552560  0.00649262  0.24731551  1
  Zr  Zr67  1  0.49773834  0.90842830  0.62393907  1
  Zr  Zr68  1  0.49335131  0.10252648  0.14110767  1
  Zr  Zr69  1  0.78788592  0.00344604  0.74366154  1
  Zr  Zr70  1  0.19294206  0.19330214  0.23718204  1
  Zr  Zr71  1  0.88606110  0.10382208  0.87949327  1
  Zr  Zr72  1  0.79884532  -0.00283539  0.50195161  1
  Zr  Zr73  1  0.39740838  0.20046887  0.50738515  1
  Zr  Zr74  1  0.10025822  0.10376238  0.86595352  1
  Zr  Zr75  1  -0.00048883  0.81182037  0.25266804  1
  Zr  Zr76  1  0.28759741  0.50208476  0.11615147  1
  Zr  Zr77  1  0.61369911  0.19853304  0.74638678  1
  Zr  Zr78  1  0.40133371  -0.00363172  0.48416212  1
  Zr  Zr79  1  0.89927770  0.11230537  0.63093583  1
  Ta  Ta80  1  0.71170661  0.69704799  0.87380237  1
  Ta  Ta81  1  0.71541713  0.30085182  0.61412754  1
  Ta  Ta82  1  0.49925082  0.50002393  0.37649723  1
  Ta  Ta83  1  0.10220163  0.31139569  0.11548834  1
  Ta  Ta84  1  -0.00207752  0.20553187  -0.01098032  1
  Ta  Ta85  1  0.89917438  0.70385888  0.86402612  1
  Ta  Ta86  1  0.90456102  0.70351219  0.38824342  1
  Ta  Ta87  1  0.00018781  0.60488178  -0.02444324  1
  Ta  Ta88  1  0.19441421  0.80275665  0.74281785  1
  Ta  Ta89  1  0.30257875  0.30201735  0.12603071  1
  Ta  Ta90  1  0.49627054  0.11109202  0.35636686  1
  Ta  Ta91  1  0.29754344  0.89611485  0.62551535  1
  Ta  Ta92  1  0.59883991  0.80549296  0.48997626  1
  Ta  Ta93  1  0.00305573  0.80309216  -0.01760082  1
  Ta  Ta94  1  0.29682709  0.09174221  0.62257198  1
  Ta  Ta95  1  0.50115134  0.68955156  0.37429420  1
  Ta  Ta96  1  0.70300096  0.10334035  0.38093515  1
  Ta  Ta97  1  0.89402784  0.11374609  0.38611267  1
  Ta  Ta98  1  0.60547810  0.39841583  0.49466089  1
  Ta  Ta99  1  0.20094973  0.20698331  0.00647769  1
  Ta  Ta100  1  0.79659931  0.79572771  0.50128940  1
  Ta  Ta101  1  0.70634370  0.89762448  0.37246034  1
  Ta  Ta102  1  0.80692427  0.59517120  0.51511885  1
  Ta  Ta103  1  0.39285128  0.39478378  -0.00694139  1
  Ta  Ta104  1  0.00286395  0.00496580  0.49442826  1
  Ta  Ta105  1  0.19928566  0.60066128  0.52469107  1
  Ta  Ta106  1  0.28176992  0.68660874  0.38986569  1
  Ta  Ta107  1  0.18955252  -0.00351488  0.51458213  1
  Ta  Ta108  1  0.19430061  -0.00609124  0.73547834  1
  Ta  Ta109  1  -0.00575568  -0.01194064  0.76109754  1
  Ta  Ta110  1  0.80167658  0.40392303  -0.01022295  1
  Ta  Ta111  1  -0.00566228  0.40318586  0.75531827  1
  Ta  Ta112  1  0.30471551  0.49098513  0.63363519  1
  Ta  Ta113  1  0.10955273  0.90010302  0.87175742  1
  Ta  Ta114  1  0.91168171  0.90225615  0.10635569  1
  Ta  Ta115  1  -0.00536200  0.20399726  0.50025086  1
  Ta  Ta116  1  0.00439798  0.60340340  0.50639416  1
  Ta  Ta117  1  0.19109642  -0.01552808  0.24102428  1
  Ta  Ta118  1  0.49606415  0.70697379  0.62379945  1
  Ta  Ta119  1  0.09298946  0.50279263  0.63808283  1
  Ti  Ti120  1  0.40295656  0.80784592  0.00842961  1
  Ti  Ti121  1  0.90033502  0.89764537  0.38553184  1
  Ti  Ti122  1  0.39750478  0.59770253  0.50399705  1
  Ti  Ti123  1  0.10040938  0.10159256  0.38387716  1
  Ti  Ti124  1  0.28901344  0.48580829  0.86024527  1
  Ti  Ti125  1  0.79185134  0.59339691  0.73721016  1
  Ti  Ti126  1  0.39043029  -0.00577859  0.26597397  1
  Ti  Ti127  1  0.89423020  0.50983223  0.85937595  1
  Ti  Ti128  1  0.60260224  0.79854871  0.26438531  1
  Ti  Ti129  1  0.80452301  0.60207622  -0.00309118  1
  Ti  Ti130  1  0.80694751  0.39880725  0.50174613  1
  Ti  Ti131  1  0.59191098  -0.00293280  0.47998559  1
  Ti  Ti132  1  0.20160619  0.19252817  0.73496532  1
  Ti  Ti133  1  0.00029009  -0.00084954  -0.01264420  1
  Ti  Ti134  1  0.39715709  0.59924605  0.74179239  1
  Ti  Ti135  1  0.19119039  0.79529766  0.51185230  1
  Ti  Ti136  1  -0.01973830  0.21153281  0.76234303  1
  Ti  Ti137  1  0.30187486  0.89779459  0.13155507  1
  Ti  Ti138  1  0.19016612  0.58935247  -0.02624249  1
  Ti  Ti139  1  0.30410595  0.70284872  0.62678454  1
  Ti  Ti140  1  0.80160632  0.01065026  0.02088665  1
  Ti  Ti141  1  0.09799501  0.89537852  0.39111983  1
  Ti  Ti142  1  0.30249102  0.30107382  0.63607075  1
  Ti  Ti143  1  0.39991719  0.39535292  0.25958266  1
  Ti  Ti144  1  0.40844228  0.39714599  0.49471133  1
  Ti  Ti145  1  0.80548109  0.38415249  0.75922729  1
  Ti  Ti146  1  0.09156115  0.89561025  0.62829058  1
  Ti  Ti147  1  0.90663805  0.50689211  0.12397503  1
  Ti  Ti148  1  0.81067125  0.60716815  0.24900528  1
  Ti  Ti149  1  0.30325634  0.09500628  0.13654521  1
  Ti  Ti150  1  0.70006983  0.70901548  0.62307017  1
  Ti  Ti151  1  0.09054545  0.09615783  0.63034955  1
  Ti  Ti152  1  0.70221980  0.69600348  0.13871892  1
  Ti  Ti153  1  0.48435675  0.07719373  0.89011169  1
  Ti  Ti154  1  0.89734764  0.49611772  0.63686666  1
  Ti  Ti155  1  0.08816663  0.70763954  0.63012750  1
  Ti  Ti156  1  0.70936568  0.50389311  0.87519167  1
  Ti  Ti157  1  0.30124097  0.49967973  0.38993519  1
  Ti  Ti158  1  0.27954396  0.89689875  0.38188501  1
  Ti  Ti159  1  0.71709632  0.29183650  0.38632606  1
  Mo  Mo160  1  0.71353393  0.48967698  0.62011328  1
  Mo  Mo161  1  0.90306660  0.10454154  0.10491750  1
  Mo  Mo162  1  0.40188267  0.39633561  0.75707805  1
  Mo  Mo163  1  0.00796783  0.80421380  0.76866312  1
  Mo  Mo164  1  0.49982519  0.09877746  0.60855541  1
  Mo  Mo165  1  0.20364058  0.60319351  0.25632595  1
  Mo  Mo166  1  0.70004100  0.30212602  0.10776970  1
  Mo  Mo167  1  0.09956313  0.70414817  0.87615179  1
  Mo  Mo168  1  0.90311072  0.90522966  0.89011266  1
  Mo  Mo169  1  0.69424442  0.11077183  0.11136882  1
  Mo  Mo170  1  0.59450716  0.19898532  0.00165099  1
  Mo  Mo171  1  0.79643019  0.20721009  0.01660608  1
  Mo  Mo172  1  0.80629121  0.79278859  -0.00952008  1
  Mo  Mo173  1  0.49935603  0.30464353  0.36913011  1
  Mo  Mo174  1  0.89725383  0.29901276  0.38099885  1
  Mo  Mo175  1  0.20714674  0.39748529  -0.00172190  1
  Mo  Mo176  1  0.18979909  0.18682494  0.52087589  1
  Mo  Mo177  1  0.09701683  0.89931504  0.10486320  1
  Mo  Mo178  1  -0.00536274  0.59842461  0.75944039  1
  Mo  Mo179  1  0.60577752  0.20352863  0.26824308  1
  Mo  Mo180  1  0.71019903  0.30136246  0.88709407  1
  Mo  Mo181  1  0.80772908  0.80040488  0.26647782  1
  Mo  Mo182  1  0.39461049  -0.00992870  0.01892451  1
  Mo  Mo183  1  0.89796199  0.30192780  0.88063428  1
  Mo  Mo184  1  0.00287981  0.40226241  0.24480083  1
  Mo  Mo185  1  0.59597952  0.59812180  0.25322726  1
  Mo  Mo186  1  0.10200452  0.50259493  0.85663887  1
  Mo  Mo187  1  0.80095614  0.20561468  0.50191388  1
  Mo  Mo188  1  0.50790664  0.89876841  0.36093687  1
  Mo  Mo189  1  0.39906410  -0.00303405  0.73652270  1
  Mo  Mo190  1  0.20112813  0.39720347  0.73095405  1
  Mo  Mo191  1  0.79762983  0.21076869  0.74493985  1
  Mo  Mo192  1  0.89960334  0.30670499  0.62971471  1
  Mo  Mo193  1  0.30040138  0.70255524  0.12088947  1
  Mo  Mo194  1  0.39750444  0.79682497  0.73148868  1
  Mo  Mo195  1  0.00248558  0.80257471  0.49419021  1
  Mo  Mo196  1  0.10203801  0.70539464  0.40015548  1
  Mo  Mo197  1  0.69301397  0.89586768  0.60134604  1
  Mo  Mo198  1  0.39454472  0.20434215  0.24853682  1
  Mo  Mo199  1  0.50104095  0.90143349  0.88023651  1
