# generated using pymatgen
data_HfZrTaTiMo
_symmetry_space_group_name_H-M   'P 1'
_cell_length_a   15.84413342
_cell_length_b   15.82953785
_cell_length_c   15.40508479
_cell_angle_alpha   90.02428234
_cell_angle_beta   89.98529942
_cell_angle_gamma   90.04196215
_symmetry_Int_Tables_number   1
_chemical_formula_structural   HfZrTaTiMo
_chemical_formula_sum   'Hf40 Zr40 Ta40 Ti40 Mo40'
_cell_volume   3863.67554914
_cell_formula_units_Z   40
loop_
 _symmetry_equiv_pos_site_id
 _symmetry_equiv_pos_as_xyz
  1  'x, y, z'
loop_
 _atom_site_type_symbol
 _atom_site_label
 _atom_site_symmetry_multiplicity
 _atom_site_fract_x
 _atom_site_fract_y
 _atom_site_fract_z
 _atom_site_occupancy
  Hf  Hf0  1  0.58046001  0.58388132  0.49980175  1
  Hf  Hf1  1  0.19211410  0.79130041  0.74450902  1
  Hf  Hf2  1  0.09890010  0.90111935  0.87484140  1
  Hf  Hf3  1  0.61370825  0.21049980  0.75554890  1
  Hf  Hf4  1  0.00202826  0.39770745  0.76365401  1
  Hf  Hf5  1  0.19743600  0.59771370  0.51580908  1
  Hf  Hf6  1  0.00609443  0.00540266  0.75224952  1
  Hf  Hf7  1  0.50350552  0.89733309  0.87777767  1
  Hf  Hf8  1  0.89866923  0.10718678  0.62957591  1
  Hf  Hf9  1  0.40319762  0.79292244  0.75455097  1
  Hf  Hf10  1  0.91202031  0.69940270  0.36718334  1
  Hf  Hf11  1  0.30270304  0.31432815  0.63247317  1
  Hf  Hf12  1  0.40673167  0.19667737  0.73988149  1
  Hf  Hf13  1  0.10146622  0.49434962  0.11004678  1
  Hf  Hf14  1  0.39224168  -0.00286697  0.25281149  1
  Hf  Hf15  1  0.00465177  0.00675869  0.00281947  1
  Hf  Hf16  1  0.10370302  0.68132598  0.87592039  1
  Hf  Hf17  1  0.49611789  0.89961358  0.12463258  1
  Hf  Hf18  1  0.10200398  0.29168281  0.35653933  1
  Hf  Hf19  1  0.29502775  0.89397958  0.12348748  1
  Hf  Hf20  1  0.40969409  0.41146733  0.49131944  1
  Hf  Hf21  1  0.29652484  0.90901204  0.87025864  1
  Hf  Hf22  1  0.60649718  0.20093224  0.24083041  1
  Hf  Hf23  1  0.70509832  0.89993064  0.62254720  1
  Hf  Hf24  1  0.61213456  0.20314962  -0.00212444  1
  Hf  Hf25  1  0.49453730  0.49680476  0.11841214  1
  Hf  Hf26  1  0.49317816  0.10314268  0.12269121  1
  Hf  Hf27  1  0.89503413  0.90073909  0.63260969  1
  Hf  Hf28  1  0.70993318  0.10869739  0.61600998  1
  Hf  Hf29  1  0.91151416  0.89784220  0.13391751  1
  Hf  Hf30  1  0.29599048  0.30357296  0.13692328  1
  Hf  Hf31  1  0.79325995  0.39695431  0.77305796  1
  Hf  Hf32  1  0.51725708  0.08459221  0.37881680  1
  Hf  Hf33  1  0.90771979  0.10710552  0.36425855  1
  Hf  Hf34  1  0.00676430  0.80289914  0.50225119  1
  Hf  Hf35  1  0.49107421  0.10019101  0.88373382  1
  Hf  Hf36  1  0.00032880  0.20365112  0.50693711  1
  Hf  Hf37  1  0.67162925  0.91843480  0.37717496  1
  Hf  Hf38  1  0.59695308  0.59874901  0.24802301  1
  Hf  Hf39  1  0.28651706  0.09997569  0.37566064  1
  Zr  Zr40  1  0.89320488  0.49480968  0.62928091  1
  Zr  Zr41  1  0.48935873  0.30616316  0.87760676  1
  Zr  Zr42  1  0.80391334  0.60988611  0.00841874  1
  Zr  Zr43  1  0.37793948  0.20413561  0.00226515  1
  Zr  Zr44  1  0.50210603  0.89733472  0.63837990  1
  Zr  Zr45  1  0.29278650  0.50571372  0.37090055  1
  Zr  Zr46  1  0.68473591  0.48599583  0.37139465  1
  Zr  Zr47  1  0.79822958  0.61673603  0.76381045  1
  Zr  Zr48  1  0.80324643  -0.00034708  0.00555466  1
  Zr  Zr49  1  0.79547707  0.00482031  0.24276505  1
  Zr  Zr50  1  0.59631553  0.40858188  0.76439615  1
  Zr  Zr51  1  0.49846877  0.70985182  0.12123308  1
  Zr  Zr52  1  0.59626566  0.59854982  0.74723268  1
  Zr  Zr53  1  0.90818819  0.49695228  0.12415887  1
  Zr  Zr54  1  0.80344180  0.80734628  0.47756022  1
  Zr  Zr55  1  0.80419337  0.19088153  0.00775861  1
  Zr  Zr56  1  0.10225207  0.29976962  0.12100211  1
  Zr  Zr57  1  0.70815372  0.11034436  0.38368576  1
  Zr  Zr58  1  0.91765110  0.30350858  0.12061934  1
  Zr  Zr59  1  0.40877793  -0.01520791  0.49733780  1
  Zr  Zr60  1  0.11317065  0.70282009  0.37277199  1
  Zr  Zr61  1  0.70420898  0.89036317  0.86384319  1
  Zr  Zr62  1  0.79331051  0.79303173  0.00992435  1
  Zr  Zr63  1  0.69717144  0.49361018  0.61516020  1
  Zr  Zr64  1  0.40252251  0.20578915  0.26244738  1
  Zr  Zr65  1  0.60245985  0.40743122  -0.00532596  1
  Zr  Zr66  1  0.09849892  0.08857648  0.36723109  1
  Zr  Zr67  1  0.00423186  0.59894585  0.74492742  1
  Zr  Zr68  1  0.40567183  0.21082292  0.49165773  1
  Zr  Zr69  1  0.30131060  0.09971926  0.61183232  1
  Zr  Zr70  1  0.28502526  0.88626748  0.37562716  1
  Zr  Zr71  1  0.39411655  0.79307120  -0.01212072  1
  Zr  Zr72  1  0.48252576  0.70041172  0.37573599  1
  Zr  Zr73  1  0.59879965  0.01559916  0.74779495  1
  Zr  Zr74  1  0.19666481  0.79052224  -0.00341207  1
  Zr  Zr75  1  0.61041747  0.00501130  -0.00056139  1
  Zr  Zr76  1  0.58302798  0.80377131  0.49813263  1
  Zr  Zr77  1  0.38442583  0.60483099  0.23905547  1
  Zr  Zr78  1  0.79438656  0.79906936  0.25759253  1
  Zr  Zr79  1  0.00029125  0.40092174  0.49440663  1
  Ta  Ta80  1  0.89186782  0.70058820  0.61454028  1
  Ta  Ta81  1  0.60926934  0.61482758  0.00933214  1
  Ta  Ta82  1  0.90205525  0.29986644  0.35894019  1
  Ta  Ta83  1  0.09734640  0.90048531  0.63048008  1
  Ta  Ta84  1  0.90613298  0.10155954  0.87095510  1
  Ta  Ta85  1  0.50918962  0.69338403  0.87966626  1
  Ta  Ta86  1  0.10542790  0.49213844  0.62666152  1
  Ta  Ta87  1  0.80138048  0.40164292  0.25169100  1
  Ta  Ta88  1  0.60112953  0.21220069  0.50440830  1
  Ta  Ta89  1  0.30292901  0.68572243  0.64108509  1
  Ta  Ta90  1  0.39608109  0.00543309  0.74519744  1
  Ta  Ta91  1  0.19393224  0.20639063  0.50809875  1
  Ta  Ta92  1  0.80072355  0.40087508  -0.00614119  1
  Ta  Ta93  1  -0.00976536  0.79104890  0.75259056  1
  Ta  Ta94  1  0.90875946  0.50433168  0.88769683  1
  Ta  Ta95  1  0.80312570  0.20377218  0.23089554  1
  Ta  Ta96  1  0.19732891  0.40465862  0.76061179  1
  Ta  Ta97  1  0.80564354  0.39534838  0.48353441  1
  Ta  Ta98  1  0.80547759  0.59429205  0.48049942  1
  Ta  Ta99  1  0.70682219  0.29738669  0.37260725  1
  Ta  Ta100  1  0.00612401  0.20005833  0.75561870  1
  Ta  Ta101  1  0.20122418  0.79533067  0.52455574  1
  Ta  Ta102  1  -0.00696921  0.79304590  -0.00467661  1
  Ta  Ta103  1  0.19836956  0.00686037  0.73887331  1
  Ta  Ta104  1  0.49672068  0.30656412  0.12239945  1
  Ta  Ta105  1  0.80095405  0.59779218  0.25687977  1
  Ta  Ta106  1  0.68532902  0.89157610  0.13136987  1
  Ta  Ta107  1  0.69291762  0.69494545  0.38007149  1
  Ta  Ta108  1  0.10715400  0.28991026  0.88007399  1
  Ta  Ta109  1  0.50759235  0.31359427  0.62828308  1
  Ta  Ta110  1  0.38283323  0.00717720  0.00482774  1
  Ta  Ta111  1  0.10076365  0.30127974  0.63581032  1
  Ta  Ta112  1  0.00007712  0.59968808  0.50524557  1
  Ta  Ta113  1  0.70329017  0.50060753  0.12994913  1
  Ta  Ta114  1  0.70479584  0.69858140  0.60416569  1
  Ta  Ta115  1  0.90913549  0.29550709  0.88947086  1
  Ta  Ta116  1  0.00698870  0.59750958  0.24732311  1
  Ta  Ta117  1  0.19998274  0.39680333  0.50009152  1
  Ta  Ta118  1  0.09634999  0.10113308  0.14044127  1
  Ta  Ta119  1  0.81095499  0.00333692  0.49051158  1
  Ti  Ti120  1  0.00104393  0.60362257  0.00019061  1
  Ti  Ti121  1  0.19418578  0.19445524  0.74104278  1
  Ti  Ti122  1  0.69744407  0.51481756  0.88823934  1
  Ti  Ti123  1  0.52410837  0.32089695  0.36855591  1
  Ti  Ti124  1  0.02615657  0.81054890  0.24721269  1
  Ti  Ti125  1  0.89397517  0.30014083  0.63252464  1
  Ti  Ti126  1  0.19578729  0.40894220  0.25197106  1
  Ti  Ti127  1  0.71078583  0.30388116  0.61262433  1
  Ti  Ti128  1  0.29028439  0.30268821  0.36867771  1
  Ti  Ti129  1  0.20495201  0.78829159  0.23546135  1
  Ti  Ti130  1  0.70204565  0.30944006  0.12617724  1
  Ti  Ti131  1  0.09481649  0.50133318  0.37341211  1
  Ti  Ti132  1  0.18197250  -0.01911805  0.24203479  1
  Ti  Ti133  1  0.19747848  0.00688394  0.00838055  1
  Ti  Ti134  1  0.38965024  0.40555676  -0.01013695  1
  Ti  Ti135  1  0.19518201  0.60092874  0.23644331  1
  Ti  Ti136  1  0.29348041  0.49789611  0.11740564  1
  Ti  Ti137  1  0.29950141  0.89697994  0.63226155  1
  Ti  Ti138  1  0.29597918  0.29785083  0.86069081  1
  Ti  Ti139  1  0.29612177  0.70029947  0.38155562  1
  Ti  Ti140  1  0.90802296  0.70074431  0.14193394  1
  Ti  Ti141  1  0.28882604  0.10211800  0.86694761  1
  Ti  Ti142  1  0.00328759  0.00038962  0.50905383  1
  Ti  Ti143  1  0.29885991  0.50505726  0.86423172  1
  Ti  Ti144  1  0.40629600  0.40442523  0.25805075  1
  Ti  Ti145  1  0.19528562  0.18599511  0.00428759  1
  Ti  Ti146  1  0.58969216  0.80135011  0.26107662  1
  Ti  Ti147  1  0.49595340  0.69094601  0.63008675  1
  Ti  Ti148  1  0.20482373  0.40008039  -0.01782688  1
  Ti  Ti149  1  0.89857656  0.89326203  0.86906056  1
  Ti  Ti150  1  0.10078279  0.69663484  0.11708531  1
  Ti  Ti151  1  0.29954530  0.68289194  0.86077791  1
  Ti  Ti152  1  0.39018025  0.79083679  0.51390250  1
  Ti  Ti153  1  0.39218224  0.59807882  -0.00484153  1
  Ti  Ti154  1  0.80007672  0.00752283  0.75985119  1
  Ti  Ti155  1  0.39303647  0.59453385  0.51300956  1
  Ti  Ti156  1  0.18956700  -0.00654592  0.51163038  1
  Ti  Ti157  1  0.61391673  0.78421562  0.74620434  1
  Ti  Ti158  1  0.92304648  0.91186034  0.36340292  1
  Ti  Ti159  1  0.80245848  0.20557166  0.76794853  1
  Mo  Mo160  1  0.49432487  0.49668997  0.35903228  1
  Mo  Mo161  1  0.10124768  0.10185798  0.61998766  1
  Mo  Mo162  1  -0.00178625  0.19955899  0.24795583  1
  Mo  Mo163  1  0.90371611  0.50060906  0.36506423  1
  Mo  Mo164  1  0.48691383  0.89295824  0.35720975  1
  Mo  Mo165  1  0.60088332  0.39501438  0.22993923  1
  Mo  Mo166  1  0.28534745  0.09698974  0.13887587  1
  Mo  Mo167  1  0.40352642  0.59341499  0.75736253  1
  Mo  Mo168  1  0.29975127  0.49635944  0.63545862  1
  Mo  Mo169  1  0.60416780  0.01151976  0.52184139  1
  Mo  Mo170  1  0.01095615  0.19189088  -0.01419941  1
  Mo  Mo171  1  0.59558886  0.00042238  0.23393061  1
  Mo  Mo172  1  0.59925964  0.39306617  0.50731514  1
  Mo  Mo173  1  0.69754640  0.70185244  0.87540077  1
  Mo  Mo174  1  0.91046512  0.10333118  0.13588942  1
  Mo  Mo175  1  0.80238180  0.79842233  0.74389123  1
  Mo  Mo176  1  0.90366654  0.70587898  0.87851854  1
  Mo  Mo177  1  0.39677482  0.40559031  0.75934127  1
  Mo  Mo178  1  0.09441242  0.69766026  0.62744044  1
  Mo  Mo179  1  0.60493786  0.79484203  -0.00228970  1
  Mo  Mo180  1  0.29152817  0.68943115  0.11834792  1
  Mo  Mo181  1  0.69891511  0.09908021  0.13472215  1
  Mo  Mo182  1  0.20094917  0.58958722  0.73893938  1
  Mo  Mo183  1  0.10528306  0.49549630  0.88745100  1
  Mo  Mo184  1  0.71059801  0.10299024  0.86345082  1
  Mo  Mo185  1  0.80932233  0.21317865  0.49900387  1
  Mo  Mo186  1  0.21041925  0.59214243  0.00403698  1
  Mo  Mo187  1  0.10038519  0.89244880  0.11060961  1
  Mo  Mo188  1  0.48340425  0.49584111  0.63471601  1
  Mo  Mo189  1  0.20410758  0.19485586  0.24313044  1
  Mo  Mo190  1  0.10200172  0.89894405  0.39029005  1
  Mo  Mo191  1  0.00319422  -0.00613784  0.23862280  1
  Mo  Mo192  1  0.00647443  0.40014261  -0.01975523  1
  Mo  Mo193  1  0.00345887  0.40911225  0.26382816  1
  Mo  Mo194  1  0.70966323  0.30329903  0.88760257  1
  Mo  Mo195  1  0.38873435  0.79977164  0.25000061  1
  Mo  Mo196  1  0.48967296  0.51239802  0.89576273  1
  Mo  Mo197  1  0.11057259  0.10165576  0.87411266  1
  Mo  Mo198  1  0.50742873  0.10844644  0.61090614  1
  Mo  Mo199  1  0.69962614  0.70125181  0.15151539  1
