# generated using pymatgen
data_HfZrTaTiMo
_symmetry_space_group_name_H-M   'P 1'
_cell_length_a   15.82199274
_cell_length_b   15.84327210
_cell_length_c   15.39916411
_cell_angle_alpha   89.99003837
_cell_angle_beta   89.99650021
_cell_angle_gamma   90.15852052
_symmetry_Int_Tables_number   1
_chemical_formula_structural   HfZrTaTiMo
_chemical_formula_sum   'Hf40 Zr40 Ta40 Ti40 Mo40'
_cell_volume   3860.12652166
_cell_formula_units_Z   40
loop_
 _symmetry_equiv_pos_site_id
 _symmetry_equiv_pos_as_xyz
  1  'x, y, z'
loop_
 _atom_site_type_symbol
 _atom_site_label
 _atom_site_symmetry_multiplicity
 _atom_site_fract_x
 _atom_site_fract_y
 _atom_site_fract_z
 _atom_site_occupancy
  Hf  Hf0  1  0.49173367  0.89425748  0.13650896  1
  Hf  Hf1  1  0.40760045  0.19288098  0.24342858  1
  Hf  Hf2  1  0.19202904  0.20667734  0.24628652  1
  Hf  Hf3  1  0.11465044  0.72450658  0.88293934  1
  Hf  Hf4  1  0.49708618  0.69898974  0.85998497  1
  Hf  Hf5  1  0.69852573  0.70728925  0.86918547  1
  Hf  Hf6  1  0.00921078  0.61093282  0.75038516  1
  Hf  Hf7  1  0.40387932  0.40084724  0.76369648  1
  Hf  Hf8  1  0.80882245  0.61283395  0.74611660  1
  Hf  Hf9  1  0.80813039  0.40903024  0.25954472  1
  Hf  Hf10  1  0.30113360  0.30623559  0.37750990  1
  Hf  Hf11  1  0.28646129  0.11575907  0.60803993  1
  Hf  Hf12  1  0.58642280  0.79222200  0.00724881  1
  Hf  Hf13  1  0.78519417  0.00651027  0.50904347  1
  Hf  Hf14  1  0.50213000  0.70299066  0.62160684  1
  Hf  Hf15  1  0.61244691  0.18680580  0.49361585  1
  Hf  Hf16  1  0.49993270  0.89829078  0.86834905  1
  Hf  Hf17  1  0.18503642  -0.00285424  0.73651107  1
  Hf  Hf18  1  0.37501198  0.79167658  -0.00557815  1
  Hf  Hf19  1  0.70279782  0.08985864  0.36408051  1
  Hf  Hf20  1  0.51059077  0.70538756  0.37989215  1
  Hf  Hf21  1  0.00937466  0.19929899  0.50626538  1
  Hf  Hf22  1  0.70508692  0.49695461  0.62125934  1
  Hf  Hf23  1  0.79927290  0.78663868  0.26172361  1
  Hf  Hf24  1  0.31299505  0.29324688  0.89696320  1
  Hf  Hf25  1  0.30445861  0.51470906  0.88425135  1
  Hf  Hf26  1  0.09393713  0.49976572  0.37367827  1
  Hf  Hf27  1  0.50577823  0.30443139  0.12069140  1
  Hf  Hf28  1  -0.00475987  -0.00951447  0.00492420  1
  Hf  Hf29  1  0.49005371  0.11070259  0.87224434  1
  Hf  Hf30  1  0.30174546  0.30054974  0.10967460  1
  Hf  Hf31  1  0.19536581  0.40422288  0.23929838  1
  Hf  Hf32  1  0.89382252  0.88796207  0.87434111  1
  Hf  Hf33  1  0.51498356  0.30096046  0.35936472  1
  Hf  Hf34  1  0.30063749  0.09537642  0.11567079  1
  Hf  Hf35  1  -0.00555095  0.19605950  -0.00255190  1
  Hf  Hf36  1  0.69817813  0.08920032  0.88008321  1
  Hf  Hf37  1  0.40559330  0.41039737  0.24611627  1
  Hf  Hf38  1  0.91406611  0.29536079  0.36603934  1
  Hf  Hf39  1  0.31506109  0.30718129  0.61563318  1
  Zr  Zr40  1  0.59824486  -0.00316904  0.74416919  1
  Zr  Zr41  1  0.49563519  0.10510524  0.63881735  1
  Zr  Zr42  1  0.70573458  0.29151202  0.86342644  1
  Zr  Zr43  1  0.11042009  0.51283396  0.88402801  1
  Zr  Zr44  1  0.70946438  0.50709897  0.13439071  1
  Zr  Zr45  1  0.90280165  0.50042322  0.86883302  1
  Zr  Zr46  1  0.89480761  0.10235820  0.63034568  1
  Zr  Zr47  1  0.61185487  0.41138251  -0.00881562  1
  Zr  Zr48  1  0.59787555  0.38150797  0.50468136  1
  Zr  Zr49  1  0.88904403  0.88135252  0.61578583  1
  Zr  Zr50  1  0.89562353  0.90496911  0.38141203  1
  Zr  Zr51  1  0.08453459  0.89342070  0.35727332  1
  Zr  Zr52  1  -0.01630295  0.59976961  0.25046873  1
  Zr  Zr53  1  0.11258036  0.30255193  0.88655356  1
  Zr  Zr54  1  0.01633320  0.18747978  0.75731905  1
  Zr  Zr55  1  0.90293500  0.50251379  0.61715127  1
  Zr  Zr56  1  0.89885595  0.30330894  0.64060578  1
  Zr  Zr57  1  0.59917875  0.19117100  0.01023028  1
  Zr  Zr58  1  0.90611101  0.30802786  0.12336914  1
  Zr  Zr59  1  0.49092807  0.69368255  0.14936059  1
  Zr  Zr60  1  0.41989637  0.20615232  0.48947855  1
  Zr  Zr61  1  0.80554630  0.39773300  -0.00834366  1
  Zr  Zr62  1  0.70809539  0.29104370  0.64536113  1
  Zr  Zr63  1  0.37736236  0.00248714  0.75292009  1
  Zr  Zr64  1  0.39754204  0.60245592  0.48938329  1
  Zr  Zr65  1  0.18994133  0.80467765  0.49031174  1
  Zr  Zr66  1  0.69946172  0.89501592  0.88522841  1
  Zr  Zr67  1  0.09265621  0.09566793  0.37343700  1
  Zr  Zr68  1  0.70468954  0.70698745  0.61004837  1
  Zr  Zr69  1  0.10607837  0.50282654  0.62112656  1
  Zr  Zr70  1  0.12096082  0.29627454  0.63007834  1
  Zr  Zr71  1  0.49840443  0.49345777  0.61797037  1
  Zr  Zr72  1  0.29652444  0.49983610  0.61632305  1
  Zr  Zr73  1  0.29491156  0.10006153  0.37745416  1
  Zr  Zr74  1  0.40389258  -0.00146155  0.49227115  1
  Zr  Zr75  1  0.69563227  0.69278436  0.12441755  1
  Zr  Zr76  1  0.80648500  0.18757118  0.24020786  1
  Zr  Zr77  1  0.40295020  -0.00884016  0.00269174  1
  Zr  Zr78  1  0.36983308  0.79640463  0.75461242  1
  Zr  Zr79  1  0.69593214  0.50129354  0.38812424  1
  Ta  Ta80  1  0.00426731  0.19579013  0.23539448  1
  Ta  Ta81  1  0.30028392  0.70725020  0.15386120  1
  Ta  Ta82  1  0.20941744  0.62154737  0.74658161  1
  Ta  Ta83  1  0.11042576  0.08009889  0.89176272  1
  Ta  Ta84  1  0.00052935  -0.01014034  0.74793465  1
  Ta  Ta85  1  0.79939294  -0.00908364  0.74407847  1
  Ta  Ta86  1  0.31005287  0.51842676  0.13022093  1
  Ta  Ta87  1  0.69977343  0.89425489  0.11950480  1
  Ta  Ta88  1  0.10157530  0.09882466  0.11429475  1
  Ta  Ta89  1  0.50602834  0.50986926  0.87900119  1
  Ta  Ta90  1  0.29803757  0.50497336  0.36772800  1
  Ta  Ta91  1  0.09554973  0.70561928  0.13732946  1
  Ta  Ta92  1  0.29453041  0.70299070  0.60804291  1
  Ta  Ta93  1  0.68958174  0.89232199  0.62035836  1
  Ta  Ta94  1  0.60122559  -0.00549005  0.24595097  1
  Ta  Ta95  1  0.21592064  0.19183081  0.76486854  1
  Ta  Ta96  1  0.70377845  0.29935770  0.13289008  1
  Ta  Ta97  1  0.29694103  0.70475240  0.36032329  1
  Ta  Ta98  1  0.39803897  0.80858310  0.48679327  1
  Ta  Ta99  1  0.19156415  0.60924714  0.48093873  1
  Ta  Ta100  1  0.80293270  0.19140436  0.00443322  1
  Ta  Ta101  1  0.00885036  0.40165691  0.75506105  1
  Ta  Ta102  1  0.00175630  0.79891055  0.73920252  1
  Ta  Ta103  1  0.80237295  0.38582064  0.48665381  1
  Ta  Ta104  1  0.49406688  0.89087121  0.62945062  1
  Ta  Ta105  1  0.89211566  0.69526395  0.11295443  1
  Ta  Ta106  1  0.21060517  0.62185265  0.01826541  1
  Ta  Ta107  1  0.90384337  0.09438724  0.37889915  1
  Ta  Ta108  1  0.80005300  0.20415426  0.48635512  1
  Ta  Ta109  1  0.89531088  0.08980537  0.87285706  1
  Ta  Ta110  1  0.79236821  0.59883269  -0.01597887  1
  Ta  Ta111  1  0.25554273  0.89625185  0.88493308  1
  Ta  Ta112  1  0.00325240  0.39519293  0.49819901  1
  Ta  Ta113  1  0.09709838  0.89893014  0.13731943  1
  Ta  Ta114  1  0.60263489  0.40572713  0.75974186  1
  Ta  Ta115  1  0.29417082  0.90135086  0.36268468  1
  Ta  Ta116  1  0.91483965  0.70663483  0.39345495  1
  Ta  Ta117  1  0.09854479  0.50835558  0.11641324  1
  Ta  Ta118  1  0.29308822  0.09782467  0.89817485  1
  Ta  Ta119  1  0.51053970  0.51271183  0.12210602  1
  Ti  Ti120  1  0.90292844  0.50338917  0.38955279  1
  Ti  Ti121  1  0.18777529  0.00114047  0.50431764  1
  Ti  Ti122  1  0.10190987  0.30305140  0.10775528  1
  Ti  Ti123  1  0.68963907  0.88896274  0.38951007  1
  Ti  Ti124  1  0.89449235  0.88717452  0.12806788  1
  Ti  Ti125  1  0.90082522  0.50774463  0.11484607  1
  Ti  Ti126  1  0.40896615  0.41420694  0.00489575  1
  Ti  Ti127  1  0.80218236  -0.00317716  0.01335273  1
  Ti  Ti128  1  0.40654403  0.00075935  0.25916824  1
  Ti  Ti129  1  0.60511334  0.80367726  0.25758252  1
  Ti  Ti130  1  0.20540672  0.41723205  0.01004702  1
  Ti  Ti131  1  0.50102420  0.50000623  0.38039447  1
  Ti  Ti132  1  0.69885683  0.10693537  0.64304957  1
  Ti  Ti133  1  0.00597707  -0.00551151  0.51888128  1
  Ti  Ti134  1  0.20781216  0.40376060  0.75885557  1
  Ti  Ti135  1  0.80444896  0.60765625  0.49187336  1
  Ti  Ti136  1  0.50082099  0.29825742  0.88103580  1
  Ti  Ti137  1  0.79825069  -0.00883605  0.24188284  1
  Ti  Ti138  1  0.89989490  0.29399679  0.86239257  1
  Ti  Ti139  1  0.40693522  0.60964036  0.00317411  1
  Ti  Ti140  1  -0.01554763  0.00808429  0.23135833  1
  Ti  Ti141  1  0.00265495  0.60698233  0.00108840  1
  Ti  Ti142  1  0.09625161  0.70402656  0.61504646  1
  Ti  Ti143  1  0.60842725  0.40364629  0.24694114  1
  Ti  Ti144  1  0.60952539  0.60066354  0.26783788  1
  Ti  Ti145  1  0.29253883  0.89692142  0.61456393  1
  Ti  Ti146  1  0.60530003  0.19125086  0.24148616  1
  Ti  Ti147  1  0.19671724  0.39724374  0.48824797  1
  Ti  Ti148  1  0.00202336  0.79931465  0.01103551  1
  Ti  Ti149  1  0.69818066  0.08859249  0.12190892  1
  Ti  Ti150  1  0.60269523  0.59803917  0.74548340  1
  Ti  Ti151  1  0.00246879  0.40640188  -0.00604818  1
  Ti  Ti152  1  0.50742342  0.28957976  0.64997469  1
  Ti  Ti153  1  0.19555101  0.00421996  0.24353834  1
  Ti  Ti154  1  0.29311661  0.89417848  0.14316683  1
  Ti  Ti155  1  0.19421009  0.60244666  0.25089111  1
  Ti  Ti156  1  0.39410551  0.60001450  0.74424169  1
  Ti  Ti157  1  0.90037663  0.70717728  0.88643783  1
  Ti  Ti158  1  0.00819513  0.39896483  0.24351854  1
  Ti  Ti159  1  0.58688176  -0.00498739  0.49591177  1
  Mo  Mo160  1  -0.01125879  0.79921237  0.23369108  1
  Mo  Mo161  1  0.90794483  0.69675407  0.60630425  1
  Mo  Mo162  1  0.00173169  0.79619472  0.50956770  1
  Mo  Mo163  1  0.59939229  -0.00451763  0.02155576  1
  Mo  Mo164  1  0.09694579  0.69991183  0.35657314  1
  Mo  Mo165  1  0.39150823  0.20697469  0.75468906  1
  Mo  Mo166  1  0.18797236  0.80202712  0.73026143  1
  Mo  Mo167  1  0.59606585  0.60107565  -0.00970600  1
  Mo  Mo168  1  0.50152239  0.90196269  0.36524713  1
  Mo  Mo169  1  0.80501376  0.18875090  0.77025194  1
  Mo  Mo170  1  0.80638422  0.40360976  0.75834104  1
  Mo  Mo171  1  0.19633345  0.19551320  0.00007451  1
  Mo  Mo172  1  0.70693715  0.29408491  0.35616529  1
  Mo  Mo173  1  0.69950545  0.50803395  0.85305169  1
  Mo  Mo174  1  0.29498320  0.69850650  0.87794074  1
  Mo  Mo175  1  0.09928572  0.30300886  0.37362653  1
  Mo  Mo176  1  0.59151206  0.80944085  0.50109230  1
  Mo  Mo177  1  0.40501904  0.20069541  0.01282916  1
  Mo  Mo178  1  0.59663436  0.20145943  0.76230528  1
  Mo  Mo179  1  0.70324677  0.70054238  0.38655447  1
  Mo  Mo180  1  0.10141872  0.09684256  0.62044799  1
  Mo  Mo181  1  0.50395299  0.09282208  0.13767613  1
  Mo  Mo182  1  0.00516105  0.60116344  0.49429857  1
  Mo  Mo183  1  0.39883266  0.80756185  0.26947532  1
  Mo  Mo184  1  0.80328931  0.80019418  0.74829474  1
  Mo  Mo185  1  0.40043905  0.40472334  0.47794365  1
  Mo  Mo186  1  0.09398491  0.89671135  0.62092038  1
  Mo  Mo187  1  0.79503690  0.80061726  0.48287756  1
  Mo  Mo188  1  0.08669549  0.89840354  0.87685438  1
  Mo  Mo189  1  0.50997450  0.09476862  0.35786143  1
  Mo  Mo190  1  0.19729777  -0.01125058  0.01767180  1
  Mo  Mo191  1  0.19431051  0.80238045  0.02842902  1
  Mo  Mo192  1  0.19534199  0.80261846  0.24954010  1
  Mo  Mo193  1  0.89724782  0.09149030  0.11686102  1
  Mo  Mo194  1  0.80261822  0.79623497  0.01086596  1
  Mo  Mo195  1  0.19488877  0.20818892  0.48349559  1
  Mo  Mo196  1  0.80417104  0.60323778  0.27289451  1
  Mo  Mo197  1  0.59810282  0.79813566  0.73877872  1
  Mo  Mo198  1  0.60242839  0.59866964  0.49726615  1
  Mo  Mo199  1  0.40394227  0.59908913  0.26425008  1
