# generated using pymatgen
data_HfZrTaTiMo
_symmetry_space_group_name_H-M   'P 1'
_cell_length_a   15.83319441
_cell_length_b   15.83071717
_cell_length_c   15.40710981
_cell_angle_alpha   89.99379180
_cell_angle_beta   90.08203003
_cell_angle_gamma   89.90346886
_symmetry_Int_Tables_number   1
_chemical_formula_structural   HfZrTaTiMo
_chemical_formula_sum   'Hf40 Zr40 Ta40 Ti40 Mo40'
_cell_volume   3861.79528575
_cell_formula_units_Z   40
loop_
 _symmetry_equiv_pos_site_id
 _symmetry_equiv_pos_as_xyz
  1  'x, y, z'
loop_
 _atom_site_type_symbol
 _atom_site_label
 _atom_site_symmetry_multiplicity
 _atom_site_fract_x
 _atom_site_fract_y
 _atom_site_fract_z
 _atom_site_occupancy
  Hf  Hf0  1  0.80078181  -0.00516112  0.25982068  1
  Hf  Hf1  1  0.77740626  0.60251848  0.24611280  1
  Hf  Hf2  1  0.58989256  0.01733033  0.48423774  1
  Hf  Hf3  1  0.90818936  0.09160560  0.13298297  1
  Hf  Hf4  1  0.70740996  0.50630319  0.87215667  1
  Hf  Hf5  1  0.09159286  0.69469312  0.85412641  1
  Hf  Hf6  1  0.10778012  0.70400649  0.14201823  1
  Hf  Hf7  1  0.40046117  0.00026270  0.25106218  1
  Hf  Hf8  1  0.29893232  0.50062439  0.11494934  1
  Hf  Hf9  1  0.59867773  0.80524985  0.73993369  1
  Hf  Hf10  1  0.40096680  0.00789080  0.76398115  1
  Hf  Hf11  1  0.70254563  0.90033368  0.88595976  1
  Hf  Hf12  1  0.18419416  0.79725296  0.49803501  1
  Hf  Hf13  1  0.59703062  0.21032948  0.50159535  1
  Hf  Hf14  1  0.49835843  0.89713335  0.37783988  1
  Hf  Hf15  1  0.39519560  0.79768364  0.76426041  1
  Hf  Hf16  1  0.10387962  0.29656736  0.86948797  1
  Hf  Hf17  1  0.09918899  0.49971204  0.13133446  1
  Hf  Hf18  1  0.29808062  0.30299799  0.88911600  1
  Hf  Hf19  1  0.29384979  0.10471334  0.88522211  1
  Hf  Hf20  1  0.29847841  0.90656311  0.62269186  1
  Hf  Hf21  1  0.89671585  0.88873910  0.63330952  1
  Hf  Hf22  1  0.70846160  0.27965661  0.36459007  1
  Hf  Hf23  1  0.51297059  0.68739633  0.37370886  1
  Hf  Hf24  1  0.39746593  0.79918268  0.49730735  1
  Hf  Hf25  1  0.50497503  0.69099861  0.12223038  1
  Hf  Hf26  1  0.90069604  0.29793699  0.14806281  1
  Hf  Hf27  1  0.39879943  0.39824824  0.26011074  1
  Hf  Hf28  1  0.71643061  0.70518175  0.85969537  1
  Hf  Hf29  1  0.61061700  0.79486330  0.23615264  1
  Hf  Hf30  1  0.29162327  0.69306931  0.37871336  1
  Hf  Hf31  1  0.09812615  0.91291911  0.13700937  1
  Hf  Hf32  1  0.09601380  0.30183741  0.13634663  1
  Hf  Hf33  1  0.39919458  0.20562602  0.74720383  1
  Hf  Hf34  1  0.40585841  0.59374099  0.75815711  1
  Hf  Hf35  1  0.89629817  0.30268059  0.62163680  1
  Hf  Hf36  1  0.69948154  0.90911207  0.61839554  1
  Hf  Hf37  1  0.00070016  0.80035538  -0.00230128  1
  Hf  Hf38  1  0.80454920  0.78151338  0.00968234  1
  Hf  Hf39  1  0.50872137  0.31324866  0.12991332  1
  Zr  Zr40  1  0.09489115  0.90040199  0.63988869  1
  Zr  Zr41  1  0.49793030  0.30370331  0.89596838  1
  Zr  Zr42  1  0.40150617  0.79678031  0.24412230  1
  Zr  Zr43  1  0.89350205  0.69417579  0.37823039  1
  Zr  Zr44  1  0.40118620  0.00454370  0.00863599  1
  Zr  Zr45  1  0.20369331  0.39112909  0.73487647  1
  Zr  Zr46  1  0.19179692  0.00537861  0.49207670  1
  Zr  Zr47  1  -0.00618792  0.81248302  0.26706336  1
  Zr  Zr48  1  0.49186891  0.91022624  0.61636022  1
  Zr  Zr49  1  0.68831167  0.49007910  0.11830314  1
  Zr  Zr50  1  0.69938980  0.09356670  0.88693219  1
  Zr  Zr51  1  0.89947341  0.49996310  0.13243034  1
  Zr  Zr52  1  0.89638344  0.50597445  0.38411900  1
  Zr  Zr53  1  0.39062237  0.60954336  -0.02089463  1
  Zr  Zr54  1  0.60678734  0.19908055  0.01940798  1
  Zr  Zr55  1  0.79467982  0.01227651  0.48536073  1
  Zr  Zr56  1  0.00108388  0.20010349  0.75453800  1
  Zr  Zr57  1  0.71332843  0.70161274  0.62034495  1
  Zr  Zr58  1  -0.00377050  0.39549487  -0.01612756  1
  Zr  Zr59  1  0.40479211  0.58643572  0.25679742  1
  Zr  Zr60  1  -0.00376176  -0.00664575  0.47734678  1
  Zr  Zr61  1  0.50286226  0.48844303  0.60704528  1
  Zr  Zr62  1  0.00384164  0.19730389  0.49425947  1
  Zr  Zr63  1  0.89884091  0.09648700  0.62207943  1
  Zr  Zr64  1  0.29997518  0.49209426  0.40149604  1
  Zr  Zr65  1  0.70335465  0.29387533  0.87423835  1
  Zr  Zr66  1  0.19322561  0.20041780  0.01536744  1
  Zr  Zr67  1  0.61166439  0.61129878  -0.00913936  1
  Zr  Zr68  1  0.59471971  0.40198552  0.75478630  1
  Zr  Zr69  1  0.10612511  0.29921582  0.36736751  1
  Zr  Zr70  1  -0.00228672  0.00689121  0.76162018  1
  Zr  Zr71  1  0.29667250  0.69567135  0.62447775  1
  Zr  Zr72  1  0.90053623  0.50150825  0.61657032  1
  Zr  Zr73  1  0.40043750  0.40111587  0.74849474  1
  Zr  Zr74  1  0.80563887  0.39437637  -0.00654268  1
  Zr  Zr75  1  -0.00457216  0.60551493  -0.00113431  1
  Zr  Zr76  1  0.60779737  0.00182800  0.24932927  1
  Zr  Zr77  1  0.28733703  0.89654600  0.12707518  1
  Zr  Zr78  1  0.50844571  0.90616596  0.88755270  1
  Zr  Zr79  1  0.20388608  0.78705480  -0.01018407  1
  Ta  Ta80  1  0.20444123  0.59207299  0.74249650  1
  Ta  Ta81  1  0.49500205  0.10360070  0.62434925  1
  Ta  Ta82  1  0.20605465  0.40372478  0.25671548  1
  Ta  Ta83  1  0.28876369  0.90582123  0.88200978  1
  Ta  Ta84  1  0.70491288  0.49406034  0.61900354  1
  Ta  Ta85  1  0.10139710  0.50035619  0.86051141  1
  Ta  Ta86  1  0.00237405  0.39944329  0.49183991  1
  Ta  Ta87  1  0.79359462  0.40020563  0.26363811  1
  Ta  Ta88  1  0.31216762  0.29659611  0.59983692  1
  Ta  Ta89  1  0.09736440  0.09806892  0.14003756  1
  Ta  Ta90  1  0.79589393  0.19838641  0.74504904  1
  Ta  Ta91  1  0.00899198  0.60936120  0.51076503  1
  Ta  Ta92  1  0.10062798  0.10060635  0.34864089  1
  Ta  Ta93  1  0.70611256  0.90405340  0.10820561  1
  Ta  Ta94  1  0.20104721  0.19554573  0.50191372  1
  Ta  Ta95  1  -0.00741734  0.19752173  -0.00483986  1
  Ta  Ta96  1  0.90123313  0.69838753  0.14156675  1
  Ta  Ta97  1  0.59426509  0.19986357  0.74330058  1
  Ta  Ta98  1  0.79481655  0.80337599  0.24829171  1
  Ta  Ta99  1  0.69926912  0.30658351  0.62429568  1
  Ta  Ta100  1  0.49699035  0.49590723  0.10541972  1
  Ta  Ta101  1  0.29036002  0.90003789  0.36996949  1
  Ta  Ta102  1  0.40233011  0.80005528  -0.00095966  1
  Ta  Ta103  1  0.30790476  0.09748504  0.61104942  1
  Ta  Ta104  1  0.10570665  0.50799963  0.38757783  1
  Ta  Ta105  1  0.29150433  0.09810836  0.13376187  1
  Ta  Ta106  1  0.59930116  0.59900148  0.74608425  1
  Ta  Ta107  1  0.59853774  0.01280024  0.74951761  1
  Ta  Ta108  1  0.80738007  0.39878346  0.75739369  1
  Ta  Ta109  1  0.69794354  0.88820915  0.38554752  1
  Ta  Ta110  1  0.88854803  0.12693886  0.36002606  1
  Ta  Ta111  1  0.49792244  0.10859519  0.14479145  1
  Ta  Ta112  1  0.69890578  0.69778135  0.38835087  1
  Ta  Ta113  1  -0.00033714  0.79925428  0.49161804  1
  Ta  Ta114  1  0.79454602  0.39160447  0.48669987  1
  Ta  Ta115  1  0.80478971  0.19691734  0.01778335  1
  Ta  Ta116  1  0.40069719  0.19880550  0.01853197  1
  Ta  Ta117  1  0.89473034  0.89257643  0.87169650  1
  Ta  Ta118  1  0.10116788  0.90377323  0.87186990  1
  Ta  Ta119  1  0.30115774  0.49460493  0.60774605  1
  Ti  Ti120  1  0.29511838  0.49575790  0.87839739  1
  Ti  Ti121  1  0.20152349  0.80079679  0.75513145  1
  Ti  Ti122  1  0.69816813  0.10724064  0.62410142  1
  Ti  Ti123  1  0.88993506  0.10001786  0.88428149  1
  Ti  Ti124  1  -0.00030307  0.40438086  0.27180037  1
  Ti  Ti125  1  0.80760589  0.79986229  0.49512565  1
  Ti  Ti126  1  0.30356985  0.30631390  0.12260257  1
  Ti  Ti127  1  0.90085238  0.90163828  0.12143423  1
  Ti  Ti128  1  0.20276705  0.59125273  0.25515277  1
  Ti  Ti129  1  0.42469304  0.38007616  0.48592231  1
  Ti  Ti130  1  0.40596549  0.59884909  0.50028935  1
  Ti  Ti131  1  0.29680234  0.69584337  0.13309769  1
  Ti  Ti132  1  0.59912648  0.41326548  0.26699846  1
  Ti  Ti133  1  0.49894027  0.69667143  0.62540321  1
  Ti  Ti134  1  0.08854184  0.70150144  0.64090008  1
  Ti  Ti135  1  0.59830085  0.79714467  0.50734337  1
  Ti  Ti136  1  0.51140822  0.70675636  0.87635394  1
  Ti  Ti137  1  0.20293910  0.19290149  0.72734995  1
  Ti  Ti138  1  0.10287492  0.69550781  0.37091660  1
  Ti  Ti139  1  -0.00514040  0.40259141  0.75586369  1
  Ti  Ti140  1  0.50601330  0.28321034  0.35210871  1
  Ti  Ti141  1  0.59484375  0.00633346  0.01756481  1
  Ti  Ti142  1  0.19598607  0.60076103  -0.01253246  1
  Ti  Ti143  1  0.60318258  0.59727093  0.51208559  1
  Ti  Ti144  1  0.09700697  0.29707138  0.62226340  1
  Ti  Ti145  1  0.69088476  0.50698040  0.39041143  1
  Ti  Ti146  1  -0.00006399  0.00168261  -0.00798988  1
  Ti  Ti147  1  0.40910990  0.18746625  0.48700344  1
  Ti  Ti148  1  0.19340708  0.40547846  0.00044009  1
  Ti  Ti149  1  0.30357641  0.29205534  0.38167641  1
  Ti  Ti150  1  0.90288589  0.52005058  0.86572313  1
  Ti  Ti151  1  0.00226842  0.59741333  0.25773816  1
  Ti  Ti152  1  0.19346156  0.39212312  0.50503111  1
  Ti  Ti153  1  0.30335398  0.10403853  0.36795036  1
  Ti  Ti154  1  0.81256690  0.60507927  0.73473590  1
  Ti  Ti155  1  0.19979433  0.01052891  0.74634158  1
  Ti  Ti156  1  0.10039486  0.49821986  0.62378319  1
  Ti  Ti157  1  0.21196642  0.20594258  0.24642472  1
  Ti  Ti158  1  0.79430138  0.00220678  0.75248812  1
  Ti  Ti159  1  0.10638454  0.09645710  0.88440958  1
  Mo  Mo160  1  0.00001150  0.20263007  0.25335918  1
  Mo  Mo161  1  0.11005385  0.10415277  0.62494508  1
  Mo  Mo162  1  0.79707836  0.20395383  0.51594662  1
  Mo  Mo163  1  -0.00372273  0.79915835  0.76185795  1
  Mo  Mo164  1  0.90811973  0.70371540  0.62180317  1
  Mo  Mo165  1  0.10202273  0.89900920  0.36243347  1
  Mo  Mo166  1  0.79209512  0.19433998  0.23002216  1
  Mo  Mo167  1  0.00195248  0.59414773  0.73514585  1
  Mo  Mo168  1  0.50912342  0.49375667  0.39093503  1
  Mo  Mo169  1  0.89913310  0.70063707  0.85533521  1
  Mo  Mo170  1  0.79625915  0.59789892  0.50801872  1
  Mo  Mo171  1  0.29291299  0.70026969  0.85783383  1
  Mo  Mo172  1  0.39390480  0.40296113  0.00494331  1
  Mo  Mo173  1  0.39388764  0.20491867  0.24291045  1
  Mo  Mo174  1  0.18961015  0.59763836  0.52289806  1
  Mo  Mo175  1  -0.00524285  0.00306594  0.26250497  1
  Mo  Mo176  1  0.50443341  0.50374428  0.88965739  1
  Mo  Mo177  1  0.19877297  0.79436014  0.26230543  1
  Mo  Mo178  1  0.59783139  0.59161163  0.25472643  1
  Mo  Mo179  1  0.60480208  0.19935512  0.23845066  1
  Mo  Mo180  1  0.81378507  -0.00651049  0.00212941  1
  Mo  Mo181  1  0.18849125  -0.00021781  -0.00362143  1
  Mo  Mo182  1  0.70485031  0.69901671  0.12549630  1
  Mo  Mo183  1  0.49642569  0.10986941  0.35534419  1
  Mo  Mo184  1  0.70282092  0.30279821  0.14196105  1
  Mo  Mo185  1  0.70600856  0.09426314  0.11624293  1
  Mo  Mo186  1  0.59888071  0.40531034  -0.01026708  1
  Mo  Mo187  1  0.60020159  0.80404612  0.01162751  1
  Mo  Mo188  1  0.39288304  0.00871223  0.47872390  1
  Mo  Mo189  1  0.69775152  0.10141963  0.37402389  1
  Mo  Mo190  1  0.89794264  0.30484673  0.37050950  1
  Mo  Mo191  1  0.50407176  0.89914328  0.11264751  1
  Mo  Mo192  1  0.50213568  0.10670951  0.86942989  1
  Mo  Mo193  1  0.20170086  0.00286408  0.26098400  1
  Mo  Mo194  1  0.49866390  0.29249571  0.61661373  1
  Mo  Mo195  1  0.89195718  0.89689104  0.38121890  1
  Mo  Mo196  1  0.81123420  0.60072633  0.00834338  1
  Mo  Mo197  1  0.60585224  0.39590405  0.48418670  1
  Mo  Mo198  1  0.80131762  0.80713413  0.74823889  1
  Mo  Mo199  1  0.89737180  0.28861924  0.86451738  1
