# generated using pymatgen
data_HfZrTaTiMo
_symmetry_space_group_name_H-M   'P 1'
_cell_length_a   15.83079225
_cell_length_b   15.83083440
_cell_length_c   15.42888448
_cell_angle_alpha   90.02921625
_cell_angle_beta   89.94293297
_cell_angle_gamma   90.08871842
_symmetry_Int_Tables_number   1
_chemical_formula_structural   HfZrTaTiMo
_chemical_formula_sum   'Hf40 Zr40 Ta40 Ti40 Mo40'
_cell_volume   3866.69744039
_cell_formula_units_Z   40
loop_
 _symmetry_equiv_pos_site_id
 _symmetry_equiv_pos_as_xyz
  1  'x, y, z'
loop_
 _atom_site_type_symbol
 _atom_site_label
 _atom_site_symmetry_multiplicity
 _atom_site_fract_x
 _atom_site_fract_y
 _atom_site_fract_z
 _atom_site_occupancy
  Hf  Hf0  1  0.00815965  -0.00269892  0.02007502  1
  Hf  Hf1  1  0.20362071  0.79597370  0.00406938  1
  Hf  Hf2  1  0.10291240  0.48888155  0.62430751  1
  Hf  Hf3  1  0.21039745  0.39451502  0.48978572  1
  Hf  Hf4  1  0.49454331  0.30086842  0.12125123  1
  Hf  Hf5  1  0.20847527  0.79510803  0.25229389  1
  Hf  Hf6  1  0.29052506  0.49597094  0.87530851  1
  Hf  Hf7  1  0.20282879  0.18820469  0.01483518  1
  Hf  Hf8  1  0.30239668  0.70070524  0.86165437  1
  Hf  Hf9  1  0.09996528  0.29740969  0.87986457  1
  Hf  Hf10  1  0.90616351  0.90097940  0.88244052  1
  Hf  Hf11  1  0.38496564  0.40585502  0.25258852  1
  Hf  Hf12  1  0.60701264  0.80793823  0.25571396  1
  Hf  Hf13  1  0.20929939  0.78810779  0.48943261  1
  Hf  Hf14  1  0.09757520  0.68700446  0.86528247  1
  Hf  Hf15  1  0.61085679  0.22791019  0.50991192  1
  Hf  Hf16  1  -0.01499083  0.17573184  0.48642989  1
  Hf  Hf17  1  -0.00035467  0.60169958  0.51407810  1
  Hf  Hf18  1  0.00683968  0.79490528  0.00368000  1
  Hf  Hf19  1  0.20186395  0.59757643  0.50339587  1
  Hf  Hf20  1  0.69451018  0.50092992  0.38917454  1
  Hf  Hf21  1  0.30071811  0.70761297  0.64072667  1
  Hf  Hf22  1  0.31215893  0.09908478  0.38795628  1
  Hf  Hf23  1  0.67835952  0.49204897  0.62826104  1
  Hf  Hf24  1  0.48713272  0.71036968  0.13522167  1
  Hf  Hf25  1  0.20153719  0.00330545  0.74337663  1
  Hf  Hf26  1  0.49408346  0.09883348  0.87124535  1
  Hf  Hf27  1  0.50309262  0.10827983  0.37816535  1
  Hf  Hf28  1  0.70558408  0.90931320  0.39001796  1
  Hf  Hf29  1  0.91255620  0.91621808  0.61609688  1
  Hf  Hf30  1  -0.00220214  0.40497618  0.24424281  1
  Hf  Hf31  1  0.20255285  0.58719729  0.24367018  1
  Hf  Hf32  1  0.70030636  0.29551991  0.13018116  1
  Hf  Hf33  1  0.48868100  0.51246618  0.37379289  1
  Hf  Hf34  1  0.80532928  0.00114167  0.75017526  1
  Hf  Hf35  1  0.60429478  0.60563200  0.24428716  1
  Hf  Hf36  1  0.80477573  0.40562827  0.23494607  1
  Hf  Hf37  1  0.59584030  0.21070584  0.73770444  1
  Hf  Hf38  1  0.88108131  0.28097866  0.61726004  1
  Hf  Hf39  1  0.49902740  0.70867876  0.63788191  1
  Zr  Zr40  1  0.49994762  0.91127682  0.38197635  1
  Zr  Zr41  1  0.69198958  0.32161933  0.87600787  1
  Zr  Zr42  1  0.89051221  0.49896360  0.88427962  1
  Zr  Zr43  1  -0.01074134  0.40097189  0.74120139  1
  Zr  Zr44  1  0.79778456  0.20255269  0.00460218  1
  Zr  Zr45  1  0.79761841  0.59668580  0.74213339  1
  Zr  Zr46  1  0.39612532  0.59907779  0.51332874  1
  Zr  Zr47  1  0.60719715  0.81663642  0.73865276  1
  Zr  Zr48  1  0.80197756  0.60386206  0.23440188  1
  Zr  Zr49  1  0.69051963  0.09128303  0.87490975  1
  Zr  Zr50  1  0.00537691  0.79402367  0.49286535  1
  Zr  Zr51  1  0.00067371  0.59704177  0.01499044  1
  Zr  Zr52  1  0.49276456  0.10516398  0.60716510  1
  Zr  Zr53  1  0.19705018  0.81006164  0.75792951  1
  Zr  Zr54  1  0.69448291  0.89431931  0.89148884  1
  Zr  Zr55  1  0.72332335  0.10931121  0.60846283  1
  Zr  Zr56  1  0.89923610  0.30494281  0.88228763  1
  Zr  Zr57  1  0.90146068  0.09545111  0.88899785  1
  Zr  Zr58  1  0.80317284  0.80339092  0.25691080  1
  Zr  Zr59  1  0.10811065  0.89726489  0.61105391  1
  Zr  Zr60  1  0.59316937  0.18821037  0.01029118  1
  Zr  Zr61  1  0.60556261  0.60375571  0.00091876  1
  Zr  Zr62  1  0.51270959  0.49449407  0.86341525  1
  Zr  Zr63  1  -0.00378100  -0.00673916  0.25781747  1
  Zr  Zr64  1  0.39569439  0.60660303  -0.00416842  1
  Zr  Zr65  1  0.09951622  0.29509038  0.12941763  1
  Zr  Zr66  1  0.59910552  0.40681978  0.24590168  1
  Zr  Zr67  1  0.51104385  0.71176697  0.86207062  1
  Zr  Zr68  1  0.71106509  0.90407708  0.60429403  1
  Zr  Zr69  1  0.89227358  0.50121087  0.38471304  1
  Zr  Zr70  1  0.19748395  0.39643438  0.25520504  1
  Zr  Zr71  1  -0.00574239  0.17930437  0.74395728  1
  Zr  Zr72  1  0.39248713  0.21813927  0.73309734  1
  Zr  Zr73  1  0.49627482  0.30126788  0.37255735  1
  Zr  Zr74  1  0.21159753  0.00347937  0.24766827  1
  Zr  Zr75  1  -0.01017180  0.39253605  0.49468109  1
  Zr  Zr76  1  0.40546562  0.81210808  -0.00763446  1
  Zr  Zr77  1  0.10287403  0.08845093  0.87964329  1
  Zr  Zr78  1  0.30797627  0.10405225  0.87917843  1
  Zr  Zr79  1  0.09442836  0.28756706  0.61574201  1
  Ta  Ta80  1  0.60519424  0.00609504  0.24110824  1
  Ta  Ta81  1  0.49106109  0.29834093  0.88617888  1
  Ta  Ta82  1  0.79421894  0.20151736  0.76056849  1
  Ta  Ta83  1  0.19638622  0.19296334  0.50282490  1
  Ta  Ta84  1  0.31537884  0.47517140  0.63470504  1
  Ta  Ta85  1  0.80509985  0.80172778  0.74862288  1
  Ta  Ta86  1  -0.00162385  0.59572035  0.23662478  1
  Ta  Ta87  1  0.19787947  0.58841963  0.73770290  1
  Ta  Ta88  1  0.80725084  0.79142804  0.00390631  1
  Ta  Ta89  1  0.40327363  0.79772315  0.48905255  1
  Ta  Ta90  1  0.29891990  0.29934884  0.88926712  1
  Ta  Ta91  1  0.09821459  0.28697302  0.37270749  1
  Ta  Ta92  1  0.69801391  0.71291072  0.11328768  1
  Ta  Ta93  1  0.90107431  0.69299306  0.37460089  1
  Ta  Ta94  1  0.79576892  -0.00040541  0.24613443  1
  Ta  Ta95  1  0.09903820  0.68974945  0.36171257  1
  Ta  Ta96  1  0.59618446  0.00350250  0.72960958  1
  Ta  Ta97  1  0.10562917  0.89579065  0.37409916  1
  Ta  Ta98  1  0.89966776  0.89280146  0.12693696  1
  Ta  Ta99  1  0.30031964  0.49903065  0.11231351  1
  Ta  Ta100  1  0.89872685  0.69990107  0.86632468  1
  Ta  Ta101  1  0.40598185  -0.00860870  0.73430704  1
  Ta  Ta102  1  0.90121491  0.70630197  0.63251875  1
  Ta  Ta103  1  0.49320268  0.50282904  0.12385903  1
  Ta  Ta104  1  0.20585600  0.38446979  0.75006335  1
  Ta  Ta105  1  0.59326991  0.60616824  0.50978025  1
  Ta  Ta106  1  0.19991562  0.19807631  0.73680991  1
  Ta  Ta107  1  0.81050744  0.79392809  0.49634657  1
  Ta  Ta108  1  0.40201729  0.59211591  0.74720366  1
  Ta  Ta109  1  0.79561494  -0.00175183  0.02535692  1
  Ta  Ta110  1  0.00136200  0.80381928  0.75131803  1
  Ta  Ta111  1  0.30854782  0.91267651  0.87714939  1
  Ta  Ta112  1  0.39321516  0.19372682  0.23459024  1
  Ta  Ta113  1  0.77983779  0.38469732  0.50629093  1
  Ta  Ta114  1  0.70193845  0.11028752  0.36768146  1
  Ta  Ta115  1  0.70093263  0.69646814  0.39296810  1
  Ta  Ta116  1  0.31539955  0.68704771  0.35836678  1
  Ta  Ta117  1  0.31485271  0.89177756  0.13331919  1
  Ta  Ta118  1  0.20750416  -0.01200092  0.01516752  1
  Ta  Ta119  1  0.89527227  0.10744953  0.13756538  1
  Ti  Ti120  1  0.10399541  0.89365213  0.13990455  1
  Ti  Ti121  1  0.60015829  -0.00263082  0.02574211  1
  Ti  Ti122  1  0.30180273  0.30161112  0.11331388  1
  Ti  Ti123  1  0.59788494  0.79787771  0.50110831  1
  Ti  Ti124  1  0.39957240  0.40287994  -0.00348157  1
  Ti  Ti125  1  0.09608230  0.49967971  0.37999208  1
  Ti  Ti126  1  0.29954037  0.28986179  0.37499440  1
  Ti  Ti127  1  0.40640251  0.00240439  0.24101996  1
  Ti  Ti128  1  0.09635606  0.49378038  0.86871870  1
  Ti  Ti129  1  -0.00627327  0.20308026  0.25194322  1
  Ti  Ti130  1  -0.00295636  0.79288727  0.25575435  1
  Ti  Ti131  1  0.08528507  0.08244784  0.61613261  1
  Ti  Ti132  1  0.18890299  0.40656578  0.00576313  1
  Ti  Ti133  1  0.29691805  0.09747236  0.61323426  1
  Ti  Ti134  1  -0.00314633  0.59724207  0.73461863  1
  Ti  Ti135  1  -0.00129075  0.19916024  0.01394196  1
  Ti  Ti136  1  0.70577977  0.69581853  0.87501584  1
  Ti  Ti137  1  0.50473380  0.91405956  0.87872412  1
  Ti  Ti138  1  0.10131866  0.69989720  0.13789871  1
  Ti  Ti139  1  0.80096164  0.59796886  0.51677148  1
  Ti  Ti140  1  0.10528895  0.09884412  0.36937732  1
  Ti  Ti141  1  0.31330292  0.89724666  0.61861984  1
  Ti  Ti142  1  0.60083163  0.00740549  0.50608523  1
  Ti  Ti143  1  0.10060378  0.09799504  0.13858210  1
  Ti  Ti144  1  0.19571166  0.60131993  0.01308661  1
  Ti  Ti145  1  0.30822302  0.90032091  0.37334810  1
  Ti  Ti146  1  0.20202245  -0.00222722  0.49429294  1
  Ti  Ti147  1  0.50388492  0.89916093  0.13038817  1
  Ti  Ti148  1  0.70085471  0.70279749  0.62067428  1
  Ti  Ti149  1  0.83250906  0.01744137  0.47510526  1
  Ti  Ti150  1  0.79187841  0.39882092  0.73690306  1
  Ti  Ti151  1  0.40448179  0.01310429  0.01948118  1
  Ti  Ti152  1  0.60712250  0.41044490  0.00937646  1
  Ti  Ti153  1  0.88791782  0.29254005  0.37040420  1
  Ti  Ti154  1  -0.00873150  0.39886713  0.01802807  1
  Ti  Ti155  1  0.39251259  0.22360118  0.51404059  1
  Ti  Ti156  1  0.79995948  0.59775198  0.00787867  1
  Ti  Ti157  1  0.69663347  0.29935851  0.35827479  1
  Ti  Ti158  1  0.50100044  0.70262447  0.37024660  1
  Ti  Ti159  1  0.20746886  0.19721038  0.24721980  1
  Mo  Mo160  1  0.09808464  0.69405393  0.64275574  1
  Mo  Mo161  1  0.90336541  0.89606313  0.37516056  1
  Mo  Mo162  1  0.10268823  0.49883017  0.11769610  1
  Mo  Mo163  1  0.39474635  0.39544752  0.76753568  1
  Mo  Mo164  1  0.69630988  0.50489610  0.11682336  1
  Mo  Mo165  1  0.79738598  0.20346392  0.47531341  1
  Mo  Mo166  1  0.59137773  0.40773586  0.49410094  1
  Mo  Mo167  1  0.39283219  -0.00638415  0.51011908  1
  Mo  Mo168  1  0.90047174  0.70373078  0.13037161  1
  Mo  Mo169  1  0.90154758  0.29648612  0.12250882  1
  Mo  Mo170  1  0.79358963  0.41249026  0.01678219  1
  Mo  Mo171  1  0.49891662  0.90252312  0.60582059  1
  Mo  Mo172  1  0.30032545  0.69954867  0.13457147  1
  Mo  Mo173  1  0.40284810  0.81744327  0.76146467  1
  Mo  Mo174  1  0.39558636  0.40234239  0.48518176  1
  Mo  Mo175  1  0.39703721  0.20442393  0.01311669  1
  Mo  Mo176  1  0.40309761  0.80802453  0.26642574  1
  Mo  Mo177  1  0.49909324  0.09692125  0.13728564  1
  Mo  Mo178  1  0.29349311  0.29921498  0.61805631  1
  Mo  Mo179  1  0.59615081  0.19511336  0.24543461  1
  Mo  Mo180  1  0.90281510  0.09447930  0.62476067  1
  Mo  Mo181  1  0.10561739  0.90024285  0.88238137  1
  Mo  Mo182  1  0.79997754  0.20350798  0.25475685  1
  Mo  Mo183  1  0.70005198  0.09961441  0.14258435  1
  Mo  Mo184  1  0.70069341  0.50586724  0.86509930  1
  Mo  Mo185  1  0.69603054  0.30333927  0.63781409  1
  Mo  Mo186  1  0.39735529  0.60127028  0.23582678  1
  Mo  Mo187  1  0.58721712  0.39629414  0.74834139  1
  Mo  Mo188  1  0.70008220  0.89895988  0.11929471  1
  Mo  Mo189  1  0.49185892  0.33635392  0.61551022  1
  Mo  Mo190  1  0.88886697  0.49536540  0.61446614  1
  Mo  Mo191  1  0.49661685  0.50227650  0.63407364  1
  Mo  Mo192  1  0.30281398  0.09558723  0.12301725  1
  Mo  Mo193  1  0.01066106  -0.00254204  0.47329704  1
  Mo  Mo194  1  0.60237430  0.80777522  0.00703724  1
  Mo  Mo195  1  0.60520079  0.60535351  0.74566501  1
  Mo  Mo196  1  0.29914162  0.50143410  0.37781882  1
  Mo  Mo197  1  0.89792165  0.49894679  0.11301737  1
  Mo  Mo198  1  0.89712312  0.10150356  0.34736323  1
  Mo  Mo199  1  0.01091575  -0.01362199  0.75667742  1
