# generated using pymatgen
data_HfZrTaTiMo
_symmetry_space_group_name_H-M   'P 1'
_cell_length_a   15.83012916
_cell_length_b   15.84234957
_cell_length_c   15.40768916
_cell_angle_alpha   90.01216301
_cell_angle_beta   89.99350176
_cell_angle_gamma   89.97981044
_symmetry_Int_Tables_number   1
_chemical_formula_structural   HfZrTaTiMo
_chemical_formula_sum   'Hf40 Zr40 Ta40 Ti40 Mo40'
_cell_volume   3864.03915920
_cell_formula_units_Z   40
loop_
 _symmetry_equiv_pos_site_id
 _symmetry_equiv_pos_as_xyz
  1  'x, y, z'
loop_
 _atom_site_type_symbol
 _atom_site_label
 _atom_site_symmetry_multiplicity
 _atom_site_fract_x
 _atom_site_fract_y
 _atom_site_fract_z
 _atom_site_occupancy
  Hf  Hf0  1  0.49896346  0.49275730  0.87589457  1
  Hf  Hf1  1  0.29729644  0.69465773  0.12446379  1
  Hf  Hf2  1  0.29364770  0.29776825  0.60562309  1
  Hf  Hf3  1  0.61213712  0.60215412  0.74702096  1
  Hf  Hf4  1  0.39575266  0.01133033  0.01336085  1
  Hf  Hf5  1  0.31093166  0.69934300  0.88588388  1
  Hf  Hf6  1  0.49954460  0.90708813  0.13750455  1
  Hf  Hf7  1  0.80907818  0.79212852  0.24742376  1
  Hf  Hf8  1  0.17776606  0.79640007  0.23537515  1
  Hf  Hf9  1  0.21046819  0.41102838  -0.01507083  1
  Hf  Hf10  1  0.79647929  0.00523955  0.24672511  1
  Hf  Hf11  1  -0.00748111  0.61162471  0.23405540  1
  Hf  Hf12  1  0.78774526  0.39893140  0.76203937  1
  Hf  Hf13  1  0.29072453  0.89150276  0.60987856  1
  Hf  Hf14  1  0.19109286  0.59755898  0.24136459  1
  Hf  Hf15  1  0.60141583  0.01184383  0.00528537  1
  Hf  Hf16  1  0.88970625  0.29935224  0.62752579  1
  Hf  Hf17  1  0.70757296  0.69148631  0.38162213  1
  Hf  Hf18  1  0.50085136  0.29872062  0.61668696  1
  Hf  Hf19  1  0.29938069  0.49303661  0.62277388  1
  Hf  Hf20  1  0.30757881  0.30560751  0.12273637  1
  Hf  Hf21  1  0.51034187  0.10057307  0.61234585  1
  Hf  Hf22  1  0.09355367  0.49534559  0.11778763  1
  Hf  Hf23  1  0.89936500  0.69122988  0.38145716  1
  Hf  Hf24  1  0.20767607  0.59807129  0.76647261  1
  Hf  Hf25  1  0.60583137  0.80188768  0.25338557  1
  Hf  Hf26  1  0.40487952  0.79630605  0.48861436  1
  Hf  Hf27  1  0.69969104  0.29307081  0.61816620  1
  Hf  Hf28  1  0.89100891  0.51148000  0.87338707  1
  Hf  Hf29  1  0.29836716  0.11412053  0.38295991  1
  Hf  Hf30  1  0.09500194  0.90577815  0.64040919  1
  Hf  Hf31  1  0.50739017  0.69013701  0.37011029  1
  Hf  Hf32  1  0.40171060  0.58987269  0.24871181  1
  Hf  Hf33  1  0.91089387  0.89417932  0.11664299  1
  Hf  Hf34  1  0.41837333  -0.01091062  0.49130954  1
  Hf  Hf35  1  0.28611760  0.48264321  0.37552868  1
  Hf  Hf36  1  -0.00656177  0.80358594  0.51494599  1
  Hf  Hf37  1  -0.00248653  0.39639178  -0.01874668  1
  Hf  Hf38  1  0.39981024  0.80276101  0.01367442  1
  Hf  Hf39  1  0.20454185  0.80084710  0.76568922  1
  Zr  Zr40  1  -0.00828182  0.59553458  0.51976980  1
  Zr  Zr41  1  0.71149869  0.69794637  0.11086050  1
  Zr  Zr42  1  0.78949031  0.79369376  0.75419042  1
  Zr  Zr43  1  0.49585261  0.89628646  0.87869846  1
  Zr  Zr44  1  0.08347619  0.49669444  0.36242045  1
  Zr  Zr45  1  0.29194154  0.89683624  0.36727689  1
  Zr  Zr46  1  0.60502030  0.19407221  0.00853577  1
  Zr  Zr47  1  0.00580993  0.00719059  -0.00818474  1
  Zr  Zr48  1  0.09869483  0.29757618  0.63241358  1
  Zr  Zr49  1  0.70438134  0.29977863  0.13097818  1
  Zr  Zr50  1  0.70750465  0.90300759  0.11447196  1
  Zr  Zr51  1  0.18850631  0.80621834  0.00535512  1
  Zr  Zr52  1  0.60027059  -0.00251197  0.74885298  1
  Zr  Zr53  1  0.19464490  0.00279733  0.02001112  1
  Zr  Zr54  1  0.10604315  0.29749019  0.85702269  1
  Zr  Zr55  1  0.51797857  0.49002642  0.36677036  1
  Zr  Zr56  1  0.31215093  0.29434835  0.87893286  1
  Zr  Zr57  1  0.89887873  0.11057008  0.62949770  1
  Zr  Zr58  1  0.29993470  0.69122044  0.61166571  1
  Zr  Zr59  1  0.09608768  0.10687980  0.37033124  1
  Zr  Zr60  1  0.80183220  0.00055290  0.75919414  1
  Zr  Zr61  1  -0.00717924  0.40708437  0.51161012  1
  Zr  Zr62  1  0.89385413  0.89642189  0.37776556  1
  Zr  Zr63  1  0.80248433  0.01910243  -0.01154999  1
  Zr  Zr64  1  -0.00481229  0.23793699  0.26420721  1
  Zr  Zr65  1  0.49350976  0.10581839  0.86765116  1
  Zr  Zr66  1  0.90072647  0.11926421  0.12955259  1
  Zr  Zr67  1  0.59521508  0.81230472  0.49654612  1
  Zr  Zr68  1  0.10205238  0.70255670  0.63432445  1
  Zr  Zr69  1  0.19713295  0.19253796  0.00525798  1
  Zr  Zr70  1  0.40953657  0.79500738  0.74250028  1
  Zr  Zr71  1  0.89886395  0.10435425  0.38217377  1
  Zr  Zr72  1  0.39219206  -0.00645223  0.73450579  1
  Zr  Zr73  1  0.59874930  0.79258366  -0.00191128  1
  Zr  Zr74  1  0.39831166  0.58252340  0.00405895  1
  Zr  Zr75  1  0.41944538  0.20669962  0.25988418  1
  Zr  Zr76  1  0.18616334  -0.00352538  0.49299535  1
  Zr  Zr77  1  0.40009242  0.19907999  0.73904460  1
  Zr  Zr78  1  0.70390772  0.31988753  0.37750429  1
  Zr  Zr79  1  0.28968851  0.69282515  0.37841658  1
  Ta  Ta80  1  0.09739167  0.10276332  0.63483964  1
  Ta  Ta81  1  0.88682612  0.49449301  0.37007979  1
  Ta  Ta82  1  0.60146678  0.20106804  0.48209121  1
  Ta  Ta83  1  0.70269716  0.49367752  0.62721061  1
  Ta  Ta84  1  0.40760822  0.59546637  0.74989578  1
  Ta  Ta85  1  0.70281994  0.10839142  0.61936779  1
  Ta  Ta86  1  0.89447719  0.49707943  0.10561162  1
  Ta  Ta87  1  0.79702661  0.20755933  0.26578490  1
  Ta  Ta88  1  0.49944745  0.49612073  0.62526020  1
  Ta  Ta89  1  0.50519324  0.29977934  0.87595035  1
  Ta  Ta90  1  0.18697180  0.58790423  0.50075510  1
  Ta  Ta91  1  -0.00322582  0.19688621  -0.01940807  1
  Ta  Ta92  1  -0.00607443  0.00023994  0.50801746  1
  Ta  Ta93  1  0.09294348  0.70329354  0.38449582  1
  Ta  Ta94  1  0.09227573  0.30045051  0.11439749  1
  Ta  Ta95  1  0.10245595  0.49592684  0.64927671  1
  Ta  Ta96  1  0.08676340  0.89378928  0.36770530  1
  Ta  Ta97  1  0.19237228  0.00502186  0.24702309  1
  Ta  Ta98  1  0.29591503  0.10105046  0.60394554  1
  Ta  Ta99  1  0.40320159  0.39296781  0.48648389  1
  Ta  Ta100  1  0.28888224  0.09294079  0.86931003  1
  Ta  Ta101  1  0.40184919  0.79794202  0.25244566  1
  Ta  Ta102  1  0.59671961  0.39614416  0.75164286  1
  Ta  Ta103  1  0.60643062  0.59701124  0.51162733  1
  Ta  Ta104  1  0.79675218  -0.00166151  0.50795779  1
  Ta  Ta105  1  0.61198088  0.59017951  0.23222581  1
  Ta  Ta106  1  0.70702153  0.48858029  0.11251954  1
  Ta  Ta107  1  0.50433418  0.47890473  0.12951345  1
  Ta  Ta108  1  0.10701065  0.91524349  0.86154370  1
  Ta  Ta109  1  0.69591373  0.90453183  0.62008956  1
  Ta  Ta110  1  0.69907704  0.89812030  0.88091044  1
  Ta  Ta111  1  -0.00630275  0.80422131  0.76837061  1
  Ta  Ta112  1  0.11764490  0.30820534  0.39393668  1
  Ta  Ta113  1  0.80180658  0.59165261  0.23368926  1
  Ta  Ta114  1  0.30563339  0.10405129  0.14752954  1
  Ta  Ta115  1  0.50321541  0.69271069  0.61936432  1
  Ta  Ta116  1  0.59895165  0.59050350  0.00884542  1
  Ta  Ta117  1  0.80186671  0.59182301  0.52176452  1
  Ta  Ta118  1  0.19363658  0.60024156  -0.00785967  1
  Ta  Ta119  1  0.29911805  0.90442871  0.14361446  1
  Ti  Ti120  1  0.50264284  0.69216526  0.13246296  1
  Ti  Ti121  1  0.41126676  0.19897113  0.01626711  1
  Ti  Ti122  1  0.40397361  0.00303120  0.26097137  1
  Ti  Ti123  1  0.59912297  0.39094570  -0.00089680  1
  Ti  Ti124  1  0.89556095  0.69305557  0.64716322  1
  Ti  Ti125  1  0.89944935  0.69403348  0.87052049  1
  Ti  Ti126  1  0.79535077  0.20477903  -0.01814837  1
  Ti  Ti127  1  0.70831775  0.50477084  0.37477405  1
  Ti  Ti128  1  -0.00272999  0.00937528  0.76355509  1
  Ti  Ti129  1  0.51187096  0.09636080  0.37653077  1
  Ti  Ti130  1  0.89837130  0.30775781  0.10795107  1
  Ti  Ti131  1  0.00006482  -0.00511790  0.24652144  1
  Ti  Ti132  1  0.89277790  0.29340368  0.86521428  1
  Ti  Ti133  1  0.79694621  0.79563976  0.51700460  1
  Ti  Ti134  1  0.39602974  0.39942261  0.74951575  1
  Ti  Ti135  1  0.60362360  0.01780143  0.24427895  1
  Ti  Ti136  1  0.40628530  0.58761720  0.49410749  1
  Ti  Ti137  1  0.69902175  0.49894752  0.89106643  1
  Ti  Ti138  1  0.69488758  0.91130397  0.38176968  1
  Ti  Ti139  1  0.50841048  0.69265950  0.87502704  1
  Ti  Ti140  1  0.30141636  0.48955618  0.13145181  1
  Ti  Ti141  1  0.20453836  0.19056258  0.74410628  1
  Ti  Ti142  1  0.09483947  0.50520721  0.86325172  1
  Ti  Ti143  1  0.70932716  0.68491585  0.88721575  1
  Ti  Ti144  1  0.90521570  0.70185561  0.10409885  1
  Ti  Ti145  1  0.00498617  0.60804598  -0.00883856  1
  Ti  Ti146  1  0.09306060  0.11193754  0.14099799  1
  Ti  Ti147  1  0.60213438  0.79708625  0.74323004  1
  Ti  Ti148  1  0.81232695  0.80352971  -0.02004012  1
  Ti  Ti149  1  0.00582285  0.80426277  -0.02129597  1
  Ti  Ti150  1  -0.00712176  0.40231408  0.75294370  1
  Ti  Ti151  1  0.18876482  0.38920212  0.24317516  1
  Ti  Ti152  1  0.81523972  0.39807892  0.24570040  1
  Ti  Ti153  1  0.89629081  0.90273075  0.63560844  1
  Ti  Ti154  1  0.29952991  0.90913358  0.87930013  1
  Ti  Ti155  1  0.40582131  0.38861648  0.26286120  1
  Ti  Ti156  1  0.00054208  0.20406747  0.49607697  1
  Ti  Ti157  1  0.70204978  0.10044193  0.38248487  1
  Ti  Ti158  1  0.60211523  0.40628997  0.50617003  1
  Ti  Ti159  1  0.20244079  0.21092381  0.24889595  1
  Mo  Mo160  1  0.50635731  0.30019660  0.38896726  1
  Mo  Mo161  1  0.40496341  0.19786568  0.48814775  1
  Mo  Mo162  1  0.69197280  0.30203179  0.87800996  1
  Mo  Mo163  1  0.69956658  0.70123640  0.61390760  1
  Mo  Mo164  1  0.60845860  0.19801962  0.26276256  1
  Mo  Mo165  1  0.08842058  0.70085219  0.10046348  1
  Mo  Mo166  1  0.79638288  0.39403206  -0.01499609  1
  Mo  Mo167  1  0.09128719  0.90546147  0.13858318  1
  Mo  Mo168  1  0.20597007  0.40127580  0.75836054  1
  Mo  Mo169  1  0.79608454  0.59958876  0.74232922  1
  Mo  Mo170  1  0.20404282  0.00524719  0.74124086  1
  Mo  Mo171  1  0.10375239  0.10136413  0.85541887  1
  Mo  Mo172  1  0.30399252  0.49623215  0.86329875  1
  Mo  Mo173  1  0.40929662  0.39061206  0.00302395  1
  Mo  Mo174  1  0.89838432  0.50172907  0.65390725  1
  Mo  Mo175  1  0.50354572  0.30311646  0.12244609  1
  Mo  Mo176  1  -0.00447155  0.19872409  0.76146450  1
  Mo  Mo177  1  0.50088900  0.10366320  0.14289470  1
  Mo  Mo178  1  0.70442499  0.10972020  0.14433404  1
  Mo  Mo179  1  0.19543621  0.40564198  0.50642729  1
  Mo  Mo180  1  0.60715395  0.20478467  0.75500492  1
  Mo  Mo181  1  0.18767906  0.79398859  0.48896245  1
  Mo  Mo182  1  0.69744072  0.10711158  0.85931700  1
  Mo  Mo183  1  0.09585031  0.70248608  0.87928146  1
  Mo  Mo184  1  0.79981998  0.41158254  0.50788605  1
  Mo  Mo185  1  0.79118847  0.20044799  0.76503904  1
  Mo  Mo186  1  0.80030199  0.20241666  0.48491930  1
  Mo  Mo187  1  0.90129083  0.10959994  0.86688608  1
  Mo  Mo188  1  0.80362014  0.59978466  0.00487770  1
  Mo  Mo189  1  0.90098698  0.31243693  0.39169338  1
  Mo  Mo190  1  0.60477466  0.39826437  0.24153178  1
  Mo  Mo191  1  0.50377145  0.89270382  0.62856913  1
  Mo  Mo192  1  -0.00460649  0.79529198  0.24832724  1
  Mo  Mo193  1  0.00040252  0.60449339  0.75602622  1
  Mo  Mo194  1  0.19263143  0.19827781  0.50985922  1
  Mo  Mo195  1  0.50702326  0.90621485  0.35117611  1
  Mo  Mo196  1  0.29765448  0.29994299  0.38161015  1
  Mo  Mo197  1  0.61000166  0.00332794  0.49721536  1
  Mo  Mo198  1  -0.00744571  0.40598728  0.23790986  1
  Mo  Mo199  1  0.90321267  0.89970745  0.87741104  1
