# generated using pymatgen
data_HfZrTaTiMo
_symmetry_space_group_name_H-M   'P 1'
_cell_length_a   15.84120739
_cell_length_b   15.83833776
_cell_length_c   15.41453646
_cell_angle_alpha   89.97538894
_cell_angle_beta   89.97873569
_cell_angle_gamma   90.11786856
_symmetry_Int_Tables_number   1
_chemical_formula_structural   HfZrTaTiMo
_chemical_formula_sum   'Hf40 Zr40 Ta40 Ti40 Mo40'
_cell_volume   3867.47362053
_cell_formula_units_Z   40
loop_
 _symmetry_equiv_pos_site_id
 _symmetry_equiv_pos_as_xyz
  1  'x, y, z'
loop_
 _atom_site_type_symbol
 _atom_site_label
 _atom_site_symmetry_multiplicity
 _atom_site_fract_x
 _atom_site_fract_y
 _atom_site_fract_z
 _atom_site_occupancy
  Hf  Hf0  1  0.40177752  -0.00063653  0.50546892  1
  Hf  Hf1  1  0.30486072  0.10076187  0.37439633  1
  Hf  Hf2  1  0.00687520  0.78701874  0.74518855  1
  Hf  Hf3  1  0.39279946  0.80095957  0.24191666  1
  Hf  Hf4  1  0.60109804  0.20613955  0.24878553  1
  Hf  Hf5  1  0.80862907  0.80569897  0.75097330  1
  Hf  Hf6  1  0.82067064  0.20179385  0.72827746  1
  Hf  Hf7  1  0.90178879  0.68578117  0.88209548  1
  Hf  Hf8  1  0.80830365  0.60084996  0.50468335  1
  Hf  Hf9  1  0.20489576  0.39761443  0.26726339  1
  Hf  Hf10  1  0.71439124  0.50844502  0.85914573  1
  Hf  Hf11  1  0.89009199  0.68485302  0.13315917  1
  Hf  Hf12  1  0.61166844  0.40657181  -0.01278394  1
  Hf  Hf13  1  0.00162352  0.19340108  0.25951000  1
  Hf  Hf14  1  0.49863691  0.69260114  0.12297530  1
  Hf  Hf15  1  0.51129824  0.50339530  0.12749029  1
  Hf  Hf16  1  0.49700670  0.91016912  0.11515298  1
  Hf  Hf17  1  0.47677030  0.70452581  0.88169949  1
  Hf  Hf18  1  0.60115571  0.80059373  0.00019192  1
  Hf  Hf19  1  0.51008775  0.10867433  0.38460212  1
  Hf  Hf20  1  0.40634768  0.00257212  0.24815728  1
  Hf  Hf21  1  0.70348468  0.29232018  0.39317606  1
  Hf  Hf22  1  0.79639316  0.80399116  0.01402656  1
  Hf  Hf23  1  0.49939109  0.29819908  0.86922808  1
  Hf  Hf24  1  0.28576532  0.30503557  0.62170904  1
  Hf  Hf25  1  0.59855866  0.00540173  0.75383990  1
  Hf  Hf26  1  0.10176943  0.90115083  0.61637279  1
  Hf  Hf27  1  0.89572943  0.69928457  0.35193354  1
  Hf  Hf28  1  0.39118482  0.40931003  0.50823321  1
  Hf  Hf29  1  0.80397337  0.39934286  0.51429944  1
  Hf  Hf30  1  0.30192742  0.10405230  0.87466342  1
  Hf  Hf31  1  0.61545621  0.41104662  0.27107135  1
  Hf  Hf32  1  0.79570758  0.00432919  0.23716400  1
  Hf  Hf33  1  0.90458701  0.89825283  0.34935510  1
  Hf  Hf34  1  0.19194359  -0.00270187  0.76021274  1
  Hf  Hf35  1  0.60846485  0.00541977  -0.00065165  1
  Hf  Hf36  1  0.30045476  0.10768670  0.12455244  1
  Hf  Hf37  1  0.18613966  0.20931673  0.76183450  1
  Hf  Hf38  1  0.61145997  0.61476873  0.49164225  1
  Hf  Hf39  1  0.30222949  0.89277852  0.88240312  1
  Zr  Zr40  1  0.09392623  0.48049747  0.11775524  1
  Zr  Zr41  1  0.00039729  0.38195224  0.73122468  1
  Zr  Zr42  1  0.40101242  0.40765365  0.74139203  1
  Zr  Zr43  1  0.39717202  0.40487195  -0.01154150  1
  Zr  Zr44  1  0.00404856  0.58840296  0.25242845  1
  Zr  Zr45  1  0.50025781  0.71068989  0.37722495  1
  Zr  Zr46  1  0.57035907  0.59881378  0.76298753  1
  Zr  Zr47  1  -0.00566169  0.01056689  0.74808930  1
  Zr  Zr48  1  0.89795667  0.90661842  0.88565734  1
  Zr  Zr49  1  0.90133986  0.48887466  0.85688480  1
  Zr  Zr50  1  0.28687805  0.88744773  0.62160332  1
  Zr  Zr51  1  0.60643430  0.20594022  0.73344237  1
  Zr  Zr52  1  0.70913064  0.10488291  0.87609485  1
  Zr  Zr53  1  -0.00004884  0.02023273  0.47652273  1
  Zr  Zr54  1  0.29701857  0.89366009  0.37637011  1
  Zr  Zr55  1  0.20438749  0.59409401  0.25152043  1
  Zr  Zr56  1  0.70540918  0.70069055  0.86903525  1
  Zr  Zr57  1  0.28668605  0.10108732  0.62693894  1
  Zr  Zr58  1  0.12888064  0.69314730  0.60841320  1
  Zr  Zr59  1  0.60149205  0.80854777  0.24222799  1
  Zr  Zr60  1  0.40704983  0.40098922  0.26577284  1
  Zr  Zr61  1  0.40634827  -0.00615539  0.74316701  1
  Zr  Zr62  1  0.50553013  0.30598264  0.12082665  1
  Zr  Zr63  1  0.68857470  0.90136411  0.62819932  1
  Zr  Zr64  1  0.80137212  0.00261337  0.48711100  1
  Zr  Zr65  1  0.70045705  0.50866668  0.63857445  1
  Zr  Zr66  1  -0.00166339  0.59448537  0.50607758  1
  Zr  Zr67  1  0.09389096  0.89467744  0.88933634  1
  Zr  Zr68  1  -0.00388129  0.79724253  0.49280809  1
  Zr  Zr69  1  0.69437922  0.70559953  0.64464439  1
  Zr  Zr70  1  0.89871117  0.90508513  0.61678890  1
  Zr  Zr71  1  0.72080404  0.30688676  0.86980370  1
  Zr  Zr72  1  0.20272369  0.59228548  0.00957212  1
  Zr  Zr73  1  0.10815074  0.29695550  0.12268051  1
  Zr  Zr74  1  -0.00493481  0.20193230  0.01022610  1
  Zr  Zr75  1  0.19381775  0.79315437  0.23697257  1
  Zr  Zr76  1  0.78560291  0.79187656  0.49009505  1
  Zr  Zr77  1  0.29749315  0.51095157  0.85766839  1
  Zr  Zr78  1  0.41031627  0.80496031  0.50765721  1
  Zr  Zr79  1  0.80297664  0.20304017  0.01792916  1
  Ta  Ta80  1  0.49895667  0.11028089  0.11539043  1
  Ta  Ta81  1  0.01664689  0.58974430  0.73252308  1
  Ta  Ta82  1  0.50049614  0.50507078  0.39469777  1
  Ta  Ta83  1  0.59896570  0.39911814  0.51490259  1
  Ta  Ta84  1  0.10350720  0.09814596  0.13182200  1
  Ta  Ta85  1  0.30205535  0.30034943  0.12835203  1
  Ta  Ta86  1  0.90330777  0.31618158  0.14420387  1
  Ta  Ta87  1  0.20415915  0.20139060  0.26242263  1
  Ta  Ta88  1  0.29591277  0.69539130  0.38777714  1
  Ta  Ta89  1  0.19021743  -0.00047128  0.48471586  1
  Ta  Ta90  1  -0.01886860  0.57864267  0.01198679  1
  Ta  Ta91  1  0.09581685  0.68806262  0.89014124  1
  Ta  Ta92  1  0.59695492  0.39913646  0.73736555  1
  Ta  Ta93  1  0.49534018  0.51189803  0.61589316  1
  Ta  Ta94  1  0.40056472  0.59614116  0.26147017  1
  Ta  Ta95  1  0.69573990  0.68356223  0.12804648  1
  Ta  Ta96  1  0.10596465  0.49581860  0.39212189  1
  Ta  Ta97  1  0.09408429  0.49862718  0.88076110  1
  Ta  Ta98  1  -0.00875520  0.00348408  0.02431454  1
  Ta  Ta99  1  0.40203742  0.20592035  0.51109144  1
  Ta  Ta100  1  0.59623028  -0.01010934  0.49533440  1
  Ta  Ta101  1  0.60314928  0.59877203  0.26719657  1
  Ta  Ta102  1  0.20099137  -0.00331877  0.24121959  1
  Ta  Ta103  1  0.60120279  0.59685456  -0.01255092  1
  Ta  Ta104  1  0.20221436  0.78405603  0.76207985  1
  Ta  Ta105  1  0.70288704  0.90522593  0.87388310  1
  Ta  Ta106  1  0.50682245  0.10174209  0.61441729  1
  Ta  Ta107  1  0.18998053  0.18887437  0.48582908  1
  Ta  Ta108  1  0.90266650  0.10684352  0.87862465  1
  Ta  Ta109  1  0.71098259  0.31666244  0.13096260  1
  Ta  Ta110  1  0.08970638  0.30808214  0.88574863  1
  Ta  Ta111  1  0.30073156  0.29815745  0.39045359  1
  Ta  Ta112  1  0.19569289  -0.00174048  0.01160457  1
  Ta  Ta113  1  0.40239025  0.20725685  0.25444956  1
  Ta  Ta114  1  0.89735449  0.29113846  0.38289423  1
  Ta  Ta115  1  0.19637344  0.79715422  0.01177930  1
  Ta  Ta116  1  0.39457250  0.20808051  -0.00463580  1
  Ta  Ta117  1  0.09721643  0.28823493  0.60573859  1
  Ta  Ta118  1  0.49798853  0.10617324  0.88497408  1
  Ta  Ta119  1  -0.00144837  0.39810836  0.50351656  1
  Ti  Ti120  1  0.60328335  0.20792960  0.00188151  1
  Ti  Ti121  1  0.30732127  0.49155523  0.13014473  1
  Ti  Ti122  1  0.82192219  0.41083413  0.00457057  1
  Ti  Ti123  1  0.00197211  0.39528517  0.26932386  1
  Ti  Ti124  1  0.70449465  0.10590452  0.38090486  1
  Ti  Ti125  1  0.40051735  0.59249455  0.00215507  1
  Ti  Ti126  1  0.80475038  0.00244936  0.02162061  1
  Ti  Ti127  1  -0.00515245  0.79638044  0.01592992  1
  Ti  Ti128  1  0.78996879  0.80461164  0.23263831  1
  Ti  Ti129  1  0.20990175  0.39071265  -0.01322374  1
  Ti  Ti130  1  0.10314853  0.70091737  0.37695576  1
  Ti  Ti131  1  0.40131223  0.20291368  0.74118194  1
  Ti  Ti132  1  0.58455227  0.81055388  0.76391349  1
  Ti  Ti133  1  0.29299646  0.69776338  0.88065336  1
  Ti  Ti134  1  0.09612536  0.89629442  0.35748983  1
  Ti  Ti135  1  0.39556810  0.79355068  0.73896517  1
  Ti  Ti136  1  0.89519007  0.48818296  0.37131257  1
  Ti  Ti137  1  0.50258761  0.30010040  0.39419102  1
  Ti  Ti138  1  0.69328870  0.10813764  0.12588177  1
  Ti  Ti139  1  0.09067197  0.69235810  0.11692951  1
  Ti  Ti140  1  0.60192543  0.00500605  0.24870271  1
  Ti  Ti141  1  0.09911949  0.29827566  0.38870446  1
  Ti  Ti142  1  0.70418504  0.10341528  0.60707514  1
  Ti  Ti143  1  0.08716818  0.10818811  0.62243507  1
  Ti  Ti144  1  0.49351941  0.90576195  0.88594017  1
  Ti  Ti145  1  0.18856116  0.40989743  0.74462047  1
  Ti  Ti146  1  0.38628189  0.80134630  0.01438644  1
  Ti  Ti147  1  0.71221640  0.50191819  0.12062779  1
  Ti  Ti148  1  0.20446865  0.20320787  -0.00823019  1
  Ti  Ti149  1  0.09078299  0.89814654  0.13035567  1
  Ti  Ti150  1  0.79977462  0.20246898  0.24655016  1
  Ti  Ti151  1  0.09282197  0.09970692  0.89062367  1
  Ti  Ti152  1  0.39416380  0.00692215  0.00225420  1
  Ti  Ti153  1  0.30199576  0.69029533  0.12423369  1
  Ti  Ti154  1  0.50237276  0.70778929  0.62361024  1
  Ti  Ti155  1  0.69136177  0.89707822  0.37054294  1
  Ti  Ti156  1  0.80026762  0.00839541  0.74244700  1
  Ti  Ti157  1  0.78342104  0.57923373  0.26468804  1
  Ti  Ti158  1  0.80561281  0.38924641  0.72391193  1
  Ti  Ti159  1  0.39004892  0.60327402  0.51014873  1
  Mo  Mo160  1  0.80885682  0.19081773  0.50754357  1
  Mo  Mo161  1  0.90769839  0.10153486  0.62199585  1
  Mo  Mo162  1  0.69999520  0.49839561  0.39363361  1
  Mo  Mo163  1  0.11302643  0.48812347  0.61108426  1
  Mo  Mo164  1  0.38625217  0.61407040  0.73007920  1
  Mo  Mo165  1  0.20806249  0.59239042  0.48487335  1
  Mo  Mo166  1  0.30155214  0.69821788  0.61603191  1
  Mo  Mo167  1  0.00146348  0.19678011  0.47844027  1
  Mo  Mo168  1  0.90040054  0.10367987  0.13838949  1
  Mo  Mo169  1  0.00230030  0.79314354  0.23589007  1
  Mo  Mo170  1  0.19067489  0.60365853  0.76050083  1
  Mo  Mo171  1  0.79493975  0.59167315  0.00810848  1
  Mo  Mo172  1  0.89033910  0.48716433  0.14675315  1
  Mo  Mo173  1  0.19792570  0.39720921  0.49624936  1
  Mo  Mo174  1  0.70018942  0.29704528  0.61560590  1
  Mo  Mo175  1  0.00338090  -0.00297547  0.23797932  1
  Mo  Mo176  1  0.10657732  0.09148667  0.35185609  1
  Mo  Mo177  1  0.90379958  0.89515413  0.13191801  1
  Mo  Mo178  1  0.28634105  0.51470165  0.63445650  1
  Mo  Mo179  1  0.29204358  0.29929779  0.86507620  1
  Mo  Mo180  1  0.00394076  0.19773455  0.76239710  1
  Mo  Mo181  1  0.50260192  0.89924062  0.63441894  1
  Mo  Mo182  1  0.30553192  0.50311431  0.37838912  1
  Mo  Mo183  1  0.29449658  0.90206623  0.11264220  1
  Mo  Mo184  1  0.49896935  0.50115496  0.87679247  1
  Mo  Mo185  1  0.90905707  0.70024269  0.63058175  1
  Mo  Mo186  1  0.89022971  0.10468969  0.35276372  1
  Mo  Mo187  1  0.19432909  0.80112929  0.47794802  1
  Mo  Mo188  1  0.59964439  0.80843126  0.48883035  1
  Mo  Mo189  1  0.69771343  0.90493831  0.12122976  1
  Mo  Mo190  1  0.91084466  0.28653411  0.59940490  1
  Mo  Mo191  1  0.70661723  0.70112773  0.35265671  1
  Mo  Mo192  1  0.80203182  0.39653788  0.26545872  1
  Mo  Mo193  1  0.49645744  0.30390512  0.62139570  1
  Mo  Mo194  1  0.50717540  0.91061828  0.36733379  1
  Mo  Mo195  1  0.90292590  0.29734475  0.87720945  1
  Mo  Mo196  1  0.82936694  0.60652203  0.72826822  1
  Mo  Mo197  1  0.60373260  0.19804056  0.51025329  1
  Mo  Mo198  1  -0.00492206  0.39648676  -0.00193683  1
  Mo  Mo199  1  0.90794345  0.49528870  0.63333086  1
