# generated using pymatgen
data_HfZrTaTiMo
_symmetry_space_group_name_H-M   'P 1'
_cell_length_a   15.82755402
_cell_length_b   15.83944920
_cell_length_c   15.40543014
_cell_angle_alpha   89.94051593
_cell_angle_beta   90.03717947
_cell_angle_gamma   90.03762100
_symmetry_Int_Tables_number   1
_chemical_formula_structural   HfZrTaTiMo
_chemical_formula_sum   'Hf40 Zr40 Ta40 Ti40 Mo40'
_cell_volume   3862.13357204
_cell_formula_units_Z   40
loop_
 _symmetry_equiv_pos_site_id
 _symmetry_equiv_pos_as_xyz
  1  'x, y, z'
loop_
 _atom_site_type_symbol
 _atom_site_label
 _atom_site_symmetry_multiplicity
 _atom_site_fract_x
 _atom_site_fract_y
 _atom_site_fract_z
 _atom_site_occupancy
  Hf  Hf0  1  -0.00541731  0.80340003  0.00406748  1
  Hf  Hf1  1  0.39169208  -0.00116064  0.50524239  1
  Hf  Hf2  1  0.60510323  0.79419647  0.01524756  1
  Hf  Hf3  1  0.90078723  0.89162221  0.14695526  1
  Hf  Hf4  1  0.19048716  0.18105257  0.50939275  1
  Hf  Hf5  1  0.90241625  0.29047889  0.37566782  1
  Hf  Hf6  1  0.00007378  0.79938169  0.74386366  1
  Hf  Hf7  1  0.00604498  0.39337415  0.25015359  1
  Hf  Hf8  1  0.39777013  0.60874257  0.74979924  1
  Hf  Hf9  1  0.19829330  0.20168590  0.24857922  1
  Hf  Hf10  1  0.20418310  0.39034361  0.51455211  1
  Hf  Hf11  1  0.60599177  0.81640004  0.25178897  1
  Hf  Hf12  1  0.90970837  0.89420377  0.36283390  1
  Hf  Hf13  1  0.09685963  0.49667577  0.62817489  1
  Hf  Hf14  1  0.61261609  -0.00768403  0.75032468  1
  Hf  Hf15  1  0.01553389  0.01361128  0.49347101  1
  Hf  Hf16  1  0.80160566  0.42244751  0.47010831  1
  Hf  Hf17  1  0.80035702  0.00301571  0.48145800  1
  Hf  Hf18  1  0.10410654  0.89240225  0.86875994  1
  Hf  Hf19  1  0.59299389  -0.00500079  0.49461638  1
  Hf  Hf20  1  0.29965402  0.90137447  0.35787624  1
  Hf  Hf21  1  0.20919287  -0.00492044  -0.00352884  1
  Hf  Hf22  1  0.59359153  0.40797556  0.00485629  1
  Hf  Hf23  1  0.70908408  0.09469082  0.62027158  1
  Hf  Hf24  1  0.69576228  0.50460885  0.14180796  1
  Hf  Hf25  1  0.01202235  0.59982832  0.25465596  1
  Hf  Hf26  1  -0.00761830  0.59938952  0.00236896  1
  Hf  Hf27  1  0.10978178  0.89472387  0.35999768  1
  Hf  Hf28  1  0.51306241  0.91842595  0.11761383  1
  Hf  Hf29  1  0.60016287  0.20429428  0.75201913  1
  Hf  Hf30  1  0.10956816  0.93136864  0.64780717  1
  Hf  Hf31  1  0.70302342  0.49685259  0.87793976  1
  Hf  Hf32  1  0.49965742  0.10565731  0.11975925  1
  Hf  Hf33  1  0.90091412  0.09585024  0.13011747  1
  Hf  Hf34  1  0.81188528  -0.00594461  -0.01056752  1
  Hf  Hf35  1  0.79200959  0.38382932  0.02494932  1
  Hf  Hf36  1  0.59306378  0.39562518  0.24803484  1
  Hf  Hf37  1  0.79181631  0.20356883  0.23784928  1
  Hf  Hf38  1  0.30282676  0.30186703  0.10709568  1
  Hf  Hf39  1  -0.00773402  0.59861786  0.49712248  1
  Zr  Zr40  1  0.21027427  0.78777060  0.74014338  1
  Zr  Zr41  1  0.59575408  0.79352990  0.74258719  1
  Zr  Zr42  1  0.48632840  0.50044723  0.36932105  1
  Zr  Zr43  1  0.88438764  0.31544180  0.86511470  1
  Zr  Zr44  1  0.48309775  0.10631626  0.37573062  1
  Zr  Zr45  1  0.79650413  0.19737424  0.76079984  1
  Zr  Zr46  1  0.40192962  0.80823719  0.50846500  1
  Zr  Zr47  1  0.78360046  0.60494279  0.74150269  1
  Zr  Zr48  1  -0.00891608  0.19499158  -0.01361389  1
  Zr  Zr49  1  -0.00716748  0.40174648  0.00085642  1
  Zr  Zr50  1  0.29711632  0.70350106  0.37128928  1
  Zr  Zr51  1  0.20548529  0.39995972  0.24910128  1
  Zr  Zr52  1  0.40119582  0.79777268  0.22644512  1
  Zr  Zr53  1  0.10380107  0.29627862  0.10536139  1
  Zr  Zr54  1  0.89076628  0.91576062  0.63430358  1
  Zr  Zr55  1  0.10015705  0.50400156  0.86744417  1
  Zr  Zr56  1  0.61130368  0.20874327  -0.00962834  1
  Zr  Zr57  1  0.30404751  0.29702916  0.38345481  1
  Zr  Zr58  1  0.59550023  0.19506148  0.25039988  1
  Zr  Zr59  1  0.78147669  0.00059309  0.26539279  1
  Zr  Zr60  1  0.79672631  0.60440460  0.49128788  1
  Zr  Zr61  1  0.80497738  0.58794281  0.27928957  1
  Zr  Zr62  1  0.20913987  0.59760837  0.24836526  1
  Zr  Zr63  1  0.00424361  -0.00392704  -0.00614144  1
  Zr  Zr64  1  0.88855677  0.48873147  0.63600291  1
  Zr  Zr65  1  0.59864651  0.41180336  0.50089802  1
  Zr  Zr66  1  0.89205078  0.70557632  0.86725010  1
  Zr  Zr67  1  0.50064219  0.69941367  0.36391379  1
  Zr  Zr68  1  0.71511627  0.30941799  0.61544329  1
  Zr  Zr69  1  0.91309974  0.10855044  0.62723263  1
  Zr  Zr70  1  0.69650054  0.29586244  0.38112470  1
  Zr  Zr71  1  0.79758643  0.59858090  0.00698992  1
  Zr  Zr72  1  0.40067595  0.79627919  0.00564974  1
  Zr  Zr73  1  0.39787770  0.60153263  0.50956204  1
  Zr  Zr74  1  0.00738374  0.80629189  0.51694129  1
  Zr  Zr75  1  0.28872543  0.08786347  0.64720760  1
  Zr  Zr76  1  0.39693498  0.19599784  -0.01641223  1
  Zr  Zr77  1  0.60265198  0.40673557  0.74883418  1
  Zr  Zr78  1  0.39604084  -0.00361317  -0.01465179  1
  Zr  Zr79  1  0.11069498  0.49683533  0.38829777  1
  Ta  Ta80  1  0.20045153  0.61137508  0.51686801  1
  Ta  Ta81  1  0.90058246  0.49466567  0.14352058  1
  Ta  Ta82  1  0.20028319  0.39719687  0.74947773  1
  Ta  Ta83  1  0.49299283  0.30696944  0.11447048  1
  Ta  Ta84  1  0.69800025  0.70822432  0.37232764  1
  Ta  Ta85  1  0.30410166  0.67816577  0.11025357  1
  Ta  Ta86  1  0.29966806  0.09773869  0.13168082  1
  Ta  Ta87  1  0.21380220  0.41234720  -0.01753484  1
  Ta  Ta88  1  -0.00115845  0.39201094  0.50126915  1
  Ta  Ta89  1  0.49570066  0.31057316  0.87394171  1
  Ta  Ta90  1  0.50105759  0.69490846  0.88454644  1
  Ta  Ta91  1  0.59360203  0.19647564  0.50881688  1
  Ta  Ta92  1  0.10539660  0.71049327  0.38283370  1
  Ta  Ta93  1  0.20626083  0.80730222  0.52149796  1
  Ta  Ta94  1  0.19735548  0.20282278  0.75984735  1
  Ta  Ta95  1  0.70615619  0.70217086  0.14804832  1
  Ta  Ta96  1  0.30123376  0.49660609  0.63289994  1
  Ta  Ta97  1  0.20648882  0.80293732  0.00888577  1
  Ta  Ta98  1  0.49150221  0.30090191  0.62318372  1
  Ta  Ta99  1  0.49874851  0.50185442  0.62598594  1
  Ta  Ta100  1  0.10791964  0.09611067  0.12198610  1
  Ta  Ta101  1  0.89831696  0.69866002  0.14432086  1
  Ta  Ta102  1  0.10293893  0.69773862  0.11188171  1
  Ta  Ta103  1  0.08990710  0.28738506  0.62937529  1
  Ta  Ta104  1  0.00384136  0.60908679  0.74201879  1
  Ta  Ta105  1  0.30283102  0.30665998  0.86811157  1
  Ta  Ta106  1  0.70445627  0.89081092  0.88487979  1
  Ta  Ta107  1  0.50900920  0.89255318  0.87827147  1
  Ta  Ta108  1  0.69178919  0.08682584  0.11092030  1
  Ta  Ta109  1  0.49607670  0.10025072  0.63531609  1
  Ta  Ta110  1  0.78432902  0.80933055  0.73954937  1
  Ta  Ta111  1  0.89279149  0.70435942  0.62654093  1
  Ta  Ta112  1  0.39208621  0.19686388  0.51722427  1
  Ta  Ta113  1  0.40195413  -0.00920873  0.76420220  1
  Ta  Ta114  1  0.00256934  0.20045353  0.76397740  1
  Ta  Ta115  1  0.69061198  0.70044867  0.88058942  1
  Ta  Ta116  1  0.11079862  0.50363038  0.11113942  1
  Ta  Ta117  1  0.69353808  0.70780376  0.60506737  1
  Ta  Ta118  1  0.10561756  0.69701477  0.88667161  1
  Ta  Ta119  1  0.48762010  0.30143936  0.39323698  1
  Ti  Ti120  1  0.59370191  0.60484789  0.01352620  1
  Ti  Ti121  1  0.80274814  0.79369560  0.00586144  1
  Ti  Ti122  1  0.70858240  0.90426719  0.11835720  1
  Ti  Ti123  1  0.60344291  0.60008306  0.49487060  1
  Ti  Ti124  1  0.79846492  0.80601562  0.49764170  1
  Ti  Ti125  1  0.80002890  0.19942283  0.00514816  1
  Ti  Ti126  1  0.20406064  -0.00614978  0.49869952  1
  Ti  Ti127  1  0.50257837  0.69967529  0.61892503  1
  Ti  Ti128  1  0.01609441  -0.00038871  0.24181221  1
  Ti  Ti129  1  0.59530640  0.60251184  0.74605915  1
  Ti  Ti130  1  0.70446075  0.09351437  0.88127736  1
  Ti  Ti131  1  0.09619973  0.28684157  0.38791822  1
  Ti  Ti132  1  0.89667117  0.50381851  0.85965132  1
  Ti  Ti133  1  0.39939066  0.40430913  0.75120901  1
  Ti  Ti134  1  0.39266683  0.40304191  0.24227597  1
  Ti  Ti135  1  0.48159719  0.51061449  0.12535319  1
  Ti  Ti136  1  0.10257594  0.30355199  0.87535533  1
  Ti  Ti137  1  0.60009803  0.00354286  0.27465176  1
  Ti  Ti138  1  0.50601182  0.09563322  0.86875005  1
  Ti  Ti139  1  0.29387332  0.09704129  0.36451951  1
  Ti  Ti140  1  0.30075780  0.29575464  0.63851366  1
  Ti  Ti141  1  0.40198175  0.00093186  0.24581586  1
  Ti  Ti142  1  0.10410873  0.09743853  0.35954861  1
  Ti  Ti143  1  0.48899836  0.50632320  0.88022988  1
  Ti  Ti144  1  0.59768763  0.80974038  0.49227758  1
  Ti  Ti145  1  0.20266038  0.19259064  -0.01772356  1
  Ti  Ti146  1  0.00380759  0.19916146  0.24012842  1
  Ti  Ti147  1  0.10348853  0.09413894  0.86416634  1
  Ti  Ti148  1  0.91007353  0.71275534  0.36663004  1
  Ti  Ti149  1  0.49729458  0.90360418  0.63532373  1
  Ti  Ti150  1  -0.00069393  0.39466413  0.74684780  1
  Ti  Ti151  1  0.29819403  0.68714640  0.89008529  1
  Ti  Ti152  1  0.39867263  0.21016820  0.24524004  1
  Ti  Ti153  1  0.40102276  0.19858957  0.75619303  1
  Ti  Ti154  1  0.30351485  0.49689685  0.39063075  1
  Ti  Ti155  1  0.39942481  0.79718934  0.75369270  1
  Ti  Ti156  1  0.89999106  0.29574720  0.61695063  1
  Ti  Ti157  1  0.20032428  0.60354092  0.74032124  1
  Ti  Ti158  1  0.19873132  0.80005656  0.22186708  1
  Ti  Ti159  1  0.90856079  0.10658411  0.36937806  1
  Mo  Mo160  1  0.68993800  0.51481617  0.62531212  1
  Mo  Mo161  1  0.30159912  0.10423071  0.86258020  1
  Mo  Mo162  1  0.89814400  0.29714671  0.13764690  1
  Mo  Mo163  1  0.20900473  -0.00252555  0.77971112  1
  Mo  Mo164  1  0.69505331  0.30395652  0.87627346  1
  Mo  Mo165  1  0.10383312  0.89757977  0.12829429  1
  Mo  Mo166  1  0.09881147  0.10439082  0.64942064  1
  Mo  Mo167  1  0.20176842  0.59886440  -0.00566269  1
  Mo  Mo168  1  0.80107909  0.39515959  0.24846965  1
  Mo  Mo169  1  0.20352524  0.00082971  0.23572839  1
  Mo  Mo170  1  0.30637730  0.88460406  0.86545687  1
  Mo  Mo171  1  0.00395798  0.19905805  0.49695771  1
  Mo  Mo172  1  0.60719834  -0.00106745  -0.01716419  1
  Mo  Mo173  1  0.69227650  0.29471860  0.13008645  1
  Mo  Mo174  1  0.30102320  0.90326530  0.13287280  1
  Mo  Mo175  1  0.40093207  0.40483303  -0.01088137  1
  Mo  Mo176  1  0.50648204  0.69044056  0.12892551  1
  Mo  Mo177  1  0.67916785  0.50904450  0.35647066  1
  Mo  Mo178  1  0.49572543  0.90426943  0.36391196  1
  Mo  Mo179  1  0.39512246  0.59094189  0.23882139  1
  Mo  Mo180  1  0.80087697  0.79658731  0.26110871  1
  Mo  Mo181  1  -0.00510214  0.00686135  0.77344386  1
  Mo  Mo182  1  0.09666552  0.69821119  0.61562339  1
  Mo  Mo183  1  0.91614652  0.48938672  0.36557799  1
  Mo  Mo184  1  0.89467941  0.89859769  0.85820986  1
  Mo  Mo185  1  0.30125304  0.50101628  0.85120576  1
  Mo  Mo186  1  0.30811909  0.90079049  0.64288994  1
  Mo  Mo187  1  0.59458076  0.60587781  0.24494297  1
  Mo  Mo188  1  0.30200656  0.49436066  0.11478558  1
  Mo  Mo189  1  0.39546780  0.39638036  0.52072290  1
  Mo  Mo190  1  0.89810226  0.10166285  0.87285323  1
  Mo  Mo191  1  0.69836707  0.89534132  0.38915803  1
  Mo  Mo192  1  0.79452935  0.40115841  0.74537264  1
  Mo  Mo193  1  0.80311202  0.19648899  0.49319205  1
  Mo  Mo194  1  0.30349764  0.69981563  0.62435322  1
  Mo  Mo195  1  0.01251506  0.79090086  0.24079563  1
  Mo  Mo196  1  0.79834460  -0.00432465  0.76653031  1
  Mo  Mo197  1  0.69878682  0.89493949  0.60953116  1
  Mo  Mo198  1  0.69765781  0.10756988  0.39314145  1
  Mo  Mo199  1  0.40314069  0.59269048  -0.00741227  1
