# generated using pymatgen
data_HfZrTaTiMo
_symmetry_space_group_name_H-M   'P 1'
_cell_length_a   15.83761149
_cell_length_b   15.83552766
_cell_length_c   15.38861896
_cell_angle_alpha   89.98101364
_cell_angle_beta   89.96064403
_cell_angle_gamma   90.08566935
_symmetry_Int_Tables_number   1
_chemical_formula_structural   HfZrTaTiMo
_chemical_formula_sum   'Hf40 Zr40 Ta40 Ti40 Mo40'
_cell_volume   3859.41302909
_cell_formula_units_Z   40
loop_
 _symmetry_equiv_pos_site_id
 _symmetry_equiv_pos_as_xyz
  1  'x, y, z'
loop_
 _atom_site_type_symbol
 _atom_site_label
 _atom_site_symmetry_multiplicity
 _atom_site_fract_x
 _atom_site_fract_y
 _atom_site_fract_z
 _atom_site_occupancy
  Hf  Hf0  1  0.30080035  0.09339316  0.10572202  1
  Hf  Hf1  1  0.70412570  0.70598475  0.88389957  1
  Hf  Hf2  1  0.80613799  0.79541353  0.73270198  1
  Hf  Hf3  1  0.90032784  0.89452235  0.88004742  1
  Hf  Hf4  1  0.69681976  0.49812228  0.36757395  1
  Hf  Hf5  1  0.20029590  0.60440751  0.26613071  1
  Hf  Hf6  1  -0.00530319  -0.00321148  0.24046493  1
  Hf  Hf7  1  0.69501972  0.49532370  0.61667605  1
  Hf  Hf8  1  0.50809691  0.90231154  0.64055438  1
  Hf  Hf9  1  0.09308373  0.49106715  0.87136475  1
  Hf  Hf10  1  0.90950500  0.70737628  0.10965369  1
  Hf  Hf11  1  -0.00533893  0.59722597  0.49929578  1
  Hf  Hf12  1  0.19557350  0.39531621  0.48409059  1
  Hf  Hf13  1  0.89474016  0.49434631  0.89429202  1
  Hf  Hf14  1  0.80289458  0.60802904  0.24783138  1
  Hf  Hf15  1  0.29776387  0.89770378  0.12123353  1
  Hf  Hf16  1  0.70090167  0.50659159  0.88046195  1
  Hf  Hf17  1  0.90368990  0.49503092  0.35230605  1
  Hf  Hf18  1  0.48551824  0.49149575  0.87661009  1
  Hf  Hf19  1  0.00634336  0.39364160  0.48182983  1
  Hf  Hf20  1  0.59460193  0.60205246  0.01065229  1
  Hf  Hf21  1  0.59745207  0.81486436  0.01522625  1
  Hf  Hf22  1  0.20096339  0.79932533  0.26059053  1
  Hf  Hf23  1  0.20361438  0.19733836  0.50708970  1
  Hf  Hf24  1  0.80833086  0.39597308  0.50006926  1
  Hf  Hf25  1  0.21057351  0.39663067  -0.00470264  1
  Hf  Hf26  1  0.59605204  0.39298811  0.49778667  1
  Hf  Hf27  1  0.59201419  0.19827863  0.24912261  1
  Hf  Hf28  1  0.50863885  0.70361541  0.86084453  1
  Hf  Hf29  1  0.70702169  0.10980841  0.12038495  1
  Hf  Hf30  1  0.69475442  0.09466768  0.62707837  1
  Hf  Hf31  1  0.89655362  0.27794269  0.12525648  1
  Hf  Hf32  1  0.79763864  0.20246503  0.49710026  1
  Hf  Hf33  1  0.40266455  0.80455079  0.25885519  1
  Hf  Hf34  1  0.09273453  0.89628549  0.64332927  1
  Hf  Hf35  1  0.10700651  0.70774055  0.12063221  1
  Hf  Hf36  1  0.21001634  0.59360122  0.76073712  1
  Hf  Hf37  1  0.19734636  0.19908737  0.23613219  1
  Hf  Hf38  1  0.80513146  0.20288525  0.75612233  1
  Hf  Hf39  1  0.09894472  0.90094909  0.11348250  1
  Zr  Zr40  1  0.20490932  0.60170462  -0.00743376  1
  Zr  Zr41  1  0.80861060  0.81212017  0.24241073  1
  Zr  Zr42  1  0.50574315  0.09858103  0.87426277  1
  Zr  Zr43  1  0.29663515  0.49778994  0.14011076  1
  Zr  Zr44  1  0.49752196  0.29454079  0.37738058  1
  Zr  Zr45  1  0.59597250  0.00403477  0.25961065  1
  Zr  Zr46  1  0.20004472  -0.00001642  0.51246012  1
  Zr  Zr47  1  0.88883962  0.69708168  0.89669943  1
  Zr  Zr48  1  0.39978357  0.39188624  0.73563443  1
  Zr  Zr49  1  0.59445545  0.21294629  0.75645278  1
  Zr  Zr50  1  0.30493453  0.92056281  0.36998974  1
  Zr  Zr51  1  0.09651880  0.49298475  0.13810326  1
  Zr  Zr52  1  0.70640550  0.70785901  0.38188651  1
  Zr  Zr53  1  0.19466666  0.20560829  -0.00174041  1
  Zr  Zr54  1  0.50683898  0.69830288  0.38113861  1
  Zr  Zr55  1  0.79980948  0.60196705  0.72834000  1
  Zr  Zr56  1  0.89716846  0.09401050  0.38064499  1
  Zr  Zr57  1  -0.01975160  0.59816626  0.73607475  1
  Zr  Zr58  1  0.69754089  0.30837378  0.88256569  1
  Zr  Zr59  1  0.20518548  -0.00010554  0.76709495  1
  Zr  Zr60  1  0.30472515  0.50375923  0.61591336  1
  Zr  Zr61  1  0.08355695  0.70382107  0.87387367  1
  Zr  Zr62  1  0.09053159  0.10207108  0.64658916  1
  Zr  Zr63  1  0.19040890  0.59780383  0.48375664  1
  Zr  Zr64  1  0.39479269  0.59749387  0.00986058  1
  Zr  Zr65  1  0.30223553  0.70161013  0.61816167  1
  Zr  Zr66  1  0.30386174  0.28968874  0.37403264  1
  Zr  Zr67  1  0.70632513  0.70384017  0.11619435  1
  Zr  Zr68  1  0.80847754  0.60589847  0.50574636  1
  Zr  Zr69  1  0.90659381  0.09994271  0.62745125  1
  Zr  Zr70  1  0.59406621  0.59455700  0.73724280  1
  Zr  Zr71  1  0.10052055  0.49005823  0.63720112  1
  Zr  Zr72  1  0.10000573  0.29901510  0.64260554  1
  Zr  Zr73  1  0.69226840  0.90227643  0.86214894  1
  Zr  Zr74  1  0.59215496  0.40213503  0.01478211  1
  Zr  Zr75  1  0.40047227  0.00515510  0.51203465  1
  Zr  Zr76  1  0.40217111  0.79597950  -0.00150139  1
  Zr  Zr77  1  0.80329369  0.39988381  0.73835717  1
  Zr  Zr78  1  0.09906879  0.70671125  0.63102605  1
  Zr  Zr79  1  0.10481870  0.09753222  0.37384129  1
  Ta  Ta80  1  0.50477318  0.09882536  0.63693246  1
  Ta  Ta81  1  0.49775934  0.50285264  0.13985720  1
  Ta  Ta82  1  0.89690218  0.29425134  0.35194379  1
  Ta  Ta83  1  0.59768240  0.00238168  0.48846842  1
  Ta  Ta84  1  0.59652512  0.20378034  0.00175950  1
  Ta  Ta85  1  -0.00059511  -0.00757480  0.49879236  1
  Ta  Ta86  1  0.79763504  -0.00103717  0.00541577  1
  Ta  Ta87  1  0.40026907  0.20646231  0.74391090  1
  Ta  Ta88  1  0.19694687  0.80587370  0.48930086  1
  Ta  Ta89  1  0.49475237  0.91141898  0.13443510  1
  Ta  Ta90  1  0.49634548  0.09768151  0.11132412  1
  Ta  Ta91  1  0.79875167  0.39705935  0.01975244  1
  Ta  Ta92  1  0.40445095  0.80828528  0.49770781  1
  Ta  Ta93  1  0.59590641  0.39942347  0.24558213  1
  Ta  Ta94  1  0.09553285  0.29747713  0.86625662  1
  Ta  Ta95  1  0.49315208  0.69809237  0.61791328  1
  Ta  Ta96  1  0.80325900  0.00360637  0.75341954  1
  Ta  Ta97  1  0.70143554  0.29744292  0.13605292  1
  Ta  Ta98  1  0.70578022  0.29830261  0.35803601  1
  Ta  Ta99  1  0.21293251  0.20956418  0.76220906  1
  Ta  Ta100  1  0.90103842  0.89509141  0.37722006  1
  Ta  Ta101  1  0.90235316  0.10201036  0.88448645  1
  Ta  Ta102  1  0.09332632  0.90006753  0.37017699  1
  Ta  Ta103  1  0.30888791  0.10861090  0.88094910  1
  Ta  Ta104  1  0.20796048  0.80086194  0.76869075  1
  Ta  Ta105  1  0.80229237  0.00291442  0.23572096  1
  Ta  Ta106  1  0.90223312  0.29738588  0.89385445  1
  Ta  Ta107  1  0.39785283  0.60463806  0.25468179  1
  Ta  Ta108  1  0.40425281  -0.00776669  -0.01401471  1
  Ta  Ta109  1  0.39808110  0.80001947  0.74894052  1
  Ta  Ta110  1  0.20774770  0.80338374  -0.02010080  1
  Ta  Ta111  1  0.59953317  0.81441389  0.50024071  1
  Ta  Ta112  1  0.31060042  0.49436982  0.37288589  1
  Ta  Ta113  1  0.70783057  0.90760484  0.37954446  1
  Ta  Ta114  1  0.90075400  0.49249752  0.13263083  1
  Ta  Ta115  1  0.40008272  0.39229303  0.24217812  1
  Ta  Ta116  1  0.39518046  0.19177421  0.23296099  1
  Ta  Ta117  1  0.40026953  0.20047737  0.52297777  1
  Ta  Ta118  1  0.00216944  0.58873540  0.01108211  1
  Ta  Ta119  1  0.60369844  0.80983634  0.24917365  1
  Ti  Ti120  1  0.60097708  0.00011497  0.00324191  1
  Ti  Ti121  1  0.58944223  0.59517720  0.50521645  1
  Ti  Ti122  1  0.30118144  0.10129643  0.64506304  1
  Ti  Ti123  1  0.20121253  0.00771991  0.24530153  1
  Ti  Ti124  1  0.39890862  -0.00039403  0.75882957  1
  Ti  Ti125  1  0.69725416  0.90592420  0.62915472  1
  Ti  Ti126  1  0.08685108  0.10419724  0.11175664  1
  Ti  Ti127  1  0.90497649  0.90072914  0.10640524  1
  Ti  Ti128  1  0.69332452  0.29330268  0.62213016  1
  Ti  Ti129  1  0.90889687  0.90551779  0.63496439  1
  Ti  Ti130  1  0.50722608  0.89815657  0.85759361  1
  Ti  Ti131  1  0.29823836  0.89428925  0.63059489  1
  Ti  Ti132  1  0.70454060  0.10093333  0.88198055  1
  Ti  Ti133  1  0.00135198  0.19452965  0.24629438  1
  Ti  Ti134  1  0.70181698  0.49751643  0.13586248  1
  Ti  Ti135  1  0.00476594  0.20317748  0.48768819  1
  Ti  Ti136  1  0.31414002  0.69373831  0.86524477  1
  Ti  Ti137  1  0.70458601  0.10151520  0.37309286  1
  Ti  Ti138  1  0.91156902  0.29271145  0.62425318  1
  Ti  Ti139  1  0.80690547  0.80730966  0.50746452  1
  Ti  Ti140  1  0.80065119  -0.00659254  0.50661212  1
  Ti  Ti141  1  0.19213439  0.39060526  0.26037402  1
  Ti  Ti142  1  0.59442939  0.19191527  0.49423329  1
  Ti  Ti143  1  0.47668038  0.09590781  0.37409256  1
  Ti  Ti144  1  0.09145077  0.90063791  0.87088089  1
  Ti  Ti145  1  0.58834015  0.39736485  0.73837018  1
  Ti  Ti146  1  0.59884662  0.60468425  0.24605533  1
  Ti  Ti147  1  0.49140381  0.29694510  0.11897791  1
  Ti  Ti148  1  0.19923333  -0.00165494  -0.02065107  1
  Ti  Ti149  1  0.68930777  0.71053704  0.61279326  1
  Ti  Ti150  1  0.40385516  0.39842822  0.50929922  1
  Ti  Ti151  1  0.08271173  0.70948225  0.37243727  1
  Ti  Ti152  1  -0.00350898  0.80343837  0.49842224  1
  Ti  Ti153  1  0.00435985  0.00745755  -0.00902018  1
  Ti  Ti154  1  0.30696888  0.70091328  0.39128341  1
  Ti  Ti155  1  0.49463134  0.70423559  0.13703064  1
  Ti  Ti156  1  0.00096065  0.61097510  0.25030278  1
  Ti  Ti157  1  0.00896250  0.38398272  0.01531649  1
  Ti  Ti158  1  -0.01356646  0.39300434  0.75261848  1
  Ti  Ti159  1  0.49650070  0.49902282  0.36785220  1
  Mo  Mo160  1  0.30831481  0.89932186  0.87632653  1
  Mo  Mo161  1  0.09370246  0.29484448  0.35843415  1
  Mo  Mo162  1  0.79660732  0.39682747  0.23725271  1
  Mo  Mo163  1  0.90439839  0.72103016  0.61035697  1
  Mo  Mo164  1  0.49721962  0.50359087  0.61402409  1
  Mo  Mo165  1  0.20875954  0.39508815  0.77015263  1
  Mo  Mo166  1  0.39611992  0.39337342  0.01918519  1
  Mo  Mo167  1  0.30232465  0.49536704  0.86837486  1
  Mo  Mo168  1  0.31080156  0.30143292  0.87752845  1
  Mo  Mo169  1  0.50707519  0.90320029  0.37263135  1
  Mo  Mo170  1  0.09921907  0.10145091  0.87312085  1
  Mo  Mo171  1  0.79895921  0.18967815  0.25844610  1
  Mo  Mo172  1  0.79537217  0.19790615  -0.01346297  1
  Mo  Mo173  1  -0.00642480  0.00127625  0.77086437  1
  Mo  Mo174  1  -0.00243807  0.20262290  0.77069984  1
  Mo  Mo175  1  0.39771774  0.00885685  0.24168514  1
  Mo  Mo176  1  0.40560887  0.59727157  0.48024560  1
  Mo  Mo177  1  0.00042379  0.80162916  0.25376450  1
  Mo  Mo178  1  0.48794311  0.29770859  0.89625108  1
  Mo  Mo179  1  0.00829851  0.80449216  -0.00417399  1
  Mo  Mo180  1  0.90395292  0.09242125  0.10690471  1
  Mo  Mo181  1  0.90742255  0.70950797  0.37805256  1
  Mo  Mo182  1  0.30060449  0.30090083  0.13286750  1
  Mo  Mo183  1  0.80012564  0.58556254  0.02082566  1
  Mo  Mo184  1  0.30559201  0.10480898  0.36808587  1
  Mo  Mo185  1  0.40071783  0.20305589  0.00513420  1
  Mo  Mo186  1  0.60810638  0.00510532  0.75381350  1
  Mo  Mo187  1  -0.00106078  0.80315232  0.75558124  1
  Mo  Mo188  1  0.69702745  0.91129653  0.12867564  1
  Mo  Mo189  1  0.50518194  0.29557139  0.60996112  1
  Mo  Mo190  1  0.09999058  0.49915474  0.35536240  1
  Mo  Mo191  1  0.09622921  0.29756645  0.13457099  1
  Mo  Mo192  1  0.90426717  0.47970233  0.61362271  1
  Mo  Mo193  1  0.60331978  0.79636867  0.72907526  1
  Mo  Mo194  1  0.29781050  0.29757738  0.61941957  1
  Mo  Mo195  1  0.40152641  0.60225536  0.75014659  1
  Mo  Mo196  1  0.00291598  0.38622337  0.24621618  1
  Mo  Mo197  1  0.00251596  0.19756114  -0.00645824  1
  Mo  Mo198  1  0.30208866  0.70587230  0.13305107  1
  Mo  Mo199  1  0.79756875  0.81444995  0.01108419  1
