# generated using pymatgen
data_HfZrTaTiMo
_symmetry_space_group_name_H-M   'P 1'
_cell_length_a   15.83602485
_cell_length_b   15.83699224
_cell_length_c   15.42271061
_cell_angle_alpha   89.98039196
_cell_angle_beta   90.01662014
_cell_angle_gamma   90.04871287
_symmetry_Int_Tables_number   1
_chemical_formula_structural   HfZrTaTiMo
_chemical_formula_sum   'Hf40 Zr40 Ta40 Ti40 Mo40'
_cell_volume   3867.93696168
_cell_formula_units_Z   40
loop_
 _symmetry_equiv_pos_site_id
 _symmetry_equiv_pos_as_xyz
  1  'x, y, z'
loop_
 _atom_site_type_symbol
 _atom_site_label
 _atom_site_symmetry_multiplicity
 _atom_site_fract_x
 _atom_site_fract_y
 _atom_site_fract_z
 _atom_site_occupancy
  Hf  Hf0  1  0.29040609  0.69809419  0.11728350  1
  Hf  Hf1  1  0.40666705  0.80878525  0.50551841  1
  Hf  Hf2  1  0.39869345  0.00216267  0.24105553  1
  Hf  Hf3  1  0.10350721  0.30908656  0.14053214  1
  Hf  Hf4  1  0.10908539  0.30142854  0.63350983  1
  Hf  Hf5  1  0.49641517  0.89649803  0.36112334  1
  Hf  Hf6  1  0.00916443  0.19228399  0.49090790  1
  Hf  Hf7  1  0.89717952  0.10287022  0.88414331  1
  Hf  Hf8  1  0.00589925  0.19214458  0.74792781  1
  Hf  Hf9  1  0.61476877  0.19238640  0.00354615  1
  Hf  Hf10  1  0.79883840  0.40262206  0.50513503  1
  Hf  Hf11  1  0.29418742  0.89303219  0.13310631  1
  Hf  Hf12  1  0.81447752  0.80125994  0.25071652  1
  Hf  Hf13  1  0.69649751  0.30268365  0.38244038  1
  Hf  Hf14  1  0.60303169  -0.01140828  0.00210544  1
  Hf  Hf15  1  0.79210090  0.39931362  0.24853659  1
  Hf  Hf16  1  -0.00353972  -0.01260701  0.01378748  1
  Hf  Hf17  1  -0.00253929  0.59165740  0.52142152  1
  Hf  Hf18  1  0.10910141  0.70365869  0.62947907  1
  Hf  Hf19  1  0.91376193  0.50231059  0.13987658  1
  Hf  Hf20  1  0.79698925  0.59259143  0.51990187  1
  Hf  Hf21  1  0.89310718  0.69171616  0.86754841  1
  Hf  Hf22  1  0.71191185  0.29385157  0.87079028  1
  Hf  Hf23  1  0.59488397  0.41159006  0.24150019  1
  Hf  Hf24  1  0.09443255  0.87053427  0.13358976  1
  Hf  Hf25  1  0.50000832  0.70743213  0.63862562  1
  Hf  Hf26  1  0.09521361  0.89980219  0.86366478  1
  Hf  Hf27  1  0.91024672  0.29460807  0.13498574  1
  Hf  Hf28  1  0.39448741  0.60180994  -0.01914018  1
  Hf  Hf29  1  0.59567434  0.19902528  0.74730251  1
  Hf  Hf30  1  0.61038228  0.80531569  0.50128972  1
  Hf  Hf31  1  0.30054350  0.49932251  0.63323975  1
  Hf  Hf32  1  0.18631542  0.79068012  -0.01221431  1
  Hf  Hf33  1  0.29854164  0.91110288  0.61920481  1
  Hf  Hf34  1  0.79408907  0.59032112  0.00344605  1
  Hf  Hf35  1  0.70501841  0.09083932  0.36795083  1
  Hf  Hf36  1  0.10264530  0.51947959  0.13829312  1
  Hf  Hf37  1  -0.00285806  0.39753137  0.49790220  1
  Hf  Hf38  1  0.49497904  0.10977493  0.36711104  1
  Hf  Hf39  1  0.19789624  0.41054849  -0.01230879  1
  Zr  Zr40  1  0.48971899  0.09037008  0.63057607  1
  Zr  Zr41  1  0.01199325  0.77604886  0.26999348  1
  Zr  Zr42  1  -0.00573582  0.80290350  0.74512750  1
  Zr  Zr43  1  0.48679910  0.89540151  0.88025446  1
  Zr  Zr44  1  0.60009125  0.20629401  0.24136782  1
  Zr  Zr45  1  0.49492013  0.09966302  0.88323773  1
  Zr  Zr46  1  0.79780588  -0.00281708  0.00414006  1
  Zr  Zr47  1  0.51159658  0.52304581  0.11017817  1
  Zr  Zr48  1  0.49702250  0.31051617  0.10653969  1
  Zr  Zr49  1  0.59744725  0.77695498  0.25611871  1
  Zr  Zr50  1  0.92019876  0.70775266  0.10430162  1
  Zr  Zr51  1  0.30031741  0.30835337  0.12332235  1
  Zr  Zr52  1  0.08704147  0.90902728  0.37869382  1
  Zr  Zr53  1  0.87179211  0.89876102  0.62097518  1
  Zr  Zr54  1  0.39418985  0.20976577  0.74701803  1
  Zr  Zr55  1  0.10130181  0.10262480  0.88066428  1
  Zr  Zr56  1  0.80952828  0.39577693  0.00357549  1
  Zr  Zr57  1  0.10312675  0.30186820  0.35076581  1
  Zr  Zr58  1  0.59947270  0.19802239  0.50930394  1
  Zr  Zr59  1  0.39894903  0.59352427  0.25411441  1
  Zr  Zr60  1  0.32155954  0.30975859  0.36396161  1
  Zr  Zr61  1  0.59363067  -0.00802972  0.49190696  1
  Zr  Zr62  1  0.29844716  0.10720233  0.89605172  1
  Zr  Zr63  1  0.19329884  0.63696082  0.27064667  1
  Zr  Zr64  1  0.70745165  0.29756841  0.62941468  1
  Zr  Zr65  1  0.78570229  0.60966614  0.23505710  1
  Zr  Zr66  1  0.08541053  0.51669115  0.36812138  1
  Zr  Zr67  1  0.19394096  -0.00324909  0.01087369  1
  Zr  Zr68  1  0.70505173  0.07291565  0.63180635  1
  Zr  Zr69  1  0.70033811  0.88610359  0.13157823  1
  Zr  Zr70  1  0.50211381  0.30659823  0.88975375  1
  Zr  Zr71  1  0.29946756  0.70899277  0.86323390  1
  Zr  Zr72  1  0.71011267  0.71425235  0.64412129  1
  Zr  Zr73  1  0.71174688  0.49919133  0.85320025  1
  Zr  Zr74  1  0.00763105  0.40977776  -0.01276263  1
  Zr  Zr75  1  0.22517341  0.43222839  0.26259608  1
  Zr  Zr76  1  0.59791058  0.59611591  0.51934442  1
  Zr  Zr77  1  0.90376311  0.07901273  0.37971457  1
  Zr  Zr78  1  0.20364883  0.19918546  0.48473768  1
  Zr  Zr79  1  0.20532775  0.40732776  0.48970030  1
  Ta  Ta80  1  0.66776935  0.68838085  0.09980703  1
  Ta  Ta81  1  0.79080467  0.79925464  -0.01128876  1
  Ta  Ta82  1  0.10832351  0.30171021  0.86519484  1
  Ta  Ta83  1  -0.01895859  -0.01444224  0.23096133  1
  Ta  Ta84  1  0.20128580  0.80604043  0.49577338  1
  Ta  Ta85  1  0.29258959  0.10167184  0.61957759  1
  Ta  Ta86  1  0.70666420  0.69514724  0.38503732  1
  Ta  Ta87  1  0.30834994  0.70481290  0.39513135  1
  Ta  Ta88  1  0.70343349  0.09204134  0.86296139  1
  Ta  Ta89  1  0.88945527  0.50439008  0.36654379  1
  Ta  Ta90  1  0.70858996  0.09777839  0.13611184  1
  Ta  Ta91  1  0.80787140  0.19548020  0.50085654  1
  Ta  Ta92  1  0.50334157  0.70233362  0.87235618  1
  Ta  Ta93  1  0.59367891  0.40822259  0.52035816  1
  Ta  Ta94  1  0.09852050  0.90973518  0.61887971  1
  Ta  Ta95  1  0.09650010  0.10858358  0.13441659  1
  Ta  Ta96  1  0.38738405  0.00928011  0.48547721  1
  Ta  Ta97  1  0.89931355  0.69260116  0.39360664  1
  Ta  Ta98  1  0.50145954  0.31010152  0.38509765  1
  Ta  Ta99  1  0.80938030  0.18810115  0.73980190  1
  Ta  Ta100  1  0.19422117  0.00925080  0.48567699  1
  Ta  Ta101  1  0.40158486  0.60281295  0.74927215  1
  Ta  Ta102  1  0.68817228  0.50678838  0.37458186  1
  Ta  Ta103  1  0.90762737  0.29478351  0.63082158  1
  Ta  Ta104  1  0.10427490  0.09476077  0.62562944  1
  Ta  Ta105  1  0.39844644  0.20429364  0.50507163  1
  Ta  Ta106  1  0.00477753  0.20666974  0.00133567  1
  Ta  Ta107  1  0.29394114  0.11111855  0.12350616  1
  Ta  Ta108  1  0.80474880  0.19692296  0.25385425  1
  Ta  Ta109  1  0.49098973  0.49219055  0.38271273  1
  Ta  Ta110  1  0.59779844  -0.00433339  0.23846703  1
  Ta  Ta111  1  0.00109371  0.59458804  0.74407171  1
  Ta  Ta112  1  0.90552216  0.29802703  0.86260244  1
  Ta  Ta113  1  0.39353751  0.78657089  0.25135007  1
  Ta  Ta114  1  0.10802121  0.49157169  0.64617212  1
  Ta  Ta115  1  0.59513370  0.39989866  0.73624479  1
  Ta  Ta116  1  0.49716743  0.87902049  0.11981340  1
  Ta  Ta117  1  0.20099705  0.00369059  0.74981966  1
  Ta  Ta118  1  0.90273382  0.09129201  0.61326179  1
  Ta  Ta119  1  0.20431335  0.60520080  0.50835555  1
  Ti  Ti120  1  0.50690181  0.90954739  0.63898974  1
  Ti  Ti121  1  0.29633089  0.90225679  0.36695359  1
  Ti  Ti122  1  0.10070238  0.69301931  0.85342497  1
  Ti  Ti123  1  0.20888400  0.19793206  0.74925825  1
  Ti  Ti124  1  0.29785357  0.90273230  0.87944032  1
  Ti  Ti125  1  0.01261872  0.60040470  -0.02089734  1
  Ti  Ti126  1  0.40441909  0.20781680  0.23742312  1
  Ti  Ti127  1  0.89748109  0.48531381  0.64929856  1
  Ti  Ti128  1  0.30243770  0.30414027  0.62226766  1
  Ti  Ti129  1  0.71025724  0.29564617  0.11902846  1
  Ti  Ti130  1  0.69631906  0.69957123  0.87023620  1
  Ti  Ti131  1  0.89443031  0.70316231  0.63150338  1
  Ti  Ti132  1  0.29987627  0.29426162  0.88983982  1
  Ti  Ti133  1  0.40567018  0.39918839  0.74979776  1
  Ti  Ti134  1  0.30486056  0.50452222  0.11586180  1
  Ti  Ti135  1  0.49871479  0.09962334  0.11860164  1
  Ti  Ti136  1  0.61910576  0.41739915  0.00245807  1
  Ti  Ti137  1  0.20682393  0.80737570  0.74111712  1
  Ti  Ti138  1  0.70939010  0.90123932  0.36376201  1
  Ti  Ti139  1  0.89960187  0.29977743  0.36967836  1
  Ti  Ti140  1  0.89262645  0.89808664  0.87227811  1
  Ti  Ti141  1  0.90540407  0.49304906  0.85456709  1
  Ti  Ti142  1  0.39507070  0.41221456  -0.01451251  1
  Ti  Ti143  1  -0.00088926  0.18741649  0.25905195  1
  Ti  Ti144  1  0.60300727  0.81226546  0.76144509  1
  Ti  Ti145  1  -0.00318607  0.79907614  0.50828235  1
  Ti  Ti146  1  0.89719666  0.10342728  0.12442978  1
  Ti  Ti147  1  0.50187842  0.68754093  0.38643868  1
  Ti  Ti148  1  0.40228559  0.59617267  0.51605071  1
  Ti  Ti149  1  0.89225196  0.89648742  0.39432714  1
  Ti  Ti150  1  0.60024274  0.59670498  0.74728167  1
  Ti  Ti151  1  0.18886411  0.00409905  0.24953516  1
  Ti  Ti152  1  0.39607524  -0.00410257  0.01493832  1
  Ti  Ti153  1  0.39442524  0.80614950  0.74045599  1
  Ti  Ti154  1  0.38952939  0.00197678  0.75553362  1
  Ti  Ti155  1  0.29534544  0.10690482  0.35667836  1
  Ti  Ti156  1  0.28952259  0.50024210  0.85078044  1
  Ti  Ti157  1  -0.00807168  0.00147039  0.74291553  1
  Ti  Ti158  1  0.19255194  0.59562566  -0.01694351  1
  Ti  Ti159  1  0.50556719  0.50160274  0.86771761  1
  Mo  Mo160  1  0.59501074  0.60358205  0.26126575  1
  Mo  Mo161  1  0.09675566  0.70537432  0.41306523  1
  Mo  Mo162  1  0.20361655  0.60290474  0.74040329  1
  Mo  Mo163  1  0.21332980  0.38890709  0.76004099  1
  Mo  Mo164  1  0.59604530  -0.00525030  0.76465371  1
  Mo  Mo165  1  0.10324925  0.50475463  0.85364776  1
  Mo  Mo166  1  0.69994623  0.89963473  0.86518478  1
  Mo  Mo167  1  0.31164185  0.51481532  0.40000421  1
  Mo  Mo168  1  0.80579697  -0.00202522  0.76475687  1
  Mo  Mo169  1  0.40697646  0.40161135  0.51739601  1
  Mo  Mo170  1  0.80635991  0.59650931  0.74010577  1
  Mo  Mo171  1  0.10116411  0.69036779  0.11075803  1
  Mo  Mo172  1  0.79556347  0.79664207  0.48817584  1
  Mo  Mo173  1  0.49111866  0.70485152  0.10543233  1
  Mo  Mo174  1  0.00531564  0.39517467  0.75545221  1
  Mo  Mo175  1  0.30376619  0.70664321  0.61828454  1
  Mo  Mo176  1  0.69035178  0.89910064  0.64562690  1
  Mo  Mo177  1  0.80579555  0.38887940  0.74492524  1
  Mo  Mo178  1  0.40081727  0.20120958  0.01386898  1
  Mo  Mo179  1  -0.01066171  0.60624282  0.26143823  1
  Mo  Mo180  1  0.39517101  0.80016600  0.00570315  1
  Mo  Mo181  1  0.19093282  0.20958348  0.01163184  1
  Mo  Mo182  1  0.79324309  -0.00736265  0.49525624  1
  Mo  Mo183  1  0.40915484  0.40785309  0.24633874  1
  Mo  Mo184  1  0.80682253  0.19753465  0.01021768  1
  Mo  Mo185  1  -0.00776802  0.40020128  0.26476518  1
  Mo  Mo186  1  0.80380450  -0.00412483  0.23934080  1
  Mo  Mo187  1  0.20711679  0.80404676  0.27405499  1
  Mo  Mo188  1  0.20446122  0.19279249  0.24736105  1
  Mo  Mo189  1  0.49277396  0.30364521  0.61653948  1
  Mo  Mo190  1  -0.00214036  0.79283575  -0.02530888  1
  Mo  Mo191  1  0.89894779  0.88936440  0.11235456  1
  Mo  Mo192  1  0.00062513  -0.00412507  0.51325806  1
  Mo  Mo193  1  0.79530859  0.80077969  0.77177633  1
  Mo  Mo194  1  0.70018391  0.50255112  0.12236205  1
  Mo  Mo195  1  0.70175074  0.49865252  0.64227104  1
  Mo  Mo196  1  0.59883101  0.59797533  -0.03124365  1
  Mo  Mo197  1  0.49686983  0.50316877  0.64543599  1
  Mo  Mo198  1  0.59913960  0.79570788  -0.01570899  1
  Mo  Mo199  1  0.09805771  0.09287210  0.35236701  1
