# generated using pymatgen
data_HfZrTaTiMo
_symmetry_space_group_name_H-M   'P 1'
_cell_length_a   15.85341172
_cell_length_b   15.83846543
_cell_length_c   15.37283946
_cell_angle_alpha   89.96151545
_cell_angle_beta   90.03837760
_cell_angle_gamma   89.89319603
_symmetry_Int_Tables_number   1
_chemical_formula_structural   HfZrTaTiMo
_chemical_formula_sum   'Hf40 Zr40 Ta40 Ti40 Mo40'
_cell_volume   3860.01489763
_cell_formula_units_Z   40
loop_
 _symmetry_equiv_pos_site_id
 _symmetry_equiv_pos_as_xyz
  1  'x, y, z'
loop_
 _atom_site_type_symbol
 _atom_site_label
 _atom_site_symmetry_multiplicity
 _atom_site_fract_x
 _atom_site_fract_y
 _atom_site_fract_z
 _atom_site_occupancy
  Hf  Hf0  1  0.10873744  0.30947839  0.39698554  1
  Hf  Hf1  1  0.49790276  0.50701601  0.38396758  1
  Hf  Hf2  1  0.39908142  0.61197643  0.51258971  1
  Hf  Hf3  1  0.69887302  0.69148457  0.36631304  1
  Hf  Hf4  1  0.70498749  0.30307647  0.87652035  1
  Hf  Hf5  1  0.70823478  0.90539127  0.61084078  1
  Hf  Hf6  1  0.00306134  0.79940773  0.00230081  1
  Hf  Hf7  1  0.50414189  0.30200287  0.86421605  1
  Hf  Hf8  1  0.29465877  0.08870254  0.13572522  1
  Hf  Hf9  1  0.49428294  0.30632603  0.38192105  1
  Hf  Hf10  1  0.38128295  -0.00025733  0.51042297  1
  Hf  Hf11  1  0.20936123  0.80563130  0.22458868  1
  Hf  Hf12  1  0.11016960  0.31329018  0.62586541  1
  Hf  Hf13  1  0.79698174  0.59734650  0.00489418  1
  Hf  Hf14  1  0.50265304  0.11004279  0.86101007  1
  Hf  Hf15  1  0.48003364  0.91182200  0.12341546  1
  Hf  Hf16  1  0.79716924  0.58049718  0.51857296  1
  Hf  Hf17  1  0.28548016  0.31176793  0.11780890  1
  Hf  Hf18  1  0.90293871  0.30576083  0.60958182  1
  Hf  Hf19  1  0.59267238  0.60433928  0.23765680  1
  Hf  Hf20  1  0.70758165  0.10852618  0.87230562  1
  Hf  Hf21  1  0.03387366  0.39264956  0.24177487  1
  Hf  Hf22  1  0.09941988  0.50580152  0.38873187  1
  Hf  Hf23  1  0.81092840  -0.01828944  0.25285757  1
  Hf  Hf24  1  0.59226683  0.00415712  0.49531988  1
  Hf  Hf25  1  0.50136974  0.90039509  0.63081478  1
  Hf  Hf26  1  -0.00489849  0.60287645  0.52429957  1
  Hf  Hf27  1  0.40059633  0.59231296  -0.01354578  1
  Hf  Hf28  1  0.71151308  0.30530706  0.36392429  1
  Hf  Hf29  1  0.80371818  0.59915902  0.74056981  1
  Hf  Hf30  1  0.39086409  -0.00488113  0.75876657  1
  Hf  Hf31  1  0.09251517  0.92430270  0.12306476  1
  Hf  Hf32  1  0.20922940  0.80303704  0.52254637  1
  Hf  Hf33  1  0.92424268  0.08383388  0.14158395  1
  Hf  Hf34  1  0.50495549  0.90527523  0.88240767  1
  Hf  Hf35  1  0.58930190  0.40839933  0.24594366  1
  Hf  Hf36  1  0.48210425  0.30997464  0.12070818  1
  Hf  Hf37  1  0.48814251  0.89156477  0.36889198  1
  Hf  Hf38  1  0.70621344  0.30346571  0.13740523  1
  Hf  Hf39  1  0.59854288  0.20198891  0.01539249  1
  Zr  Zr40  1  0.80248090  0.79373095  0.01043365  1
  Zr  Zr41  1  0.38626131  0.80151806  -0.00721223  1
  Zr  Zr42  1  0.60711135  0.80963542  0.75462024  1
  Zr  Zr43  1  0.89306792  0.29190534  0.86764767  1
  Zr  Zr44  1  0.90132300  0.09716482  0.37411731  1
  Zr  Zr45  1  0.89937956  0.49177740  0.36601279  1
  Zr  Zr46  1  0.69646418  0.89322449  0.37816777  1
  Zr  Zr47  1  0.48428205  0.09560652  0.36362600  1
  Zr  Zr48  1  0.29541866  0.50045544  0.39176468  1
  Zr  Zr49  1  0.30509433  0.49151802  0.63476364  1
  Zr  Zr50  1  0.29934954  0.70761596  0.37311497  1
  Zr  Zr51  1  0.00236605  0.18546792  -0.00626981  1
  Zr  Zr52  1  -0.00311582  0.19651326  0.74579672  1
  Zr  Zr53  1  0.59069238  0.19485692  0.23830513  1
  Zr  Zr54  1  0.20661531  0.18798104  0.50939245  1
  Zr  Zr55  1  0.81083144  0.78348041  0.49873218  1
  Zr  Zr56  1  0.10448474  0.89219558  0.36247388  1
  Zr  Zr57  1  0.49246722  0.11010614  0.63761707  1
  Zr  Zr58  1  0.90542383  0.30230110  0.37573523  1
  Zr  Zr59  1  0.69906194  0.69689803  0.87035360  1
  Zr  Zr60  1  0.60072819  0.20276800  0.50045864  1
  Zr  Zr61  1  0.01176746  0.38638015  -0.00529810  1
  Zr  Zr62  1  0.91195697  0.68869124  0.35647133  1
  Zr  Zr63  1  0.90855684  0.28774190  0.14420631  1
  Zr  Zr64  1  0.69938273  0.90307795  0.12156981  1
  Zr  Zr65  1  0.59534348  0.02068484  0.01783624  1
  Zr  Zr66  1  0.89740372  0.49247007  0.87696364  1
  Zr  Zr67  1  0.59922966  0.60589583  0.50749866  1
  Zr  Zr68  1  0.11995567  0.50213060  0.10956003  1
  Zr  Zr69  1  0.91023296  0.49966126  0.13409346  1
  Zr  Zr70  1  0.90908236  0.90851516  0.61271298  1
  Zr  Zr71  1  0.59540038  0.41390182  0.00271965  1
  Zr  Zr72  1  0.00304110  0.59816331  0.75092912  1
  Zr  Zr73  1  0.19200705  0.19817137  0.00034211  1
  Zr  Zr74  1  0.01578157  0.79591545  0.50946057  1
  Zr  Zr75  1  0.49130948  0.31356918  0.62591098  1
  Zr  Zr76  1  0.01252157  0.18540354  0.50253401  1
  Zr  Zr77  1  0.18650834  -0.00480317  0.51055085  1
  Zr  Zr78  1  0.89234073  0.09113259  0.61053509  1
  Zr  Zr79  1  0.70615507  0.91143723  0.88778529  1
  Ta  Ta80  1  0.81130007  0.80448855  0.74830877  1
  Ta  Ta81  1  -0.00005295  0.80104325  0.75466913  1
  Ta  Ta82  1  0.80069094  0.39601773  0.01182202  1
  Ta  Ta83  1  0.69750323  0.70545511  0.63196511  1
  Ta  Ta84  1  0.18947012  0.21369667  0.24777209  1
  Ta  Ta85  1  0.79991691  0.79247488  0.23998232  1
  Ta  Ta86  1  0.59440340  0.79896532  0.23354848  1
  Ta  Ta87  1  0.59505343  0.79178368  0.00995490  1
  Ta  Ta88  1  0.09817893  0.90256027  0.87447225  1
  Ta  Ta89  1  0.90179787  0.90458806  0.88428420  1
  Ta  Ta90  1  0.90753393  0.69188452  0.13432604  1
  Ta  Ta91  1  0.30542872  0.49766400  0.11293994  1
  Ta  Ta92  1  0.30033986  0.30334910  0.38240661  1
  Ta  Ta93  1  0.30132094  0.69563700  0.65070874  1
  Ta  Ta94  1  0.39277791  0.80457306  0.76039447  1
  Ta  Ta95  1  0.10622364  0.69530488  0.35826825  1
  Ta  Ta96  1  0.39866117  0.80065663  0.51892857  1
  Ta  Ta97  1  0.61016615  0.00952082  0.74302973  1
  Ta  Ta98  1  0.09685652  0.69430791  0.13113713  1
  Ta  Ta99  1  0.38513525  0.00942656  -0.01363522  1
  Ta  Ta100  1  0.39620902  0.19603334  -0.00360679  1
  Ta  Ta101  1  0.19956445  0.80490780  0.75653303  1
  Ta  Ta102  1  0.70300196  0.10010846  0.36378405  1
  Ta  Ta103  1  0.48960609  0.69952683  0.11876013  1
  Ta  Ta104  1  0.59451741  0.00089335  0.24284358  1
  Ta  Ta105  1  0.61645325  0.40909704  0.50735108  1
  Ta  Ta106  1  0.59730298  0.60155992  0.00809561  1
  Ta  Ta107  1  0.70556725  0.50260065  0.13470650  1
  Ta  Ta108  1  0.39500923  0.59974850  0.23853756  1
  Ta  Ta109  1  0.38952411  0.40895225  0.25339286  1
  Ta  Ta110  1  0.29424875  0.69432285  0.86651040  1
  Ta  Ta111  1  0.29218841  0.09894272  0.35908073  1
  Ta  Ta112  1  0.49649157  0.70006846  0.64846002  1
  Ta  Ta113  1  0.79515740  0.40076015  0.72975983  1
  Ta  Ta114  1  0.19264149  0.60922215  0.52013980  1
  Ta  Ta115  1  0.79935540  0.19063164  0.01912225  1
  Ta  Ta116  1  0.39359236  0.39987160  -0.02374078  1
  Ta  Ta117  1  0.39283111  0.19724926  0.49997356  1
  Ta  Ta118  1  0.50039868  0.69707666  0.86863595  1
  Ta  Ta119  1  0.28859175  0.10792725  0.86404141  1
  Ti  Ti120  1  0.70535161  0.09606932  0.61512247  1
  Ti  Ti121  1  0.20448936  0.59049021  0.24739269  1
  Ti  Ti122  1  0.30325021  0.30568890  0.61609298  1
  Ti  Ti123  1  0.61592774  0.20715153  0.73272629  1
  Ti  Ti124  1  0.58929185  0.79136230  0.50415966  1
  Ti  Ti125  1  0.79988875  -0.00169735  0.75183091  1
  Ti  Ti126  1  0.39195195  0.79777929  0.23100276  1
  Ti  Ti127  1  0.00899150  0.59899974  -0.00908899  1
  Ti  Ti128  1  0.19529227  0.00327250  -0.00946752  1
  Ti  Ti129  1  0.79731538  0.20001359  0.73392065  1
  Ti  Ti130  1  0.29368776  0.10465147  0.64539949  1
  Ti  Ti131  1  0.60802100  0.40167173  0.73867280  1
  Ti  Ti132  1  0.49706643  0.50048620  0.63258134  1
  Ti  Ti133  1  0.71032377  0.49652901  0.36002448  1
  Ti  Ti134  1  0.10116191  0.09627638  0.85693290  1
  Ti  Ti135  1  0.10397257  0.69780797  0.87631380  1
  Ti  Ti136  1  -0.01005356  0.81130579  0.23939966  1
  Ti  Ti137  1  0.38943088  0.20594679  0.24653735  1
  Ti  Ti138  1  0.19569404  0.58725904  0.75976905  1
  Ti  Ti139  1  0.69899933  0.49603816  0.87137098  1
  Ti  Ti140  1  0.79178019  0.20207933  0.49855008  1
  Ti  Ti141  1  0.89455877  0.09407915  0.87690791  1
  Ti  Ti142  1  0.90213971  0.70211023  0.87527175  1
  Ti  Ti143  1  0.10522942  0.70162202  0.64702385  1
  Ti  Ti144  1  0.30094556  0.90465107  0.36746155  1
  Ti  Ti145  1  0.19613393  0.80009222  -0.00124640  1
  Ti  Ti146  1  0.37962435  0.21827662  0.75715595  1
  Ti  Ti147  1  0.09401689  0.08557594  0.63982153  1
  Ti  Ti148  1  0.60337974  0.59559450  0.74413836  1
  Ti  Ti149  1  0.50136849  0.50190510  0.85444759  1
  Ti  Ti150  1  0.10911000  0.29297259  0.85637316  1
  Ti  Ti151  1  0.49242253  0.70691144  0.36514936  1
  Ti  Ti152  1  0.19954957  -0.00891845  0.74926939  1
  Ti  Ti153  1  0.20433625  0.40841907  -0.02958240  1
  Ti  Ti154  1  0.21220686  0.39472926  0.76448770  1
  Ti  Ti155  1  0.10122779  0.09226625  0.35578277  1
  Ti  Ti156  1  -0.00664343  -0.00643474  0.76020738  1
  Ti  Ti157  1  0.81162777  0.00653327  0.01526878  1
  Ti  Ti158  1  0.00646010  0.40816414  0.74864245  1
  Ti  Ti159  1  0.28836426  0.68618474  0.10825777  1
  Mo  Mo160  1  0.40492013  0.60059494  0.75803589  1
  Mo  Mo161  1  0.30062661  0.50046794  0.86336904  1
  Mo  Mo162  1  0.10564232  0.30037054  0.11856002  1
  Mo  Mo163  1  0.19856366  0.60804902  -0.01574853  1
  Mo  Mo164  1  0.00202941  -0.00991357  0.26684707  1
  Mo  Mo165  1  0.79951188  0.60142855  0.23944354  1
  Mo  Mo166  1  0.71463356  0.10045743  0.14567495  1
  Mo  Mo167  1  0.49018450  0.50300417  0.12187807  1
  Mo  Mo168  1  0.10744602  0.49842053  0.62714126  1
  Mo  Mo169  1  0.70196789  0.29826130  0.62102127  1
  Mo  Mo170  1  0.01299954  0.19752960  0.26161104  1
  Mo  Mo171  1  0.00288666  -0.00863061  0.48296854  1
  Mo  Mo172  1  0.69180020  0.50015152  0.63602610  1
  Mo  Mo173  1  0.38955558  -0.01099379  0.25158546  1
  Mo  Mo174  1  0.90475756  0.49166729  0.63238877  1
  Mo  Mo175  1  0.20096613  0.00133837  0.25120879  1
  Mo  Mo176  1  0.90545219  0.89336966  0.38694410  1
  Mo  Mo177  1  0.10311611  0.49778984  0.87453902  1
  Mo  Mo178  1  0.00155164  0.41214389  0.51483852  1
  Mo  Mo179  1  0.10126314  0.10577234  0.14411586  1
  Mo  Mo180  1  0.80292004  0.19190606  0.24521106  1
  Mo  Mo181  1  0.19954038  0.19875250  0.74202743  1
  Mo  Mo182  1  0.29919664  0.89711222  0.63943213  1
  Mo  Mo183  1  0.69665961  0.69802853  0.13098822  1
  Mo  Mo184  1  0.90444741  0.89360476  0.11116097  1
  Mo  Mo185  1  0.29792218  0.29630368  0.88091994  1
  Mo  Mo186  1  0.80176613  0.40129932  0.23956908  1
  Mo  Mo187  1  0.79302582  0.39832556  0.51110512  1
  Mo  Mo188  1  0.28730830  0.90291789  0.88336400  1
  Mo  Mo189  1  0.79395238  -0.00078736  0.47746158  1
  Mo  Mo190  1  0.40730259  0.39970419  0.49712622  1
  Mo  Mo191  1  0.20606348  0.40504787  0.50831721  1
  Mo  Mo192  1  0.40082563  0.40140597  0.76579994  1
  Mo  Mo193  1  0.00493177  0.00375592  -0.02020330  1
  Mo  Mo194  1  0.90009766  0.70337385  0.64029232  1
  Mo  Mo195  1  0.01442663  0.60014874  0.24560493  1
  Mo  Mo196  1  0.48190978  0.10515096  0.13351421  1
  Mo  Mo197  1  0.21333380  0.40320328  0.25523948  1
  Mo  Mo198  1  0.09790866  0.90269920  0.65054447  1
  Mo  Mo199  1  0.29078335  0.90013193  0.10333534  1
