# generated using pymatgen
data_HfZrTaTiMo
_symmetry_space_group_name_H-M   'P 1'
_cell_length_a   15.84172424
_cell_length_b   15.83883528
_cell_length_c   15.42277500
_cell_angle_alpha   89.94149833
_cell_angle_beta   90.11611511
_cell_angle_gamma   89.96852661
_symmetry_Int_Tables_number   1
_chemical_formula_structural   HfZrTaTiMo
_chemical_formula_sum   'Hf40 Zr40 Ta40 Ti40 Mo40'
_cell_volume   3869.78672041
_cell_formula_units_Z   40
loop_
 _symmetry_equiv_pos_site_id
 _symmetry_equiv_pos_as_xyz
  1  'x, y, z'
loop_
 _atom_site_type_symbol
 _atom_site_label
 _atom_site_symmetry_multiplicity
 _atom_site_fract_x
 _atom_site_fract_y
 _atom_site_fract_z
 _atom_site_occupancy
  Hf  Hf0  1  0.11134419  0.70598190  0.12010203  1
  Hf  Hf1  1  0.70637122  0.91650263  0.37561700  1
  Hf  Hf2  1  0.69739606  0.10960801  0.36427957  1
  Hf  Hf3  1  -0.00697875  0.01072773  0.24836366  1
  Hf  Hf4  1  0.08521838  0.30577736  0.09659379  1
  Hf  Hf5  1  0.70879378  0.30672720  0.35994083  1
  Hf  Hf6  1  0.90265271  0.69484767  0.61362782  1
  Hf  Hf7  1  0.00562180  0.60135504  0.24898169  1
  Hf  Hf8  1  0.60068117  0.60919945  0.26721039  1
  Hf  Hf9  1  0.80336408  0.82002350  0.51760080  1
  Hf  Hf10  1  0.29265123  0.11901563  0.63599600  1
  Hf  Hf11  1  0.40396630  0.60866109  0.74822407  1
  Hf  Hf12  1  0.49811303  0.10849252  0.37727556  1
  Hf  Hf13  1  0.79788410  0.79632484  0.25126605  1
  Hf  Hf14  1  0.49959589  0.30525676  0.89037651  1
  Hf  Hf15  1  0.50063715  0.70199044  0.11427543  1
  Hf  Hf16  1  0.81370449  0.19584439  0.22509210  1
  Hf  Hf17  1  0.49771478  0.89385465  0.11608287  1
  Hf  Hf18  1  0.40638353  0.79121162  0.26772711  1
  Hf  Hf19  1  0.20462040  0.59061336  0.51165280  1
  Hf  Hf20  1  0.39229840  0.18988051  -0.00438149  1
  Hf  Hf21  1  0.39805304  0.38695288  0.51168141  1
  Hf  Hf22  1  0.90596143  0.89900674  0.12290649  1
  Hf  Hf23  1  0.79893307  0.80380128  0.00086394  1
  Hf  Hf24  1  0.00580686  0.21982120  0.25557857  1
  Hf  Hf25  1  0.19985736  0.79472365  0.27279044  1
  Hf  Hf26  1  0.89046518  0.48493456  0.36648419  1
  Hf  Hf27  1  0.30432473  0.29605712  0.35749518  1
  Hf  Hf28  1  0.29866401  0.88897576  0.12998996  1
  Hf  Hf29  1  0.11008857  0.90832232  0.13679439  1
  Hf  Hf30  1  0.48075649  0.89865190  0.86308186  1
  Hf  Hf31  1  0.79180089  0.02045582  0.01381983  1
  Hf  Hf32  1  0.88945992  0.09287516  0.39145969  1
  Hf  Hf33  1  0.00458879  0.59875239  -0.00336152  1
  Hf  Hf34  1  0.90372219  0.69680994  0.38938722  1
  Hf  Hf35  1  0.40130459  -0.00673378  0.25854514  1
  Hf  Hf36  1  0.00420843  0.59696399  0.74539974  1
  Hf  Hf37  1  0.89634844  0.29284266  0.62909349  1
  Hf  Hf38  1  0.10125587  0.10856306  0.12976963  1
  Hf  Hf39  1  0.28654425  0.08757168  0.13580899  1
  Zr  Zr40  1  0.89588888  0.29562944  0.38900206  1
  Zr  Zr41  1  0.19767630  -0.01103106  -0.02194013  1
  Zr  Zr42  1  0.28520742  0.29936525  0.11831437  1
  Zr  Zr43  1  0.00667348  0.39262347  0.51350566  1
  Zr  Zr44  1  0.01596777  0.18734400  0.50458251  1
  Zr  Zr45  1  0.49663326  0.09326693  0.11740248  1
  Zr  Zr46  1  0.61325508  0.01506388  0.52364825  1
  Zr  Zr47  1  0.18809190  0.18899101  -0.02811368  1
  Zr  Zr48  1  0.49102177  0.51307229  0.11323817  1
  Zr  Zr49  1  0.60172527  0.80379507  -0.01850396  1
  Zr  Zr50  1  0.30304241  0.49941580  0.86762345  1
  Zr  Zr51  1  0.90675445  0.89839064  0.37613389  1
  Zr  Zr52  1  0.89823149  0.90980586  0.86906255  1
  Zr  Zr53  1  0.18993365  0.00626079  0.50242232  1
  Zr  Zr54  1  0.90276113  0.70447867  0.87420674  1
  Zr  Zr55  1  0.09677776  0.49591040  0.37754775  1
  Zr  Zr56  1  0.50354606  0.69726974  0.39932706  1
  Zr  Zr57  1  0.10725391  0.49586930  0.11545644  1
  Zr  Zr58  1  0.21262991  0.20493412  0.49019510  1
  Zr  Zr59  1  0.61481055  0.19171895  -0.00030227  1
  Zr  Zr60  1  0.80170743  0.01542973  0.72061063  1
  Zr  Zr61  1  0.60119680  0.41414769  0.49381875  1
  Zr  Zr62  1  0.69718905  0.70283354  0.12301710  1
  Zr  Zr63  1  0.60427144  0.81466427  0.51458024  1
  Zr  Zr64  1  0.59468159  0.79627139  0.74537666  1
  Zr  Zr65  1  0.50546591  0.29915087  0.63720059  1
  Zr  Zr66  1  0.30761279  0.68514056  0.39175069  1
  Zr  Zr67  1  0.79636333  0.59543596  0.75108725  1
  Zr  Zr68  1  0.49574320  0.29962668  0.36222996  1
  Zr  Zr69  1  0.20386456  0.60848924  0.74537997  1
  Zr  Zr70  1  0.39845838  0.00926855  0.51234771  1
  Zr  Zr71  1  0.69758636  0.91605910  0.86162538  1
  Zr  Zr72  1  0.00237191  0.39332930  0.75201877  1
  Zr  Zr73  1  0.50596030  0.68799796  0.61717540  1
  Zr  Zr74  1  0.39512761  0.20671016  0.76713104  1
  Zr  Zr75  1  0.59563272  0.40467050  0.24565600  1
  Zr  Zr76  1  0.01342419  0.80854744  -0.00468811  1
  Zr  Zr77  1  0.31092007  0.68974543  0.11702289  1
  Zr  Zr78  1  0.70498138  0.50371408  0.13101888  1
  Zr  Zr79  1  0.89839246  0.49182183  0.87929755  1
  Ta  Ta80  1  0.59985551  0.80805941  0.26361029  1
  Ta  Ta81  1  0.70107521  0.68981276  0.61821501  1
  Ta  Ta82  1  0.78156508  0.19029471  0.52203602  1
  Ta  Ta83  1  -0.00194822  0.00290268  0.73891154  1
  Ta  Ta84  1  0.79866578  0.80174745  0.73518216  1
  Ta  Ta85  1  0.70320034  0.30082258  0.12261209  1
  Ta  Ta86  1  0.80202473  0.39422108  0.00431840  1
  Ta  Ta87  1  0.00404257  0.01252459  -0.00735381  1
  Ta  Ta88  1  0.30144583  0.48922949  0.37391310  1
  Ta  Ta89  1  0.20949926  0.60026365  -0.01258870  1
  Ta  Ta90  1  0.49853552  0.50219846  0.88449214  1
  Ta  Ta91  1  0.21108108  0.59128567  0.25252515  1
  Ta  Ta92  1  0.00137879  0.79936644  0.74040992  1
  Ta  Ta93  1  0.48453644  0.50355364  0.36827491  1
  Ta  Ta94  1  0.10885168  0.70285873  0.86937723  1
  Ta  Ta95  1  0.10283567  0.70483487  0.61654423  1
  Ta  Ta96  1  0.60094430  0.59611615  0.76722420  1
  Ta  Ta97  1  -0.00181194  0.18931256  0.75538776  1
  Ta  Ta98  1  0.09583016  0.70105390  0.39366362  1
  Ta  Ta99  1  0.30310930  0.49014816  0.63595592  1
  Ta  Ta100  1  0.69581627  0.29994978  0.64841712  1
  Ta  Ta101  1  0.71143402  0.29891932  0.87286017  1
  Ta  Ta102  1  0.20290257  0.80343213  0.50193037  1
  Ta  Ta103  1  0.18471658  0.39116021  0.25219745  1
  Ta  Ta104  1  0.39785287  0.80870799  0.51642159  1
  Ta  Ta105  1  0.78680424  0.58254126  0.49611830  1
  Ta  Ta106  1  0.79985499  0.59621100  -0.00027499  1
  Ta  Ta107  1  0.50401922  0.90701364  0.38682400  1
  Ta  Ta108  1  0.29392832  0.89484611  0.63656178  1
  Ta  Ta109  1  0.60330651  0.40706977  0.76950561  1
  Ta  Ta110  1  0.20341144  0.39173674  0.50911597  1
  Ta  Ta111  1  0.19444947  0.00188121  0.74643023  1
  Ta  Ta112  1  0.11737106  0.28147716  0.64432730  1
  Ta  Ta113  1  0.10034061  0.89629809  0.62729975  1
  Ta  Ta114  1  0.68770228  0.49942849  0.63342426  1
  Ta  Ta115  1  0.79799740  0.00485206  0.23049077  1
  Ta  Ta116  1  0.90134580  0.69179403  0.12356326  1
  Ta  Ta117  1  0.50393689  0.09110755  0.87054486  1
  Ta  Ta118  1  0.90743950  0.48676262  0.12678544  1
  Ta  Ta119  1  0.49853410  0.30615634  0.11164056  1
  Ti  Ti120  1  0.70382358  0.70179387  0.39331223  1
  Ti  Ti121  1  0.59455776  0.00512213  0.73740866  1
  Ti  Ti122  1  0.59764143  0.19955114  0.23095373  1
  Ti  Ti123  1  0.89952514  0.29034746  0.88231889  1
  Ti  Ti124  1  0.59847392  0.00005449  0.24621919  1
  Ti  Ti125  1  0.10527690  0.49144341  0.63015950  1
  Ti  Ti126  1  0.21402556  0.80210095  -0.02220906  1
  Ti  Ti127  1  0.09387567  0.90098696  0.38306194  1
  Ti  Ti128  1  0.89148679  0.10740264  0.87734513  1
  Ti  Ti129  1  0.59692843  0.21247376  0.50338687  1
  Ti  Ti130  1  0.20317127  0.39034358  0.75179470  1
  Ti  Ti131  1  0.38514912  0.41068995  0.00837275  1
  Ti  Ti132  1  0.38857750  -0.01086562  -0.00913958  1
  Ti  Ti133  1  0.78757616  0.39485076  0.51101701  1
  Ti  Ti134  1  0.40518389  0.57850842  0.51970096  1
  Ti  Ti135  1  -0.01091656  -0.00879588  0.52279547  1
  Ti  Ti136  1  0.89061915  0.49514314  0.62295833  1
  Ti  Ti137  1  0.40641801  0.40299287  0.74906927  1
  Ti  Ti138  1  0.29253807  0.30800692  0.88059081  1
  Ti  Ti139  1  0.10127681  0.89597938  0.85401719  1
  Ti  Ti140  1  0.60731280  0.59926049  -0.01870764  1
  Ti  Ti141  1  0.00036712  0.58862093  0.50729271  1
  Ti  Ti142  1  0.30294890  0.08416618  0.86049450  1
  Ti  Ti143  1  0.30019971  0.90500926  0.38536159  1
  Ti  Ti144  1  0.70627031  0.69997833  0.87031846  1
  Ti  Ti145  1  0.60059295  0.00164105  -0.00359845  1
  Ti  Ti146  1  0.00232541  0.79449969  0.25053235  1
  Ti  Ti147  1  0.79720771  0.40008786  0.75488397  1
  Ti  Ti148  1  0.30102070  0.10231109  0.36368217  1
  Ti  Ti149  1  0.10981821  0.10218525  0.35855023  1
  Ti  Ti150  1  0.69148416  0.90233110  0.12906732  1
  Ti  Ti151  1  0.60984053  0.40577613  -0.00334326  1
  Ti  Ti152  1  0.80126709  0.59932710  0.25727222  1
  Ti  Ti153  1  0.39970665  -0.00179662  0.73519216  1
  Ti  Ti154  1  0.50113859  0.11523221  0.63669904  1
  Ti  Ti155  1  0.70372460  0.11181640  0.85511158  1
  Ti  Ti156  1  0.40147392  0.20180245  0.22931551  1
  Ti  Ti157  1  0.48688706  0.70241834  0.88271088  1
  Ti  Ti158  1  0.10563324  0.48960724  0.87915183  1
  Ti  Ti159  1  0.38668435  0.41292779  0.22933216  1
  Mo  Mo160  1  0.90210481  0.10371915  0.61315178  1
  Mo  Mo161  1  0.19832667  0.79893130  0.74690008  1
  Mo  Mo162  1  0.90978491  0.10536331  0.10976895  1
  Mo  Mo163  1  0.79938321  0.00884803  0.51559745  1
  Mo  Mo164  1  0.39301370  0.80456870  -0.00849014  1
  Mo  Mo165  1  0.68582769  0.11958418  0.64243329  1
  Mo  Mo166  1  0.08982416  0.09054588  0.85711052  1
  Mo  Mo167  1  0.90325688  0.30088298  0.10299375  1
  Mo  Mo168  1  -0.00069208  0.39910932  0.24872200  1
  Mo  Mo169  1  0.69972969  0.49616026  0.88556449  1
  Mo  Mo170  1  0.80238927  0.20305729  0.00708824  1
  Mo  Mo171  1  0.19974550  -0.00462389  0.27337551  1
  Mo  Mo172  1  0.09882434  0.09801112  0.63880977  1
  Mo  Mo173  1  0.90484470  0.89820500  0.63168660  1
  Mo  Mo174  1  0.39734406  0.59300329  0.25585423  1
  Mo  Mo175  1  0.80527686  0.20760406  0.74688008  1
  Mo  Mo176  1  0.09631930  0.29923585  0.86761330  1
  Mo  Mo177  1  -0.00179412  0.39728247  -0.02069245  1
  Mo  Mo178  1  0.29797797  0.89744638  0.84706672  1
  Mo  Mo179  1  0.60457947  0.59170008  0.49046679  1
  Mo  Mo180  1  0.30107410  0.69876460  0.60953702  1
  Mo  Mo181  1  0.40767495  0.19988970  0.50582912  1
  Mo  Mo182  1  0.30599526  0.70926451  0.88038844  1
  Mo  Mo183  1  0.80755333  0.39428715  0.22844905  1
  Mo  Mo184  1  0.49295793  0.90591849  0.63637768  1
  Mo  Mo185  1  0.69441923  0.09755924  0.13725478  1
  Mo  Mo186  1  -0.00656134  0.19392901  -0.02187704  1
  Mo  Mo187  1  0.69743395  0.90223387  0.64083138  1
  Mo  Mo188  1  0.29302824  0.50055656  0.12287340  1
  Mo  Mo189  1  0.10613231  0.30279814  0.37706995  1
  Mo  Mo190  1  0.29789461  0.30635255  0.64027947  1
  Mo  Mo191  1  0.00762722  0.80102941  0.51027723  1
  Mo  Mo192  1  0.70420225  0.50111884  0.36160665  1
  Mo  Mo193  1  0.19688923  0.20026958  0.77038175  1
  Mo  Mo194  1  0.50540370  0.49665582  0.64497684  1
  Mo  Mo195  1  0.40032817  0.60318248  -0.01895820  1
  Mo  Mo196  1  0.39157317  0.79626218  0.73168359  1
  Mo  Mo197  1  0.59929754  0.20376241  0.77280478  1
  Mo  Mo198  1  0.19967844  0.40195425  -0.01662131  1
  Mo  Mo199  1  0.19932486  0.20181790  0.25562683  1
