# generated using pymatgen
data_HfZrTaTiMo
_symmetry_space_group_name_H-M   'P 1'
_cell_length_a   15.82078890
_cell_length_b   15.84866997
_cell_length_c   15.39590790
_cell_angle_alpha   90.02382161
_cell_angle_beta   90.00776368
_cell_angle_gamma   89.99560876
_symmetry_Int_Tables_number   1
_chemical_formula_structural   HfZrTaTiMo
_chemical_formula_sum   'Hf40 Zr40 Ta40 Ti40 Mo40'
_cell_volume   3860.34588468
_cell_formula_units_Z   40
loop_
 _symmetry_equiv_pos_site_id
 _symmetry_equiv_pos_as_xyz
  1  'x, y, z'
loop_
 _atom_site_type_symbol
 _atom_site_label
 _atom_site_symmetry_multiplicity
 _atom_site_fract_x
 _atom_site_fract_y
 _atom_site_fract_z
 _atom_site_occupancy
  Hf  Hf0  1  0.30074446  0.70892485  0.62059928  1
  Hf  Hf1  1  0.79379627  0.22523673  0.76175609  1
  Hf  Hf2  1  0.69999013  0.69376888  0.62267427  1
  Hf  Hf3  1  0.80158132  0.80020249  0.50596904  1
  Hf  Hf4  1  -0.02213961  0.40039093  0.74798758  1
  Hf  Hf5  1  0.20227803  0.40116471  0.01993805  1
  Hf  Hf6  1  0.69237853  0.50258533  0.13349562  1
  Hf  Hf7  1  0.00371939  0.00054211  -0.03011927  1
  Hf  Hf8  1  0.61549883  0.39423469  0.74189688  1
  Hf  Hf9  1  0.29378130  0.10152187  0.13290035  1
  Hf  Hf10  1  0.87915116  0.30841443  0.61089080  1
  Hf  Hf11  1  -0.00758936  0.19177154  0.49176946  1
  Hf  Hf12  1  0.90673942  0.90111903  0.11351265  1
  Hf  Hf13  1  0.20266955  0.78330297  -0.00047759  1
  Hf  Hf14  1  0.10337423  0.29026245  0.13541684  1
  Hf  Hf15  1  0.89637222  0.50336654  0.37109878  1
  Hf  Hf16  1  0.00528403  -0.00134792  0.75819692  1
  Hf  Hf17  1  0.10040708  0.49565747  0.87509490  1
  Hf  Hf18  1  0.19919937  0.60027821  0.24368408  1
  Hf  Hf19  1  0.40547341  0.00890287  0.00019650  1
  Hf  Hf20  1  0.30177470  0.28990017  0.14085395  1
  Hf  Hf21  1  0.30110095  0.49064794  0.86741583  1
  Hf  Hf22  1  0.39646175  -0.00728843  0.25744196  1
  Hf  Hf23  1  0.33338514  0.70194712  0.14364224  1
  Hf  Hf24  1  0.50606137  0.30551598  0.11459617  1
  Hf  Hf25  1  0.79464655  -0.00832910  -0.00782775  1
  Hf  Hf26  1  0.00611375  0.60054201  0.00326134  1
  Hf  Hf27  1  0.19782057  -0.00805306  0.74545726  1
  Hf  Hf28  1  0.20335892  0.59365578  0.73865141  1
  Hf  Hf29  1  0.90935657  0.30518380  0.12538258  1
  Hf  Hf30  1  0.60048877  -0.00002297  0.00690869  1
  Hf  Hf31  1  0.10660255  0.90320231  0.10621410  1
  Hf  Hf32  1  0.60712092  0.19976860  0.48408500  1
  Hf  Hf33  1  0.20455153  0.80283730  0.24540003  1
  Hf  Hf34  1  0.61069129  0.79802561  0.01134493  1
  Hf  Hf35  1  -0.00030312  0.19310764  0.27105262  1
  Hf  Hf36  1  0.20612458  0.59773583  0.01500093  1
  Hf  Hf37  1  0.40362216  0.59360620  0.73426287  1
  Hf  Hf38  1  0.69437314  0.29690469  0.12442769  1
  Hf  Hf39  1  0.80308234  0.01029902  0.50064406  1
  Zr  Zr40  1  0.19886945  0.20333199  0.49343271  1
  Zr  Zr41  1  0.90694745  0.69863451  0.12609813  1
  Zr  Zr42  1  0.01013284  0.79752128  0.24993506  1
  Zr  Zr43  1  0.40125568  0.20538722  0.75264126  1
  Zr  Zr44  1  0.59949100  0.59404189  0.48600606  1
  Zr  Zr45  1  0.10088571  0.31105086  0.86953592  1
  Zr  Zr46  1  0.59863199  0.58411755  0.73629944  1
  Zr  Zr47  1  0.50616193  0.10308865  0.62386920  1
  Zr  Zr48  1  0.79485674  0.61036773  0.01244263  1
  Zr  Zr49  1  0.30203484  0.89938737  0.88744462  1
  Zr  Zr50  1  0.40108756  0.60206306  -0.00852672  1
  Zr  Zr51  1  0.59693595  0.40400198  0.27076544  1
  Zr  Zr52  1  0.50300408  0.90319442  0.62149507  1
  Zr  Zr53  1  0.50729049  0.90111878  0.86604585  1
  Zr  Zr54  1  0.00062590  0.59874083  0.75143777  1
  Zr  Zr55  1  0.60087052  -0.00724318  0.23710679  1
  Zr  Zr56  1  0.20401042  0.59403950  0.49808493  1
  Zr  Zr57  1  0.39740935  0.00277416  0.49694006  1
  Zr  Zr58  1  0.49948237  0.31576520  0.89594046  1
  Zr  Zr59  1  0.80167104  0.00615263  0.24984359  1
  Zr  Zr60  1  0.90688482  0.10359985  0.11930275  1
  Zr  Zr61  1  0.79919969  0.57296102  0.74481166  1
  Zr  Zr62  1  0.79903385  0.19247419  -0.00444954  1
  Zr  Zr63  1  0.09974975  0.70923622  0.61990607  1
  Zr  Zr64  1  0.90801274  0.90100487  0.38161922  1
  Zr  Zr65  1  0.68802887  0.90257144  0.38593125  1
  Zr  Zr66  1  0.49573348  0.11642848  0.13611264  1
  Zr  Zr67  1  0.39956529  0.39785142  0.26304222  1
  Zr  Zr68  1  0.79507532  0.19940237  0.48192426  1
  Zr  Zr69  1  0.79260479  0.80312686  0.24108602  1
  Zr  Zr70  1  0.69176201  0.31199720  0.90953730  1
  Zr  Zr71  1  0.70250585  0.10106116  0.64190755  1
  Zr  Zr72  1  0.10588697  0.08080574  0.38429999  1
  Zr  Zr73  1  0.19892817  0.19677067  0.74958428  1
  Zr  Zr74  1  0.10344722  0.09903970  0.12220767  1
  Zr  Zr75  1  0.89994755  0.70013551  0.63055415  1
  Zr  Zr76  1  0.69851049  0.69949236  0.86156179  1
  Zr  Zr77  1  0.40994904  0.40233459  0.73211578  1
  Zr  Zr78  1  0.09154530  0.29979138  0.62611047  1
  Zr  Zr79  1  0.00200704  0.59897942  0.49098083  1
  Ta  Ta80  1  0.39391859  0.00366996  0.74546575  1
  Ta  Ta81  1  0.71098537  0.47232724  0.59640098  1
  Ta  Ta82  1  0.90013604  0.49092603  0.59950706  1
  Ta  Ta83  1  0.39424878  0.20225364  -0.01133409  1
  Ta  Ta84  1  0.59462411  0.79568966  0.24371116  1
  Ta  Ta85  1  0.20207748  0.19636605  -0.01363853  1
  Ta  Ta86  1  0.39632000  0.79955134  0.49634472  1
  Ta  Ta87  1  0.00528286  -0.00615569  0.25367175  1
  Ta  Ta88  1  0.00421975  0.20097436  -0.02185445  1
  Ta  Ta89  1  0.29113093  0.89866720  0.38524117  1
  Ta  Ta90  1  0.19409877  0.80358669  0.75747835  1
  Ta  Ta91  1  0.49810833  0.70152687  0.61939620  1
  Ta  Ta92  1  0.00769759  0.80751997  0.76660459  1
  Ta  Ta93  1  0.10443434  0.70443661  0.38048749  1
  Ta  Ta94  1  0.00528053  0.79499058  -0.02263986  1
  Ta  Ta95  1  0.68772720  0.09458488  0.86323273  1
  Ta  Ta96  1  0.89786355  0.69914288  0.87015226  1
  Ta  Ta97  1  0.59431357  0.20760957  0.76145657  1
  Ta  Ta98  1  0.90087928  0.90506462  0.63764634  1
  Ta  Ta99  1  0.60100828  0.80014106  0.73563740  1
  Ta  Ta100  1  0.29906294  0.30831029  0.61511527  1
  Ta  Ta101  1  0.79787370  0.20113689  0.25960957  1
  Ta  Ta102  1  0.29810006  0.30776090  0.87511974  1
  Ta  Ta103  1  0.29640616  0.50008778  0.36913669  1
  Ta  Ta104  1  0.50006853  0.70266445  0.85449483  1
  Ta  Ta105  1  0.00495395  0.39950066  0.26495051  1
  Ta  Ta106  1  0.59483869  0.60442356  0.26162578  1
  Ta  Ta107  1  0.39789727  0.39913120  0.48779103  1
  Ta  Ta108  1  0.48549299  0.88324689  0.12731555  1
  Ta  Ta109  1  0.39891343  0.20474936  0.48958388  1
  Ta  Ta110  1  0.30315162  0.90178286  0.11609707  1
  Ta  Ta111  1  0.59159912  0.61176290  0.01059275  1
  Ta  Ta112  1  0.30367831  0.69818525  0.85970309  1
  Ta  Ta113  1  0.30020286  0.10242956  0.62032391  1
  Ta  Ta114  1  0.10181740  0.48585859  0.62378755  1
  Ta  Ta115  1  0.70134280  0.70092496  0.37164193  1
  Ta  Ta116  1  0.69599062  0.49646268  0.89603697  1
  Ta  Ta117  1  0.48483880  0.51850212  0.14107491  1
  Ta  Ta118  1  0.08779191  0.49264981  0.13450164  1
  Ta  Ta119  1  0.89396607  0.49537240  0.89043279  1
  Ti  Ti120  1  0.89694109  0.30366084  0.37449880  1
  Ti  Ti121  1  0.19682351  -0.00649496  0.25138315  1
  Ti  Ti122  1  0.30183002  0.70473415  0.37495088  1
  Ti  Ti123  1  0.39499937  0.80753102  0.74024990  1
  Ti  Ti124  1  0.80284971  0.80562979  0.74717291  1
  Ti  Ti125  1  0.49804153  0.89407295  0.38051826  1
  Ti  Ti126  1  0.79975569  0.80217438  -0.00393518  1
  Ti  Ti127  1  0.00263334  0.80655268  0.50473486  1
  Ti  Ti128  1  0.70295296  0.90237163  0.85631651  1
  Ti  Ti129  1  0.79566899  0.60127977  0.24964015  1
  Ti  Ti130  1  0.80007116  0.40009366  0.25324573  1
  Ti  Ti131  1  0.51111347  0.08817605  0.37839547  1
  Ti  Ti132  1  0.60189564  0.20350406  0.27009813  1
  Ti  Ti133  1  0.39950326  0.59773434  0.49484177  1
  Ti  Ti134  1  0.00946915  0.39721701  0.48057792  1
  Ti  Ti135  1  0.41091236  0.78967184  -0.00709935  1
  Ti  Ti136  1  0.89777092  0.10330166  0.64219582  1
  Ti  Ti137  1  0.89643183  0.31521244  0.89385768  1
  Ti  Ti138  1  0.49547596  0.70544350  0.37615916  1
  Ti  Ti139  1  -0.00571485  0.20013311  0.76395553  1
  Ti  Ti140  1  0.89979437  0.70320558  0.37270892  1
  Ti  Ti141  1  0.10557396  0.89510420  0.39014479  1
  Ti  Ti142  1  0.59806173  0.79749653  0.50528067  1
  Ti  Ti143  1  0.69877607  0.90892547  0.62923568  1
  Ti  Ti144  1  -0.00168549  -0.00234402  0.51581344  1
  Ti  Ti145  1  0.50436348  0.49058581  0.59932672  1
  Ti  Ti146  1  0.09532464  0.09988534  0.62625789  1
  Ti  Ti147  1  0.29858411  0.09916821  0.87425581  1
  Ti  Ti148  1  0.50729544  0.50173865  0.88142115  1
  Ti  Ti149  1  0.80940624  0.41434788  0.02426806  1
  Ti  Ti150  1  0.51005873  0.30166061  0.60610590  1
  Ti  Ti151  1  0.40413367  0.20173307  0.28187983  1
  Ti  Ti152  1  0.39168636  0.41140017  0.01624320  1
  Ti  Ti153  1  0.00429353  0.60017196  0.25314971  1
  Ti  Ti154  1  0.69533569  0.10825362  0.12696195  1
  Ti  Ti155  1  0.19824051  0.39938970  0.48345098  1
  Ti  Ti156  1  0.88732732  0.09772144  0.86090433  1
  Ti  Ti157  1  0.19798243  -0.01294881  0.52365028  1
  Ti  Ti158  1  0.29397570  0.09625990  0.37525984  1
  Ti  Ti159  1  0.79840112  0.59870372  0.49161383  1
  Mo  Mo160  1  0.49364400  0.50546312  0.38272990  1
  Mo  Mo161  1  0.69831914  0.89807820  0.12051296  1
  Mo  Mo162  1  0.49948537  0.29655060  0.38750173  1
  Mo  Mo163  1  0.89158724  0.89158197  0.86529499  1
  Mo  Mo164  1  0.10258956  0.49990399  0.36336268  1
  Mo  Mo165  1  0.20030289  0.80204288  0.49197672  1
  Mo  Mo166  1  0.60022989  0.39312641  0.48676085  1
  Mo  Mo167  1  0.20581389  0.40000548  0.73387292  1
  Mo  Mo168  1  0.79866801  0.39864826  0.47149236  1
  Mo  Mo169  1  0.10555003  0.69674043  0.86524510  1
  Mo  Mo170  1  0.10368199  0.30181529  0.36779901  1
  Mo  Mo171  1  0.80123476  -0.00232909  0.75291747  1
  Mo  Mo172  1  0.90174029  0.49869609  0.14795381  1
  Mo  Mo173  1  0.69674749  0.69852817  0.14311427  1
  Mo  Mo174  1  0.19713595  0.39994383  0.25225196  1
  Mo  Mo175  1  0.29681402  0.29801601  0.37343257  1
  Mo  Mo176  1  0.10440681  0.10412818  0.87164079  1
  Mo  Mo177  1  -0.00351079  0.40233475  0.00866099  1
  Mo  Mo178  1  0.60453761  -0.00088073  0.49427102  1
  Mo  Mo179  1  0.10011339  0.69848976  0.12947101  1
  Mo  Mo180  1  0.90318299  0.09427150  0.37104669  1
  Mo  Mo181  1  0.29993602  0.49721427  0.14510659  1
  Mo  Mo182  1  0.10672835  0.89746266  0.88610909  1
  Mo  Mo183  1  0.40321482  0.60253679  0.27850936  1
  Mo  Mo184  1  0.58703165  0.43013320  0.02093426  1
  Mo  Mo185  1  0.09327853  0.89929771  0.61823438  1
  Mo  Mo186  1  0.69263818  0.29799718  0.62147140  1
  Mo  Mo187  1  0.70411504  0.30301131  0.35774967  1
  Mo  Mo188  1  0.79656844  0.40498227  0.75790998  1
  Mo  Mo189  1  0.29828162  0.89871386  0.62138944  1
  Mo  Mo190  1  0.69733247  0.09801596  0.35941500  1
  Mo  Mo191  1  0.30098744  0.49439518  0.60120545  1
  Mo  Mo192  1  0.20669435  0.19709048  0.27123751  1
  Mo  Mo193  1  0.58915038  0.18101673  -0.01301393  1
  Mo  Mo194  1  0.40244623  0.80651359  0.27467838  1
  Mo  Mo195  1  0.49719796  0.10288988  0.86736777  1
  Mo  Mo196  1  0.70483181  0.50439106  0.37234449  1
  Mo  Mo197  1  0.20811090  0.00427633  -0.00595416  1
  Mo  Mo198  1  0.50338351  0.70008335  0.13796283  1
  Mo  Mo199  1  0.59792280  -0.00153992  0.75475676  1
