# generated using pymatgen
data_HfZrTaTiMo
_symmetry_space_group_name_H-M   'P 1'
_cell_length_a   15.83603264
_cell_length_b   15.83106971
_cell_length_c   15.39169514
_cell_angle_alpha   90.03336701
_cell_angle_beta   90.08198804
_cell_angle_gamma   89.99105557
_symmetry_Int_Tables_number   1
_chemical_formula_structural   HfZrTaTiMo
_chemical_formula_sum   'Hf40 Zr40 Ta40 Ti40 Mo40'
_cell_volume   3858.71389594
_cell_formula_units_Z   40
loop_
 _symmetry_equiv_pos_site_id
 _symmetry_equiv_pos_as_xyz
  1  'x, y, z'
loop_
 _atom_site_type_symbol
 _atom_site_label
 _atom_site_symmetry_multiplicity
 _atom_site_fract_x
 _atom_site_fract_y
 _atom_site_fract_z
 _atom_site_occupancy
  Hf  Hf0  1  0.69370399  0.68853839  0.36349419  1
  Hf  Hf1  1  0.58149626  0.58577554  -0.00966096  1
  Hf  Hf2  1  0.00585113  -0.00985770  0.23503679  1
  Hf  Hf3  1  0.19707936  0.59199575  0.49831326  1
  Hf  Hf4  1  0.20019181  0.20305672  0.72759352  1
  Hf  Hf5  1  0.79945914  0.00030535  0.22805453  1
  Hf  Hf6  1  0.21122483  0.41049366  -0.01064971  1
  Hf  Hf7  1  -0.00884750  0.01004029  0.74209749  1
  Hf  Hf8  1  0.79898508  0.58003153  0.49811947  1
  Hf  Hf9  1  0.49681341  0.69947798  0.38264773  1
  Hf  Hf10  1  0.80430641  0.80332745  0.23440647  1
  Hf  Hf11  1  0.30891938  0.50318620  0.64043879  1
  Hf  Hf12  1  0.71257892  0.09847782  0.37694586  1
  Hf  Hf13  1  0.00421169  0.79651201  0.23718557  1
  Hf  Hf14  1  0.69096107  0.69088651  0.12046853  1
  Hf  Hf15  1  0.40772213  0.01058114  0.75220569  1
  Hf  Hf16  1  0.29282888  0.09422302  0.38157393  1
  Hf  Hf17  1  0.91479872  0.10928169  0.36447034  1
  Hf  Hf18  1  0.70565091  0.49346464  0.65349999  1
  Hf  Hf19  1  0.59483737  0.80310408  0.24274929  1
  Hf  Hf20  1  0.70054093  0.49764969  0.34753538  1
  Hf  Hf21  1  0.38361393  0.80773570  0.25215743  1
  Hf  Hf22  1  0.61215481  0.20895611  0.49392530  1
  Hf  Hf23  1  0.39014837  0.60375113  0.25402483  1
  Hf  Hf24  1  0.80599699  0.79981389  0.00464486  1
  Hf  Hf25  1  0.89664484  0.69376899  0.37072135  1
  Hf  Hf26  1  0.19356443  -0.00630268  0.51643718  1
  Hf  Hf27  1  0.70426802  0.09386399  0.63088776  1
  Hf  Hf28  1  0.81105536  0.18653237  0.76290426  1
  Hf  Hf29  1  -0.00938436  0.58860588  0.24826260  1
  Hf  Hf30  1  0.90744506  0.89668743  0.88407210  1
  Hf  Hf31  1  0.30504703  0.11996299  0.88268146  1
  Hf  Hf32  1  0.09433749  0.49522435  0.12435738  1
  Hf  Hf33  1  0.63202620  0.40611556  0.49401184  1
  Hf  Hf34  1  0.20019623  0.01071943  0.74302837  1
  Hf  Hf35  1  0.50547118  0.90331458  0.88885492  1
  Hf  Hf36  1  0.11576500  0.29256110  0.87636588  1
  Hf  Hf37  1  0.50755911  0.10109536  0.38230152  1
  Hf  Hf38  1  0.59015782  0.60716580  0.76819506  1
  Hf  Hf39  1  0.00040280  0.80072042  0.51149105  1
  Zr  Zr40  1  0.19054706  0.60517388  0.25662507  1
  Zr  Zr41  1  0.38070706  0.58789988  0.00077140  1
  Zr  Zr42  1  0.39369163  0.00199738  0.51112027  1
  Zr  Zr43  1  0.31476798  0.30677355  0.12758157  1
  Zr  Zr44  1  0.69269601  0.48629970  0.11821092  1
  Zr  Zr45  1  0.50454421  0.50613637  0.62126525  1
  Zr  Zr46  1  0.10604762  0.30505880  0.13672235  1
  Zr  Zr47  1  -0.01052677  0.39523362  0.50153914  1
  Zr  Zr48  1  0.21565947  0.39689067  0.28148380  1
  Zr  Zr49  1  0.50073543  0.31662640  0.62603333  1
  Zr  Zr50  1  0.70017364  0.69355066  0.62684896  1
  Zr  Zr51  1  0.49921778  0.90985979  0.37621620  1
  Zr  Zr52  1  0.30215079  0.90494417  0.87825667  1
  Zr  Zr53  1  0.09115270  0.27601342  0.37107588  1
  Zr  Zr54  1  0.90039635  0.49958188  0.86619714  1
  Zr  Zr55  1  0.10383993  0.09773463  0.11928324  1
  Zr  Zr56  1  0.49258960  0.69674123  0.60782142  1
  Zr  Zr57  1  0.00399601  0.20491165  -0.00164691  1
  Zr  Zr58  1  0.09395696  0.90211592  0.88041594  1
  Zr  Zr59  1  0.89654366  0.49827853  0.64659057  1
  Zr  Zr60  1  0.51595842  0.10355399  0.62408048  1
  Zr  Zr61  1  0.50861409  0.51246752  0.37278891  1
  Zr  Zr62  1  0.60250832  0.00955016  0.22965429  1
  Zr  Zr63  1  0.37938311  0.40897707  0.47922217  1
  Zr  Zr64  1  0.50938710  0.90463889  0.62853329  1
  Zr  Zr65  1  0.90272588  0.90558209  0.37583453  1
  Zr  Zr66  1  0.80351748  0.80046210  0.50347654  1
  Zr  Zr67  1  0.69333997  0.70778463  0.89257666  1
  Zr  Zr68  1  0.90867095  0.31107897  0.12647617  1
  Zr  Zr69  1  0.81297875  0.21450733  0.50345962  1
  Zr  Zr70  1  0.19288465  0.79606191  0.75262076  1
  Zr  Zr71  1  0.49131260  0.89623635  0.10712082  1
  Zr  Zr72  1  0.40285109  0.20391886  0.25103073  1
  Zr  Zr73  1  0.09870324  0.50041709  0.63638319  1
  Zr  Zr74  1  0.70399439  0.30149990  0.64906323  1
  Zr  Zr75  1  0.60837670  0.80961397  0.49466088  1
  Zr  Zr76  1  0.50665609  0.31107572  0.36927528  1
  Zr  Zr77  1  0.39164824  0.00637769  0.23432800  1
  Zr  Zr78  1  0.60162528  0.80619567  0.75829263  1
  Zr  Zr79  1  0.40757009  0.39835164  -0.01596063  1
  Ta  Ta80  1  0.49177352  0.69585738  0.11715584  1
  Ta  Ta81  1  0.70349320  0.90959183  0.63576177  1
  Ta  Ta82  1  0.90238684  0.29663639  0.87324663  1
  Ta  Ta83  1  0.19498929  0.79949257  0.51379938  1
  Ta  Ta84  1  0.00628510  0.40669148  -0.01752019  1
  Ta  Ta85  1  0.19891637  0.78813818  -0.01129842  1
  Ta  Ta86  1  0.90227416  0.69418192  0.64317805  1
  Ta  Ta87  1  0.10799259  0.50786091  0.85818019  1
  Ta  Ta88  1  0.80300209  0.59244978  -0.00357588  1
  Ta  Ta89  1  0.10299651  0.09779480  0.88513703  1
  Ta  Ta90  1  0.70023814  0.10074733  0.88523061  1
  Ta  Ta91  1  0.39079133  0.21030841  0.73183949  1
  Ta  Ta92  1  0.19371645  0.80363675  0.24389769  1
  Ta  Ta93  1  0.28874435  0.70888860  0.38568265  1
  Ta  Ta94  1  0.60395514  0.01255509  0.00501408  1
  Ta  Ta95  1  0.38435752  0.80847703  0.49707177  1
  Ta  Ta96  1  0.20785695  0.18446898  0.24653397  1
  Ta  Ta97  1  0.49429763  0.48911180  0.14349989  1
  Ta  Ta98  1  0.29851405  0.69730384  0.62597419  1
  Ta  Ta99  1  0.59447494  0.40030801  0.77909604  1
  Ta  Ta100  1  0.00609961  0.19453963  0.74676003  1
  Ta  Ta101  1  0.30422849  0.89126845  0.64126403  1
  Ta  Ta102  1  -0.00222342  0.00458208  0.51496275  1
  Ta  Ta103  1  0.20359199  -0.01443053  0.24148075  1
  Ta  Ta104  1  0.40500068  0.78941658  0.76049059  1
  Ta  Ta105  1  0.39193637  0.20719315  0.50885932  1
  Ta  Ta106  1  0.80953155  0.40309963  0.24172269  1
  Ta  Ta107  1  0.90254375  0.10411067  0.12043131  1
  Ta  Ta108  1  0.89963949  0.30318896  0.64624406  1
  Ta  Ta109  1  0.01032583  0.38887923  0.75866164  1
  Ta  Ta110  1  0.90034695  0.30237020  0.35679973  1
  Ta  Ta111  1  0.10006704  0.69601460  0.11082042  1
  Ta  Ta112  1  0.09486213  0.70496968  0.38211308  1
  Ta  Ta113  1  0.19743215  0.19629227  0.51610547  1
  Ta  Ta114  1  0.79770725  0.20244835  0.00224856  1
  Ta  Ta115  1  0.90669533  0.69078670  0.11163560  1
  Ta  Ta116  1  0.80471701  0.80213093  0.75921062  1
  Ta  Ta117  1  0.29098822  0.70221318  0.11829575  1
  Ta  Ta118  1  0.61287581  0.20483965  0.24613299  1
  Ta  Ta119  1  0.29408577  0.68467428  0.86278646  1
  Ti  Ti120  1  -0.00135213  0.59910349  -0.01164093  1
  Ti  Ti121  1  0.21256717  0.38974851  0.74909455  1
  Ti  Ti122  1  0.39753997  0.01699364  0.00711348  1
  Ti  Ti123  1  0.09242750  0.69379614  0.63437978  1
  Ti  Ti124  1  0.80617382  0.59214480  0.22886235  1
  Ti  Ti125  1  0.79906429  -0.00316742  0.76070264  1
  Ti  Ti126  1  0.48650088  0.28548333  0.87055051  1
  Ti  Ti127  1  0.08361569  0.70124360  0.86811583  1
  Ti  Ti128  1  0.79985594  0.20144615  0.23325122  1
  Ti  Ti129  1  0.70289393  0.90784964  0.37149230  1
  Ti  Ti130  1  0.59592985  0.39549211  -0.01966465  1
  Ti  Ti131  1  0.69486211  0.29733757  0.11621504  1
  Ti  Ti132  1  0.50580110  0.12198059  0.11024052  1
  Ti  Ti133  1  0.89380117  0.89855454  0.63425812  1
  Ti  Ti134  1  0.80237202  0.00381993  0.01146111  1
  Ti  Ti135  1  0.69344812  0.89836647  0.10841822  1
  Ti  Ti136  1  0.79518543  0.60960351  0.77543566  1
  Ti  Ti137  1  0.50440858  0.10727847  0.88555816  1
  Ti  Ti138  1  0.59676001  0.19753067  0.76218986  1
  Ti  Ti139  1  0.09965752  0.89092688  0.10160025  1
  Ti  Ti140  1  0.70144672  0.29637919  0.87681684  1
  Ti  Ti141  1  0.80070010  0.39905291  -0.00870935  1
  Ti  Ti142  1  0.70021906  0.90814872  0.88567556  1
  Ti  Ti143  1  0.19353764  0.59851414  -0.00871280  1
  Ti  Ti144  1  0.90688277  0.09392906  0.89395145  1
  Ti  Ti145  1  0.10566936  0.89736945  0.37978280  1
  Ti  Ti146  1  0.80688151  0.00056945  0.50714152  1
  Ti  Ti147  1  0.00392114  0.19527325  0.52651083  1
  Ti  Ti148  1  0.51125900  0.30802786  0.12557242  1
  Ti  Ti149  1  0.08757446  0.49578026  0.37810849  1
  Ti  Ti150  1  -0.00478260  0.59902345  0.49969010  1
  Ti  Ti151  1  0.19465098  0.38848124  0.50002979  1
  Ti  Ti152  1  0.09967960  0.08862627  0.37151140  1
  Ti  Ti153  1  0.39359663  0.78715839  -0.01123323  1
  Ti  Ti154  1  0.21596650  0.20327640  0.01315889  1
  Ti  Ti155  1  0.09268557  0.89522148  0.63803402  1
  Ti  Ti156  1  0.29264254  0.89384962  0.10540319  1
  Ti  Ti157  1  0.47325239  0.50488859  0.85262487  1
  Ti  Ti158  1  0.29683469  0.49648232  0.14041839  1
  Ti  Ti159  1  0.20360794  0.00273456  0.00243829  1
  Mo  Mo160  1  -0.00170339  -0.00093293  0.00852677  1
  Mo  Mo161  1  0.09626043  0.09696972  0.62227384  1
  Mo  Mo162  1  0.40170911  0.40380381  0.26250032  1
  Mo  Mo163  1  0.38984359  0.60917847  0.48974797  1
  Mo  Mo164  1  0.29348107  0.28394517  0.38755930  1
  Mo  Mo165  1  -0.00131605  0.60613828  0.76104646  1
  Mo  Mo166  1  0.89591645  0.09745463  0.62490603  1
  Mo  Mo167  1  0.61013160  0.59864394  0.50612938  1
  Mo  Mo168  1  0.30428647  0.29692009  0.87515067  1
  Mo  Mo169  1  0.90436293  0.89998059  0.10896475  1
  Mo  Mo170  1  0.70198086  0.11058585  0.10767822  1
  Mo  Mo171  1  0.40842687  0.20324372  0.00828384  1
  Mo  Mo172  1  0.30170918  0.09698551  0.11538109  1
  Mo  Mo173  1  0.59275940  0.60182740  0.22736524  1
  Mo  Mo174  1  0.62131597  0.00087190  0.49372402  1
  Mo  Mo175  1  0.00151000  0.19334705  0.24329163  1
  Mo  Mo176  1  0.29430889  0.51300390  0.37614910  1
  Mo  Mo177  1  0.90111587  0.49895347  0.10179938  1
  Mo  Mo178  1  0.39701501  0.60729965  0.75065094  1
  Mo  Mo179  1  0.29130731  0.49838231  0.85150107  1
  Mo  Mo180  1  0.80536497  0.39625758  0.48725941  1
  Mo  Mo181  1  0.61049963  0.00725553  0.77821682  1
  Mo  Mo182  1  -0.00778267  0.80226747  0.73712779  1
  Mo  Mo183  1  0.00101923  0.40363506  0.26377199  1
  Mo  Mo184  1  0.69563018  0.49514350  0.87896230  1
  Mo  Mo185  1  0.59941654  0.21264783  -0.01017940  1
  Mo  Mo186  1  0.29599329  0.30753239  0.60978801  1
  Mo  Mo187  1  0.48842898  0.70134761  0.89103693  1
  Mo  Mo188  1  0.30446392  0.09849870  0.62202567  1
  Mo  Mo189  1  0.28266640  0.89712532  0.37657593  1
  Mo  Mo190  1  0.09538101  0.30229507  0.62826050  1
  Mo  Mo191  1  0.60559053  0.39191151  0.24357941  1
  Mo  Mo192  1  0.79870262  0.39118308  0.77545476  1
  Mo  Mo193  1  0.71308134  0.29778689  0.35307800  1
  Mo  Mo194  1  0.59577377  0.80307263  0.00766722  1
  Mo  Mo195  1  0.19507613  0.60405439  0.74713887  1
  Mo  Mo196  1  0.00430063  0.79042280  0.00748080  1
  Mo  Mo197  1  0.90173940  0.70090910  0.87454983  1
  Mo  Mo198  1  0.89874865  0.49550844  0.37516471  1
  Mo  Mo199  1  0.39685899  0.39211669  0.75845129  1
