# generated using pymatgen
data_HfZrTaTiMo
_symmetry_space_group_name_H-M   'P 1'
_cell_length_a   15.85586367
_cell_length_b   15.83969222
_cell_length_c   15.37164563
_cell_angle_alpha   90.03206332
_cell_angle_beta   89.93315825
_cell_angle_gamma   89.95758990
_symmetry_Int_Tables_number   1
_chemical_formula_structural   HfZrTaTiMo
_chemical_formula_sum   'Hf40 Zr40 Ta40 Ti40 Mo40'
_cell_volume   3860.61525753
_cell_formula_units_Z   40
loop_
 _symmetry_equiv_pos_site_id
 _symmetry_equiv_pos_as_xyz
  1  'x, y, z'
loop_
 _atom_site_type_symbol
 _atom_site_label
 _atom_site_symmetry_multiplicity
 _atom_site_fract_x
 _atom_site_fract_y
 _atom_site_fract_z
 _atom_site_occupancy
  Hf  Hf0  1  -0.00879692  0.40117139  0.00811916  1
  Hf  Hf1  1  0.70401635  0.90227323  0.86568812  1
  Hf  Hf2  1  0.21048036  0.20685812  0.01428945  1
  Hf  Hf3  1  0.40479387  0.60421510  0.26709083  1
  Hf  Hf4  1  0.20247545  0.39727338  0.50563853  1
  Hf  Hf5  1  0.50200808  0.91085190  0.86111828  1
  Hf  Hf6  1  0.10130695  0.90489798  0.88470280  1
  Hf  Hf7  1  0.60477094  0.19510806  0.25401310  1
  Hf  Hf8  1  0.60021767  0.00289117  0.25184595  1
  Hf  Hf9  1  0.21321927  0.59447363  0.24193375  1
  Hf  Hf10  1  0.60129497  0.40072826  0.74596086  1
  Hf  Hf11  1  0.19528785  0.78989378  0.00470119  1
  Hf  Hf12  1  0.20466646  -0.00440154  0.23774035  1
  Hf  Hf13  1  0.80270466  0.20294099  0.77010597  1
  Hf  Hf14  1  -0.00586188  0.21061979  0.01191148  1
  Hf  Hf15  1  0.60275238  0.01219237  0.49350561  1
  Hf  Hf16  1  0.09465339  0.69682143  0.35860820  1
  Hf  Hf17  1  0.71045842  0.89599548  0.37186128  1
  Hf  Hf18  1  0.30556456  0.09478258  0.88281729  1
  Hf  Hf19  1  -0.01207590  0.20602491  0.48911410  1
  Hf  Hf20  1  0.21796751  -0.00312103  0.50346328  1
  Hf  Hf21  1  0.70550082  0.90848015  0.63288765  1
  Hf  Hf22  1  0.10286177  0.09976882  0.37168210  1
  Hf  Hf23  1  0.30417111  0.29573984  0.35879989  1
  Hf  Hf24  1  0.49982679  0.29923731  0.37323126  1
  Hf  Hf25  1  0.89213086  0.50283373  0.87613766  1
  Hf  Hf26  1  0.09378606  0.50274828  0.62319617  1
  Hf  Hf27  1  0.89563578  0.50830455  0.62625067  1
  Hf  Hf28  1  0.30393198  0.51029870  0.62846839  1
  Hf  Hf29  1  0.49512878  0.70204044  0.61658244  1
  Hf  Hf30  1  0.19855512  0.20214135  0.22781952  1
  Hf  Hf31  1  0.31439734  0.88500050  0.65104686  1
  Hf  Hf32  1  0.10090332  0.51006768  0.11749117  1
  Hf  Hf33  1  0.88679174  0.09822740  0.11730271  1
  Hf  Hf34  1  0.30877440  0.90033905  0.10903091  1
  Hf  Hf35  1  0.39881346  0.18995624  0.51724430  1
  Hf  Hf36  1  0.79602261  0.39867316  0.74706909  1
  Hf  Hf37  1  0.39591964  0.80587799  0.25996702  1
  Hf  Hf38  1  0.29822083  0.70009112  0.87441120  1
  Hf  Hf39  1  0.30054878  0.50028422  0.87660597  1
  Zr  Zr40  1  0.10495278  0.30194888  0.87808819  1
  Zr  Zr41  1  0.68956372  0.69611110  0.13188911  1
  Zr  Zr42  1  0.50957671  0.50050025  0.12490104  1
  Zr  Zr43  1  0.80246810  0.59927139  0.00647263  1
  Zr  Zr44  1  0.68829881  0.28994403  0.10335863  1
  Zr  Zr45  1  0.08277046  0.09723584  0.61322065  1
  Zr  Zr46  1  0.09181385  0.89637338  0.62894508  1
  Zr  Zr47  1  0.88468219  0.10204211  0.62250070  1
  Zr  Zr48  1  0.09512928  0.70383761  0.62945315  1
  Zr  Zr49  1  0.90344486  0.90315036  0.64511012  1
  Zr  Zr50  1  -0.01041626  0.79644980  0.00380268  1
  Zr  Zr51  1  0.39519240  0.39123575  0.51189466  1
  Zr  Zr52  1  0.69479107  0.09806290  0.88800302  1
  Zr  Zr53  1  0.90185229  0.50111289  0.36678966  1
  Zr  Zr54  1  0.88657595  0.70245356  0.35397876  1
  Zr  Zr55  1  0.21160178  0.39497608  0.01183365  1
  Zr  Zr56  1  0.39381926  0.80476959  0.48630105  1
  Zr  Zr57  1  0.89602749  0.89762495  0.86439603  1
  Zr  Zr58  1  0.59724280  0.60114392  -0.01587090  1
  Zr  Zr59  1  0.50370889  0.90571195  0.63054451  1
  Zr  Zr60  1  0.20410825  0.39859710  0.74741188  1
  Zr  Zr61  1  0.10637794  0.89757148  0.37057335  1
  Zr  Zr62  1  0.81195605  0.80436793  0.50465520  1
  Zr  Zr63  1  0.10041617  0.09473261  0.89365818  1
  Zr  Zr64  1  0.20430085  0.19802911  0.73873810  1
  Zr  Zr65  1  -0.00820220  0.60996646  0.49651989  1
  Zr  Zr66  1  0.20462731  0.79422548  0.50316132  1
  Zr  Zr67  1  0.70060766  0.28116775  0.61423305  1
  Zr  Zr68  1  0.70528006  0.50133074  0.39578581  1
  Zr  Zr69  1  0.20082314  0.00373717  0.74147721  1
  Zr  Zr70  1  0.49196746  0.30486210  0.13273158  1
  Zr  Zr71  1  0.60589726  0.78529351  0.74894537  1
  Zr  Zr72  1  0.89313320  0.09926597  0.36355688  1
  Zr  Zr73  1  0.10421502  0.49847311  0.36640747  1
  Zr  Zr74  1  0.79136355  0.39604111  0.23792732  1
  Zr  Zr75  1  0.69500296  0.89430789  0.13054297  1
  Zr  Zr76  1  0.49568229  0.70501372  0.12076804  1
  Zr  Zr77  1  0.20970869  0.19898218  0.51138608  1
  Zr  Zr78  1  0.09823035  0.30159671  0.36676074  1
  Zr  Zr79  1  -0.00460987  0.39900625  0.76029263  1
  Ta  Ta80  1  0.69496317  0.69767910  0.38905232  1
  Ta  Ta81  1  -0.00093986  0.80893702  0.23850703  1
  Ta  Ta82  1  0.69635910  0.49377851  0.88287621  1
  Ta  Ta83  1  0.40832027  0.00158838  0.24871552  1
  Ta  Ta84  1  0.59850601  0.39411686  0.50730151  1
  Ta  Ta85  1  0.00060822  0.60779402  0.76783132  1
  Ta  Ta86  1  0.50061073  0.49907592  0.39210203  1
  Ta  Ta87  1  0.30239249  0.90177338  0.87855693  1
  Ta  Ta88  1  0.89784905  0.09461091  0.89338791  1
  Ta  Ta89  1  -0.00669581  0.20200668  0.76269789  1
  Ta  Ta90  1  0.50715543  0.29626691  0.87220907  1
  Ta  Ta91  1  0.50978029  0.10058437  0.64264145  1
  Ta  Ta92  1  0.40583444  0.39770694  0.75089069  1
  Ta  Ta93  1  0.39008946  0.60369324  0.49151783  1
  Ta  Ta94  1  0.69711485  0.50683350  0.61194346  1
  Ta  Ta95  1  0.40797548  0.39791675  -0.01673800  1
  Ta  Ta96  1  0.70114355  0.29218897  0.38817421  1
  Ta  Ta97  1  0.69660997  0.30093813  0.89055588  1
  Ta  Ta98  1  0.40118403  0.20193319  0.75099478  1
  Ta  Ta99  1  0.50435524  0.50577812  0.61839054  1
  Ta  Ta100  1  0.80095916  0.79587429  0.00883091  1
  Ta  Ta101  1  0.20164020  0.79846955  0.23258982  1
  Ta  Ta102  1  0.79112457  0.19616682  0.24585650  1
  Ta  Ta103  1  0.89805541  0.69782687  0.14141994  1
  Ta  Ta104  1  0.40278350  0.20755244  -0.00413130  1
  Ta  Ta105  1  0.30695076  0.09929582  0.35942463  1
  Ta  Ta106  1  0.89815856  0.70587599  0.64609238  1
  Ta  Ta107  1  0.08868857  0.29937519  0.62586241  1
  Ta  Ta108  1  0.40706482  0.60118043  0.75278495  1
  Ta  Ta109  1  0.10512041  0.51341184  0.89004926  1
  Ta  Ta110  1  0.19667768  0.60344768  0.75227310  1
  Ta  Ta111  1  0.80744955  0.39211243  0.50502574  1
  Ta  Ta112  1  0.59151314  0.79230790  0.27131563  1
  Ta  Ta113  1  0.31657298  0.10080010  0.12230690  1
  Ta  Ta114  1  0.40903575  0.80084522  -0.01351329  1
  Ta  Ta115  1  0.59725317  0.59713860  0.26974495  1
  Ta  Ta116  1  -0.00021387  0.39484143  0.23075782  1
  Ta  Ta117  1  -0.00451727  0.20260866  0.23293579  1
  Ta  Ta118  1  -0.00265712  -0.00175458  0.23748424  1
  Ta  Ta119  1  -0.01299215  -0.01214539  0.48252762  1
  Ti  Ti120  1  0.60166325  0.80252443  -0.01086924  1
  Ti  Ti121  1  0.39925806  0.00131231  0.49383504  1
  Ti  Ti122  1  -0.00523164  0.80361934  0.48592154  1
  Ti  Ti123  1  0.20829102  0.40077896  0.23305148  1
  Ti  Ti124  1  0.50677584  0.10629302  0.11872778  1
  Ti  Ti125  1  0.20483384  0.60244272  0.49794495  1
  Ti  Ti126  1  0.30637345  0.69397555  0.11259874  1
  Ti  Ti127  1  0.41220728  0.00337272  -0.00021798  1
  Ti  Ti128  1  0.80029712  0.39733270  0.01031779  1
  Ti  Ti129  1  0.90052158  0.29569295  0.62345373  1
  Ti  Ti130  1  0.09917264  0.09099046  0.11109495  1
  Ti  Ti131  1  0.79959232  -0.01225975  0.00956084  1
  Ti  Ti132  1  -0.00331293  0.01321956  0.75874790  1
  Ti  Ti133  1  0.09471089  0.69517589  0.13124026  1
  Ti  Ti134  1  0.78337977  0.59198873  0.24028054  1
  Ti  Ti135  1  0.50318924  0.90145724  0.38197399  1
  Ti  Ti136  1  0.69517141  0.10072465  0.63637280  1
  Ti  Ti137  1  0.50615492  0.10267921  0.86519189  1
  Ti  Ti138  1  0.79613438  -0.00102525  0.24364011  1
  Ti  Ti139  1  0.69879104  0.69573655  0.60750295  1
  Ti  Ti140  1  0.90035610  0.50778332  0.13111619  1
  Ti  Ti141  1  0.60528813  0.40789589  0.25963276  1
  Ti  Ti142  1  0.59865046  0.00066485  0.01079295  1
  Ti  Ti143  1  0.78892536  0.60446502  0.74827071  1
  Ti  Ti144  1  0.89363272  0.30236338  0.36289251  1
  Ti  Ti145  1  0.50786387  0.29024296  0.63116020  1
  Ti  Ti146  1  0.80070023  0.00584794  0.49088817  1
  Ti  Ti147  1  0.71294342  0.70131254  0.87482028  1
  Ti  Ti148  1  0.40613596  0.59860251  -0.01419222  1
  Ti  Ti149  1  0.28980234  0.70386058  0.36873560  1
  Ti  Ti150  1  0.60218060  0.59452292  0.75373948  1
  Ti  Ti151  1  0.49559980  0.10555117  0.37503845  1
  Ti  Ti152  1  0.49983883  0.70227869  0.86763304  1
  Ti  Ti153  1  -0.00173874  0.61236095  -0.00808142  1
  Ti  Ti154  1  0.50203399  0.89541043  0.12393663  1
  Ti  Ti155  1  0.19357841  0.79390450  0.76020252  1
  Ti  Ti156  1  0.09647848  0.90499570  0.11218340  1
  Ti  Ti157  1  0.39379796  0.41653226  0.25822849  1
  Ti  Ti158  1  0.31515478  0.50330033  0.11116410  1
  Ti  Ti159  1  -0.00361828  0.39834374  0.49771498  1
  Mo  Mo160  1  0.10045086  0.30384370  0.13055613  1
  Mo  Mo161  1  0.79686062  0.19721477  0.48521049  1
  Mo  Mo162  1  0.59604993  0.40113520  -0.01382122  1
  Mo  Mo163  1  0.09870591  0.69923267  0.87601870  1
  Mo  Mo164  1  0.50123788  0.50065494  0.86065036  1
  Mo  Mo165  1  0.30299192  0.90796775  0.36054824  1
  Mo  Mo166  1  0.79531836  0.79032106  0.74279491  1
  Mo  Mo167  1  0.89473655  0.89745988  0.13446751  1
  Mo  Mo168  1  0.60558496  0.00711243  0.74507732  1
  Mo  Mo169  1  0.89251370  0.29936414  0.88452838  1
  Mo  Mo170  1  0.89242599  0.70080857  0.86275967  1
  Mo  Mo171  1  0.50227953  0.70075419  0.39094246  1
  Mo  Mo172  1  0.89177074  0.29975129  0.13299821  1
  Mo  Mo173  1  0.79396561  0.79622701  0.24319699  1
  Mo  Mo174  1  0.79943492  0.60372868  0.51447667  1
  Mo  Mo175  1  0.69378156  0.49512703  0.11698775  1
  Mo  Mo176  1  0.40414351  0.19130824  0.24248661  1
  Mo  Mo177  1  0.30112971  0.50111860  0.38276404  1
  Mo  Mo178  1  0.20469575  0.60330877  0.01011892  1
  Mo  Mo179  1  0.60247550  0.80316804  0.49015601  1
  Mo  Mo180  1  0.40219850  0.00515769  0.76091785  1
  Mo  Mo181  1  0.31268827  0.29707508  0.86419923  1
  Mo  Mo182  1  0.59350228  0.60112853  0.49700211  1
  Mo  Mo183  1  0.80031166  0.20343447  -0.00711159  1
  Mo  Mo184  1  0.30360954  0.29792812  0.64079038  1
  Mo  Mo185  1  0.69998301  0.10066129  0.37608797  1
  Mo  Mo186  1  0.31227091  0.30767164  0.13871083  1
  Mo  Mo187  1  -0.00387494  -0.00216037  0.01568181  1
  Mo  Mo188  1  0.32184980  0.08687969  0.63500910  1
  Mo  Mo189  1  0.69489581  0.09503474  0.11017229  1
  Mo  Mo190  1  0.20709924  -0.00145344  0.01411468  1
  Mo  Mo191  1  0.58694068  0.19356657  -0.00597829  1
  Mo  Mo192  1  0.39964267  0.79518830  0.76903066  1
  Mo  Mo193  1  0.60051798  0.20279999  0.76279970  1
  Mo  Mo194  1  0.59424541  0.19652883  0.49178148  1
  Mo  Mo195  1  0.00296642  0.79472517  0.77060275  1
  Mo  Mo196  1  0.90216126  0.90251697  0.35349569  1
  Mo  Mo197  1  0.80335195  0.00900106  0.75777072  1
  Mo  Mo198  1  0.30079066  0.69595575  0.64511931  1
  Mo  Mo199  1  -0.00097471  0.59892285  0.23879165  1
