# generated using pymatgen
data_HfZrTaTiMo
_symmetry_space_group_name_H-M   'P 1'
_cell_length_a   15.83096695
_cell_length_b   15.84312897
_cell_length_c   15.40273460
_cell_angle_alpha   89.99589428
_cell_angle_beta   90.04087888
_cell_angle_gamma   90.07043345
_symmetry_Int_Tables_number   1
_chemical_formula_structural   HfZrTaTiMo
_chemical_formula_sum   'Hf40 Zr40 Ta40 Ti40 Mo40'
_cell_volume   3863.18754420
_cell_formula_units_Z   40
loop_
 _symmetry_equiv_pos_site_id
 _symmetry_equiv_pos_as_xyz
  1  'x, y, z'
loop_
 _atom_site_type_symbol
 _atom_site_label
 _atom_site_symmetry_multiplicity
 _atom_site_fract_x
 _atom_site_fract_y
 _atom_site_fract_z
 _atom_site_occupancy
  Hf  Hf0  1  0.09685250  0.08680338  0.64698646  1
  Hf  Hf1  1  0.50439309  0.70602245  0.38890270  1
  Hf  Hf2  1  0.80558823  0.80566572  0.00484985  1
  Hf  Hf3  1  0.29256761  0.09801911  0.63942395  1
  Hf  Hf4  1  0.81162386  0.02034046  0.24168234  1
  Hf  Hf5  1  0.50902540  0.91132068  0.36218331  1
  Hf  Hf6  1  0.00672244  0.37807820  0.23605625  1
  Hf  Hf7  1  0.20596666  0.81274041  0.48270087  1
  Hf  Hf8  1  0.29248017  0.30686527  0.10941526  1
  Hf  Hf9  1  0.18102421  0.21246077  0.24423030  1
  Hf  Hf10  1  0.79323207  -0.00006941  0.76119326  1
  Hf  Hf11  1  0.59464673  0.80368804  0.00498771  1
  Hf  Hf12  1  0.00452921  0.80306803  0.49987554  1
  Hf  Hf13  1  -0.00411823  0.00325048  0.49185057  1
  Hf  Hf14  1  -0.02281289  0.18226681  0.23332101  1
  Hf  Hf15  1  0.70250485  0.50220164  0.13036196  1
  Hf  Hf16  1  0.31058739  0.70847922  0.61559427  1
  Hf  Hf17  1  0.10234903  0.68496225  0.37671594  1
  Hf  Hf18  1  0.71665211  0.11183502  0.10479261  1
  Hf  Hf19  1  0.09704391  0.08877833  0.87641491  1
  Hf  Hf20  1  0.50695762  0.11298546  0.12616969  1
  Hf  Hf21  1  0.20590185  0.78711873  0.25554017  1
  Hf  Hf22  1  0.49983171  0.30654070  0.39174556  1
  Hf  Hf23  1  0.00440649  0.58866051  0.24578175  1
  Hf  Hf24  1  0.10776243  0.89609023  0.89917391  1
  Hf  Hf25  1  0.69327365  0.70639602  0.61764022  1
  Hf  Hf26  1  0.19241917  0.00695398  0.48839648  1
  Hf  Hf27  1  0.29521717  0.51521282  0.64397910  1
  Hf  Hf28  1  0.28806864  0.32904253  0.37143082  1
  Hf  Hf29  1  0.79108166  0.60378933  0.74943256  1
  Hf  Hf30  1  0.30138008  0.49967555  0.87187999  1
  Hf  Hf31  1  0.40333957  0.22005075  0.24449531  1
  Hf  Hf32  1  0.19580562  0.39476744  0.74622629  1
  Hf  Hf33  1  0.03813799  0.39328557  0.51935289  1
  Hf  Hf34  1  0.90084226  0.49712421  0.85856793  1
  Hf  Hf35  1  -0.00850017  -0.00637561  0.01522377  1
  Hf  Hf36  1  0.70481833  0.69735106  0.12374811  1
  Hf  Hf37  1  -0.01154673  0.78580276  0.24839905  1
  Hf  Hf38  1  0.59375911  0.60430357  0.25630028  1
  Hf  Hf39  1  0.70659317  0.71834121  0.37621131  1
  Zr  Zr40  1  0.49225302  0.09966162  0.63745658  1
  Zr  Zr41  1  0.48567624  0.49332912  0.37494411  1
  Zr  Zr42  1  -0.00931399  0.39964954  -0.00497458  1
  Zr  Zr43  1  0.00785882  0.58968931  0.51031108  1
  Zr  Zr44  1  0.91577561  0.48850258  0.37981039  1
  Zr  Zr45  1  0.69346923  0.29518988  0.10378790  1
  Zr  Zr46  1  0.30811717  0.50508197  0.13048315  1
  Zr  Zr47  1  0.11897189  0.69718629  0.61848280  1
  Zr  Zr48  1  0.69199191  0.49019096  0.37877558  1
  Zr  Zr49  1  0.90665051  0.71091289  0.87199642  1
  Zr  Zr50  1  0.58986979  0.38787493  0.24336543  1
  Zr  Zr51  1  0.90653357  0.10032930  0.63824149  1
  Zr  Zr52  1  0.79604429  0.20298932  0.75766398  1
  Zr  Zr53  1  0.50028722  0.29754937  0.86769463  1
  Zr  Zr54  1  0.70663310  0.90290068  0.88429303  1
  Zr  Zr55  1  0.38546264  0.20387771  0.49770708  1
  Zr  Zr56  1  0.40282459  0.81252724  0.77004685  1
  Zr  Zr57  1  0.89089675  0.89742625  0.36330838  1
  Zr  Zr58  1  0.91030231  0.29209847  0.62597710  1
  Zr  Zr59  1  0.29395137  0.10875085  0.35622272  1
  Zr  Zr60  1  0.91502297  0.28430426  0.39384431  1
  Zr  Zr61  1  0.69364581  0.08602380  0.61229094  1
  Zr  Zr62  1  0.39613360  0.00172969  0.49109339  1
  Zr  Zr63  1  0.29726981  0.69671135  0.10942635  1
  Zr  Zr64  1  0.20825700  0.80044827  0.76688148  1
  Zr  Zr65  1  0.49864862  0.90256722  0.62322767  1
  Zr  Zr66  1  0.59321949  -0.00161347  0.00416836  1
  Zr  Zr67  1  0.59972962  0.79414865  0.76450049  1
  Zr  Zr68  1  0.80570897  0.60446073  0.50299234  1
  Zr  Zr69  1  0.81283081  0.60979500  0.26601451  1
  Zr  Zr70  1  0.90322999  0.90626887  0.63648227  1
  Zr  Zr71  1  -0.00186347  0.59445021  -0.00452732  1
  Zr  Zr72  1  0.49151558  0.68963233  0.11699648  1
  Zr  Zr73  1  0.11537005  0.49407964  0.12178884  1
  Zr  Zr74  1  0.80132653  0.37955643  0.25509895  1
  Zr  Zr75  1  0.60111446  0.41374484  -0.00863531  1
  Zr  Zr76  1  0.80179969  0.40571939  0.51698829  1
  Zr  Zr77  1  0.50608844  0.10016490  0.35749183  1
  Zr  Zr78  1  0.40269929  0.79988652  0.25167896  1
  Zr  Zr79  1  0.69259971  0.28854431  0.61346912  1
  Ta  Ta80  1  0.89743302  0.09576356  0.88045865  1
  Ta  Ta81  1  0.89962742  0.69296822  0.11322755  1
  Ta  Ta82  1  0.12159890  0.47337584  0.36143144  1
  Ta  Ta83  1  0.69885620  0.28716078  0.39583644  1
  Ta  Ta84  1  0.90461226  0.70483026  0.63296922  1
  Ta  Ta85  1  0.69728521  0.30413776  0.87234156  1
  Ta  Ta86  1  0.60655940  0.80929059  0.23529521  1
  Ta  Ta87  1  0.29312544  0.90885616  0.62984613  1
  Ta  Ta88  1  0.29644678  0.08642619  0.87852046  1
  Ta  Ta89  1  0.19370256  0.00539161  0.23680428  1
  Ta  Ta90  1  0.09757033  0.29266025  0.09609214  1
  Ta  Ta91  1  0.09496054  0.90686793  0.34903539  1
  Ta  Ta92  1  0.59786332  0.60484696  0.75815301  1
  Ta  Ta93  1  0.40106512  0.40458693  -0.00494205  1
  Ta  Ta94  1  0.20164583  0.19594957  0.76768616  1
  Ta  Ta95  1  0.01569715  0.80542675  0.74269092  1
  Ta  Ta96  1  0.88406586  0.28562918  0.10504787  1
  Ta  Ta97  1  0.29713581  0.90297618  0.12217194  1
  Ta  Ta98  1  0.49728817  0.50064652  0.86307162  1
  Ta  Ta99  1  0.79296108  0.40208837  0.74379092  1
  Ta  Ta100  1  0.20975525  0.57265579  0.48941922  1
  Ta  Ta101  1  0.09864498  0.29650654  0.87980225  1
  Ta  Ta102  1  0.10162358  0.89031868  0.12892273  1
  Ta  Ta103  1  0.60329309  0.60384600  -0.02253437  1
  Ta  Ta104  1  0.60098488  0.40569406  0.73762769  1
  Ta  Ta105  1  0.80446915  0.80855014  0.50865089  1
  Ta  Ta106  1  0.39915424  0.19554481  -0.00709659  1
  Ta  Ta107  1  0.79256702  0.59318000  -0.01658357  1
  Ta  Ta108  1  0.49337089  0.29930529  0.62682966  1
  Ta  Ta109  1  0.38621147  0.41153135  0.52218182  1
  Ta  Ta110  1  0.10270350  0.69707668  0.11778056  1
  Ta  Ta111  1  0.39934901  -0.00079640  0.00491123  1
  Ta  Ta112  1  0.29999706  0.10386184  0.12223891  1
  Ta  Ta113  1  0.59223467  -0.00157786  0.76586499  1
  Ta  Ta114  1  0.49863694  0.70164178  0.61245670  1
  Ta  Ta115  1  0.01198271  0.60575868  0.74912088  1
  Ta  Ta116  1  0.70468591  0.09207647  0.38340210  1
  Ta  Ta117  1  0.40705104  0.61752824  0.76193154  1
  Ta  Ta118  1  0.40016461  0.39943693  0.74220286  1
  Ta  Ta119  1  0.29842748  0.29857797  0.88141293  1
  Ti  Ti120  1  0.30108673  0.91458495  0.35121948  1
  Ti  Ti121  1  0.29420768  0.29430856  0.62826022  1
  Ti  Ti122  1  0.59929174  0.59383617  0.50575035  1
  Ti  Ti123  1  0.39658105  0.59802232  0.49405939  1
  Ti  Ti124  1  0.49609019  0.50416644  0.12144000  1
  Ti  Ti125  1  0.10160756  0.49631527  0.86868548  1
  Ti  Ti126  1  0.69783137  0.90442350  0.62470112  1
  Ti  Ti127  1  0.59311532  0.40811503  0.52073087  1
  Ti  Ti128  1  0.49585102  0.51215016  0.63424581  1
  Ti  Ti129  1  0.38517235  0.60767344  0.26972387  1
  Ti  Ti130  1  0.20031341  0.19175626  -0.00877050  1
  Ti  Ti131  1  0.19868756  0.61316531  0.76813921  1
  Ti  Ti132  1  0.88943835  0.49530273  0.12269506  1
  Ti  Ti133  1  0.60245872  0.81631551  0.49899375  1
  Ti  Ti134  1  0.61294162  -0.00037178  0.23018252  1
  Ti  Ti135  1  0.70223975  0.90752808  0.36974437  1
  Ti  Ti136  1  0.79889983  0.80010147  0.75093655  1
  Ti  Ti137  1  0.39242565  0.20037001  0.75896858  1
  Ti  Ti138  1  0.08349977  0.10379292  0.36284902  1
  Ti  Ti139  1  0.30600398  0.70332135  0.89769845  1
  Ti  Ti140  1  0.49794397  0.30340489  0.10517129  1
  Ti  Ti141  1  0.18173533  0.21006302  0.49435584  1
  Ti  Ti142  1  0.58907797  0.18645908  0.49955589  1
  Ti  Ti143  1  0.09901723  0.09855345  0.11538348  1
  Ti  Ti144  1  0.40556932  0.81299204  -0.00177300  1
  Ti  Ti145  1  0.90986002  0.50182946  0.63903388  1
  Ti  Ti146  1  0.19949271  0.59577953  -0.01306077  1
  Ti  Ti147  1  0.62190151  0.20130369  0.25656343  1
  Ti  Ti148  1  0.59902518  0.19613916  0.75259028  1
  Ti  Ti149  1  0.91145845  0.90045893  0.87244000  1
  Ti  Ti150  1  0.39507948  0.81139460  0.48678600  1
  Ti  Ti151  1  0.89441180  0.89867994  0.13414687  1
  Ti  Ti152  1  0.81209205  0.17952515  0.49597309  1
  Ti  Ti153  1  0.00163958  0.39118079  0.75028688  1
  Ti  Ti154  1  0.09817783  0.70729809  0.89382462  1
  Ti  Ti155  1  0.49350301  0.09744815  0.87253892  1
  Ti  Ti156  1  0.10094707  0.27589307  0.64486805  1
  Ti  Ti157  1  -0.00971118  0.19764146  -0.00827022  1
  Ti  Ti158  1  0.79834906  0.40315667  -0.01798828  1
  Ti  Ti159  1  0.69395074  0.10671270  0.88947375  1
  Mo  Mo160  1  0.70317354  0.70155346  0.88176425  1
  Mo  Mo161  1  0.49636872  0.90950048  0.87647209  1
  Mo  Mo162  1  0.00174109  -0.00958108  0.77042668  1
  Mo  Mo163  1  0.79718581  -0.00749303  0.49557321  1
  Mo  Mo164  1  0.01495408  0.18949627  0.50095497  1
  Mo  Mo165  1  0.49613425  0.70150885  0.88975134  1
  Mo  Mo166  1  0.69808414  0.49860333  0.85642630  1
  Mo  Mo167  1  0.40341800  0.40178365  0.22856919  1
  Mo  Mo168  1  0.89787992  0.10525429  0.09959809  1
  Mo  Mo169  1  0.00190151  0.20060881  0.77569166  1
  Mo  Mo170  1  0.79448808  0.80689924  0.23472252  1
  Mo  Mo171  1  0.10469975  0.50245810  0.65224642  1
  Mo  Mo172  1  0.30084402  0.49982925  0.36420948  1
  Mo  Mo173  1  0.68932725  0.50463709  0.63263887  1
  Mo  Mo174  1  0.20311187  0.79683929  0.00599855  1
  Mo  Mo175  1  0.19811523  0.39491563  0.23286061  1
  Mo  Mo176  1  0.49604807  0.90562217  0.13846312  1
  Mo  Mo177  1  0.20317596  0.59821462  0.26562579  1
  Mo  Mo178  1  0.80480759  0.00088942  -0.00415512  1
  Mo  Mo179  1  0.89898803  0.30089309  0.87209080  1
  Mo  Mo180  1  0.11004783  0.90333706  0.63139737  1
  Mo  Mo181  1  0.20674198  0.39430506  0.52417502  1
  Mo  Mo182  1  -0.00051943  0.79818842  0.02034481  1
  Mo  Mo183  1  0.79986361  0.20735676  -0.02740979  1
  Mo  Mo184  1  0.40758939  0.59431872  -0.01820454  1
  Mo  Mo185  1  0.39472319  0.00087698  0.76913221  1
  Mo  Mo186  1  0.10027245  0.29212923  0.37386670  1
  Mo  Mo187  1  0.00483333  -0.00224215  0.23364378  1
  Mo  Mo188  1  0.60265039  -0.00289670  0.49355222  1
  Mo  Mo189  1  0.59255295  0.20170935  -0.01920306  1
  Mo  Mo190  1  0.70563176  0.90460903  0.12748901  1
  Mo  Mo191  1  0.30322362  0.69712369  0.39400233  1
  Mo  Mo192  1  0.90065690  0.09428267  0.38203863  1
  Mo  Mo193  1  0.20041399  0.00352887  0.02339167  1
  Mo  Mo194  1  0.29956991  0.90380700  0.90442762  1
  Mo  Mo195  1  0.79359965  0.20173319  0.26378023  1
  Mo  Mo196  1  0.20286769  -0.01114276  0.75454239  1
  Mo  Mo197  1  0.89943751  0.70172160  0.39110543  1
  Mo  Mo198  1  0.39809279  0.00499980  0.22741813  1
  Mo  Mo199  1  0.19822000  0.39819811  -0.01774414  1
