# generated using pymatgen
data_HfZrTaTiMo
_symmetry_space_group_name_H-M   'P 1'
_cell_length_a   15.83474456
_cell_length_b   15.82739747
_cell_length_c   15.38951640
_cell_angle_alpha   90.05608660
_cell_angle_beta   90.01006855
_cell_angle_gamma   90.05656254
_symmetry_Int_Tables_number   1
_chemical_formula_structural   HfZrTaTiMo
_chemical_formula_sum   'Hf40 Zr40 Ta40 Ti40 Mo40'
_cell_volume   3856.95984190
_cell_formula_units_Z   40
loop_
 _symmetry_equiv_pos_site_id
 _symmetry_equiv_pos_as_xyz
  1  'x, y, z'
loop_
 _atom_site_type_symbol
 _atom_site_label
 _atom_site_symmetry_multiplicity
 _atom_site_fract_x
 _atom_site_fract_y
 _atom_site_fract_z
 _atom_site_occupancy
  Hf  Hf0  1  0.08821301  0.09115033  0.87574194  1
  Hf  Hf1  1  0.09529302  0.69695146  0.86506978  1
  Hf  Hf2  1  0.09275365  0.88668415  0.12937752  1
  Hf  Hf3  1  0.30087687  0.29529897  0.38846760  1
  Hf  Hf4  1  0.90354372  0.09955321  0.38177930  1
  Hf  Hf5  1  0.40075458  0.19870571  0.51299659  1
  Hf  Hf6  1  0.20709600  0.61010537  0.48936779  1
  Hf  Hf7  1  0.81392793  0.61205774  0.50789357  1
  Hf  Hf8  1  0.89586113  0.50123146  0.13357208  1
  Hf  Hf9  1  0.59903084  0.60874566  0.26306688  1
  Hf  Hf10  1  0.41320873  0.79918043  0.25660453  1
  Hf  Hf11  1  0.20557492  0.59497462  0.74449867  1
  Hf  Hf12  1  0.39353801  0.38903503  0.00733666  1
  Hf  Hf13  1  0.19263155  0.20383488  0.24476751  1
  Hf  Hf14  1  0.70147664  0.50479192  0.12943385  1
  Hf  Hf15  1  0.01324629  0.40200524  0.26649104  1
  Hf  Hf16  1  0.70621791  0.90061307  0.88141992  1
  Hf  Hf17  1  0.39906849  0.79169397  -0.00843209  1
  Hf  Hf18  1  0.29232271  0.49487966  0.12921829  1
  Hf  Hf19  1  0.90719094  0.70642912  0.85806893  1
  Hf  Hf20  1  0.29917577  0.09677174  0.11977897  1
  Hf  Hf21  1  -0.01543581  0.39421698  -0.01317425  1
  Hf  Hf22  1  0.39516481  0.40360516  0.74605161  1
  Hf  Hf23  1  0.09610610  0.49432389  0.11600766  1
  Hf  Hf24  1  0.70222150  0.30786958  0.11749773  1
  Hf  Hf25  1  0.18888003  0.39940678  0.75286632  1
  Hf  Hf26  1  0.19401303  0.17313803  0.51163990  1
  Hf  Hf27  1  0.60566036  -0.00294790  0.75582389  1
  Hf  Hf28  1  0.50632394  0.10457428  0.10938920  1
  Hf  Hf29  1  0.49871883  0.10127838  0.87817045  1
  Hf  Hf30  1  0.79722733  -0.00075685  0.51170477  1
  Hf  Hf31  1  0.90546986  0.89874797  0.37438058  1
  Hf  Hf32  1  0.29893706  0.09539345  0.35923269  1
  Hf  Hf33  1  0.18822168  0.19913616  0.75840599  1
  Hf  Hf34  1  0.80950706  0.00757791  0.00880609  1
  Hf  Hf35  1  0.09775331  0.69332813  0.13633144  1
  Hf  Hf36  1  0.09106560  0.89471003  0.87398228  1
  Hf  Hf37  1  0.29277638  0.88930065  0.62755487  1
  Hf  Hf38  1  0.69137701  0.09840664  0.38174216  1
  Hf  Hf39  1  0.09249777  0.10442490  0.11752178  1
  Zr  Zr40  1  0.81215248  0.80667048  0.00155166  1
  Zr  Zr41  1  0.29790303  0.30025251  0.62687654  1
  Zr  Zr42  1  -0.01702416  0.19179508  0.74287280  1
  Zr  Zr43  1  0.80513980  0.60112236  -0.00961817  1
  Zr  Zr44  1  0.50194742  0.89254145  0.61673419  1
  Zr  Zr45  1  0.51296037  0.29194398  0.63732792  1
  Zr  Zr46  1  0.69968185  0.70406499  0.12678314  1
  Zr  Zr47  1  0.81419920  0.20929262  -0.00357291  1
  Zr  Zr48  1  0.81219783  0.01521585  0.74264101  1
  Zr  Zr49  1  0.79002162  0.21627394  0.50112415  1
  Zr  Zr50  1  0.50193763  0.50448542  0.13392180  1
  Zr  Zr51  1  0.49849194  0.49344245  0.87020425  1
  Zr  Zr52  1  0.19899249  -0.00870378  -0.00101683  1
  Zr  Zr53  1  0.90350043  0.70767536  0.15156555  1
  Zr  Zr54  1  0.80138423  0.39699746  0.26933604  1
  Zr  Zr55  1  0.50135775  0.30703281  0.38125811  1
  Zr  Zr56  1  0.38058085  0.78587422  0.48134124  1
  Zr  Zr57  1  0.59935402  0.00184326  0.24008665  1
  Zr  Zr58  1  0.79934554  0.60350314  0.74016992  1
  Zr  Zr59  1  0.20395137  0.78946110  -0.00594622  1
  Zr  Zr60  1  0.49970323  0.70251320  0.61815740  1
  Zr  Zr61  1  0.50282109  0.09797167  0.63864156  1
  Zr  Zr62  1  0.38843430  0.00358653  0.51213442  1
  Zr  Zr63  1  0.39550075  0.60153435  -0.00860257  1
  Zr  Zr64  1  0.61834520  0.38793464  0.50627303  1
  Zr  Zr65  1  0.59613143  0.79255618  0.76098270  1
  Zr  Zr66  1  0.18711739  0.58330279  0.27081696  1
  Zr  Zr67  1  0.61418648  0.59910017  0.50510320  1
  Zr  Zr68  1  0.51257353  0.90965336  0.38986665  1
  Zr  Zr69  1  0.10637630  0.70772034  0.61817914  1
  Zr  Zr70  1  0.40048161  0.21023976  0.23167287  1
  Zr  Zr71  1  0.31258824  0.48456377  0.37587111  1
  Zr  Zr72  1  0.49791826  0.10247226  0.37563656  1
  Zr  Zr73  1  0.08976460  0.29813600  0.61164918  1
  Zr  Zr74  1  0.08693445  0.50003899  0.87206040  1
  Zr  Zr75  1  0.29844859  0.69510094  0.14277323  1
  Zr  Zr76  1  0.29516300  0.90892201  0.36807865  1
  Zr  Zr77  1  0.59556175  0.39637114  -0.00361786  1
  Zr  Zr78  1  0.06868713  0.69381315  0.37783208  1
  Zr  Zr79  1  0.80432631  0.19417989  0.24815998  1
  Ta  Ta80  1  0.70123374  0.30311674  0.86795738  1
  Ta  Ta81  1  0.80326158  0.80891314  0.73824442  1
  Ta  Ta82  1  0.19118583  0.79913933  0.27415440  1
  Ta  Ta83  1  0.50139667  0.89669474  0.88727852  1
  Ta  Ta84  1  0.91045213  0.30224448  0.13080270  1
  Ta  Ta85  1  0.19911215  0.59648545  -0.01072669  1
  Ta  Ta86  1  -0.00783474  0.40853752  0.49599990  1
  Ta  Ta87  1  0.60673117  0.80255627  0.26005427  1
  Ta  Ta88  1  0.90499885  0.89928877  0.61587250  1
  Ta  Ta89  1  0.09765116  0.28918635  0.39301503  1
  Ta  Ta90  1  0.60393325  0.21545033  0.24634241  1
  Ta  Ta91  1  0.50549873  0.89328425  0.11136543  1
  Ta  Ta92  1  0.69218134  0.11489388  0.62803174  1
  Ta  Ta93  1  -0.01292681  -0.00425778  0.01263160  1
  Ta  Ta94  1  0.69978411  0.90124368  0.12437544  1
  Ta  Ta95  1  0.30333982  0.09622029  0.86978391  1
  Ta  Ta96  1  0.40283720  0.60769093  0.75263127  1
  Ta  Ta97  1  0.10375909  0.90005898  0.60710959  1
  Ta  Ta98  1  0.60057309  0.59672944  0.75241205  1
  Ta  Ta99  1  0.70394940  0.50563298  0.37176582  1
  Ta  Ta100  1  0.90742619  0.29755895  0.38325400  1
  Ta  Ta101  1  0.09709955  0.08890694  0.37242688  1
  Ta  Ta102  1  0.70382664  0.11116650  0.87794136  1
  Ta  Ta103  1  0.50122203  0.49932212  0.62265192  1
  Ta  Ta104  1  0.29804878  0.09218522  0.65365829  1
  Ta  Ta105  1  0.69980325  0.10625912  0.11584327  1
  Ta  Ta106  1  0.70483679  0.49575652  0.87117400  1
  Ta  Ta107  1  0.30269827  0.89517864  0.13811171  1
  Ta  Ta108  1  0.19922092  0.20503178  -0.01121559  1
  Ta  Ta109  1  0.39736364  -0.00759074  0.00090189  1
  Ta  Ta110  1  0.59840228  0.61035371  -0.01547780  1
  Ta  Ta111  1  0.20025355  0.38568992  0.25432178  1
  Ta  Ta112  1  0.40358457  0.59447922  0.49421492  1
  Ta  Ta113  1  0.50634337  0.49323345  0.38046335  1
  Ta  Ta114  1  0.30296727  0.29494474  0.87094003  1
  Ta  Ta115  1  0.80636860  0.41289496  0.49289181  1
  Ta  Ta116  1  0.18835868  -0.00483036  0.24287788  1
  Ta  Ta117  1  -0.00638718  0.00360092  0.24171173  1
  Ta  Ta118  1  0.09961262  0.30233962  0.11091301  1
  Ta  Ta119  1  -0.00302892  0.60617897  0.00293062  1
  Ti  Ti120  1  0.50708255  0.70360670  0.12193853  1
  Ti  Ti121  1  0.70319452  0.70990727  0.62777116  1
  Ti  Ti122  1  0.40409917  0.39103131  0.23493246  1
  Ti  Ti123  1  -0.00784323  0.40217932  0.74072069  1
  Ti  Ti124  1  0.00175577  0.80774236  0.73349869  1
  Ti  Ti125  1  0.89094486  0.30779677  0.62313955  1
  Ti  Ti126  1  0.40154101  -0.01356889  0.75712603  1
  Ti  Ti127  1  0.30528222  0.70148451  0.63149405  1
  Ti  Ti128  1  0.39828258  0.20517234  -0.00011522  1
  Ti  Ti129  1  -0.01354752  0.79182381  0.50484380  1
  Ti  Ti130  1  0.09664275  0.50155671  0.60860771  1
  Ti  Ti131  1  0.89119308  0.30244031  0.85635021  1
  Ti  Ti132  1  -0.00626796  0.79974104  0.00130310  1
  Ti  Ti133  1  -0.00374488  0.19964378  -0.01093698  1
  Ti  Ti134  1  0.30561041  0.50266141  0.61365686  1
  Ti  Ti135  1  0.70757921  0.29888003  0.65314084  1
  Ti  Ti136  1  0.19537982  0.39293479  -0.01410146  1
  Ti  Ti137  1  0.62545278  0.80051204  0.48805681  1
  Ti  Ti138  1  0.60341085  0.40337088  0.75171977  1
  Ti  Ti139  1  0.91242172  0.52188559  0.37164066  1
  Ti  Ti140  1  0.60510601  -0.00014024  -0.00276684  1
  Ti  Ti141  1  0.70968851  0.49072129  0.63478552  1
  Ti  Ti142  1  0.50137314  0.28961006  0.86501672  1
  Ti  Ti143  1  -0.00420293  0.59618626  0.72298562  1
  Ti  Ti144  1  0.00317746  0.20306809  0.25030707  1
  Ti  Ti145  1  0.50800730  0.69970719  0.38856237  1
  Ti  Ti146  1  0.29661548  0.49806300  0.87568881  1
  Ti  Ti147  1  0.88213276  0.70968829  0.36197831  1
  Ti  Ti148  1  0.90773972  0.90923019  0.86242495  1
  Ti  Ti149  1  0.19764252  0.40410359  0.49543302  1
  Ti  Ti150  1  0.40319713  0.60206998  0.26801064  1
  Ti  Ti151  1  0.69741681  0.90065005  0.62368276  1
  Ti  Ti152  1  0.19119837  -0.00791278  0.75006111  1
  Ti  Ti153  1  0.71495914  0.90000268  0.36783411  1
  Ti  Ti154  1  0.00937353  0.01533044  0.51298422  1
  Ti  Ti155  1  0.89509259  0.50119869  0.86191497  1
  Ti  Ti156  1  0.70272737  0.70199504  0.87462328  1
  Ti  Ti157  1  0.20531370  0.79737570  0.75796593  1
  Ti  Ti158  1  0.30234218  0.89775898  0.86711673  1
  Ti  Ti159  1  -0.00012891  0.00104187  0.73062155  1
  Mo  Mo160  1  0.60324474  0.20182739  -0.00940385  1
  Mo  Mo161  1  0.79384179  0.81226973  0.24649940  1
  Mo  Mo162  1  0.70700057  0.70969102  0.37339288  1
  Mo  Mo163  1  0.90505803  0.10855158  0.13091815  1
  Mo  Mo164  1  -0.00532124  0.59363380  0.24440336  1
  Mo  Mo165  1  0.89961256  0.10439371  0.60668371  1
  Mo  Mo166  1  0.60120429  0.79951676  -0.00522152  1
  Mo  Mo167  1  0.60415316  0.19698201  0.49639279  1
  Mo  Mo168  1  0.79962234  0.20270469  0.74881157  1
  Mo  Mo169  1  0.80219165  0.40263951  -0.01782251  1
  Mo  Mo170  1  0.39538044  0.19640237  0.75888829  1
  Mo  Mo171  1  0.79880485  0.00236842  0.23633582  1
  Mo  Mo172  1  0.69951207  0.30405072  0.36791847  1
  Mo  Mo173  1  0.09347039  0.90544328  0.39112612  1
  Mo  Mo174  1  0.60526792  0.19934307  0.76990126  1
  Mo  Mo175  1  0.50294271  0.69782754  0.87149791  1
  Mo  Mo176  1  0.28977369  0.30181887  0.11027232  1
  Mo  Mo177  1  0.09855468  0.49128767  0.39279194  1
  Mo  Mo178  1  0.30195876  0.69561874  0.36061825  1
  Mo  Mo179  1  0.59865457  0.40164662  0.25294544  1
  Mo  Mo180  1  0.89699201  0.90423363  0.14456509  1
  Mo  Mo181  1  -0.00475322  0.59660615  0.51622405  1
  Mo  Mo182  1  0.19506342  -0.00245987  0.50573946  1
  Mo  Mo183  1  0.00118684  0.80818309  0.26399152  1
  Mo  Mo184  1  0.80163031  0.80256572  0.51429108  1
  Mo  Mo185  1  0.09456529  0.29746405  0.88271369  1
  Mo  Mo186  1  0.60929765  -0.00110958  0.51416843  1
  Mo  Mo187  1  0.39982450  -0.00411558  0.22287276  1
  Mo  Mo188  1  0.80349814  0.40141361  0.75409799  1
  Mo  Mo189  1  0.90249098  0.49508801  0.62648424  1
  Mo  Mo190  1  0.50285176  0.29804065  0.12418489  1
  Mo  Mo191  1  0.79619978  0.60410913  0.26650599  1
  Mo  Mo192  1  0.19143925  0.80253910  0.48225156  1
  Mo  Mo193  1  0.39387668  0.79786836  0.76603165  1
  Mo  Mo194  1  0.90299878  0.09368619  0.87826221  1
  Mo  Mo195  1  -0.00514538  0.19971766  0.50770895  1
  Mo  Mo196  1  0.90450162  0.70812010  0.63702166  1
  Mo  Mo197  1  0.10091283  0.08968564  0.63785450  1
  Mo  Mo198  1  0.29857799  0.69626780  0.85993357  1
  Mo  Mo199  1  0.40605461  0.40683457  0.51872812  1
