# generated using pymatgen
data_HfZrTaTiMo
_symmetry_space_group_name_H-M   'P 1'
_cell_length_a   16.36344524
_cell_length_b   16.45568368
_cell_length_c   14.28683718
_cell_angle_alpha   89.98004687
_cell_angle_beta   89.97911975
_cell_angle_gamma   90.95540847
_symmetry_Int_Tables_number   1
_chemical_formula_structural   HfZrTaTiMo
_chemical_formula_sum   'Hf40 Zr40 Ta40 Ti40 Mo40'
_cell_volume   3846.50530170
_cell_formula_units_Z   40
loop_
 _symmetry_equiv_pos_site_id
 _symmetry_equiv_pos_as_xyz
  1  'x, y, z'
loop_
 _atom_site_type_symbol
 _atom_site_label
 _atom_site_symmetry_multiplicity
 _atom_site_fract_x
 _atom_site_fract_y
 _atom_site_fract_z
 _atom_site_occupancy
  Hf  Hf0  1  0.80036718  0.20717242  0.00480752  1
  Hf  Hf1  1  0.70753705  0.10573907  0.61330481  1
  Hf  Hf2  1  0.89730610  0.89882725  0.62563464  1
  Hf  Hf3  1  0.81335221  0.21844010  0.25477934  1
  Hf  Hf4  1  0.19859073  -0.00335085  0.75416955  1
  Hf  Hf5  1  0.00017615  0.59108705  0.75080282  1
  Hf  Hf6  1  0.59952303  0.79297860  0.24927389  1
  Hf  Hf7  1  0.50560320  0.10156513  0.86938535  1
  Hf  Hf8  1  -0.00254090  0.39642784  -0.00016348  1
  Hf  Hf9  1  0.59276610  0.59183525  0.00094157  1
  Hf  Hf10  1  0.50810881  0.91680666  0.88169907  1
  Hf  Hf11  1  0.39910967  -0.00461552  0.26044220  1
  Hf  Hf12  1  0.40261549  -0.00832899  0.48925425  1
  Hf  Hf13  1  0.50744032  0.10706063  0.62051878  1
  Hf  Hf14  1  0.09011574  0.89890181  0.89261851  1
  Hf  Hf15  1  0.39955016  0.59478473  0.00051757  1
  Hf  Hf16  1  0.29942501  0.30992567  0.86933460  1
  Hf  Hf17  1  0.39663388  0.79959544  0.00201022  1
  Hf  Hf18  1  0.30064700  0.09887704  0.61857382  1
  Hf  Hf19  1  0.39727432  0.81729076  0.75659601  1
  Hf  Hf20  1  0.28968356  0.89531937  0.13385996  1
  Hf  Hf21  1  0.19466960  0.39670570  0.25170805  1
  Hf  Hf22  1  0.60247778  0.80233318  0.00918677  1
  Hf  Hf23  1  0.68528225  0.48925477  0.61594428  1
  Hf  Hf24  1  0.79895680  0.61027486  0.25322649  1
  Hf  Hf25  1  -0.00173803  0.19601893  0.00027028  1
  Hf  Hf26  1  0.80728734  0.39696108  0.49082208  1
  Hf  Hf27  1  0.59860972  0.80932663  0.74248200  1
  Hf  Hf28  1  0.29757925  0.29336007  0.12849653  1
  Hf  Hf29  1  -0.00460193  -0.00608143  0.24543770  1
  Hf  Hf30  1  0.00334762  0.40057294  0.51447542  1
  Hf  Hf31  1  0.40105808  0.59453639  0.75395197  1
  Hf  Hf32  1  0.00165620  0.59131159  0.52506108  1
  Hf  Hf33  1  0.70223760  0.49985992  0.12599578  1
  Hf  Hf34  1  0.09564209  0.50175355  0.35914754  1
  Hf  Hf35  1  0.40596792  0.20900989  0.74301973  1
  Hf  Hf36  1  0.69834656  0.10174683  0.13866224  1
  Hf  Hf37  1  0.90011702  0.49965377  0.12407301  1
  Hf  Hf38  1  0.19949959  0.59414683  0.51465478  1
  Hf  Hf39  1  0.39793488  0.21034961  0.49837620  1
  Zr  Zr40  1  0.80080212  -0.00305040  0.46499535  1
  Zr  Zr41  1  0.30128890  0.52380386  0.36480668  1
  Zr  Zr42  1  0.39892096  0.40031295  0.26000185  1
  Zr  Zr43  1  0.59671513  -0.00682891  0.48593319  1
  Zr  Zr44  1  0.90128403  0.70136510  0.10907471  1
  Zr  Zr45  1  0.79318349  0.19990683  0.75965487  1
  Zr  Zr46  1  0.80954506  0.60113376  0.50475735  1
  Zr  Zr47  1  0.29535190  0.69302178  0.13489204  1
  Zr  Zr48  1  0.40894257  0.20920655  -0.00522890  1
  Zr  Zr49  1  0.69412900  0.50722635  0.37784848  1
  Zr  Zr50  1  0.18993955  0.19902125  0.74457341  1
  Zr  Zr51  1  0.50840889  0.10268877  0.13345076  1
  Zr  Zr52  1  0.50455430  0.11448938  0.36258321  1
  Zr  Zr53  1  0.89414292  0.08478272  0.87481645  1
  Zr  Zr54  1  0.91225094  0.50748187  0.35855919  1
  Zr  Zr55  1  0.91507550  0.11678066  0.37468365  1
  Zr  Zr56  1  0.30108050  0.10032924  0.87287592  1
  Zr  Zr57  1  0.49972663  0.70252661  0.87366466  1
  Zr  Zr58  1  0.70726311  0.90163022  0.61503053  1
  Zr  Zr59  1  0.40001273  0.79959584  0.49477181  1
  Zr  Zr60  1  0.69243589  0.08704619  0.88719288  1
  Zr  Zr61  1  0.59598327  0.59443197  0.74291718  1
  Zr  Zr62  1  0.00170450  0.19723887  0.74864426  1
  Zr  Zr63  1  0.70251407  0.70511450  0.61408985  1
  Zr  Zr64  1  0.92306189  0.71245558  0.37973545  1
  Zr  Zr65  1  0.00947983  0.00235679  0.74448840  1
  Zr  Zr66  1  0.00238787  -0.01158799  0.49394466  1
  Zr  Zr67  1  0.70336856  0.70086243  0.87542588  1
  Zr  Zr68  1  0.19946848  0.80706942  0.76124064  1
  Zr  Zr69  1  0.79843257  0.80797841  0.24878479  1
  Zr  Zr70  1  0.80467871  0.59022215  0.74548836  1
  Zr  Zr71  1  0.90632637  0.71051608  0.87234139  1
  Zr  Zr72  1  0.40861234  0.40530726  0.00512084  1
  Zr  Zr73  1  0.09188300  0.88146455  0.36968465  1
  Zr  Zr74  1  0.50461154  0.50872469  0.38413256  1
  Zr  Zr75  1  0.30033599  0.69642686  0.64011220  1
  Zr  Zr76  1  0.29496490  0.10965223  0.14039104  1
  Zr  Zr77  1  0.39354560  -0.00175986  0.00655079  1
  Zr  Zr78  1  0.19589872  0.39438047  0.50448717  1
  Zr  Zr79  1  0.19999989  0.80003060  0.50792894  1
  Ta  Ta80  1  0.69325928  0.48464285  0.87395072  1
  Ta  Ta81  1  0.89183278  0.29254061  0.62383047  1
  Ta  Ta82  1  0.09966556  0.49919994  0.12366886  1
  Ta  Ta83  1  0.10646803  0.68990203  0.38105402  1
  Ta  Ta84  1  0.10671146  0.10709045  0.37194242  1
  Ta  Ta85  1  0.00085675  0.39400600  0.74401956  1
  Ta  Ta86  1  0.79813123  0.80897139  0.00600626  1
  Ta  Ta87  1  0.50296997  0.90120179  0.13149344  1
  Ta  Ta88  1  0.80261114  0.39511729  0.25520925  1
  Ta  Ta89  1  0.19607331  0.59526757  -0.00455524  1
  Ta  Ta90  1  0.60721648  0.39950279  0.25420231  1
  Ta  Ta91  1  0.89680421  0.90018141  0.88092528  1
  Ta  Ta92  1  0.58984823  0.80442013  0.48574029  1
  Ta  Ta93  1  0.10450775  0.30038370  0.87986277  1
  Ta  Ta94  1  0.10573885  0.10005433  0.59905344  1
  Ta  Ta95  1  0.60394345  0.21222572  0.00217617  1
  Ta  Ta96  1  0.89473201  0.09816973  0.61840855  1
  Ta  Ta97  1  0.10273660  0.49119114  0.87539163  1
  Ta  Ta98  1  0.59642780  0.39538060  0.01066084  1
  Ta  Ta99  1  0.79397831  0.39106594  0.74850322  1
  Ta  Ta100  1  0.09697022  0.70298287  0.63412964  1
  Ta  Ta101  1  0.29267281  0.88819631  0.36174480  1
  Ta  Ta102  1  0.19421885  0.00364623  0.00368200  1
  Ta  Ta103  1  0.20288146  -0.00521517  0.48845014  1
  Ta  Ta104  1  0.50440243  0.29480051  0.14823210  1
  Ta  Ta105  1  0.39701678  0.40322395  0.50551650  1
  Ta  Ta106  1  0.80032511  0.59297129  -0.01223726  1
  Ta  Ta107  1  0.09168295  0.28622544  0.37229521  1
  Ta  Ta108  1  0.69557592  0.29567347  0.60534284  1
  Ta  Ta109  1  0.60300301  -0.00019031  0.73453996  1
  Ta  Ta110  1  0.51124065  0.31279280  0.61891184  1
  Ta  Ta111  1  0.19934828  0.40076987  0.00401607  1
  Ta  Ta112  1  0.29943053  0.48977085  0.64192690  1
  Ta  Ta113  1  0.29395758  0.50130272  0.12893113  1
  Ta  Ta114  1  0.50982683  0.30391285  0.38086934  1
  Ta  Ta115  1  0.00537017  0.59650329  -0.00880706  1
  Ta  Ta116  1  -0.01042376  0.37636090  0.24226951  1
  Ta  Ta117  1  0.10435100  0.10511026  0.13197236  1
  Ta  Ta118  1  0.10365260  0.29133950  0.12413037  1
  Ta  Ta119  1  0.49207625  0.68836366  0.36804167  1
  Ti  Ti120  1  0.89834237  0.30353833  0.87039808  1
  Ti  Ti121  1  0.30277114  0.90851985  0.62501329  1
  Ti  Ti122  1  0.90031444  0.10275652  0.13317392  1
  Ti  Ti123  1  0.09982843  0.89533983  0.11889316  1
  Ti  Ti124  1  0.80313973  -0.00406561  0.25497095  1
  Ti  Ti125  1  0.70429964  0.91120845  0.87891378  1
  Ti  Ti126  1  0.50105602  0.70191244  0.61853140  1
  Ti  Ti127  1  0.69835853  0.12066867  0.37254058  1
  Ti  Ti128  1  0.69710822  0.90940790  0.12715590  1
  Ti  Ti129  1  0.39745697  0.59918792  0.51335939  1
  Ti  Ti130  1  0.79757861  0.80938122  0.75916301  1
  Ti  Ti131  1  0.00687805  0.80787464  0.74388916  1
  Ti  Ti132  1  0.80300145  0.80421471  0.47875253  1
  Ti  Ti133  1  0.68533278  0.69341087  0.38556390  1
  Ti  Ti134  1  0.80347524  -0.00428382  0.01762900  1
  Ti  Ti135  1  0.69863167  0.69194915  0.11782320  1
  Ti  Ti136  1  0.29536086  0.49191211  0.86825620  1
  Ti  Ti137  1  0.50262076  0.48424296  0.85819149  1
  Ti  Ti138  1  0.89636586  0.49134746  0.87290847  1
  Ti  Ti139  1  0.09772908  0.70045549  0.87732987  1
  Ti  Ti140  1  0.69915952  0.30414523  0.13037352  1
  Ti  Ti141  1  0.19271938  -0.00284575  0.25523484  1
  Ti  Ti142  1  0.18721710  0.78217504  0.24827840  1
  Ti  Ti143  1  0.60873086  0.20949676  0.75361280  1
  Ti  Ti144  1  0.19810051  0.79680854  -0.00196338  1
  Ti  Ti145  1  0.01652435  0.61630545  0.22740341  1
  Ti  Ti146  1  0.29217188  0.10575273  0.37302032  1
  Ti  Ti147  1  0.00089546  0.80007858  0.22514952  1
  Ti  Ti148  1  0.40216168  0.79276534  0.25276720  1
  Ti  Ti149  1  0.79413276  0.39539548  -0.00540755  1
  Ti  Ti150  1  0.29441905  0.69705652  0.87755149  1
  Ti  Ti151  1  0.51247044  0.31059840  0.86142671  1
  Ti  Ti152  1  0.60707569  -0.01086176  0.26613386  1
  Ti  Ti153  1  0.90117921  0.71278213  0.62764038  1
  Ti  Ti154  1  0.50148087  0.50594938  0.14604642  1
  Ti  Ti155  1  0.29495762  0.30444786  0.62987499  1
  Ti  Ti156  1  0.29389752  0.29083551  0.37234495  1
  Ti  Ti157  1  -0.00337977  -0.00101810  0.01614697  1
  Ti  Ti158  1  0.00349309  0.20785016  0.51458567  1
  Ti  Ti159  1  0.19418452  0.59428186  0.75763219  1
  Mo  Mo160  1  0.10044400  0.70083545  0.10397512  1
  Mo  Mo161  1  0.69753825  0.89102048  0.36781097  1
  Mo  Mo162  1  0.19221557  0.60077926  0.23780295  1
  Mo  Mo163  1  0.19984231  0.19953711  0.49666994  1
  Mo  Mo164  1  0.19650184  0.39879496  0.75386617  1
  Mo  Mo165  1  0.40469044  -0.00079334  0.73969493  1
  Mo  Mo166  1  0.80605137  0.20264755  0.49302532  1
  Mo  Mo167  1  0.61230404  0.21388041  0.25315199  1
  Mo  Mo168  1  0.89842210  0.90516484  0.11882604  1
  Mo  Mo169  1  0.89480822  0.48605951  0.64280095  1
  Mo  Mo170  1  0.09829090  0.29654544  0.62619662  1
  Mo  Mo171  1  0.39916751  0.20545805  0.26720442  1
  Mo  Mo172  1  0.49544570  0.89010878  0.35581298  1
  Mo  Mo173  1  0.19435234  0.19988393  -0.00678004  1
  Mo  Mo174  1  0.40299715  0.60414196  0.23824433  1
  Mo  Mo175  1  0.89704241  0.30480571  0.10841968  1
  Mo  Mo176  1  0.90854781  0.30250473  0.39039343  1
  Mo  Mo177  1  0.10436934  0.90151169  0.61855141  1
  Mo  Mo178  1  0.49925863  0.69711018  0.13185883  1
  Mo  Mo179  1  0.69524465  0.30525967  0.88629277  1
  Mo  Mo180  1  0.00010211  0.80239505  0.00124851  1
  Mo  Mo181  1  0.58686336  0.60950156  0.50861737  1
  Mo  Mo182  1  0.59965661  0.60476546  0.23884192  1
  Mo  Mo183  1  0.10552175  0.49758843  0.64890593  1
  Mo  Mo184  1  0.40290462  0.40034705  0.74089945  1
  Mo  Mo185  1  0.60496686  0.20626462  0.49134062  1
  Mo  Mo186  1  0.29629000  0.70267344  0.36518459  1
  Mo  Mo187  1  0.00252770  0.19872829  0.23396864  1
  Mo  Mo188  1  0.19843552  0.20059532  0.26212736  1
  Mo  Mo189  1  0.49700976  0.90601188  0.63141582  1
  Mo  Mo190  1  0.90145472  0.89304860  0.36142992  1
  Mo  Mo191  1  0.79924778  -0.00526785  0.75297614  1
  Mo  Mo192  1  0.60199442  0.39200414  0.74328687  1
  Mo  Mo193  1  0.29494840  0.90258113  0.89176045  1
  Mo  Mo194  1  0.10082968  0.09947777  0.90163366  1
  Mo  Mo195  1  0.00144074  0.79317505  0.51913832  1
  Mo  Mo196  1  0.70101076  0.30288133  0.37676820  1
  Mo  Mo197  1  0.60509436  -0.00004847  0.01956635  1
  Mo  Mo198  1  0.49141997  0.49669370  0.61964336  1
  Mo  Mo199  1  0.59748391  0.40050228  0.49381520  1
