# generated using pymatgen
data_HfZrTaTiMo
_symmetry_space_group_name_H-M   'P 1'
_cell_length_a   15.82650716
_cell_length_b   15.83112144
_cell_length_c   15.38625142
_cell_angle_alpha   90.06118679
_cell_angle_beta   90.04288958
_cell_angle_gamma   90.01799411
_symmetry_Int_Tables_number   1
_chemical_formula_structural   HfZrTaTiMo
_chemical_formula_sum   'Hf40 Zr40 Ta40 Ti40 Mo40'
_cell_volume   3855.04269818
_cell_formula_units_Z   40
loop_
 _symmetry_equiv_pos_site_id
 _symmetry_equiv_pos_as_xyz
  1  'x, y, z'
loop_
 _atom_site_type_symbol
 _atom_site_label
 _atom_site_symmetry_multiplicity
 _atom_site_fract_x
 _atom_site_fract_y
 _atom_site_fract_z
 _atom_site_occupancy
  Hf  Hf0  1  0.59397926  0.39998958  0.49522547  1
  Hf  Hf1  1  0.60487000  0.20143139  0.00373663  1
  Hf  Hf2  1  0.59410034  -0.00772702  0.24351623  1
  Hf  Hf3  1  0.59830220  -0.01479740  0.49878979  1
  Hf  Hf4  1  0.80561357  0.40611118  0.50328143  1
  Hf  Hf5  1  0.39938983  0.60900929  0.22944997  1
  Hf  Hf6  1  0.29448056  0.69811584  0.64278584  1
  Hf  Hf7  1  0.39381456  0.80097243  0.23562506  1
  Hf  Hf8  1  0.30330119  0.70633184  0.37544604  1
  Hf  Hf9  1  0.21102598  0.20176611  0.74170856  1
  Hf  Hf10  1  0.90031910  0.50273557  0.35833706  1
  Hf  Hf11  1  0.40933396  0.01542329  0.76221574  1
  Hf  Hf12  1  0.59706030  0.59685128  0.77223693  1
  Hf  Hf13  1  0.68593889  0.68731904  0.35275974  1
  Hf  Hf14  1  0.70389457  0.09155722  0.61188809  1
  Hf  Hf15  1  0.01074066  -0.01319493  0.48803123  1
  Hf  Hf16  1  0.59917955  0.40014190  0.24785332  1
  Hf  Hf17  1  0.89952575  0.09770587  0.60159643  1
  Hf  Hf18  1  0.49933281  0.09655149  0.11297264  1
  Hf  Hf19  1  0.48841738  0.69757466  0.65805587  1
  Hf  Hf20  1  0.10156416  0.10136217  0.14376844  1
  Hf  Hf21  1  0.70159774  0.88897063  0.63961381  1
  Hf  Hf22  1  -0.00214546  0.60046483  0.49701113  1
  Hf  Hf23  1  0.00739518  0.40585414  0.00417550  1
  Hf  Hf24  1  0.50672941  0.52666227  0.36161897  1
  Hf  Hf25  1  0.20244716  0.20439062  0.49840087  1
  Hf  Hf26  1  0.90363045  0.89571286  0.11619012  1
  Hf  Hf27  1  0.60447473  -0.00939305  -0.01524049  1
  Hf  Hf28  1  0.69816737  0.88737148  0.36341347  1
  Hf  Hf29  1  0.60596797  0.19622762  0.24527596  1
  Hf  Hf30  1  0.81139324  0.39871333  0.74738552  1
  Hf  Hf31  1  0.00606770  0.20453714  0.00032325  1
  Hf  Hf32  1  0.10865137  0.08837916  0.36063515  1
  Hf  Hf33  1  0.29165521  0.89594904  0.10267166  1
  Hf  Hf34  1  0.91105028  0.09274926  0.12893293  1
  Hf  Hf35  1  0.00729192  0.39456096  0.48008556  1
  Hf  Hf36  1  0.10131177  0.29978641  0.62717094  1
  Hf  Hf37  1  0.58721760  0.78327375  0.50591005  1
  Hf  Hf38  1  0.20537142  0.59826568  0.49027208  1
  Hf  Hf39  1  0.68922237  0.70037144  0.11706343  1
  Zr  Zr40  1  0.91460020  0.68528268  0.89276350  1
  Zr  Zr41  1  0.48814360  0.48519010  0.64336020  1
  Zr  Zr42  1  0.28367460  0.69345850  0.87675885  1
  Zr  Zr43  1  0.89129921  0.70022505  0.62385115  1
  Zr  Zr44  1  0.69986225  0.89551833  0.12634570  1
  Zr  Zr45  1  0.21138796  0.41453471  0.76333581  1
  Zr  Zr46  1  0.28740459  0.90796150  0.37362530  1
  Zr  Zr47  1  0.19569674  0.00839509  -0.01084942  1
  Zr  Zr48  1  0.10469271  0.50586190  0.62541516  1
  Zr  Zr49  1  0.19344083  0.58833091  0.02416148  1
  Zr  Zr50  1  -0.00592529  0.80224961  0.76235577  1
  Zr  Zr51  1  0.08709985  0.72241514  0.09616796  1
  Zr  Zr52  1  0.70050202  0.50231431  0.64334900  1
  Zr  Zr53  1  0.49713599  0.89841595  0.64643856  1
  Zr  Zr54  1  0.21084612  0.40420355  0.26143208  1
  Zr  Zr55  1  0.78775807  0.79071267  0.49802295  1
  Zr  Zr56  1  0.80000156  0.20124400  0.75470640  1
  Zr  Zr57  1  0.30960618  0.09398506  0.38264442  1
  Zr  Zr58  1  0.49300657  0.31026471  0.12104671  1
  Zr  Zr59  1  0.48179215  0.89474993  0.37740998  1
  Zr  Zr60  1  0.70814597  0.49371929  0.88168866  1
  Zr  Zr61  1  0.69860039  0.49622266  0.12514856  1
  Zr  Zr62  1  0.71039611  0.09549360  0.38514136  1
  Zr  Zr63  1  -0.01230018  0.20466537  0.75142011  1
  Zr  Zr64  1  0.30275035  0.29900174  0.88658542  1
  Zr  Zr65  1  0.01121242  0.60962436  0.23588089  1
  Zr  Zr66  1  0.80563306  0.00041830  0.76081785  1
  Zr  Zr67  1  0.59455292  0.18814052  0.76080845  1
  Zr  Zr68  1  0.18447503  0.80859601  0.51083892  1
  Zr  Zr69  1  0.09371314  0.52652528  0.87528771  1
  Zr  Zr70  1  -0.00771104  0.40889268  0.75226569  1
  Zr  Zr71  1  0.81609207  0.20074936  0.25302294  1
  Zr  Zr72  1  0.69490155  0.29497329  0.62370283  1
  Zr  Zr73  1  0.09421844  0.91178166  0.13237900  1
  Zr  Zr74  1  0.60450800  0.60303315  0.52100232  1
  Zr  Zr75  1  0.49558985  0.09482710  0.37882756  1
  Zr  Zr76  1  0.70579586  0.50242492  0.36068254  1
  Zr  Zr77  1  0.39460395  0.40999553  0.47625241  1
  Zr  Zr78  1  0.90302650  0.90026805  0.61823615  1
  Zr  Zr79  1  0.20680234  0.40053002  0.48013063  1
  Ta  Ta80  1  0.40241775  0.00092648  -0.01432605  1
  Ta  Ta81  1  0.39911307  0.59369261  -0.00507833  1
  Ta  Ta82  1  0.49832308  0.29487507  0.36528919  1
  Ta  Ta83  1  0.71350382  0.09042714  0.11873971  1
  Ta  Ta84  1  0.30393985  0.50643180  0.62928032  1
  Ta  Ta85  1  0.40294002  0.21096876  0.50911013  1
  Ta  Ta86  1  0.80716302  0.20391116  0.01008800  1
  Ta  Ta87  1  0.31547135  0.31652606  0.63013418  1
  Ta  Ta88  1  0.10242904  0.29968934  0.87083613  1
  Ta  Ta89  1  0.30454681  0.10967424  0.87793449  1
  Ta  Ta90  1  0.20163425  0.00284557  0.52264406  1
  Ta  Ta91  1  0.80877439  0.60825832  0.22896382  1
  Ta  Ta92  1  0.29911626  0.90159622  0.86488662  1
  Ta  Ta93  1  0.59605100  0.20477058  0.49633400  1
  Ta  Ta94  1  0.90866921  0.49158327  0.13269838  1
  Ta  Ta95  1  0.81247223  -0.00493313  0.26078970  1
  Ta  Ta96  1  0.79688057  0.80269776  -0.01100971  1
  Ta  Ta97  1  0.89489853  0.70038643  0.37507952  1
  Ta  Ta98  1  0.21061775  0.20304521  0.25231379  1
  Ta  Ta99  1  0.80791745  0.59568861  0.01350800  1
  Ta  Ta100  1  0.49269604  0.88975134  0.10206889  1
  Ta  Ta101  1  0.09496934  0.09521489  0.63498935  1
  Ta  Ta102  1  0.00226305  0.00382506  -0.01777753  1
  Ta  Ta103  1  0.09334734  0.30222530  0.14680184  1
  Ta  Ta104  1  0.19518403  0.79105108  0.24317025  1
  Ta  Ta105  1  0.70484000  0.29891159  0.37770103  1
  Ta  Ta106  1  0.10301221  0.10355739  0.85711382  1
  Ta  Ta107  1  0.59897718  0.79792156  -0.02218972  1
  Ta  Ta108  1  0.49359633  0.29388534  0.88945159  1
  Ta  Ta109  1  0.29770064  0.30003254  0.11950225  1
  Ta  Ta110  1  0.60016840  0.40020108  -0.00615734  1
  Ta  Ta111  1  0.40477432  0.61015777  0.50112837  1
  Ta  Ta112  1  0.71133886  0.09818547  0.89351675  1
  Ta  Ta113  1  0.39729094  0.20102937  0.24137771  1
  Ta  Ta114  1  0.39320180  -0.00036968  0.22730262  1
  Ta  Ta115  1  0.50149635  0.10067049  0.61430520  1
  Ta  Ta116  1  0.29779226  0.90288631  0.64730732  1
  Ta  Ta117  1  0.19401862  0.20515108  0.00572520  1
  Ta  Ta118  1  0.19039877  0.80021556  0.75584336  1
  Ta  Ta119  1  0.39209521  0.80211406  0.51569507  1
  Ti  Ti120  1  0.80733280  0.39500789  0.00887791  1
  Ti  Ti121  1  0.60150037  0.79965395  0.77545470  1
  Ti  Ti122  1  0.89616174  0.90617466  0.88229011  1
  Ti  Ti123  1  0.79651332  0.78988856  0.76791636  1
  Ti  Ti124  1  0.30713009  0.49046009  0.12307806  1
  Ti  Ti125  1  0.10207933  0.89597742  0.35645579  1
  Ti  Ti126  1  0.29892536  0.10239296  0.11567892  1
  Ti  Ti127  1  0.80701715  0.79327971  0.24239606  1
  Ti  Ti128  1  0.81239451  0.59452785  0.75693543  1
  Ti  Ti129  1  0.48772457  0.69920072  0.88023353  1
  Ti  Ti130  1  0.60330964  0.00147745  0.77061422  1
  Ti  Ti131  1  0.41067524  0.21151602  0.74018512  1
  Ti  Ti132  1  0.10164658  0.50728855  0.35771015  1
  Ti  Ti133  1  0.09203854  0.70694770  0.62485865  1
  Ti  Ti134  1  0.57721876  0.78816790  0.24399366  1
  Ti  Ti135  1  0.00249485  0.19794619  0.47796810  1
  Ti  Ti136  1  0.58752962  0.38665249  0.76719524  1
  Ti  Ti137  1  0.39914660  0.40774579  -0.00849638  1
  Ti  Ti138  1  0.20609247  0.60654135  0.23691355  1
  Ti  Ti139  1  0.50561757  0.50875306  0.11303490  1
  Ti  Ti140  1  0.81309536  0.38861755  0.24711315  1
  Ti  Ti141  1  0.29938293  0.71252556  0.09848312  1
  Ti  Ti142  1  0.30653594  0.10007760  0.62631901  1
  Ti  Ti143  1  0.70825421  0.29902765  0.12616896  1
  Ti  Ti144  1  0.09673697  0.90942875  0.64641166  1
  Ti  Ti145  1  0.09647859  0.70733066  0.37442720  1
  Ti  Ti146  1  0.49745411  0.70227248  0.09465235  1
  Ti  Ti147  1  0.89981653  0.89305178  0.37813649  1
  Ti  Ti148  1  0.70415368  0.29751645  0.88167600  1
  Ti  Ti149  1  0.39822315  0.40345819  0.25695172  1
  Ti  Ti150  1  0.70508347  0.69154611  0.88424487  1
  Ti  Ti151  1  -0.00821662  0.79912163  0.25595027  1
  Ti  Ti152  1  0.90305748  0.29451483  0.60578662  1
  Ti  Ti153  1  0.90105939  0.10283096  0.88483089  1
  Ti  Ti154  1  -0.00432142  0.60106445  0.73845278  1
  Ti  Ti155  1  0.19461841  0.39851736  0.00749270  1
  Ti  Ti156  1  0.38469027  0.57723481  0.77805748  1
  Ti  Ti157  1  0.10020044  0.90766004  0.86413241  1
  Ti  Ti158  1  0.89886847  0.30648973  0.88659187  1
  Ti  Ti159  1  0.79544416  0.59853420  0.50686154  1
  Mo  Mo160  1  0.90632155  0.09247244  0.38238078  1
  Mo  Mo161  1  0.00244598  0.20374644  0.26416228  1
  Mo  Mo162  1  0.59631802  0.60073495  -0.00907152  1
  Mo  Mo163  1  0.69747633  0.70192609  0.66153804  1
  Mo  Mo164  1  0.39954391  0.80009334  -0.01872247  1
  Mo  Mo165  1  0.59184896  0.60738124  0.22345480  1
  Mo  Mo166  1  0.89666154  0.49747745  0.89475623  1
  Mo  Mo167  1  0.29510077  0.49858059  0.89343150  1
  Mo  Mo168  1  -0.00665597  -0.00562100  0.26847058  1
  Mo  Mo169  1  0.10231952  0.29113855  0.36080546  1
  Mo  Mo170  1  0.20209856  0.00610569  0.74638852  1
  Mo  Mo171  1  0.89518714  0.70767158  0.11272866  1
  Mo  Mo172  1  0.20979799  -0.00350984  0.23787047  1
  Mo  Mo173  1  0.39276335  -0.00145039  0.52701026  1
  Mo  Mo174  1  -0.00482672  0.59564658  0.02290711  1
  Mo  Mo175  1  0.90299767  0.30143664  0.12081062  1
  Mo  Mo176  1  0.19108853  0.60481796  0.74122680  1
  Mo  Mo177  1  0.39604122  0.80049682  0.76673551  1
  Mo  Mo178  1  0.80663238  0.00144431  -0.00574733  1
  Mo  Mo179  1  0.70641082  0.89471794  0.86715638  1
  Mo  Mo180  1  0.39360760  0.19720758  0.01325214  1
  Mo  Mo181  1  0.49858830  0.89652196  0.87214293  1
  Mo  Mo182  1  0.31198163  0.29013640  0.36704646  1
  Mo  Mo183  1  0.10438372  0.49097020  0.14171909  1
  Mo  Mo184  1  0.89851738  0.29658317  0.38603957  1
  Mo  Mo185  1  0.00054654  0.39275150  0.25988540  1
  Mo  Mo186  1  0.80262693  -0.00745561  0.48250318  1
  Mo  Mo187  1  0.40429767  0.39589437  0.76732228  1
  Mo  Mo188  1  0.30572954  0.51692216  0.35688528  1
  Mo  Mo189  1  0.49756716  0.49319876  0.88356579  1
  Mo  Mo190  1  -0.00163035  0.00556781  0.76378558  1
  Mo  Mo191  1  0.19463472  0.80836189  -0.02677448  1
  Mo  Mo192  1  0.09753755  0.70731417  0.88145504  1
  Mo  Mo193  1  0.49170963  0.70616270  0.37777991  1
  Mo  Mo194  1  0.49860352  0.29710075  0.62467321  1
  Mo  Mo195  1  -0.00122134  0.81626994  -0.02110952  1
  Mo  Mo196  1  0.80332920  0.20424868  0.49108518  1
  Mo  Mo197  1  0.00166442  0.79569304  0.48356236  1
  Mo  Mo198  1  0.90039410  0.50176532  0.61499003  1
  Mo  Mo199  1  0.49964014  0.10610274  0.88811877  1
