# generated using pymatgen
data_HfZrTaTiMo
_symmetry_space_group_name_H-M   'P 1'
_cell_length_a   15.83528203
_cell_length_b   15.83928406
_cell_length_c   15.39871706
_cell_angle_alpha   90.04686582
_cell_angle_beta   89.94470517
_cell_angle_gamma   90.00864753
_symmetry_Int_Tables_number   1
_chemical_formula_structural   HfZrTaTiMo
_chemical_formula_sum   'Hf40 Zr40 Ta40 Ti40 Mo40'
_cell_volume   3862.29584400
_cell_formula_units_Z   40
loop_
 _symmetry_equiv_pos_site_id
 _symmetry_equiv_pos_as_xyz
  1  'x, y, z'
loop_
 _atom_site_type_symbol
 _atom_site_label
 _atom_site_symmetry_multiplicity
 _atom_site_fract_x
 _atom_site_fract_y
 _atom_site_fract_z
 _atom_site_occupancy
  Hf  Hf0  1  0.68670574  0.29076458  0.88887767  1
  Hf  Hf1  1  0.90468173  0.10363156  0.13300003  1
  Hf  Hf2  1  0.20273438  0.60170115  -0.01259086  1
  Hf  Hf3  1  0.90077489  0.10070029  0.36138754  1
  Hf  Hf4  1  0.79873595  0.19846000  0.49568290  1
  Hf  Hf5  1  0.69895139  0.89815691  0.35775321  1
  Hf  Hf6  1  0.30289115  0.89449832  0.86170560  1
  Hf  Hf7  1  0.58338867  0.41400529  -0.01903953  1
  Hf  Hf8  1  0.19758581  0.41544924  0.25054202  1
  Hf  Hf9  1  0.50395598  0.32020492  0.12785256  1
  Hf  Hf10  1  0.08647060  0.32319218  0.37657852  1
  Hf  Hf11  1  0.40267530  0.79419403  0.26649898  1
  Hf  Hf12  1  0.51359916  0.11172300  0.87867515  1
  Hf  Hf13  1  0.10959662  0.09964474  0.88309288  1
  Hf  Hf14  1  0.60194548  0.20421858  0.73688189  1
  Hf  Hf15  1  0.50370810  0.50779003  0.62586837  1
  Hf  Hf16  1  0.50188476  0.89755215  0.86691094  1
  Hf  Hf17  1  0.41107854  0.20228595  0.50459492  1
  Hf  Hf18  1  0.90717685  0.09604033  0.61743887  1
  Hf  Hf19  1  0.08809832  0.70291308  0.62141701  1
  Hf  Hf20  1  0.89890536  0.30579030  0.62149039  1
  Hf  Hf21  1  0.20000569  0.20406740  0.26013416  1
  Hf  Hf22  1  0.89874369  0.68741035  0.11189903  1
  Hf  Hf23  1  0.60390252  0.19223421  0.49687861  1
  Hf  Hf24  1  0.41466383  -0.01228971  0.50024351  1
  Hf  Hf25  1  0.40141604  0.41808291  0.25920710  1
  Hf  Hf26  1  0.50757757  0.30189310  0.36120656  1
  Hf  Hf27  1  0.00446792  0.20711487  -0.00149459  1
  Hf  Hf28  1  0.61142317  0.00798744  0.00736803  1
  Hf  Hf29  1  0.19429089  0.60351971  0.73933427  1
  Hf  Hf30  1  0.79652319  0.59508412  0.24975202  1
  Hf  Hf31  1  -0.00408891  -0.00259898  0.76065709  1
  Hf  Hf32  1  0.09955663  0.69706526  0.12821145  1
  Hf  Hf33  1  0.10546130  0.70225021  0.37683528  1
  Hf  Hf34  1  0.00321067  -0.01024952  0.00617405  1
  Hf  Hf35  1  -0.00530196  0.58255979  0.25624951  1
  Hf  Hf36  1  -0.00522201  0.20269297  0.76747023  1
  Hf  Hf37  1  0.29771275  0.30781443  0.38196528  1
  Hf  Hf38  1  0.10891480  0.89146740  0.87014155  1
  Hf  Hf39  1  0.80149463  -0.01152630  0.01049753  1
  Zr  Zr40  1  0.10298307  0.08594519  0.36634716  1
  Zr  Zr41  1  0.40139828  0.60280392  0.26342009  1
  Zr  Zr42  1  0.89409020  0.31252997  0.36946886  1
  Zr  Zr43  1  0.60069364  0.39245156  0.50839585  1
  Zr  Zr44  1  0.69926052  0.69106655  0.62034270  1
  Zr  Zr45  1  0.88312930  0.51136530  0.87763923  1
  Zr  Zr46  1  0.29956892  0.71184392  0.86445937  1
  Zr  Zr47  1  0.89697432  0.50089631  0.63782436  1
  Zr  Zr48  1  0.50551091  0.71225912  0.62958875  1
  Zr  Zr49  1  0.50599550  0.89333992  0.14191053  1
  Zr  Zr50  1  0.18288197  0.42872587  0.51179113  1
  Zr  Zr51  1  0.21564617  -0.00176531  0.01856870  1
  Zr  Zr52  1  0.66363792  0.50854047  0.13237780  1
  Zr  Zr53  1  0.19659729  0.40451537  -0.01011510  1
  Zr  Zr54  1  0.69608652  0.49161963  0.37451368  1
  Zr  Zr55  1  0.29639724  0.09999879  0.61718441  1
  Zr  Zr56  1  0.29042471  0.90262099  0.36808047  1
  Zr  Zr57  1  0.01389025  0.57375090  0.49476820  1
  Zr  Zr58  1  0.40388107  -0.00565647  0.01560721  1
  Zr  Zr59  1  0.30739562  0.09645419  0.37152546  1
  Zr  Zr60  1  0.90249972  0.69768043  0.38681721  1
  Zr  Zr61  1  0.70590934  0.08687070  0.62427734  1
  Zr  Zr62  1  0.79685707  0.39734182  0.22371799  1
  Zr  Zr63  1  0.77798006  0.19218952  0.02002927  1
  Zr  Zr64  1  0.30412121  0.10393828  0.86967995  1
  Zr  Zr65  1  0.09121402  0.30525118  0.62806688  1
  Zr  Zr66  1  0.79619476  0.80718119  0.50588489  1
  Zr  Zr67  1  0.39754971  0.19869513  0.01090159  1
  Zr  Zr68  1  0.11257819  0.10848172  0.12740528  1
  Zr  Zr69  1  0.49965960  0.70733619  0.86184644  1
  Zr  Zr70  1  0.10042648  0.10166001  0.62483904  1
  Zr  Zr71  1  0.29692103  0.30847987  0.63064927  1
  Zr  Zr72  1  0.79855930  0.19618163  0.76060057  1
  Zr  Zr73  1  0.61835310  0.20317598  0.22991616  1
  Zr  Zr74  1  0.40767264  0.00211300  0.73679323  1
  Zr  Zr75  1  0.39784224  0.41188613  0.50269759  1
  Zr  Zr76  1  0.29358020  0.29997534  0.12238936  1
  Zr  Zr77  1  0.80463579  -0.00984118  0.75586585  1
  Zr  Zr78  1  0.50753962  0.68568904  0.12096403  1
  Zr  Zr79  1  0.91175652  0.89243945  0.36443213  1
  Ta  Ta80  1  0.88914466  0.30418317  0.89348894  1
  Ta  Ta81  1  0.70512156  0.29731494  0.36746098  1
  Ta  Ta82  1  0.50846686  0.08876973  0.35660259  1
  Ta  Ta83  1  0.69558949  0.69441739  0.38390505  1
  Ta  Ta84  1  0.40845708  0.20750128  0.73746950  1
  Ta  Ta85  1  0.39811701  0.80270890  0.50487850  1
  Ta  Ta86  1  0.19329053  0.20382181  0.49133209  1
  Ta  Ta87  1  0.70338885  0.89177322  0.87318191  1
  Ta  Ta88  1  0.78848217  0.40990551  0.00755243  1
  Ta  Ta89  1  0.30498576  0.50799276  0.11629715  1
  Ta  Ta90  1  0.00509088  0.59661722  -0.01320200  1
  Ta  Ta91  1  0.09697953  0.90054269  0.63081521  1
  Ta  Ta92  1  0.09646266  0.50221564  0.12239308  1
  Ta  Ta93  1  0.30604857  0.49664455  0.85650098  1
  Ta  Ta94  1  0.70966516  0.69800451  0.87316279  1
  Ta  Ta95  1  0.09609333  0.70786005  0.87051217  1
  Ta  Ta96  1  0.39324480  0.60162167  0.73603290  1
  Ta  Ta97  1  0.00268500  -0.01059599  0.49518970  1
  Ta  Ta98  1  0.00298903  0.19889954  0.48840786  1
  Ta  Ta99  1  0.80191422  0.78835145  0.24366055  1
  Ta  Ta100  1  0.89437550  0.09885129  0.89283538  1
  Ta  Ta101  1  0.79659275  0.79717980  0.00830072  1
  Ta  Ta102  1  -0.00204638  0.40694967  -0.00403536  1
  Ta  Ta103  1  0.19654960  0.80585440  0.51009839  1
  Ta  Ta104  1  0.10391754  0.89281044  0.13962798  1
  Ta  Ta105  1  0.80168037  -0.00451074  0.23788413  1
  Ta  Ta106  1  0.50987900  0.09291510  0.62197937  1
  Ta  Ta107  1  0.40516664  0.59062791  -0.01520737  1
  Ta  Ta108  1  0.20619910  0.80233137  0.01411254  1
  Ta  Ta109  1  0.89581764  0.70411798  0.88339249  1
  Ta  Ta110  1  0.80025738  -0.00323248  0.49096812  1
  Ta  Ta111  1  -0.00125396  0.40221403  0.77639206  1
  Ta  Ta112  1  0.70439911  0.49907050  0.63387865  1
  Ta  Ta113  1  0.59575178  0.39908914  0.75128741  1
  Ta  Ta114  1  0.30104487  0.30158024  0.86442182  1
  Ta  Ta115  1  0.69811720  0.88676268  0.13668144  1
  Ta  Ta116  1  0.58962708  0.81067026  0.48858800  1
  Ta  Ta117  1  0.60624471  0.80047635  -0.00472819  1
  Ta  Ta118  1  0.80493379  0.79380361  0.74524667  1
  Ta  Ta119  1  0.60526388  -0.00581731  0.48708088  1
  Ti  Ti120  1  0.00530661  0.79801709  0.00284439  1
  Ti  Ti121  1  0.39662223  0.40935169  -0.01080210  1
  Ti  Ti122  1  0.59666074  0.60135970  -0.02059435  1
  Ti  Ti123  1  0.90065290  0.30453551  0.11642303  1
  Ti  Ti124  1  0.50332282  0.09709186  0.13818823  1
  Ti  Ti125  1  0.00603151  -0.00738859  0.24257250  1
  Ti  Ti126  1  0.69418870  0.69726759  0.12361127  1
  Ti  Ti127  1  0.10692249  0.30112339  0.87618996  1
  Ti  Ti128  1  -0.00472390  0.60316245  0.76027149  1
  Ti  Ti129  1  0.68658021  0.89243965  0.63172489  1
  Ti  Ti130  1  0.90045041  0.88798579  0.88148135  1
  Ti  Ti131  1  0.49763931  0.68825938  0.39972182  1
  Ti  Ti132  1  0.70761734  0.30777532  0.62442255  1
  Ti  Ti133  1  0.60293875  0.59967688  0.75776016  1
  Ti  Ti134  1  -0.00019638  0.21452581  0.24670032  1
  Ti  Ti135  1  0.30637725  0.69663839  0.11890057  1
  Ti  Ti136  1  0.90764103  0.88391089  0.13541549  1
  Ti  Ti137  1  0.60777745  0.00067161  0.75622069  1
  Ti  Ti138  1  0.89865973  0.69632768  0.61684850  1
  Ti  Ti139  1  0.09920776  0.88967380  0.36301904  1
  Ti  Ti140  1  0.29088545  0.52068205  0.39208372  1
  Ti  Ti141  1  0.79336745  0.39495854  0.76223155  1
  Ti  Ti142  1  -0.00695568  0.79714919  0.74891267  1
  Ti  Ti143  1  0.40052577  0.19903276  0.24486007  1
  Ti  Ti144  1  0.69908534  0.50543844  0.86556758  1
  Ti  Ti145  1  0.19336634  0.40877090  0.75045911  1
  Ti  Ti146  1  0.09880719  0.30708281  0.12265367  1
  Ti  Ti147  1  0.20694873  0.60176770  0.24755368  1
  Ti  Ti148  1  0.29922064  0.89196979  0.63128899  1
  Ti  Ti149  1  0.20755160  0.79324742  0.24318904  1
  Ti  Ti150  1  0.70645594  0.09900102  0.35693344  1
  Ti  Ti151  1  0.59834994  0.78056119  0.26409819  1
  Ti  Ti152  1  0.20066347  -0.00070359  0.74332235  1
  Ti  Ti153  1  0.90656111  0.89399990  0.61748462  1
  Ti  Ti154  1  0.80167557  0.58317928  0.49317956  1
  Ti  Ti155  1  0.39934943  0.79917980  0.00957172  1
  Ti  Ti156  1  0.19645788  -0.00465545  0.50437531  1
  Ti  Ti157  1  0.29447300  0.70058056  0.39855850  1
  Ti  Ti158  1  0.20124899  0.20274492  0.75136909  1
  Ti  Ti159  1  0.48819518  0.30339158  0.86984492  1
  Mo  Mo160  1  0.60040569  0.60072520  0.49533536  1
  Mo  Mo161  1  0.49606627  0.50369033  0.85060400  1
  Mo  Mo162  1  0.79645148  0.40091979  0.50671307  1
  Mo  Mo163  1  0.59072111  0.60281374  0.27368542  1
  Mo  Mo164  1  0.09802289  0.50460091  0.86613990  1
  Mo  Mo165  1  0.39306256  0.60729676  0.51337986  1
  Mo  Mo166  1  0.29754481  0.70584703  0.61594763  1
  Mo  Mo167  1  0.00207729  0.79084624  0.24000425  1
  Mo  Mo168  1  0.00339815  0.80590469  0.50949893  1
  Mo  Mo169  1  0.08999641  0.49985533  0.65287389  1
  Mo  Mo170  1  -0.00805289  0.40164392  0.50209051  1
  Mo  Mo171  1  0.70011299  0.08549625  0.13999726  1
  Mo  Mo172  1  0.20400393  -0.00666890  0.23871178  1
  Mo  Mo173  1  0.50462256  0.29955870  0.63135772  1
  Mo  Mo174  1  0.60391628  -0.00322468  0.25192434  1
  Mo  Mo175  1  0.59493755  0.40571758  0.26066161  1
  Mo  Mo176  1  0.90125469  0.48606530  0.38197723  1
  Mo  Mo177  1  0.59128959  0.20276407  0.01532990  1
  Mo  Mo178  1  0.61110398  0.80439792  0.76077326  1
  Mo  Mo179  1  0.50087530  0.89399094  0.36547518  1
  Mo  Mo180  1  0.51341436  0.90342490  0.63212098  1
  Mo  Mo181  1  0.49945914  0.50803832  0.39808700  1
  Mo  Mo182  1  0.70017874  0.09210489  0.87121470  1
  Mo  Mo183  1  0.20365090  0.60730842  0.51577294  1
  Mo  Mo184  1  0.79843194  0.60683607  0.74873285  1
  Mo  Mo185  1  -0.00120114  0.39975034  0.22087789  1
  Mo  Mo186  1  0.30110475  0.88650912  0.14126420  1
  Mo  Mo187  1  0.90034381  0.50139471  0.10053065  1
  Mo  Mo188  1  0.19579786  0.80448048  0.73214038  1
  Mo  Mo189  1  0.39906426  0.80243974  0.72715683  1
  Mo  Mo190  1  0.78402422  0.60312203  0.00370457  1
  Mo  Mo191  1  0.48652302  0.50592672  0.11805997  1
  Mo  Mo192  1  0.40340596  -0.00026525  0.24443214  1
  Mo  Mo193  1  0.31014249  0.09574600  0.14882362  1
  Mo  Mo194  1  0.80423836  0.20113554  0.23874855  1
  Mo  Mo195  1  0.69073584  0.31001564  0.10775197  1
  Mo  Mo196  1  0.40097120  0.40175216  0.74835598  1
  Mo  Mo197  1  0.10510455  0.50674383  0.35861833  1
  Mo  Mo198  1  0.29789332  0.50533010  0.63816081  1
  Mo  Mo199  1  0.20166953  0.20835823  -0.00876320  1
