# generated using pymatgen
data_HfZrTaTiMo
_symmetry_space_group_name_H-M   'P 1'
_cell_length_a   16.41341891
_cell_length_b   16.42579259
_cell_length_c   14.26911501
_cell_angle_alpha   90.24688977
_cell_angle_beta   90.09455817
_cell_angle_gamma   90.78480898
_symmetry_Int_Tables_number   1
_chemical_formula_structural   HfZrTaTiMo
_chemical_formula_sum   'Hf40 Zr40 Ta40 Ti40 Mo40'
_cell_volume   3846.59991289
_cell_formula_units_Z   40
loop_
 _symmetry_equiv_pos_site_id
 _symmetry_equiv_pos_as_xyz
  1  'x, y, z'
loop_
 _atom_site_type_symbol
 _atom_site_label
 _atom_site_symmetry_multiplicity
 _atom_site_fract_x
 _atom_site_fract_y
 _atom_site_fract_z
 _atom_site_occupancy
  Hf  Hf0  1  0.09165078  0.50820607  0.88897031  1
  Hf  Hf1  1  0.60847466  -0.00248235  0.26987065  1
  Hf  Hf2  1  0.90201051  0.10602902  0.12298384  1
  Hf  Hf3  1  0.09613568  0.48546586  0.61418170  1
  Hf  Hf4  1  0.89746416  0.29725524  0.14092141  1
  Hf  Hf5  1  0.40842340  0.60252340  0.75707316  1
  Hf  Hf6  1  0.29917690  0.88744930  0.62915250  1
  Hf  Hf7  1  0.00344590  0.60143667  0.73905637  1
  Hf  Hf8  1  0.10637096  0.90592777  0.12663471  1
  Hf  Hf9  1  0.00227736  0.00557496  0.25994626  1
  Hf  Hf10  1  0.79040638  0.59043857  0.00048105  1
  Hf  Hf11  1  0.80188218  -0.00573712  0.26235199  1
  Hf  Hf12  1  0.19260960  0.60582052  0.48958758  1
  Hf  Hf13  1  0.79793341  0.59530460  0.50094350  1
  Hf  Hf14  1  0.79777399  0.39662510  0.73539318  1
  Hf  Hf15  1  0.22000321  0.61109497  0.00526187  1
  Hf  Hf16  1  0.39442951  0.20633503  0.49319049  1
  Hf  Hf17  1  0.80376738  0.80772821  -0.00232201  1
  Hf  Hf18  1  0.79926451  0.19251316  0.28158833  1
  Hf  Hf19  1  0.50785441  0.30045981  0.13068956  1
  Hf  Hf20  1  0.40464576  -0.00329416  0.75431331  1
  Hf  Hf21  1  0.00925234  0.79097694  0.50210828  1
  Hf  Hf22  1  0.20085046  0.59911124  0.75334536  1
  Hf  Hf23  1  0.29767312  0.72299713  0.36790159  1
  Hf  Hf24  1  0.39790687  -0.00692836  -0.00714978  1
  Hf  Hf25  1  0.69885509  0.29890035  0.13956745  1
  Hf  Hf26  1  0.78749945  0.00542260  0.50766281  1
  Hf  Hf27  1  0.89951182  0.90039106  0.62997135  1
  Hf  Hf28  1  0.29596563  0.10430065  0.87519640  1
  Hf  Hf29  1  0.69945525  0.10633630  0.13019800  1
  Hf  Hf30  1  0.90721910  0.49198205  0.61656264  1
  Hf  Hf31  1  0.17533841  0.38581046  0.76675296  1
  Hf  Hf32  1  0.69579116  0.90153838  0.11774996  1
  Hf  Hf33  1  0.29075092  0.29609955  0.63970092  1
  Hf  Hf34  1  0.91092341  0.10794946  0.62950550  1
  Hf  Hf35  1  0.89812309  0.69706938  0.86781976  1
  Hf  Hf36  1  0.42385633  0.19576306  0.75871107  1
  Hf  Hf37  1  0.30514083  0.90259486  0.37465895  1
  Hf  Hf38  1  0.89871815  0.90395132  0.84594214  1
  Hf  Hf39  1  0.30292430  0.29948781  0.87647395  1
  Zr  Zr40  1  0.18986559  -0.00455417  0.75875984  1
  Zr  Zr41  1  0.69036306  0.49630981  0.37130090  1
  Zr  Zr42  1  0.09595729  0.50367019  0.13151861  1
  Zr  Zr43  1  0.29322673  0.09362227  0.12748759  1
  Zr  Zr44  1  0.39668698  0.60734509  0.23600733  1
  Zr  Zr45  1  0.80012344  0.00653328  -0.01230412  1
  Zr  Zr46  1  0.69786204  0.70405260  0.11954389  1
  Zr  Zr47  1  -0.00038559  0.81164451  -0.00348925  1
  Zr  Zr48  1  -0.00492864  0.39115630  0.00175247  1
  Zr  Zr49  1  -0.00422235  0.80249726  0.24868551  1
  Zr  Zr50  1  0.89910739  0.49946662  0.87017408  1
  Zr  Zr51  1  0.60071215  0.18986165  -0.02007383  1
  Zr  Zr52  1  0.79451931  0.39459859  -0.00200048  1
  Zr  Zr53  1  0.52381200  0.30267938  0.61805386  1
  Zr  Zr54  1  0.29375239  0.49344741  0.62913228  1
  Zr  Zr55  1  0.69197249  0.30073761  0.85194873  1
  Zr  Zr56  1  0.39381061  0.39322802  0.48808483  1
  Zr  Zr57  1  0.30177902  0.89772277  0.14755725  1
  Zr  Zr58  1  0.69948438  0.89135826  0.85625184  1
  Zr  Zr59  1  0.31361638  0.49088203  0.88124072  1
  Zr  Zr60  1  0.20367369  0.40163815  0.01276344  1
  Zr  Zr61  1  0.50079146  0.32013052  0.88199506  1
  Zr  Zr62  1  0.11790424  0.88729935  0.37704271  1
  Zr  Zr63  1  -0.00056160  0.00240831  -0.00902253  1
  Zr  Zr64  1  0.39599170  0.20499658  0.25958178  1
  Zr  Zr65  1  0.29785175  0.10859312  0.63272694  1
  Zr  Zr66  1  0.59493087  0.01234167  0.75130401  1
  Zr  Zr67  1  0.50111368  0.09304669  0.13450660  1
  Zr  Zr68  1  0.59704799  0.79797646  0.25668351  1
  Zr  Zr69  1  0.69151422  0.69650330  0.62777495  1
  Zr  Zr70  1  0.19934153  0.00878518  0.50516591  1
  Zr  Zr71  1  0.38670599  0.59948129  0.49559859  1
  Zr  Zr72  1  0.39634835  0.78707441  -0.00066438  1
  Zr  Zr73  1  0.90059392  0.89788200  0.39039345  1
  Zr  Zr74  1  0.00186025  0.60518284  0.26297713  1
  Zr  Zr75  1  0.59220339  0.60224006  0.23701857  1
  Zr  Zr76  1  0.79535366  0.38948590  0.49707027  1
  Zr  Zr77  1  0.48480407  0.89488650  0.38086519  1
  Zr  Zr78  1  0.90023398  0.69420432  0.12131270  1
  Zr  Zr79  1  0.50164236  0.09769105  0.38402184  1
  Ta  Ta80  1  0.59255904  0.60015987  -0.00726227  1
  Ta  Ta81  1  0.39699498  0.40584691  0.24792932  1
  Ta  Ta82  1  0.59904151  -0.00282370  -0.01472814  1
  Ta  Ta83  1  0.09789708  0.49260896  0.37095253  1
  Ta  Ta84  1  0.80181769  0.20347144  0.50348110  1
  Ta  Ta85  1  0.00127410  0.60073936  0.49330895  1
  Ta  Ta86  1  0.30004141  0.30013423  0.12675124  1
  Ta  Ta87  1  0.79916211  0.60010546  0.25745052  1
  Ta  Ta88  1  0.80353790  0.20016252  -0.01892212  1
  Ta  Ta89  1  0.50688239  0.50445384  0.60381149  1
  Ta  Ta90  1  0.49761029  0.69942882  0.39179384  1
  Ta  Ta91  1  0.50305432  0.89478854  0.12128653  1
  Ta  Ta92  1  0.09960118  0.70214917  0.88235223  1
  Ta  Ta93  1  0.01187147  0.00505636  0.50903377  1
  Ta  Ta94  1  0.39964013  0.20058152  0.00327654  1
  Ta  Ta95  1  0.49615989  0.70057451  0.61890878  1
  Ta  Ta96  1  0.89805678  0.70162738  0.62492828  1
  Ta  Ta97  1  0.50115874  0.49987491  0.37485940  1
  Ta  Ta98  1  0.19367626  0.19894772  0.25360125  1
  Ta  Ta99  1  0.69717445  0.69974255  0.38142830  1
  Ta  Ta100  1  0.60080038  0.80425636  0.50219944  1
  Ta  Ta101  1  0.01622736  0.21451914  0.75699676  1
  Ta  Ta102  1  0.91600774  0.29943848  0.62159981  1
  Ta  Ta103  1  0.01009388  0.79909062  0.74848256  1
  Ta  Ta104  1  0.79204109  0.59451140  0.74191488  1
  Ta  Ta105  1  0.41638827  0.40843781  0.73917662  1
  Ta  Ta106  1  0.69696505  0.69727976  0.86794864  1
  Ta  Ta107  1  0.09398223  0.29169103  0.13247962  1
  Ta  Ta108  1  0.79290166  0.80022376  0.50505348  1
  Ta  Ta109  1  0.68962206  0.49772897  0.86336473  1
  Ta  Ta110  1  0.89539867  0.49469743  0.13988930  1
  Ta  Ta111  1  0.10434618  0.70258257  0.11577665  1
  Ta  Ta112  1  0.20103938  0.39274676  0.48176642  1
  Ta  Ta113  1  0.00427198  0.19530152  0.26417040  1
  Ta  Ta114  1  0.59065329  0.59283827  0.75481357  1
  Ta  Ta115  1  0.20157432  0.20690077  0.47533483  1
  Ta  Ta116  1  0.49849087  0.88799522  0.87473941  1
  Ta  Ta117  1  0.20422907  0.80695136  -0.00974789  1
  Ta  Ta118  1  0.19483616  0.20187083  0.00543405  1
  Ta  Ta119  1  0.89265931  0.69914038  0.38478478  1
  Ti  Ti120  1  0.51354048  0.30951285  0.36606895  1
  Ti  Ti121  1  0.20093522  0.60784372  0.24803326  1
  Ti  Ti122  1  0.09626139  0.10476824  0.11879871  1
  Ti  Ti123  1  0.90469517  0.10897350  0.86208309  1
  Ti  Ti124  1  0.01263635  0.00622464  0.74522422  1
  Ti  Ti125  1  0.50923797  0.10705195  0.61058490  1
  Ti  Ti126  1  0.90225025  0.49067873  0.36842134  1
  Ti  Ti127  1  0.40545359  0.59950442  0.00432575  1
  Ti  Ti128  1  0.40140509  0.00149679  0.51609570  1
  Ti  Ti129  1  0.19685719  -0.00678310  -0.01458599  1
  Ti  Ti130  1  0.90547825  0.29706558  0.86381964  1
  Ti  Ti131  1  0.79174505  0.01555014  0.74315564  1
  Ti  Ti132  1  0.69299035  0.30709472  0.36220303  1
  Ti  Ti133  1  0.60332821  0.41195100  0.00569943  1
  Ti  Ti134  1  0.90659868  0.09841435  0.39541020  1
  Ti  Ti135  1  0.49733184  0.89004704  0.62694061  1
  Ti  Ti136  1  0.69816817  0.89245346  0.63574071  1
  Ti  Ti137  1  0.00840607  0.20207185  0.48964924  1
  Ti  Ti138  1  0.29369425  0.49915164  0.36153042  1
  Ti  Ti139  1  0.70155395  0.49151342  0.14027212  1
  Ti  Ti140  1  0.30481987  0.09203562  0.37037432  1
  Ti  Ti141  1  0.30113233  0.71399120  0.85461279  1
  Ti  Ti142  1  0.80108415  0.20238651  0.74282156  1
  Ti  Ti143  1  0.10960579  0.70432523  0.62940227  1
  Ti  Ti144  1  0.09763361  0.11140408  0.88080971  1
  Ti  Ti145  1  0.69185969  0.11861342  0.62742845  1
  Ti  Ti146  1  0.49587356  0.49416227  0.11967500  1
  Ti  Ti147  1  0.19172390  0.01344396  0.26183245  1
  Ti  Ti148  1  0.90913731  0.30772725  0.37511259  1
  Ti  Ti149  1  0.20219687  0.39797205  0.24681489  1
  Ti  Ti150  1  0.10520508  0.89230652  0.62730317  1
  Ti  Ti151  1  0.58696227  0.78911881  0.75273180  1
  Ti  Ti152  1  0.09612267  0.30672787  0.36454399  1
  Ti  Ti153  1  0.60567408  -0.00669598  0.50632628  1
  Ti  Ti154  1  0.61659873  0.20500159  0.48454558  1
  Ti  Ti155  1  0.09889167  0.30033413  0.60940565  1
  Ti  Ti156  1  0.68456745  0.49092064  0.61942114  1
  Ti  Ti157  1  0.79727987  0.80230566  0.25920587  1
  Ti  Ti158  1  0.10649385  0.12014875  0.62625633  1
  Ti  Ti159  1  0.30032327  0.70748396  0.62927673  1
  Mo  Mo160  1  0.70147689  0.09939491  0.39159071  1
  Mo  Mo161  1  0.10213133  0.69468119  0.37168254  1
  Mo  Mo162  1  0.29836392  0.89421425  0.86607359  1
  Mo  Mo163  1  0.20209888  0.79422522  0.51907097  1
  Mo  Mo164  1  0.18869108  0.20119210  0.76685331  1
  Mo  Mo165  1  0.59704919  0.41044044  0.73728285  1
  Mo  Mo166  1  0.80321353  0.40121623  0.25721286  1
  Mo  Mo167  1  -0.00368396  0.19823601  -0.00689339  1
  Mo  Mo168  1  0.19627633  0.79481949  0.75603710  1
  Mo  Mo169  1  0.09588361  0.29530661  0.90103875  1
  Mo  Mo170  1  0.59946239  0.40018254  0.48818121  1
  Mo  Mo171  1  0.40245257  0.79846468  0.51781000  1
  Mo  Mo172  1  0.89508497  0.90371075  0.14177660  1
  Mo  Mo173  1  -0.00194989  0.39192007  0.75300219  1
  Mo  Mo174  1  0.40567187  -0.00146878  0.24424974  1
  Mo  Mo175  1  0.69839737  0.89431800  0.39115279  1
  Mo  Mo176  1  0.40531389  0.79693581  0.75099177  1
  Mo  Mo177  1  0.30173044  0.50000492  0.13434365  1
  Mo  Mo178  1  0.19718595  0.78985004  0.23144131  1
  Mo  Mo179  1  0.40085368  0.40003043  0.02368623  1
  Mo  Mo180  1  0.59772498  0.79793455  -0.01276951  1
  Mo  Mo181  1  0.59636771  0.60257314  0.49927523  1
  Mo  Mo182  1  0.50091958  0.70218475  0.10527503  1
  Mo  Mo183  1  0.60383212  0.20040957  0.26860348  1
  Mo  Mo184  1  0.49648354  0.09275970  0.88825011  1
  Mo  Mo185  1  0.29852798  0.70180300  0.13059731  1
  Mo  Mo186  1  0.00127430  0.39539313  0.25356705  1
  Mo  Mo187  1  0.59302544  0.40359106  0.24619728  1
  Mo  Mo188  1  0.29176122  0.30458574  0.35469632  1
  Mo  Mo189  1  0.50335949  0.69714038  0.87429896  1
  Mo  Mo190  1  0.80116793  0.78972341  0.73878820  1
  Mo  Mo191  1  -0.00243746  0.60427463  0.00624883  1
  Mo  Mo192  1  0.50202548  0.50028661  0.88966764  1
  Mo  Mo193  1  0.70693879  0.10207777  0.86186498  1
  Mo  Mo194  1  0.00369697  0.39518236  0.48328725  1
  Mo  Mo195  1  0.09950882  0.10535316  0.38332626  1
  Mo  Mo196  1  0.60235793  0.19734975  0.74773899  1
  Mo  Mo197  1  0.10001795  0.89818154  0.87112916  1
  Mo  Mo198  1  0.40747687  0.79595170  0.23324153  1
  Mo  Mo199  1  0.70655515  0.29490193  0.62064287  1
