# generated using pymatgen
data_HfZrTaTiMo
_symmetry_space_group_name_H-M   'P 1'
_cell_length_a   15.84723830
_cell_length_b   15.84075588
_cell_length_c   15.39916220
_cell_angle_alpha   90.05238817
_cell_angle_beta   90.00672203
_cell_angle_gamma   89.92896619
_symmetry_Int_Tables_number   1
_chemical_formula_structural   HfZrTaTiMo
_chemical_formula_sum   'Hf40 Zr40 Ta40 Ti40 Mo40'
_cell_volume   3865.68146628
_cell_formula_units_Z   40
loop_
 _symmetry_equiv_pos_site_id
 _symmetry_equiv_pos_as_xyz
  1  'x, y, z'
loop_
 _atom_site_type_symbol
 _atom_site_label
 _atom_site_symmetry_multiplicity
 _atom_site_fract_x
 _atom_site_fract_y
 _atom_site_fract_z
 _atom_site_occupancy
  Hf  Hf0  1  0.10785642  0.71234817  0.63744651  1
  Hf  Hf1  1  0.10680625  0.69674869  0.12294255  1
  Hf  Hf2  1  0.19792740  0.79857870  -0.01181838  1
  Hf  Hf3  1  0.60451375  0.59084696  0.50925752  1
  Hf  Hf4  1  0.28805271  0.29182893  0.11730303  1
  Hf  Hf5  1  0.70331698  0.28686087  0.86900126  1
  Hf  Hf6  1  0.40354208  0.39114928  0.75647394  1
  Hf  Hf7  1  0.21153273  0.20018419  0.75319263  1
  Hf  Hf8  1  0.59340450  0.79990600  0.50276283  1
  Hf  Hf9  1  0.20309135  0.00377978  0.26123079  1
  Hf  Hf10  1  0.39452880  0.80871470  0.73870849  1
  Hf  Hf11  1  0.51784283  0.48287564  0.63924581  1
  Hf  Hf12  1  0.48786757  0.30323435  0.11978670  1
  Hf  Hf13  1  0.29778432  0.50282369  0.62382729  1
  Hf  Hf14  1  0.78278029  0.00984765  0.74719712  1
  Hf  Hf15  1  0.18581686  0.40980473  -0.01567918  1
  Hf  Hf16  1  0.09725005  0.89748890  0.85158366  1
  Hf  Hf17  1  0.10565561  0.10528820  0.13400742  1
  Hf  Hf18  1  0.19345284  0.40319405  0.49210748  1
  Hf  Hf19  1  0.00625770  0.40242227  0.49606869  1
  Hf  Hf20  1  0.30879912  0.50588473  0.37771756  1
  Hf  Hf21  1  0.09974791  0.89798204  0.12722120  1
  Hf  Hf22  1  0.90288469  0.70144345  0.09925213  1
  Hf  Hf23  1  0.09391376  0.90277915  0.38350530  1
  Hf  Hf24  1  -0.00968972  0.79762248  0.25195514  1
  Hf  Hf25  1  0.00419780  0.59523267  0.25366476  1
  Hf  Hf26  1  0.39670964  0.59293599  0.75937200  1
  Hf  Hf27  1  0.70222668  0.10408221  0.38070955  1
  Hf  Hf28  1  0.79554116  0.19801689  0.72470148  1
  Hf  Hf29  1  0.80052940  0.81020923  0.25840572  1
  Hf  Hf30  1  0.70035476  0.69387232  0.37063469  1
  Hf  Hf31  1  0.70805392  0.70398268  0.88657174  1
  Hf  Hf32  1  0.39327654  -0.00204456  0.25162692  1
  Hf  Hf33  1  0.39073644  0.19760393  0.25195790  1
  Hf  Hf34  1  0.50631538  0.29048552  0.87900048  1
  Hf  Hf35  1  0.30502385  0.70746571  0.38001491  1
  Hf  Hf36  1  0.89524853  0.90203806  0.62118963  1
  Hf  Hf37  1  0.08203880  0.29299967  0.87014119  1
  Hf  Hf38  1  0.50535481  0.10254598  0.88941671  1
  Hf  Hf39  1  0.29481037  0.10594724  0.60277602  1
  Zr  Zr40  1  0.10599643  0.70831238  0.37903000  1
  Zr  Zr41  1  0.29429265  0.49096232  0.12120734  1
  Zr  Zr42  1  0.50190604  0.69152037  0.36604905  1
  Zr  Zr43  1  0.78993324  0.40593847  0.50924155  1
  Zr  Zr44  1  0.70955409  0.70401925  0.63401667  1
  Zr  Zr45  1  0.50173357  0.90614023  0.87584731  1
  Zr  Zr46  1  0.89773578  0.30072396  0.86604999  1
  Zr  Zr47  1  0.60245683  0.40620795  0.00027637  1
  Zr  Zr48  1  0.21417189  -0.00079515  0.74972700  1
  Zr  Zr49  1  -0.01324021  0.00175164  0.25522006  1
  Zr  Zr50  1  0.60357978  0.59970542  0.76755051  1
  Zr  Zr51  1  0.60320808  0.80798434  0.00545680  1
  Zr  Zr52  1  0.89588822  0.90682772  0.87431292  1
  Zr  Zr53  1  0.08692449  0.09806818  0.85556135  1
  Zr  Zr54  1  0.89537544  0.11100969  0.87102501  1
  Zr  Zr55  1  0.09218565  0.29225421  0.12024685  1
  Zr  Zr56  1  0.61611732  0.19476712  0.02399648  1
  Zr  Zr57  1  0.01462778  0.58757320  -0.01263589  1
  Zr  Zr58  1  0.88524887  0.90162047  0.10655471  1
  Zr  Zr59  1  0.00488586  0.60445478  0.50092011  1
  Zr  Zr60  1  0.31161731  0.28496908  0.89694156  1
  Zr  Zr61  1  0.49524010  0.89266434  0.36338105  1
  Zr  Zr62  1  0.40752638  0.59920189  -0.00239532  1
  Zr  Zr63  1  0.41061380  -0.00969901  0.51023475  1
  Zr  Zr64  1  0.00249426  0.01003310  0.00378638  1
  Zr  Zr65  1  0.41610354  0.00700943  0.73076171  1
  Zr  Zr66  1  0.20593765  0.40318863  0.76581415  1
  Zr  Zr67  1  0.41324427  0.40062237  0.50425047  1
  Zr  Zr68  1  0.88977437  0.29369550  0.39011034  1
  Zr  Zr69  1  0.70746375  0.70207358  0.11223308  1
  Zr  Zr70  1  0.10107320  0.51091792  0.64261899  1
  Zr  Zr71  1  0.40362704  0.59969305  0.22853246  1
  Zr  Zr72  1  -0.01795733  0.40034910  0.25223423  1
  Zr  Zr73  1  0.81640191  0.59997761  0.24077506  1
  Zr  Zr74  1  0.39789175  0.79562301  0.52005891  1
  Zr  Zr75  1  0.70402787  0.49867033  0.12945454  1
  Zr  Zr76  1  0.69092419  0.91529385  0.61075797  1
  Zr  Zr77  1  0.70142717  0.49746628  0.36019088  1
  Zr  Zr78  1  0.67225602  0.30915025  0.62130641  1
  Zr  Zr79  1  0.18801691  0.39388365  0.26867844  1
  Ta  Ta80  1  0.90289785  0.70179668  0.87698217  1
  Ta  Ta81  1  0.39431656  0.79738130  0.22919040  1
  Ta  Ta82  1  0.50278819  0.29511206  0.37976090  1
  Ta  Ta83  1  -0.01234461  0.40116403  0.00579850  1
  Ta  Ta84  1  0.20330064  -0.00079433  -0.01073209  1
  Ta  Ta85  1  0.29755086  0.10162312  0.39339236  1
  Ta  Ta86  1  0.79973357  0.79763866  0.49365444  1
  Ta  Ta87  1  0.71108243  0.49094021  0.86953458  1
  Ta  Ta88  1  0.89667059  0.50726605  0.62698088  1
  Ta  Ta89  1  0.40967029  0.60168607  0.51597512  1
  Ta  Ta90  1  0.49803265  0.70782181  0.87175341  1
  Ta  Ta91  1  0.59358313  0.39314166  0.24848934  1
  Ta  Ta92  1  0.89316034  0.50760884  0.39059506  1
  Ta  Ta93  1  0.30152746  0.28900247  0.39069717  1
  Ta  Ta94  1  0.80191079  0.39986323  0.73959884  1
  Ta  Ta95  1  0.60080581  0.19947486  0.24786309  1
  Ta  Ta96  1  0.29996700  0.70596967  0.86876077  1
  Ta  Ta97  1  0.49901307  0.90184229  0.12994379  1
  Ta  Ta98  1  0.10042946  0.69623806  0.85195610  1
  Ta  Ta99  1  0.29409704  0.90137677  0.11766736  1
  Ta  Ta100  1  0.00177040  0.20012456  0.26706368  1
  Ta  Ta101  1  0.50599540  0.49861130  0.36398087  1
  Ta  Ta102  1  0.90888596  0.29873058  0.61901175  1
  Ta  Ta103  1  0.10460191  0.29270062  0.62661837  1
  Ta  Ta104  1  0.50509761  0.69868930  0.64259268  1
  Ta  Ta105  1  0.49816185  0.09816445  0.13241697  1
  Ta  Ta106  1  0.40003378  0.79739122  0.01057271  1
  Ta  Ta107  1  0.60870330  0.00131184  0.02050986  1
  Ta  Ta108  1  0.40910371  0.19637106  0.72856216  1
  Ta  Ta109  1  0.60462149  0.00061584  0.24754446  1
  Ta  Ta110  1  0.30024771  0.29787044  0.61153775  1
  Ta  Ta111  1  0.20037140  0.59934167  0.25678471  1
  Ta  Ta112  1  0.50093713  0.10379622  0.38093542  1
  Ta  Ta113  1  0.60113867  0.79840259  0.23562756  1
  Ta  Ta114  1  0.59820676  0.17614414  0.73522137  1
  Ta  Ta115  1  0.29546899  0.10031463  0.11443304  1
  Ta  Ta116  1  0.80628893  0.20174197  0.01955553  1
  Ta  Ta117  1  0.70506003  0.50450754  0.64142544  1
  Ta  Ta118  1  0.80650634  0.20159800  0.24613085  1
  Ta  Ta119  1  0.40240410  -0.00287504  0.01123103  1
  Ti  Ti120  1  0.20151976  0.60324480  0.49335130  1
  Ti  Ti121  1  0.89780206  0.69888537  0.62448122  1
  Ti  Ti122  1  -0.00077644  0.80360451  0.50622022  1
  Ti  Ti123  1  0.31586395  0.09658903  0.88526452  1
  Ti  Ti124  1  0.10011866  0.49726501  0.13080736  1
  Ti  Ti125  1  0.09327707  0.90614637  0.62820335  1
  Ti  Ti126  1  0.60463917  0.81586876  0.75445054  1
  Ti  Ti127  1  0.90699934  0.49713042  0.86181708  1
  Ti  Ti128  1  0.29243489  0.69841509  0.11653759  1
  Ti  Ti129  1  -0.00241319  0.40067644  0.73961274  1
  Ti  Ti130  1  0.79827926  0.00425151  0.25136834  1
  Ti  Ti131  1  0.30644668  0.90059841  0.87983795  1
  Ti  Ti132  1  0.29063207  0.69641144  0.63211857  1
  Ti  Ti133  1  0.59214078  0.59418925  -0.00236307  1
  Ti  Ti134  1  0.39748338  0.39581360  0.25611271  1
  Ti  Ti135  1  0.27597039  0.89409679  0.61403220  1
  Ti  Ti136  1  0.01399498  0.19289533  0.49671295  1
  Ti  Ti137  1  -0.01251649  0.79778272  0.74581520  1
  Ti  Ti138  1  0.29171544  0.89504663  0.38927239  1
  Ti  Ti139  1  0.20702587  0.80104754  0.24800981  1
  Ti  Ti140  1  0.81075639  0.58247813  -0.00735101  1
  Ti  Ti141  1  0.69327963  0.29891742  0.37672816  1
  Ti  Ti142  1  0.71033670  0.30507415  0.14030974  1
  Ti  Ti143  1  0.89505855  0.90853881  0.39616118  1
  Ti  Ti144  1  0.18915923  0.18676642  -0.01461673  1
  Ti  Ti145  1  0.09502532  0.09849068  0.63070108  1
  Ti  Ti146  1  0.18197760  0.00696215  0.49618323  1
  Ti  Ti147  1  0.80536173  0.39565591  0.00411692  1
  Ti  Ti148  1  0.89739429  0.69976421  0.38805165  1
  Ti  Ti149  1  0.40531013  0.41415769  -0.01035883  1
  Ti  Ti150  1  0.81092842  0.60330179  0.75702458  1
  Ti  Ti151  1  0.00502586  0.80117090  -0.01352034  1
  Ti  Ti152  1  0.90390451  0.10891018  0.12712883  1
  Ti  Ti153  1  0.79270938  0.19840939  0.51336978  1
  Ti  Ti154  1  0.78218382  0.01166004  0.00021567  1
  Ti  Ti155  1  0.69830476  0.90431993  0.37950667  1
  Ti  Ti156  1  0.79494979  0.80721715  0.76015109  1
  Ti  Ti157  1  0.90044582  0.09598175  0.39155559  1
  Ti  Ti158  1  0.20462495  0.59552724  -0.02379459  1
  Ti  Ti159  1  0.90474284  0.09517426  0.61034417  1
  Mo  Mo160  1  0.51213954  0.89685645  0.63514554  1
  Mo  Mo161  1  0.20511110  0.80369246  0.75466148  1
  Mo  Mo162  1  0.80166874  0.00274960  0.49341080  1
  Mo  Mo163  1  0.09282104  0.49800213  0.85920307  1
  Mo  Mo164  1  0.50362343  0.70148749  0.12075272  1
  Mo  Mo165  1  0.40364121  0.19991596  0.50582900  1
  Mo  Mo166  1  0.09767587  0.10238540  0.37205243  1
  Mo  Mo167  1  0.09995902  0.50311170  0.36929413  1
  Mo  Mo168  1  0.50753421  0.49719314  0.86804017  1
  Mo  Mo169  1  0.19551739  0.80366042  0.50605135  1
  Mo  Mo170  1  0.70156621  0.90658520  0.13559609  1
  Mo  Mo171  1  0.60535190  0.39123022  0.76975102  1
  Mo  Mo172  1  0.50270490  0.49512122  0.13859612  1
  Mo  Mo173  1  -0.00088549  0.20085335  0.72237152  1
  Mo  Mo174  1  0.90071471  0.49524461  0.11322264  1
  Mo  Mo175  1  -0.00904736  0.60440413  0.75242070  1
  Mo  Mo176  1  0.80243059  0.60555769  0.50809427  1
  Mo  Mo177  1  0.70934034  0.09958750  0.14730161  1
  Mo  Mo178  1  0.79668268  0.39157164  0.25603601  1
  Mo  Mo179  1  0.59886426  0.40157288  0.48153571  1
  Mo  Mo180  1  -0.00711690  0.00061796  0.72596230  1
  Mo  Mo181  1  0.59935931  -0.00141311  0.47390413  1
  Mo  Mo182  1  0.30298415  0.50129160  0.88354675  1
  Mo  Mo183  1  0.19990705  0.19537060  0.27281294  1
  Mo  Mo184  1  0.00054505  0.00437142  0.50737715  1
  Mo  Mo185  1  0.69676241  0.10095349  0.88160559  1
  Mo  Mo186  1  0.60394373  0.00508521  0.75356524  1
  Mo  Mo187  1  0.09756858  0.29324595  0.38134045  1
  Mo  Mo188  1  0.89586971  0.29796491  0.12887138  1
  Mo  Mo189  1  0.51507748  0.09794832  0.60094799  1
  Mo  Mo190  1  0.59666191  0.20099484  0.49548821  1
  Mo  Mo191  1  0.19288234  0.20104601  0.49639139  1
  Mo  Mo192  1  0.59720353  0.59842015  0.23207646  1
  Mo  Mo193  1  0.80140917  0.80857937  -0.01798491  1
  Mo  Mo194  1  0.20450265  0.60238919  0.76399887  1
  Mo  Mo195  1  0.40105233  0.19196445  0.01701232  1
  Mo  Mo196  1  0.49706290  0.29184500  0.62373920  1
  Mo  Mo197  1  -0.00715766  0.20437918  0.01011348  1
  Mo  Mo198  1  0.69717255  0.91196284  0.87471346  1
  Mo  Mo199  1  0.69733856  0.10121410  0.59810165  1
