# generated using pymatgen
data_HfZrTaTiMo
_symmetry_space_group_name_H-M   'P 1'
_cell_length_a   15.82807139
_cell_length_b   15.84153192
_cell_length_c   15.39377860
_cell_angle_alpha   89.96588390
_cell_angle_beta   90.01023616
_cell_angle_gamma   90.02516557
_symmetry_Int_Tables_number   1
_chemical_formula_structural   HfZrTaTiMo
_chemical_formula_sum   'Hf40 Zr40 Ta40 Ti40 Mo40'
_cell_volume   3859.84875316
_cell_formula_units_Z   40
loop_
 _symmetry_equiv_pos_site_id
 _symmetry_equiv_pos_as_xyz
  1  'x, y, z'
loop_
 _atom_site_type_symbol
 _atom_site_label
 _atom_site_symmetry_multiplicity
 _atom_site_fract_x
 _atom_site_fract_y
 _atom_site_fract_z
 _atom_site_occupancy
  Hf  Hf0  1  0.50742724  0.70156182  0.62603402  1
  Hf  Hf1  1  0.58874897  0.18017918  -0.01792218  1
  Hf  Hf2  1  0.71320623  0.68773207  0.88532677  1
  Hf  Hf3  1  0.08882950  0.10833460  0.37620981  1
  Hf  Hf4  1  0.40103049  0.21642537  0.24454114  1
  Hf  Hf5  1  0.40989828  0.20150007  0.72798719  1
  Hf  Hf6  1  0.80157153  0.19386244  0.49893227  1
  Hf  Hf7  1  0.18481835  0.61842274  0.76716186  1
  Hf  Hf8  1  0.70730995  0.29347674  0.87559747  1
  Hf  Hf9  1  0.41317894  0.01297442  0.00417464  1
  Hf  Hf10  1  -0.00193524  0.00375575  -0.00145788  1
  Hf  Hf11  1  0.59845568  0.00413740  0.76193406  1
  Hf  Hf12  1  0.80941458  -0.00822975  -0.00419608  1
  Hf  Hf13  1  0.30304691  0.90083276  0.36275351  1
  Hf  Hf14  1  0.60370778  0.20496642  0.26141618  1
  Hf  Hf15  1  0.08700612  0.51655114  0.63258838  1
  Hf  Hf16  1  0.31170332  0.31374275  0.38865490  1
  Hf  Hf17  1  0.90296270  0.29714012  0.63271468  1
  Hf  Hf18  1  -0.00356184  0.60850519  0.24681104  1
  Hf  Hf19  1  0.61054073  0.20523678  0.48212594  1
  Hf  Hf20  1  -0.00862100  0.41201155  0.49249427  1
  Hf  Hf21  1  0.38819519  0.40060618  0.74183236  1
  Hf  Hf22  1  0.40052509  0.80645088  0.50127955  1
  Hf  Hf23  1  0.19437679  0.00777292  0.24383835  1
  Hf  Hf24  1  0.59606524  0.39749283  0.76373800  1
  Hf  Hf25  1  0.29551822  0.50171271  0.38545880  1
  Hf  Hf26  1  0.88637445  0.90056184  0.37541615  1
  Hf  Hf27  1  0.09733896  0.50740994  0.12017186  1
  Hf  Hf28  1  0.50543779  0.69150307  0.37684072  1
  Hf  Hf29  1  0.29731935  0.10590556  0.37037171  1
  Hf  Hf30  1  0.19521146  -0.00673549  0.49821778  1
  Hf  Hf31  1  0.08960726  0.89703944  0.36846597  1
  Hf  Hf32  1  0.40572211  0.00285932  0.51250868  1
  Hf  Hf33  1  0.80100924  0.78943146  0.23328380  1
  Hf  Hf34  1  0.61251460  0.79611798  0.24256988  1
  Hf  Hf35  1  -0.01367228  0.80833690  -0.01248330  1
  Hf  Hf36  1  0.79741521  0.19992871  0.25457811  1
  Hf  Hf37  1  0.49137742  0.88992685  0.87751743  1
  Hf  Hf38  1  0.29618916  0.69884890  0.11803373  1
  Hf  Hf39  1  0.90007416  0.09357003  0.37197227  1
  Zr  Zr40  1  0.30547831  0.89775487  0.12082705  1
  Zr  Zr41  1  0.29208267  0.10485993  0.61849165  1
  Zr  Zr42  1  0.89463907  0.49815159  0.86783363  1
  Zr  Zr43  1  0.08939677  0.11066317  0.62226122  1
  Zr  Zr44  1  0.29543713  0.70098147  0.36434744  1
  Zr  Zr45  1  0.02023430  0.78752022  0.76122146  1
  Zr  Zr46  1  -0.00862828  -0.00632308  0.51675493  1
  Zr  Zr47  1  -0.00548137  0.80022769  0.23622713  1
  Zr  Zr48  1  0.10114431  0.31011216  0.37193362  1
  Zr  Zr49  1  0.59475729  0.59957861  -0.00009922  1
  Zr  Zr50  1  0.47608020  0.29342391  0.88241736  1
  Zr  Zr51  1  0.70029669  0.28834760  0.10377193  1
  Zr  Zr52  1  0.38926770  0.60944871  0.51152244  1
  Zr  Zr53  1  0.29294501  0.88968082  0.63629811  1
  Zr  Zr54  1  0.51477717  0.30720438  0.61020870  1
  Zr  Zr55  1  0.60969373  -0.00581637  -0.00974261  1
  Zr  Zr56  1  0.89083866  0.49859338  0.36057129  1
  Zr  Zr57  1  0.89144464  0.30189875  0.87464130  1
  Zr  Zr58  1  0.10299971  0.90065731  0.11913521  1
  Zr  Zr59  1  0.81603668  0.79199411  0.75937599  1
  Zr  Zr60  1  0.70320069  0.69363256  0.38760161  1
  Zr  Zr61  1  0.80846337  0.58812095  0.51304663  1
  Zr  Zr62  1  0.30212830  0.50370562  0.88178532  1
  Zr  Zr63  1  0.20733198  0.21805741  0.74991225  1
  Zr  Zr64  1  0.59999236  -0.00021756  0.52096987  1
  Zr  Zr65  1  0.18775076  0.40916244  0.76643917  1
  Zr  Zr66  1  0.49784470  0.48982696  0.38944000  1
  Zr  Zr67  1  0.81026432  0.79938152  0.51999866  1
  Zr  Zr68  1  0.51655906  0.90184212  0.36229584  1
  Zr  Zr69  1  0.21300825  0.40385810  0.23139381  1
  Zr  Zr70  1  0.59693361  0.39594441  0.24995649  1
  Zr  Zr71  1  0.50840252  0.50601626  0.61789580  1
  Zr  Zr72  1  0.70026941  0.06286538  0.36547886  1
  Zr  Zr73  1  0.09724182  0.31303201  0.61519123  1
  Zr  Zr74  1  0.31152416  0.12093630  0.88402498  1
  Zr  Zr75  1  0.69934822  0.69003638  0.63360021  1
  Zr  Zr76  1  0.49728746  0.09346508  0.36134885  1
  Zr  Zr77  1  -0.00356288  0.20401145  0.00730293  1
  Zr  Zr78  1  0.10596524  0.10880354  0.87918720  1
  Zr  Zr79  1  0.30236084  0.90505179  0.87529405  1
  Ta  Ta80  1  0.79612384  0.39880307  0.23948223  1
  Ta  Ta81  1  0.90175165  0.29782652  0.37289223  1
  Ta  Ta82  1  0.00112359  0.00055597  0.75530792  1
  Ta  Ta83  1  0.79256158  0.59942256  0.23036053  1
  Ta  Ta84  1  0.00173028  0.60739063  0.48959654  1
  Ta  Ta85  1  -0.00476046  0.40609156  0.01005357  1
  Ta  Ta86  1  0.19738073  0.00332551  0.75432271  1
  Ta  Ta87  1  0.50710343  0.89419088  0.12004848  1
  Ta  Ta88  1  -0.01064365  0.00660295  0.23007520  1
  Ta  Ta89  1  -0.00118257  0.20512062  0.23651849  1
  Ta  Ta90  1  0.90115869  0.70234785  0.37567040  1
  Ta  Ta91  1  0.31101904  0.70689663  0.88281407  1
  Ta  Ta92  1  0.39261607  0.40236349  0.01615193  1
  Ta  Ta93  1  0.19821591  0.20772882  0.49375838  1
  Ta  Ta94  1  0.70198730  0.49426512  0.11109023  1
  Ta  Ta95  1  0.49341079  0.49991217  0.87943980  1
  Ta  Ta96  1  0.70946624  0.49088807  0.88287154  1
  Ta  Ta97  1  0.00512659  0.79183230  0.51093221  1
  Ta  Ta98  1  0.20189763  0.00836644  0.00128762  1
  Ta  Ta99  1  0.19832868  0.80084355  -0.01245705  1
  Ta  Ta100  1  0.19723458  0.39693358  0.00816746  1
  Ta  Ta101  1  0.40326042  0.00555666  0.74355920  1
  Ta  Ta102  1  0.90038608  0.49254759  0.64929882  1
  Ta  Ta103  1  0.79521725  -0.01666230  0.22558309  1
  Ta  Ta104  1  0.69969753  0.10888994  0.64339142  1
  Ta  Ta105  1  0.28443499  0.50444981  0.62123984  1
  Ta  Ta106  1  0.00271808  0.20660415  0.76222766  1
  Ta  Ta107  1  0.50524603  0.89352475  0.64221446  1
  Ta  Ta108  1  0.79398979  -0.00634606  0.52608578  1
  Ta  Ta109  1  0.40924753  0.20171240  0.50067984  1
  Ta  Ta110  1  0.70040885  0.89700113  0.65096543  1
  Ta  Ta111  1  0.60384741  0.59694959  0.23534679  1
  Ta  Ta112  1  0.59874614  0.59634130  0.76969547  1
  Ta  Ta113  1  0.40202151  0.59113582  0.23682649  1
  Ta  Ta114  1  0.09775490  0.69951584  0.10408498  1
  Ta  Ta115  1  0.29978409  0.10976326  0.12273156  1
  Ta  Ta116  1  0.79221215  0.39241307  0.50582725  1
  Ta  Ta117  1  0.59427381  0.39871280  -0.00781915  1
  Ta  Ta118  1  0.59932462  0.79175166  0.76873536  1
  Ta  Ta119  1  0.40654790  0.79375303  0.24134526  1
  Ti  Ti120  1  0.19221680  0.79254461  0.24661905  1
  Ti  Ti121  1  0.88897240  0.10543747  0.12249275  1
  Ti  Ti122  1  0.71448872  0.10506869  0.85974425  1
  Ti  Ti123  1  0.90242658  0.68395035  0.88366858  1
  Ti  Ti124  1  0.61042000  0.80938402  0.50229621  1
  Ti  Ti125  1  0.89264749  0.30235358  0.11955186  1
  Ti  Ti126  1  0.19821030  0.59832550  -0.00747876  1
  Ti  Ti127  1  0.71418237  0.89439331  0.86942192  1
  Ti  Ti128  1  0.18546659  0.60978881  0.49792695  1
  Ti  Ti129  1  0.19821084  0.21166251  0.24180551  1
  Ti  Ti130  1  0.39847842  0.60263378  0.74810827  1
  Ti  Ti131  1  0.10651984  0.88963319  0.63682412  1
  Ti  Ti132  1  0.89352472  0.10251538  0.86458617  1
  Ti  Ti133  1  0.50159621  0.29621306  0.11080851  1
  Ti  Ti134  1  0.70403644  0.88018301  0.09990878  1
  Ti  Ti135  1  0.50124238  0.70222320  0.12309648  1
  Ti  Ti136  1  0.40217564  0.60300883  0.00594409  1
  Ti  Ti137  1  0.28272008  0.70308659  0.63469822  1
  Ti  Ti138  1  0.89344977  0.69295536  0.10083094  1
  Ti  Ti139  1  0.69577901  0.50008788  0.37584103  1
  Ti  Ti140  1  0.10091408  0.50628169  0.36650006  1
  Ti  Ti141  1  0.50088034  0.49775790  0.11902540  1
  Ti  Ti142  1  0.59607230  0.79092506  -0.01161082  1
  Ti  Ti143  1  0.10486010  0.90470014  0.87390215  1
  Ti  Ti144  1  0.70275965  0.29700871  0.64018481  1
  Ti  Ti145  1  0.29452288  0.31366482  0.60129517  1
  Ti  Ti146  1  0.39897481  0.79077570  0.74785434  1
  Ti  Ti147  1  0.10410163  0.11204492  0.12081319  1
  Ti  Ti148  1  0.19693254  0.60452912  0.24499672  1
  Ti  Ti149  1  0.19217682  0.79363332  0.49283164  1
  Ti  Ti150  1  0.50899377  0.09975412  0.13748001  1
  Ti  Ti151  1  0.69797208  0.49316301  0.63340414  1
  Ti  Ti152  1  0.89590052  0.10302614  0.63946163  1
  Ti  Ti153  1  0.92246532  0.67869891  0.64356734  1
  Ti  Ti154  1  0.69820914  0.09450543  0.12360203  1
  Ti  Ti155  1  0.90525273  0.89949705  0.64462693  1
  Ti  Ti156  1  0.09819392  0.30712880  0.88930254  1
  Ti  Ti157  1  0.40106648  0.40328929  0.23289478  1
  Ti  Ti158  1  0.40419617  -0.00138872  0.23619023  1
  Ti  Ti159  1  -0.00393393  0.39758645  0.23711445  1
  Mo  Mo160  1  0.19406997  0.41653355  0.50004907  1
  Mo  Mo161  1  0.80370919  0.59018338  0.01427808  1
  Mo  Mo162  1  -0.00623184  0.20419837  0.49070127  1
  Mo  Mo163  1  0.29959184  0.29989255  0.11614796  1
  Mo  Mo164  1  0.50087052  0.30280195  0.38804468  1
  Mo  Mo165  1  0.50725435  0.10190584  0.62987721  1
  Mo  Mo166  1  0.60115013  0.19824321  0.76103560  1
  Mo  Mo167  1  0.00001212  0.59863342  0.77159204  1
  Mo  Mo168  1  0.00267488  0.39711808  0.76419236  1
  Mo  Mo169  1  0.40517248  0.79326786  0.01116458  1
  Mo  Mo170  1  0.20481348  0.80285980  0.77094870  1
  Mo  Mo171  1  0.70804163  0.89536968  0.37633623  1
  Mo  Mo172  1  0.49767456  0.09934871  0.86122372  1
  Mo  Mo173  1  0.10477084  0.70335103  0.61668670  1
  Mo  Mo174  1  0.80368393  0.19795075  0.74280136  1
  Mo  Mo175  1  0.09261238  0.49983493  0.89681987  1
  Mo  Mo176  1  0.20039802  0.20890175  0.01294204  1
  Mo  Mo177  1  0.71153527  0.31562593  0.37412056  1
  Mo  Mo178  1  0.40228521  0.20087039  0.02236683  1
  Mo  Mo179  1  0.39812483  0.40402102  0.51681525  1
  Mo  Mo180  1  0.60854696  -0.01058149  0.21893234  1
  Mo  Mo181  1  0.69822935  0.69506832  0.10675227  1
  Mo  Mo182  1  0.79927760  0.18507272  0.00231866  1
  Mo  Mo183  1  0.79626116  0.59366745  0.74284096  1
  Mo  Mo184  1  0.09364997  0.30222985  0.12903616  1
  Mo  Mo185  1  0.10120497  0.69842593  0.90035022  1
  Mo  Mo186  1  0.80415959  -0.00059482  0.74584986  1
  Mo  Mo187  1  0.30199677  0.50866884  0.11685928  1
  Mo  Mo188  1  0.09688495  0.69969687  0.37821542  1
  Mo  Mo189  1  0.89602688  0.90021525  0.12135157  1
  Mo  Mo190  1  0.60820002  0.59905503  0.49887585  1
  Mo  Mo191  1  0.89824887  0.49789098  0.13299707  1
  Mo  Mo192  1  0.80067102  0.39685822  0.01473509  1
  Mo  Mo193  1  0.80038821  0.79713782  -0.01033948  1
  Mo  Mo194  1  0.90318371  0.90865047  0.85801570  1
  Mo  Mo195  1  0.79145273  0.39918251  0.73736797  1
  Mo  Mo196  1  0.29160153  0.30362553  0.89897836  1
  Mo  Mo197  1  0.61629531  0.40256135  0.49461833  1
  Mo  Mo198  1  0.49356531  0.69370926  0.86973655  1
  Mo  Mo199  1  -0.00119688  0.59884255  -0.00382820  1
