# generated using pymatgen
data_HfZrTaTiMo
_symmetry_space_group_name_H-M   'P 1'
_cell_length_a   15.84769279
_cell_length_b   15.84511560
_cell_length_c   15.39812971
_cell_angle_alpha   89.97130531
_cell_angle_beta   89.99082804
_cell_angle_gamma   90.04087322
_symmetry_Int_Tables_number   1
_chemical_formula_structural   HfZrTaTiMo
_chemical_formula_sum   'Hf40 Zr40 Ta40 Ti40 Mo40'
_cell_volume   3866.60010736
_cell_formula_units_Z   40
loop_
 _symmetry_equiv_pos_site_id
 _symmetry_equiv_pos_as_xyz
  1  'x, y, z'
loop_
 _atom_site_type_symbol
 _atom_site_label
 _atom_site_symmetry_multiplicity
 _atom_site_fract_x
 _atom_site_fract_y
 _atom_site_fract_z
 _atom_site_occupancy
  Hf  Hf0  1  0.11693604  0.70151329  0.63601234  1
  Hf  Hf1  1  0.69954370  0.70082160  0.87091702  1
  Hf  Hf2  1  -0.00467602  0.20003257  0.00944639  1
  Hf  Hf3  1  0.50061313  0.70079910  0.35847308  1
  Hf  Hf4  1  0.80728099  0.20067418  0.50216638  1
  Hf  Hf5  1  0.69873228  0.69275674  0.38819082  1
  Hf  Hf6  1  0.19361002  0.78895052  0.24077914  1
  Hf  Hf7  1  0.01152175  0.40235771  0.24412187  1
  Hf  Hf8  1  0.69374810  0.91491447  0.87998658  1
  Hf  Hf9  1  0.00245201  0.59219742  0.50947579  1
  Hf  Hf10  1  0.69212042  0.69778302  0.62857136  1
  Hf  Hf11  1  0.40290977  -0.00291265  0.50542807  1
  Hf  Hf12  1  0.90821862  0.92024350  0.88699097  1
  Hf  Hf13  1  0.08614911  0.89913828  0.11803446  1
  Hf  Hf14  1  0.38042120  0.00377010  0.01739131  1
  Hf  Hf15  1  0.11280887  0.49115995  0.38571774  1
  Hf  Hf16  1  0.89675769  0.89933801  0.37300789  1
  Hf  Hf17  1  0.09864152  0.89489665  0.90257980  1
  Hf  Hf18  1  0.10305298  0.90721086  0.60902977  1
  Hf  Hf19  1  0.88743019  0.68288485  0.63224549  1
  Hf  Hf20  1  0.89779910  0.69534736  0.37700680  1
  Hf  Hf21  1  0.28214174  0.10001729  0.62241629  1
  Hf  Hf22  1  0.60482061  0.40457455  0.51018384  1
  Hf  Hf23  1  0.10233381  0.69896547  0.87926956  1
  Hf  Hf24  1  0.30911012  0.49456907  0.63218954  1
  Hf  Hf25  1  0.22413875  0.60799828  0.49299185  1
  Hf  Hf26  1  0.28623907  0.30301226  0.62017257  1
  Hf  Hf27  1  0.49046937  0.50216764  0.12151944  1
  Hf  Hf28  1  0.00332009  0.40451142  -0.00842154  1
  Hf  Hf29  1  0.60472533  0.20338280  0.51208704  1
  Hf  Hf30  1  0.81200797  0.40734897  0.75011443  1
  Hf  Hf31  1  0.49343832  0.30695698  0.63063174  1
  Hf  Hf32  1  0.39650687  0.20095492  0.49914778  1
  Hf  Hf33  1  0.79488810  0.80565322  0.23797953  1
  Hf  Hf34  1  0.70970709  0.50323315  0.37380349  1
  Hf  Hf35  1  0.28489716  0.88998245  0.62747942  1
  Hf  Hf36  1  0.08599433  0.08499326  0.89360444  1
  Hf  Hf37  1  0.90869231  0.69847584  0.87536550  1
  Hf  Hf38  1  0.69124691  0.89818791  0.38833853  1
  Hf  Hf39  1  0.51178133  0.50631217  0.37028578  1
  Zr  Zr40  1  0.79760307  0.80982336  0.75435162  1
  Zr  Zr41  1  0.11568037  0.49045237  0.63131026  1
  Zr  Zr42  1  0.29803636  0.68183821  0.11369253  1
  Zr  Zr43  1  0.29331594  0.69134080  0.87910726  1
  Zr  Zr44  1  0.61690259  0.20338489  0.23208940  1
  Zr  Zr45  1  0.00583661  0.81191414  0.74643187  1
  Zr  Zr46  1  0.40448116  0.19235596  0.74684035  1
  Zr  Zr47  1  0.61394988  -0.00753455  0.23553663  1
  Zr  Zr48  1  0.70294338  0.10217685  0.37531331  1
  Zr  Zr49  1  0.49177132  0.30867933  0.13160080  1
  Zr  Zr50  1  0.80643016  0.39747612  0.51324655  1
  Zr  Zr51  1  0.89968449  0.91693351  0.62559002  1
  Zr  Zr52  1  0.57916435  0.79808860  0.51082766  1
  Zr  Zr53  1  0.00817004  0.38964045  0.75470062  1
  Zr  Zr54  1  -0.00426820  0.19174255  0.76024527  1
  Zr  Zr55  1  0.69506921  0.90897113  0.62862557  1
  Zr  Zr56  1  0.49296036  0.89569908  0.12765373  1
  Zr  Zr57  1  0.49065461  0.90635768  0.88355106  1
  Zr  Zr58  1  0.00008247  0.79811632  0.50172776  1
  Zr  Zr59  1  0.47828592  0.10497594  0.15164929  1
  Zr  Zr60  1  0.79890124  0.40027392  -0.01250827  1
  Zr  Zr61  1  0.58871362  0.02014526  0.74214330  1
  Zr  Zr62  1  0.38521044  0.78840228  0.48940768  1
  Zr  Zr63  1  0.28798860  0.09563230  0.87608349  1
  Zr  Zr64  1  0.30860710  0.70371149  0.65109303  1
  Zr  Zr65  1  0.60996101  0.59051067  -0.00449583  1
  Zr  Zr66  1  0.90593717  0.70217158  0.11523199  1
  Zr  Zr67  1  0.49558789  0.09642970  0.36184425  1
  Zr  Zr68  1  0.60708067  0.79334066  0.23438825  1
  Zr  Zr69  1  0.39114518  -0.00284016  0.74751483  1
  Zr  Zr70  1  0.29091909  0.89993726  0.36497464  1
  Zr  Zr71  1  0.91021806  0.29553612  0.36444611  1
  Zr  Zr72  1  0.61097209  0.39123552  0.00450587  1
  Zr  Zr73  1  0.29731965  0.10756201  0.35362415  1
  Zr  Zr74  1  0.60183834  0.40889563  0.74971036  1
  Zr  Zr75  1  0.50342347  0.29946797  0.36496449  1
  Zr  Zr76  1  0.41546678  0.58983198  0.75911061  1
  Zr  Zr77  1  0.50522508  0.28850809  0.87719040  1
  Zr  Zr78  1  -0.00160104  0.01666198  0.47628915  1
  Zr  Zr79  1  0.01455500  0.60059553  0.24961549  1
  Ta  Ta80  1  0.38725954  0.41022174  0.26210941  1
  Ta  Ta81  1  0.59901551  0.00953972  0.01316975  1
  Ta  Ta82  1  0.90365468  0.49910161  0.38074487  1
  Ta  Ta83  1  0.20126695  0.18901333  0.01705940  1
  Ta  Ta84  1  0.60533216  0.19484835  0.01951220  1
  Ta  Ta85  1  0.29977238  0.29427042  0.88824257  1
  Ta  Ta86  1  0.10540880  0.30643189  0.11812151  1
  Ta  Ta87  1  0.39671956  0.19816360  0.00840222  1
  Ta  Ta88  1  0.49247380  0.90163607  0.35771770  1
  Ta  Ta89  1  0.49792015  0.70137518  0.88790384  1
  Ta  Ta90  1  0.58326918  0.79783845  0.75449387  1
  Ta  Ta91  1  0.09978374  0.69478947  0.09850423  1
  Ta  Ta92  1  0.80021751  0.00823794  0.49433585  1
  Ta  Ta93  1  0.70665119  0.69495289  0.10909278  1
  Ta  Ta94  1  0.90174917  0.30542065  0.12714410  1
  Ta  Ta95  1  0.79240184  0.20476485  0.01040146  1
  Ta  Ta96  1  0.71512950  0.50150643  0.13294507  1
  Ta  Ta97  1  0.39282217  0.79840658  0.00255272  1
  Ta  Ta98  1  0.70681644  0.30515255  0.36248380  1
  Ta  Ta99  1  0.80611136  0.59183734  -0.01421489  1
  Ta  Ta100  1  0.79754822  0.80574727  -0.00308877  1
  Ta  Ta101  1  0.79832149  0.80192717  0.50875204  1
  Ta  Ta102  1  0.17827102  -0.00626905  0.75323853  1
  Ta  Ta103  1  0.79559998  0.20508617  0.74391598  1
  Ta  Ta104  1  0.20889393  0.40136155  0.24610789  1
  Ta  Ta105  1  0.10898216  0.29324761  0.37664327  1
  Ta  Ta106  1  0.09480157  0.10125641  0.62507719  1
  Ta  Ta107  1  0.39824426  0.40897641  0.48929838  1
  Ta  Ta108  1  0.80646570  0.02211435  0.76357758  1
  Ta  Ta109  1  0.41856354  0.60144078  0.50623041  1
  Ta  Ta110  1  0.29974475  0.30788969  0.11505329  1
  Ta  Ta111  1  0.90606194  0.50340795  0.11759044  1
  Ta  Ta112  1  0.28401748  0.89334841  0.88322653  1
  Ta  Ta113  1  0.81053862  0.19757384  0.23906803  1
  Ta  Ta114  1  0.49623405  0.69254367  0.11332426  1
  Ta  Ta115  1  0.10903203  0.50636590  0.87258222  1
  Ta  Ta116  1  0.00473029  0.39144930  0.50571269  1
  Ta  Ta117  1  0.10764970  0.70303250  0.38110818  1
  Ta  Ta118  1  0.71365259  0.51586937  0.62781622  1
  Ta  Ta119  1  0.60097075  0.80245573  0.00480853  1
  Ti  Ti120  1  0.69369502  0.11292672  0.87903760  1
  Ti  Ti121  1  0.60905941  0.40557729  0.24143523  1
  Ti  Ti122  1  0.11363676  0.50589212  0.11163818  1
  Ti  Ti123  1  0.89487011  0.29134275  0.87787467  1
  Ti  Ti124  1  0.10692122  0.28790461  0.61123368  1
  Ti  Ti125  1  0.80479300  0.00208495  0.25529832  1
  Ti  Ti126  1  0.59081031  0.00400443  0.50936051  1
  Ti  Ti127  1  0.80682792  0.60071762  0.24554786  1
  Ti  Ti128  1  0.39876846  0.39689449  0.76728040  1
  Ti  Ti129  1  0.10985749  0.29112523  0.88900571  1
  Ti  Ti130  1  0.80818066  0.40234327  0.24696595  1
  Ti  Ti131  1  0.19665094  0.00226047  0.23088537  1
  Ti  Ti132  1  -0.00185372  0.79746753  0.24909215  1
  Ti  Ti133  1  0.69683445  0.29243338  0.86345239  1
  Ti  Ti134  1  0.90202357  0.09704944  0.12519442  1
  Ti  Ti135  1  0.00328331  0.19647901  0.49401134  1
  Ti  Ti136  1  0.50271814  0.10313045  0.88919570  1
  Ti  Ti137  1  0.88979913  0.91100486  0.11194955  1
  Ti  Ti138  1  0.39099428  0.59673096  0.25541508  1
  Ti  Ti139  1  0.20883185  0.59064496  0.25652269  1
  Ti  Ti140  1  0.71673225  0.08862901  0.11977875  1
  Ti  Ti141  1  0.38972390  0.79421990  0.23831090  1
  Ti  Ti142  1  0.91070620  0.29455809  0.62640298  1
  Ti  Ti143  1  -0.00689593  0.58291216  0.74666274  1
  Ti  Ti144  1  -0.00500797  0.00701646  0.24665090  1
  Ti  Ti145  1  0.48417802  0.88798267  0.63728549  1
  Ti  Ti146  1  0.49761365  0.49365370  0.89305443  1
  Ti  Ti147  1  0.60848412  0.60031863  0.23303994  1
  Ti  Ti148  1  0.30457851  0.49481197  0.10486067  1
  Ti  Ti149  1  0.59927644  0.59712338  0.75425464  1
  Ti  Ti150  1  0.09718992  0.11110410  0.35149981  1
  Ti  Ti151  1  0.28789326  0.30558089  0.38373140  1
  Ti  Ti152  1  0.20545461  0.40084105  -0.00785184  1
  Ti  Ti153  1  0.20677648  0.39349569  0.76868000  1
  Ti  Ti154  1  0.19334048  0.00973442  0.48355269  1
  Ti  Ti155  1  0.90386144  0.10095832  0.62700356  1
  Ti  Ti156  1  0.70391272  0.10369962  0.62647996  1
  Ti  Ti157  1  0.19598448  0.20993833  0.23314239  1
  Ti  Ti158  1  0.09881635  0.89999329  0.36497346  1
  Ti  Ti159  1  0.19159376  0.19985485  0.75759651  1
  Mo  Mo160  1  0.50612266  0.50509097  0.61712233  1
  Mo  Mo161  1  0.30808004  0.50024553  0.38151900  1
  Mo  Mo162  1  0.80093920  0.59891727  0.49434242  1
  Mo  Mo163  1  0.28916669  0.89475599  0.12377938  1
  Mo  Mo164  1  0.37373988  0.23069252  0.25274694  1
  Mo  Mo165  1  0.59797617  0.59718289  0.51266434  1
  Mo  Mo166  1  0.60876453  0.20112840  0.73698088  1
  Mo  Mo167  1  0.71260369  0.30507042  0.13856397  1
  Mo  Mo168  1  0.70767438  0.90165753  0.10331628  1
  Mo  Mo169  1  -0.00872995  0.79975305  0.00359138  1
  Mo  Mo170  1  0.40363277  0.59384662  -0.01050309  1
  Mo  Mo171  1  0.19890236  0.80746891  0.76001651  1
  Mo  Mo172  1  0.70330502  0.50067905  0.85903132  1
  Mo  Mo173  1  0.79545802  0.01440215  -0.01012457  1
  Mo  Mo174  1  0.90614705  0.49601222  0.61503137  1
  Mo  Mo175  1  0.30221606  0.48823803  0.87421038  1
  Mo  Mo176  1  0.88609594  0.11018082  0.88691932  1
  Mo  Mo177  1  0.19577784  0.00279882  0.02302930  1
  Mo  Mo178  1  0.90865834  0.50130789  0.88125909  1
  Mo  Mo179  1  -0.00867607  0.00618250  0.02251721  1
  Mo  Mo180  1  0.70299178  0.29972334  0.63806595  1
  Mo  Mo181  1  0.90316017  0.10122759  0.35479159  1
  Mo  Mo182  1  0.80027802  0.59309731  0.76681380  1
  Mo  Mo183  1  0.49841461  0.09810009  0.61307679  1
  Mo  Mo184  1  0.29163217  0.10575891  0.13994682  1
  Mo  Mo185  1  0.18768345  0.19348856  0.49100166  1
  Mo  Mo186  1  0.20239822  0.79835497  0.01485817  1
  Mo  Mo187  1  0.19960419  0.58664846  -0.00747742  1
  Mo  Mo188  1  0.00687169  0.20208821  0.23250208  1
  Mo  Mo189  1  0.39760933  0.39594609  -0.01260725  1
  Mo  Mo190  1  0.20097140  0.58951333  0.75917838  1
  Mo  Mo191  1  0.00137679  0.59233804  -0.00376069  1
  Mo  Mo192  1  0.20328125  0.39511474  0.49493886  1
  Mo  Mo193  1  0.30070754  0.69342274  0.35731435  1
  Mo  Mo194  1  0.40055195  0.80184870  0.77512965  1
  Mo  Mo195  1  -0.00081817  0.00675927  0.74766767  1
  Mo  Mo196  1  0.19552062  0.80316458  0.48018308  1
  Mo  Mo197  1  0.38544557  -0.01835980  0.24050574  1
  Mo  Mo198  1  0.49987013  0.69974021  0.64360540  1
  Mo  Mo199  1  0.09482575  0.10202022  0.13402228  1
