# generated using pymatgen
data_HfZrTaTiMo
_symmetry_space_group_name_H-M   'P 1'
_cell_length_a   15.84876095
_cell_length_b   15.83322213
_cell_length_c   15.40627368
_cell_angle_alpha   90.01101622
_cell_angle_beta   90.05039832
_cell_angle_gamma   89.90471904
_symmetry_Int_Tables_number   1
_chemical_formula_structural   HfZrTaTiMo
_chemical_formula_sum   'Hf40 Zr40 Ta40 Ti40 Mo40'
_cell_volume   3865.99645653
_cell_formula_units_Z   40
loop_
 _symmetry_equiv_pos_site_id
 _symmetry_equiv_pos_as_xyz
  1  'x, y, z'
loop_
 _atom_site_type_symbol
 _atom_site_label
 _atom_site_symmetry_multiplicity
 _atom_site_fract_x
 _atom_site_fract_y
 _atom_site_fract_z
 _atom_site_occupancy
  Hf  Hf0  1  0.40037946  -0.00031920  -0.01324038  1
  Hf  Hf1  1  0.59271309  0.39189359  0.50926971  1
  Hf  Hf2  1  0.10514523  0.10911787  0.12040203  1
  Hf  Hf3  1  0.39368745  0.39741196  0.50947301  1
  Hf  Hf4  1  0.88516878  0.29646438  0.86797004  1
  Hf  Hf5  1  0.10525689  0.89228332  0.12171927  1
  Hf  Hf6  1  0.89686681  0.09704572  0.12742697  1
  Hf  Hf7  1  0.40479453  0.59606591  0.23047904  1
  Hf  Hf8  1  0.59372103  -0.00633261  0.47985776  1
  Hf  Hf9  1  0.89716876  0.70589203  0.86771324  1
  Hf  Hf10  1  0.39611339  0.20238556  -0.01366668  1
  Hf  Hf11  1  0.09772556  0.30102107  0.13898101  1
  Hf  Hf12  1  0.49165597  0.29648040  0.13350582  1
  Hf  Hf13  1  0.40550660  0.40116335  0.74879210  1
  Hf  Hf14  1  0.07740683  0.32121186  0.36982670  1
  Hf  Hf15  1  0.59137496  0.41725054  0.24076328  1
  Hf  Hf16  1  0.39821038  0.61176262  0.00166362  1
  Hf  Hf17  1  0.91499110  0.47704539  0.37565166  1
  Hf  Hf18  1  0.79517038  0.59809291  0.26086391  1
  Hf  Hf19  1  0.49829812  0.09938863  0.13132837  1
  Hf  Hf20  1  0.19770129  0.20865702  0.50460556  1
  Hf  Hf21  1  0.70153626  0.09999289  0.87892121  1
  Hf  Hf22  1  0.69811188  0.89724668  0.11775549  1
  Hf  Hf23  1  0.09675245  0.88398165  0.36891285  1
  Hf  Hf24  1  0.58775164  0.18981472  0.49193899  1
  Hf  Hf25  1  0.40749889  0.80990230  0.50254274  1
  Hf  Hf26  1  0.19867187  0.19770092  0.26665274  1
  Hf  Hf27  1  0.20996923  -0.00440072  0.51556026  1
  Hf  Hf28  1  0.58784396  0.39720449  0.00098173  1
  Hf  Hf29  1  0.20140973  0.79920725  0.52548267  1
  Hf  Hf30  1  0.79354115  0.20371995  0.00647067  1
  Hf  Hf31  1  0.59657307  0.40301658  0.75143549  1
  Hf  Hf32  1  0.40352842  0.80404696  0.00016900  1
  Hf  Hf33  1  0.79368473  0.59729182  0.76425659  1
  Hf  Hf34  1  0.79036631  0.39864710  0.74614728  1
  Hf  Hf35  1  0.79518842  0.19356000  0.26087050  1
  Hf  Hf36  1  0.79340844  0.40452393  0.24576253  1
  Hf  Hf37  1  0.51114027  0.70441877  0.62691647  1
  Hf  Hf38  1  0.69625773  0.50840417  0.61103184  1
  Hf  Hf39  1  -0.00037828  0.00246949  -0.00439997  1
  Zr  Zr40  1  0.51435466  0.88922428  0.86783435  1
  Zr  Zr41  1  0.90475363  0.51065015  0.62115659  1
  Zr  Zr42  1  0.90322406  0.69942989  0.13525787  1
  Zr  Zr43  1  0.49445185  0.50596028  0.38674054  1
  Zr  Zr44  1  0.10273033  0.89442945  0.88157136  1
  Zr  Zr45  1  0.69868106  0.89690188  0.61126684  1
  Zr  Zr46  1  0.10291451  0.69994224  0.87416954  1
  Zr  Zr47  1  0.90336527  0.30031800  0.13796976  1
  Zr  Zr48  1  0.09400712  0.10151982  0.39416869  1
  Zr  Zr49  1  0.29931039  0.49751282  0.88077367  1
  Zr  Zr50  1  0.29342121  0.29297918  0.86322663  1
  Zr  Zr51  1  0.00271601  0.79187928  0.51472382  1
  Zr  Zr52  1  0.00289466  0.00399232  0.25236240  1
  Zr  Zr53  1  -0.01073425  0.59944602  -0.00963281  1
  Zr  Zr54  1  0.39604816  0.19311274  0.48749446  1
  Zr  Zr55  1  0.89806102  0.09607257  0.60841411  1
  Zr  Zr56  1  0.20362751  0.00222476  0.74790342  1
  Zr  Zr57  1  0.21212930  -0.00094034  0.24672106  1
  Zr  Zr58  1  -0.00548293  0.40425319  0.75111286  1
  Zr  Zr59  1  0.30258869  0.50330226  0.63164130  1
  Zr  Zr60  1  0.69553312  0.31076730  0.37438459  1
  Zr  Zr61  1  0.39972997  0.79928254  0.23552128  1
  Zr  Zr62  1  0.78997677  0.19924904  0.49729470  1
  Zr  Zr63  1  -0.00946403  0.40053137  -0.01253801  1
  Zr  Zr64  1  0.20752341  0.80313554  0.73926201  1
  Zr  Zr65  1  0.20000298  0.60823122  0.51312453  1
  Zr  Zr66  1  0.50734092  0.70013964  0.38114008  1
  Zr  Zr67  1  0.91879666  0.70881792  0.35559526  1
  Zr  Zr68  1  0.29784181  0.89190323  0.37266542  1
  Zr  Zr69  1  -0.00082544  0.19752579  0.75127968  1
  Zr  Zr70  1  0.70052870  0.70068708  0.61854732  1
  Zr  Zr71  1  0.28897871  0.31571231  0.37541473  1
  Zr  Zr72  1  0.89531841  0.89651659  0.13529188  1
  Zr  Zr73  1  0.01436677  0.59124455  0.48938450  1
  Zr  Zr74  1  0.00903226  0.20687932  -0.01697827  1
  Zr  Zr75  1  0.80395093  -0.00207196  0.74706609  1
  Zr  Zr76  1  0.21852725  -0.00314072  -0.00495020  1
  Zr  Zr77  1  0.10633832  0.50485626  0.10458713  1
  Zr  Zr78  1  0.69183078  0.09387833  0.12359446  1
  Zr  Zr79  1  0.00360868  0.00076834  0.75088825  1
  Ta  Ta80  1  0.90004067  0.09805793  0.38624859  1
  Ta  Ta81  1  0.60189923  0.20075917  0.74946086  1
  Ta  Ta82  1  0.68997933  0.29918738  0.12795726  1
  Ta  Ta83  1  0.20749936  0.60084819  0.75571974  1
  Ta  Ta84  1  0.49727813  0.08882471  0.63978131  1
  Ta  Ta85  1  0.49842991  0.51698700  0.62168540  1
  Ta  Ta86  1  0.38900716  0.40827589  0.23762150  1
  Ta  Ta87  1  0.39076690  0.19563508  0.26112331  1
  Ta  Ta88  1  0.10401737  0.49643391  0.86591521  1
  Ta  Ta89  1  0.59719958  0.60572383  0.00126181  1
  Ta  Ta90  1  0.89577336  0.89799146  0.88349542  1
  Ta  Ta91  1  0.59889065  -0.00581101  0.26507344  1
  Ta  Ta92  1  0.19323761  0.38202645  -0.00887902  1
  Ta  Ta93  1  0.09957802  0.10415398  0.61519607  1
  Ta  Ta94  1  0.19770137  0.41702549  0.24557903  1
  Ta  Ta95  1  0.69825316  0.50735654  0.11314100  1
  Ta  Ta96  1  0.01971749  0.58815823  0.25105547  1
  Ta  Ta97  1  0.90148638  0.90224499  0.37491650  1
  Ta  Ta98  1  0.29647209  0.50950430  0.38303065  1
  Ta  Ta99  1  0.31270792  0.10573253  0.63771762  1
  Ta  Ta100  1  0.60466719  0.60520910  0.23825374  1
  Ta  Ta101  1  0.17824518  0.41214769  0.51440073  1
  Ta  Ta102  1  0.08655289  0.68557066  0.64977660  1
  Ta  Ta103  1  0.80090827  0.79406005  -0.00068531  1
  Ta  Ta104  1  0.60783045  -0.00107362  0.75393936  1
  Ta  Ta105  1  0.79234896  0.40389157  0.00294048  1
  Ta  Ta106  1  0.70634186  0.89915824  0.88805395  1
  Ta  Ta107  1  0.49870109  0.10343949  0.85891488  1
  Ta  Ta108  1  0.49180291  0.28602082  0.63621993  1
  Ta  Ta109  1  0.29373328  0.29898892  0.12388893  1
  Ta  Ta110  1  0.49299138  0.30574809  0.35955600  1
  Ta  Ta111  1  0.40673938  0.00459337  0.48966913  1
  Ta  Ta112  1  0.50751298  0.90597427  0.12768543  1
  Ta  Ta113  1  0.21156356  0.60042302  0.24485004  1
  Ta  Ta114  1  0.79920867  0.79682664  0.48201310  1
  Ta  Ta115  1  0.30479366  0.69483535  0.37811131  1
  Ta  Ta116  1  0.80666279  0.60629355  0.48121508  1
  Ta  Ta117  1  0.50845928  0.89964364  0.63945448  1
  Ta  Ta118  1  -0.00859465  0.80816748  0.73967993  1
  Ta  Ta119  1  0.22200640  0.79086027  0.00206116  1
  Ti  Ti120  1  0.89062657  0.09614424  0.88016374  1
  Ti  Ti121  1  0.70329205  0.70249903  0.12175433  1
  Ti  Ti122  1  0.69251411  0.50739900  0.39034337  1
  Ti  Ti123  1  0.78986505  0.80064773  0.26309654  1
  Ti  Ti124  1  0.59231665  0.60278508  0.76752166  1
  Ti  Ti125  1  0.59039487  0.20131382  -0.00872170  1
  Ti  Ti126  1  0.59584810  0.00105699  -0.00767100  1
  Ti  Ti127  1  0.40162315  0.00219637  0.26106789  1
  Ti  Ti128  1  0.60737157  0.80271777  0.26096458  1
  Ti  Ti129  1  0.81540536  0.38821364  0.50958878  1
  Ti  Ti130  1  0.12417494  0.11514025  0.88172703  1
  Ti  Ti131  1  0.51643795  0.70949041  0.12177064  1
  Ti  Ti132  1  -0.00052257  0.79809328  0.00592586  1
  Ti  Ti133  1  0.89729304  0.50286989  0.12740205  1
  Ti  Ti134  1  0.32842718  0.90946819  0.63984458  1
  Ti  Ti135  1  0.79399731  0.19717701  0.73837692  1
  Ti  Ti136  1  0.00411893  -0.01190021  0.50673013  1
  Ti  Ti137  1  0.78789885  -0.00387043  0.27264656  1
  Ti  Ti138  1  0.32144924  0.69268093  0.63425682  1
  Ti  Ti139  1  -0.01252846  0.22382391  0.50623330  1
  Ti  Ti140  1  0.69433025  0.29294449  0.62364829  1
  Ti  Ti141  1  0.89210837  0.89582051  0.61240109  1
  Ti  Ti142  1  0.20871640  0.79017680  0.23158126  1
  Ti  Ti143  1  0.69510416  0.50037061  0.88806152  1
  Ti  Ti144  1  0.49428238  0.50013661  0.88498032  1
  Ti  Ti145  1  0.79363920  0.80479937  0.75263877  1
  Ti  Ti146  1  0.29642341  0.49643724  0.10236253  1
  Ti  Ti147  1  0.68722715  0.71168326  0.88024999  1
  Ti  Ti148  1  0.19560711  0.20081453  0.73867801  1
  Ti  Ti149  1  0.09371674  0.30664838  0.63071807  1
  Ti  Ti150  1  0.29600947  0.29936724  0.63380302  1
  Ti  Ti151  1  0.59742236  0.19352720  0.26405572  1
  Ti  Ti152  1  0.69075948  0.29985355  0.87766532  1
  Ti  Ti153  1  0.69166107  0.09276491  0.62082604  1
  Ti  Ti154  1  0.30428187  0.10594076  0.12499777  1
  Ti  Ti155  1  0.89351018  0.69887303  0.63287061  1
  Ti  Ti156  1  0.40746259  0.78996259  0.76291020  1
  Ti  Ti157  1  0.79568888  0.60014640  -0.00623454  1
  Ti  Ti158  1  0.11683756  0.69886027  0.36275255  1
  Ti  Ti159  1  0.10919823  0.69407309  0.11591358  1
  Mo  Mo160  1  0.80078823  -0.00319176  -0.00599269  1
  Mo  Mo161  1  0.09101519  0.90032667  0.62649530  1
  Mo  Mo162  1  0.70215601  0.89262972  0.37853445  1
  Mo  Mo163  1  0.49826912  0.50425179  0.11311995  1
  Mo  Mo164  1  0.01763818  0.79322848  0.23888895  1
  Mo  Mo165  1  0.40936297  0.60348956  0.76431048  1
  Mo  Mo166  1  0.30258436  0.09888979  0.85452469  1
  Mo  Mo167  1  0.40017809  0.19849343  0.75255520  1
  Mo  Mo168  1  0.29872715  0.09682866  0.38351211  1
  Mo  Mo169  1  0.20600582  0.20010043  0.00313991  1
  Mo  Mo170  1  0.60387576  0.59963518  0.50020855  1
  Mo  Mo171  1  0.30875059  0.89370516  0.85936557  1
  Mo  Mo172  1  0.70075764  0.69577151  0.37600140  1
  Mo  Mo173  1  -0.00160017  0.40944745  0.23346565  1
  Mo  Mo174  1  0.90048362  0.29520541  0.36812861  1
  Mo  Mo175  1  0.49885992  0.89783399  0.36032040  1
  Mo  Mo176  1  0.29421347  0.69532710  0.12138579  1
  Mo  Mo177  1  -0.00724547  0.19980810  0.26687649  1
  Mo  Mo178  1  0.80214702  -0.00610535  0.48644700  1
  Mo  Mo179  1  0.30671610  0.70167982  0.86407250  1
  Mo  Mo180  1  0.00033707  0.39603070  0.52145226  1
  Mo  Mo181  1  0.11264566  0.50258606  0.36797781  1
  Mo  Mo182  1  0.60407427  0.79702754  0.00734118  1
  Mo  Mo183  1  0.69854337  0.09570696  0.37172366  1
  Mo  Mo184  1  0.88445030  0.50034748  0.87769958  1
  Mo  Mo185  1  0.50290734  0.29903938  0.86505493  1
  Mo  Mo186  1  0.30932788  0.90187394  0.13182280  1
  Mo  Mo187  1  0.19605068  0.39704812  0.73978466  1
  Mo  Mo188  1  0.39655404  0.39859745  0.01191675  1
  Mo  Mo189  1  0.88980327  0.29890306  0.63551256  1
  Mo  Mo190  1  0.40441019  -0.00461431  0.76093850  1
  Mo  Mo191  1  0.20163648  0.59986162  -0.01674365  1
  Mo  Mo192  1  0.39850040  0.60648741  0.50281852  1
  Mo  Mo193  1  0.61143721  0.79930672  0.75674989  1
  Mo  Mo194  1  0.10231491  0.50221947  0.64985764  1
  Mo  Mo195  1  0.50587849  0.69410090  0.87319891  1
  Mo  Mo196  1  0.10436246  0.30028594  0.86075165  1
  Mo  Mo197  1  -0.00431308  0.60293182  0.76388753  1
  Mo  Mo198  1  0.60155251  0.80152475  0.48416579  1
  Mo  Mo199  1  0.49552900  0.10048174  0.35747949  1
