# generated using pymatgen
data_HfZrTaTiMo
_symmetry_space_group_name_H-M   'P 1'
_cell_length_a   15.84765628
_cell_length_b   15.83331619
_cell_length_c   15.40516236
_cell_angle_alpha   89.98297480
_cell_angle_beta   89.95695473
_cell_angle_gamma   89.97176379
_symmetry_Int_Tables_number   1
_chemical_formula_structural   HfZrTaTiMo
_chemical_formula_sum   'Hf40 Zr40 Ta40 Ti40 Mo40'
_cell_volume   3865.47628629
_cell_formula_units_Z   40
loop_
 _symmetry_equiv_pos_site_id
 _symmetry_equiv_pos_as_xyz
  1  'x, y, z'
loop_
 _atom_site_type_symbol
 _atom_site_label
 _atom_site_symmetry_multiplicity
 _atom_site_fract_x
 _atom_site_fract_y
 _atom_site_fract_z
 _atom_site_occupancy
  Hf  Hf0  1  0.19606650  0.39294841  0.49104058  1
  Hf  Hf1  1  0.71330594  0.69719055  0.13360834  1
  Hf  Hf2  1  0.80421169  -0.00725576  -0.01277512  1
  Hf  Hf3  1  0.40123059  0.20058197  -0.01128311  1
  Hf  Hf4  1  0.69648352  0.48406889  0.62388441  1
  Hf  Hf5  1  0.50843118  0.70081570  0.86928710  1
  Hf  Hf6  1  0.50510796  0.69374547  0.62162724  1
  Hf  Hf7  1  -0.01168706  0.80495487  -0.00535705  1
  Hf  Hf8  1  0.50094784  0.50150342  0.37211171  1
  Hf  Hf9  1  0.30339732  0.30161073  0.64092436  1
  Hf  Hf10  1  0.39893775  0.40765938  -0.00654593  1
  Hf  Hf11  1  0.09671252  0.69307825  0.87354164  1
  Hf  Hf12  1  0.29559278  0.09966156  0.38413424  1
  Hf  Hf13  1  0.39364623  0.60578496  0.00544466  1
  Hf  Hf14  1  0.09915559  0.91348711  0.11352066  1
  Hf  Hf15  1  0.69358617  0.69167547  0.38154849  1
  Hf  Hf16  1  -0.00134316  0.40003291  0.02035278  1
  Hf  Hf17  1  0.60423062  0.20925325  0.72922319  1
  Hf  Hf18  1  0.10170734  0.91516774  0.39000498  1
  Hf  Hf19  1  0.40262561  0.00552447  0.25119456  1
  Hf  Hf20  1  0.51016404  0.29142298  0.37391623  1
  Hf  Hf21  1  0.50391317  0.29881356  0.12440763  1
  Hf  Hf22  1  0.78623484  0.38502114  0.48107804  1
  Hf  Hf23  1  0.20414168  0.59579467  0.50635729  1
  Hf  Hf24  1  0.89230306  0.50341795  0.60071634  1
  Hf  Hf25  1  0.39719498  0.39673828  0.49327912  1
  Hf  Hf26  1  0.39582685  0.60501993  0.23660179  1
  Hf  Hf27  1  0.52747078  0.10334385  0.88055264  1
  Hf  Hf28  1  0.09728913  0.69887809  0.12645733  1
  Hf  Hf29  1  0.18784116  0.00789313  0.24394523  1
  Hf  Hf30  1  0.00313305  0.39485080  0.25647508  1
  Hf  Hf31  1  0.79369377  0.80968494  0.50082052  1
  Hf  Hf32  1  0.81161731  0.78960423  0.27005273  1
  Hf  Hf33  1  0.40348087  0.59331087  0.74926810  1
  Hf  Hf34  1  0.49961771  0.70012049  0.38126343  1
  Hf  Hf35  1  0.08670475  0.49743208  0.87739441  1
  Hf  Hf36  1  0.19029528  0.20652331  0.24148387  1
  Hf  Hf37  1  0.61406580  0.00935022  0.23963080  1
  Hf  Hf38  1  0.61454530  -0.00063019  0.50891615  1
  Hf  Hf39  1  0.30125277  0.09745742  0.63058728  1
  Zr  Zr40  1  0.89129077  0.50781667  0.14455373  1
  Zr  Zr41  1  0.09588936  0.10714935  0.39381645  1
  Zr  Zr42  1  0.40776666  0.19739293  0.75598403  1
  Zr  Zr43  1  0.79351174  0.18640378  0.00172422  1
  Zr  Zr44  1  0.50215290  0.47482803  0.63409734  1
  Zr  Zr45  1  0.39171280  -0.00834678  0.49995470  1
  Zr  Zr46  1  -0.00542265  0.80073240  0.74410554  1
  Zr  Zr47  1  0.00492339  0.80766415  0.25893260  1
  Zr  Zr48  1  0.19108050  0.40422140  0.25946833  1
  Zr  Zr49  1  0.09011980  0.69794554  0.61760673  1
  Zr  Zr50  1  0.79891407  0.39555809  -0.00073263  1
  Zr  Zr51  1  0.29525179  0.30607091  0.11646668  1
  Zr  Zr52  1  0.79773089  0.59542792  -0.01141108  1
  Zr  Zr53  1  0.50675108  0.10469593  0.38315646  1
  Zr  Zr54  1  0.50304372  0.89326494  0.37184075  1
  Zr  Zr55  1  -0.01581109  0.81298880  0.50210335  1
  Zr  Zr56  1  0.10682310  0.70921698  0.38625553  1
  Zr  Zr57  1  0.28513985  0.49608870  0.87097230  1
  Zr  Zr58  1  0.88926756  0.90062109  0.13507524  1
  Zr  Zr59  1  0.59859780  0.59732789  0.00494334  1
  Zr  Zr60  1  0.29912857  0.70587865  0.63478728  1
  Zr  Zr61  1  0.91007705  0.09914775  0.62384365  1
  Zr  Zr62  1  0.40861258  -0.00800129  -0.01366136  1
  Zr  Zr63  1  0.10356936  0.30366718  0.87501613  1
  Zr  Zr64  1  0.60994033  0.80864648  -0.00274856  1
  Zr  Zr65  1  0.29209688  0.70182134  0.85718458  1
  Zr  Zr66  1  0.40363643  0.79984696  -0.00736021  1
  Zr  Zr67  1  0.80637321  0.20049591  0.50156082  1
  Zr  Zr68  1  0.50355235  0.89926572  0.13212481  1
  Zr  Zr69  1  0.70592349  0.68514266  0.61360852  1
  Zr  Zr70  1  0.21124320  0.79807605  0.00294902  1
  Zr  Zr71  1  0.80595145  0.40650840  0.75757074  1
  Zr  Zr72  1  0.39402922  0.39968121  0.25281586  1
  Zr  Zr73  1  0.30006777  0.70642701  0.36943466  1
  Zr  Zr74  1  0.90790322  0.30107241  0.87340462  1
  Zr  Zr75  1  0.29822123  0.09097907  0.11146529  1
  Zr  Zr76  1  0.10648910  0.90492084  0.87971609  1
  Zr  Zr77  1  0.80117342  0.79560658  0.74871290  1
  Zr  Zr78  1  0.08465960  0.48938281  0.61884373  1
  Zr  Zr79  1  0.49215703  0.90297312  0.63198362  1
  Ta  Ta80  1  0.90565430  0.09289537  0.36391771  1
  Ta  Ta81  1  0.69207384  0.28994043  0.87334411  1
  Ta  Ta82  1  0.51114248  0.10668910  0.11311646  1
  Ta  Ta83  1  0.09490684  0.91848683  0.61877678  1
  Ta  Ta84  1  0.39762698  0.59448669  0.50871553  1
  Ta  Ta85  1  0.61012006  0.59656883  0.75518745  1
  Ta  Ta86  1  0.79530404  0.80107717  -0.01638016  1
  Ta  Ta87  1  0.60571407  0.80058737  0.74577052  1
  Ta  Ta88  1  0.29950607  0.49269134  0.63489474  1
  Ta  Ta89  1  0.30308286  0.90880055  0.85600390  1
  Ta  Ta90  1  0.60284740  0.00366225  0.74056654  1
  Ta  Ta91  1  0.80275129  0.20248794  0.74572117  1
  Ta  Ta92  1  0.39399058  0.79911273  0.50513726  1
  Ta  Ta93  1  -0.01894625  0.58924167  0.75148301  1
  Ta  Ta94  1  0.29305429  0.29999452  0.86977046  1
  Ta  Ta95  1  0.69758806  0.90906329  0.85827418  1
  Ta  Ta96  1  0.71486032  0.09148893  0.63047807  1
  Ta  Ta97  1  0.60503746  0.39721338  0.00127171  1
  Ta  Ta98  1  0.10390126  0.10620057  0.61937934  1
  Ta  Ta99  1  0.00804365  0.20082537  0.74692855  1
  Ta  Ta100  1  -0.00896973  0.60921019  0.26894096  1
  Ta  Ta101  1  0.70108191  0.49262645  0.14089680  1
  Ta  Ta102  1  0.00281170  0.00289161  0.75817611  1
  Ta  Ta103  1  0.70329478  0.10720590  0.37621645  1
  Ta  Ta104  1  0.89333148  0.29203818  0.14160345  1
  Ta  Ta105  1  0.61447704  0.21481261  0.51754656  1
  Ta  Ta106  1  0.30105794  0.88856415  0.14163805  1
  Ta  Ta107  1  0.10115384  0.10433163  0.88120454  1
  Ta  Ta108  1  0.70237985  0.90406892  0.36442217  1
  Ta  Ta109  1  0.19166746  0.20214532  0.00431830  1
  Ta  Ta110  1  0.29306881  0.89370838  0.36157298  1
  Ta  Ta111  1  0.70048082  0.29513028  0.13607451  1
  Ta  Ta112  1  0.28619593  0.50576690  0.12174594  1
  Ta  Ta113  1  -0.00409122  0.19706744  0.01320962  1
  Ta  Ta114  1  0.59865149  0.59897076  0.24161590  1
  Ta  Ta115  1  0.62255717  0.00467267  0.00815900  1
  Ta  Ta116  1  0.19665619  0.00836582  0.74675523  1
  Ta  Ta117  1  0.90269126  0.09243596  0.13910851  1
  Ta  Ta118  1  0.90140897  0.69237442  0.88005368  1
  Ta  Ta119  1  0.60410138  0.39589503  0.25305865  1
  Ti  Ti120  1  0.40118844  0.19502197  0.24461516  1
  Ti  Ti121  1  0.69928153  0.49559153  0.36263394  1
  Ti  Ti122  1  0.18698255  0.59500021  0.73784069  1
  Ti  Ti123  1  0.29809851  0.50798788  0.37232841  1
  Ti  Ti124  1  0.40585918  0.20622559  0.51044291  1
  Ti  Ti125  1  0.60251430  0.80903275  0.51163759  1
  Ti  Ti126  1  -0.00609231  0.00778122  -0.01118101  1
  Ti  Ti127  1  0.49819281  0.70699009  0.12848745  1
  Ti  Ti128  1  0.30030287  0.28958660  0.37186153  1
  Ti  Ti129  1  0.59918348  0.57983830  0.50047431  1
  Ti  Ti130  1  0.89717309  0.28669753  0.35627501  1
  Ti  Ti131  1  0.69345541  0.49443815  0.87170984  1
  Ti  Ti132  1  0.50412275  0.49272134  0.86804322  1
  Ti  Ti133  1  0.21168255  0.81979834  0.51762878  1
  Ti  Ti134  1  0.09739756  0.29562550  0.62805076  1
  Ti  Ti135  1  0.89095112  0.50466551  0.37371645  1
  Ti  Ti136  1  0.50151039  0.10120642  0.62008065  1
  Ti  Ti137  1  0.29062345  0.10115712  0.87202230  1
  Ti  Ti138  1  0.88756155  0.91723748  0.63563740  1
  Ti  Ti139  1  0.09275556  0.50665792  0.38091203  1
  Ti  Ti140  1  0.90747228  0.31086800  0.63037710  1
  Ti  Ti141  1  0.90231597  0.69437672  0.11819905  1
  Ti  Ti142  1  0.00943506  0.19432874  0.23819312  1
  Ti  Ti143  1  0.20268765  0.20756732  0.50412086  1
  Ti  Ti144  1  0.79145848  0.18837276  0.24719821  1
  Ti  Ti145  1  0.89579124  0.68443693  0.60780369  1
  Ti  Ti146  1  -0.00635061  0.38992230  0.47953305  1
  Ti  Ti147  1  0.50609686  0.30535447  0.87724835  1
  Ti  Ti148  1  0.60615428  0.79904158  0.24402721  1
  Ti  Ti149  1  0.40635967  0.80821903  0.75444896  1
  Ti  Ti150  1  -0.00073365  0.21145270  0.49958674  1
  Ti  Ti151  1  0.80801619  -0.00400013  0.48710069  1
  Ti  Ti152  1  0.19108367  0.39866551  0.74268586  1
  Ti  Ti153  1  0.19553109  0.59830326  0.00526514  1
  Ti  Ti154  1  0.09538862  0.50835558  0.12705520  1
  Ti  Ti155  1  0.19251271  0.81185348  0.73883559  1
  Ti  Ti156  1  0.79899614  0.59904428  0.76251642  1
  Ti  Ti157  1  0.50205448  0.49588504  0.12773062  1
  Ti  Ti158  1  0.19294926  0.60440876  0.25087308  1
  Ti  Ti159  1  0.90147719  0.10225065  0.86392813  1
  Mo  Mo160  1  0.80541062  0.00412293  0.76356897  1
  Mo  Mo161  1  0.70110958  0.70060733  0.86629296  1
  Mo  Mo162  1  0.39914462  0.39534568  0.76767542  1
  Mo  Mo163  1  0.79872111  0.59614750  0.26503173  1
  Mo  Mo164  1  0.70828285  0.30272486  0.63524469  1
  Mo  Mo165  1  0.20700028  0.00310141  -0.00923248  1
  Mo  Mo166  1  0.40355986  0.79947914  0.25324420  1
  Mo  Mo167  1  -0.00081629  0.60193548  0.00118182  1
  Mo  Mo168  1  0.70657013  0.10264267  0.85614609  1
  Mo  Mo169  1  0.19537337  0.40419725  0.01084002  1
  Mo  Mo170  1  -0.00457237  0.59639096  0.48151411  1
  Mo  Mo171  1  0.00221103  0.00936366  0.24693995  1
  Mo  Mo172  1  0.90319051  0.50359059  0.87964473  1
  Mo  Mo173  1  0.89819223  0.69492965  0.39499243  1
  Mo  Mo174  1  0.50280719  0.30022271  0.61381585  1
  Mo  Mo175  1  0.89965054  0.90841674  0.37191943  1
  Mo  Mo176  1  0.70009718  0.28896472  0.35363724  1
  Mo  Mo177  1  0.60315175  0.39396412  0.48112611  1
  Mo  Mo178  1  0.19512558  0.19798033  0.75407534  1
  Mo  Mo179  1  0.70379285  0.90491421  0.63653837  1
  Mo  Mo180  1  0.70715982  0.89559006  0.13913091  1
  Mo  Mo181  1  0.29425245  0.69915362  0.13758515  1
  Mo  Mo182  1  -0.00879234  0.00673394  0.50807990  1
  Mo  Mo183  1  0.40525651  0.00404440  0.76448199  1
  Mo  Mo184  1  0.20067230  0.00147369  0.51532920  1
  Mo  Mo185  1  0.71170734  0.09689755  0.13034152  1
  Mo  Mo186  1  0.60763964  0.20359584  0.00831829  1
  Mo  Mo187  1  0.60072478  0.39663978  0.76946142  1
  Mo  Mo188  1  0.90043517  0.90116503  0.86796593  1
  Mo  Mo189  1  0.29578927  0.90202288  0.64670998  1
  Mo  Mo190  1  0.09309464  0.29636052  0.38411482  1
  Mo  Mo191  1  0.60224311  0.19662194  0.23634472  1
  Mo  Mo192  1  0.79429449  0.59195275  0.48096329  1
  Mo  Mo193  1  0.50840219  0.90550978  0.85856184  1
  Mo  Mo194  1  0.09348727  0.30128281  0.11871213  1
  Mo  Mo195  1  0.80324879  -0.00067759  0.26506803  1
  Mo  Mo196  1  0.09369836  0.09977903  0.10454400  1
  Mo  Mo197  1  -0.00075100  0.39923744  0.73944836  1
  Mo  Mo198  1  0.79994708  0.39057144  0.26224823  1
  Mo  Mo199  1  0.19910672  0.80309314  0.24091657  1
