# generated using pymatgen
data_HfZrTaTiMo
_symmetry_space_group_name_H-M   'P 1'
_cell_length_a   15.83452305
_cell_length_b   15.83765135
_cell_length_c   15.39174280
_cell_angle_alpha   89.93605570
_cell_angle_beta   89.99718686
_cell_angle_gamma   90.10549209
_symmetry_Int_Tables_number   1
_chemical_formula_structural   HfZrTaTiMo
_chemical_formula_sum   'Hf40 Zr40 Ta40 Ti40 Mo40'
_cell_volume   3859.95778533
_cell_formula_units_Z   40
loop_
 _symmetry_equiv_pos_site_id
 _symmetry_equiv_pos_as_xyz
  1  'x, y, z'
loop_
 _atom_site_type_symbol
 _atom_site_label
 _atom_site_symmetry_multiplicity
 _atom_site_fract_x
 _atom_site_fract_y
 _atom_site_fract_z
 _atom_site_occupancy
  Hf  Hf0  1  0.11236804  0.30079301  0.86820173  1
  Hf  Hf1  1  0.89656275  0.89883500  0.89949216  1
  Hf  Hf2  1  0.90129120  0.90437328  0.35787687  1
  Hf  Hf3  1  0.80542746  0.41295192  0.25268405  1
  Hf  Hf4  1  0.01261598  -0.00620250  0.00376639  1
  Hf  Hf5  1  0.20580585  0.18648821  0.50516168  1
  Hf  Hf6  1  0.00796818  0.61355468  -0.02117759  1
  Hf  Hf7  1  0.89382191  0.49474406  0.88598397  1
  Hf  Hf8  1  0.48959667  0.91572035  0.63438563  1
  Hf  Hf9  1  0.39208563  0.80225191  0.50670924  1
  Hf  Hf10  1  0.79713232  0.79544427  0.48463536  1
  Hf  Hf11  1  0.61263615  0.81131901  0.25704897  1
  Hf  Hf12  1  0.40487538  0.81094972  0.25169880  1
  Hf  Hf13  1  0.50061261  0.50125280  0.13497362  1
  Hf  Hf14  1  0.09709122  0.89191806  0.13898875  1
  Hf  Hf15  1  0.09754619  0.50135622  0.12493193  1
  Hf  Hf16  1  0.11371045  0.30676502  0.12753715  1
  Hf  Hf17  1  0.00924704  0.19879726  0.01005126  1
  Hf  Hf18  1  0.29306156  0.49935102  0.13662574  1
  Hf  Hf19  1  0.90612331  0.31214979  0.12544420  1
  Hf  Hf20  1  0.19826401  0.60426876  0.51253827  1
  Hf  Hf21  1  0.00540499  0.79568598  0.78168795  1
  Hf  Hf22  1  0.40144005  0.59449842  0.72353440  1
  Hf  Hf23  1  0.69743463  0.89576206  0.62648492  1
  Hf  Hf24  1  0.60764961  0.01460931  0.75812827  1
  Hf  Hf25  1  0.09944365  0.08717966  0.36658488  1
  Hf  Hf26  1  0.69923976  0.49157665  0.60568200  1
  Hf  Hf27  1  -0.00842403  0.77353163  0.25892810  1
  Hf  Hf28  1  0.09896629  0.29904484  0.62220947  1
  Hf  Hf29  1  0.59701897  0.80736764  0.49135948  1
  Hf  Hf30  1  -0.00658459  0.18546330  0.50427047  1
  Hf  Hf31  1  0.80081534  0.19625719  0.48296432  1
  Hf  Hf32  1  0.09614218  0.10513688  0.86294350  1
  Hf  Hf33  1  0.09568677  0.89927796  0.36710417  1
  Hf  Hf34  1  0.78711008  0.79917415  0.77791727  1
  Hf  Hf35  1  0.50388349  0.69568940  0.13041860  1
  Hf  Hf36  1  0.19266132  0.79132095  0.50752941  1
  Hf  Hf37  1  0.40163462  0.01731455  0.24929657  1
  Hf  Hf38  1  0.78495077  0.19432034  0.01094489  1
  Hf  Hf39  1  0.20315784  0.00274207  0.00085073  1
  Zr  Zr40  1  0.31250145  0.89627072  0.85990213  1
  Zr  Zr41  1  0.59961310  0.19716516  0.48515976  1
  Zr  Zr42  1  -0.01076812  -0.00131713  0.75027981  1
  Zr  Zr43  1  0.51502061  0.31986133  0.88614743  1
  Zr  Zr44  1  0.50124605  0.29691063  0.13265022  1
  Zr  Zr45  1  0.61732368  0.78725944  -0.01614661  1
  Zr  Zr46  1  0.71351114  0.70580484  0.13506129  1
  Zr  Zr47  1  0.89386305  0.71270489  0.63557471  1
  Zr  Zr48  1  0.90299988  0.09234904  0.35267212  1
  Zr  Zr49  1  0.50402420  0.90686744  0.87830114  1
  Zr  Zr50  1  0.60018545  0.61183374  0.50818758  1
  Zr  Zr51  1  0.90332299  0.09240200  0.13128630  1
  Zr  Zr52  1  0.30170007  0.49706874  0.38671414  1
  Zr  Zr53  1  0.29465666  0.90391641  0.36834867  1
  Zr  Zr54  1  0.70320106  0.29978161  0.60774379  1
  Zr  Zr55  1  0.00280197  0.59567060  0.74767127  1
  Zr  Zr56  1  0.59037591  0.00783121  0.25297090  1
  Zr  Zr57  1  0.49395333  0.69712459  0.86381975  1
  Zr  Zr58  1  0.39203602  0.40670913  -0.00093552  1
  Zr  Zr59  1  0.20698807  0.59957080  -0.00506537  1
  Zr  Zr60  1  0.79068970  0.59399073  0.75219835  1
  Zr  Zr61  1  0.00252579  0.40108813  0.74834186  1
  Zr  Zr62  1  0.00311510  0.60574642  0.50959880  1
  Zr  Zr63  1  0.78049227  0.39489158  0.00564728  1
  Zr  Zr64  1  0.20275215  0.79285480  0.73680971  1
  Zr  Zr65  1  0.30222854  0.30073796  0.13543931  1
  Zr  Zr66  1  0.18360651  0.79662259  -0.01849890  1
  Zr  Zr67  1  0.30577916  0.10225993  0.85965533  1
  Zr  Zr68  1  0.78780027  0.20901213  0.24897477  1
  Zr  Zr69  1  0.50795255  0.89984437  0.10789479  1
  Zr  Zr70  1  0.88939518  0.87925030  0.11996693  1
  Zr  Zr71  1  0.80117009  0.00490252  0.50324178  1
  Zr  Zr72  1  0.09994629  0.30039579  0.38283235  1
  Zr  Zr73  1  0.50062079  0.69506450  0.36581171  1
  Zr  Zr74  1  0.78607454  0.38779678  0.76021799  1
  Zr  Zr75  1  0.41613840  0.21078276  0.74706101  1
  Zr  Zr76  1  0.90486442  0.28648975  0.87703891  1
  Zr  Zr77  1  0.20324284  -0.00876628  0.51797546  1
  Zr  Zr78  1  0.79974156  0.60675927  0.49829546  1
  Zr  Zr79  1  0.40122727  0.00866921  0.00985465  1
  Ta  Ta80  1  0.58520019  0.40077734  0.72795213  1
  Ta  Ta81  1  0.29700895  0.69608872  0.36892209  1
  Ta  Ta82  1  0.89682712  0.29061696  0.62595622  1
  Ta  Ta83  1  0.59701931  0.00563462  0.48804616  1
  Ta  Ta84  1  0.19765966  -0.00627090  0.74071814  1
  Ta  Ta85  1  0.39634882  0.60470399  0.00210659  1
  Ta  Ta86  1  0.69635634  0.50813020  0.37138043  1
  Ta  Ta87  1  0.40130001  0.60460090  0.50885105  1
  Ta  Ta88  1  0.08631738  0.88964520  0.62883929  1
  Ta  Ta89  1  0.40359943  0.40178969  0.73326937  1
  Ta  Ta90  1  0.09768826  0.49726236  0.38717648  1
  Ta  Ta91  1  0.29566509  0.69874789  0.13952592  1
  Ta  Ta92  1  0.40210089  0.19321422  0.49676383  1
  Ta  Ta93  1  0.19727997  0.59073013  0.72953394  1
  Ta  Ta94  1  0.30461798  0.29895043  0.38638936  1
  Ta  Ta95  1  0.79771187  0.18669903  0.75440846  1
  Ta  Ta96  1  0.61092429  0.21010928  0.75138429  1
  Ta  Ta97  1  0.21286898  0.19560148  0.26452780  1
  Ta  Ta98  1  0.40135839  0.39835056  0.26494008  1
  Ta  Ta99  1  0.89365580  0.48170090  0.61553973  1
  Ta  Ta100  1  0.69908500  0.51037024  0.13576770  1
  Ta  Ta101  1  0.38679002  0.78846335  0.00619336  1
  Ta  Ta102  1  0.00890913  0.20642409  0.24686269  1
  Ta  Ta103  1  0.29971000  0.48804434  0.60970046  1
  Ta  Ta104  1  0.77898287  -0.00776553  0.23108350  1
  Ta  Ta105  1  0.29485690  0.89342356  0.12789714  1
  Ta  Ta106  1  0.30449542  0.68985707  0.85623530  1
  Ta  Ta107  1  0.89927645  0.51291345  0.11408553  1
  Ta  Ta108  1  -0.00410980  -0.00688233  0.51393777  1
  Ta  Ta109  1  0.30218218  0.49699564  0.86080709  1
  Ta  Ta110  1  0.67188783  0.48839499  0.87610879  1
  Ta  Ta111  1  0.50554023  0.49599977  0.38102573  1
  Ta  Ta112  1  0.21045573  0.20218411  -0.00350942  1
  Ta  Ta113  1  0.88670450  0.09214783  0.88749126  1
  Ta  Ta114  1  -0.00173571  0.79721451  0.49204478  1
  Ta  Ta115  1  0.00904877  0.40485619  -0.00412698  1
  Ta  Ta116  1  0.20467818  0.19892853  0.73404919  1
  Ta  Ta117  1  0.31734881  0.08758383  0.63581808  1
  Ta  Ta118  1  0.40225783  0.20308897  -0.00876467  1
  Ta  Ta119  1  0.78452436  0.60512374  -0.01329473  1
  Ti  Ti120  1  0.70342882  0.91200914  0.37725211  1
  Ti  Ti121  1  0.30629331  0.11407927  0.12803813  1
  Ti  Ti122  1  0.50621451  0.10599361  0.62341227  1
  Ti  Ti123  1  0.59182125  0.19612409  0.25676237  1
  Ti  Ti124  1  0.09755852  0.69599574  0.12778542  1
  Ti  Ti125  1  0.00220948  0.40782112  0.25383579  1
  Ti  Ti126  1  0.20658295  0.40152486  0.73360050  1
  Ti  Ti127  1  -0.00324646  0.59135276  0.25939241  1
  Ti  Ti128  1  -0.00333093  0.39729492  0.50367521  1
  Ti  Ti129  1  0.59590024  0.59160760  -0.00135399  1
  Ti  Ti130  1  0.90499728  0.30608694  0.37348205  1
  Ti  Ti131  1  0.51135671  0.10891744  0.88386161  1
  Ti  Ti132  1  0.39691493  0.59619289  0.25635709  1
  Ti  Ti133  1  0.70249975  0.10104339  0.62426646  1
  Ti  Ti134  1  0.09356888  0.09680724  0.63587165  1
  Ti  Ti135  1  0.61329603  0.02783268  0.01766851  1
  Ti  Ti136  1  0.90072499  0.69520778  0.10608486  1
  Ti  Ti137  1  0.60243951  0.80144067  0.75818422  1
  Ti  Ti138  1  0.49264493  0.50548711  0.87332240  1
  Ti  Ti139  1  0.60699151  0.21383294  0.00866446  1
  Ti  Ti140  1  0.11550019  0.49454197  0.87513289  1
  Ti  Ti141  1  0.90179191  0.49978841  0.38632545  1
  Ti  Ti142  1  0.29953121  0.30662287  0.86684047  1
  Ti  Ti143  1  0.40311713  0.00467046  0.48717919  1
  Ti  Ti144  1  0.11142489  0.10503513  0.13609935  1
  Ti  Ti145  1  0.69635465  0.31472722  0.37638384  1
  Ti  Ti146  1  0.81193282  0.61325184  0.26225592  1
  Ti  Ti147  1  0.89517270  0.89796921  0.62924066  1
  Ti  Ti148  1  0.70723764  0.92716607  0.89927690  1
  Ti  Ti149  1  0.41350890  0.39276125  0.50783066  1
  Ti  Ti150  1  0.60334301  0.40139084  0.25278279  1
  Ti  Ti151  1  0.49901313  0.30144003  0.37376774  1
  Ti  Ti152  1  0.50497920  0.71396077  0.63306036  1
  Ti  Ti153  1  0.19707292  0.78878822  0.25660443  1
  Ti  Ti154  1  0.18759204  0.60065776  0.26243726  1
  Ti  Ti155  1  0.79665621  0.00126525  0.75185216  1
  Ti  Ti156  1  0.30550857  0.29603100  0.61546669  1
  Ti  Ti157  1  0.19925874  0.40117951  0.26845968  1
  Ti  Ti158  1  0.59709973  0.59290343  0.73357424  1
  Ti  Ti159  1  0.20763154  0.00346584  0.24083059  1
  Mo  Mo160  1  0.60145956  0.40969001  0.01722184  1
  Mo  Mo161  1  0.69910396  0.10576929  0.87721318  1
  Mo  Mo162  1  0.80764802  0.39800026  0.47733720  1
  Mo  Mo163  1  0.10301687  0.69281004  0.36924641  1
  Mo  Mo164  1  0.59937401  0.40044828  0.48586515  1
  Mo  Mo165  1  0.90290502  0.69368945  0.38009024  1
  Mo  Mo166  1  0.79736939  0.78970862  -0.01626487  1
  Mo  Mo167  1  0.68889209  0.70799312  0.64513466  1
  Mo  Mo168  1  -0.00621936  0.19555155  0.73911303  1
  Mo  Mo169  1  0.30566084  0.69715932  0.62770147  1
  Mo  Mo170  1  0.89160436  0.69557356  0.88359752  1
  Mo  Mo171  1  0.20040842  0.39827476  -0.01407232  1
  Mo  Mo172  1  0.70367285  0.70027556  0.35778156  1
  Mo  Mo173  1  0.68562783  0.67627065  0.86060356  1
  Mo  Mo174  1  0.68763711  0.11078414  0.13957459  1
  Mo  Mo175  1  0.70066602  0.90400492  0.10889525  1
  Mo  Mo176  1  0.79804043  0.80008129  0.26481464  1
  Mo  Mo177  1  0.50056763  0.49546455  0.60462986  1
  Mo  Mo178  1  0.50157144  0.29616673  0.61354597  1
  Mo  Mo179  1  0.09469583  0.70059953  0.63769783  1
  Mo  Mo180  1  0.79372059  0.00306360  0.01851846  1
  Mo  Mo181  1  0.60448189  0.59571123  0.25586053  1
  Mo  Mo182  1  0.49538558  0.10457915  0.38280202  1
  Mo  Mo183  1  0.49550553  0.11490788  0.11400085  1
  Mo  Mo184  1  0.30169435  0.90487370  0.62986044  1
  Mo  Mo185  1  0.10509445  0.90593459  0.86884889  1
  Mo  Mo186  1  0.89345528  0.10022515  0.63442461  1
  Mo  Mo187  1  0.69757100  0.09747250  0.36060737  1
  Mo  Mo188  1  0.00625193  -0.00205614  0.23152500  1
  Mo  Mo189  1  0.49831608  0.90538311  0.38762774  1
  Mo  Mo190  1  0.00452983  0.79161456  -0.00493448  1
  Mo  Mo191  1  0.20116897  0.39538814  0.50369459  1
  Mo  Mo192  1  0.29806848  0.10176989  0.37682963  1
  Mo  Mo193  1  0.40255745  0.79972118  0.73533467  1
  Mo  Mo194  1  0.40265443  0.20236297  0.27224187  1
  Mo  Mo195  1  0.40986530  0.00920798  0.75484812  1
  Mo  Mo196  1  0.69221986  0.31008951  0.14601027  1
  Mo  Mo197  1  0.09995494  0.48989791  0.60873862  1
  Mo  Mo198  1  0.11229375  0.68826103  0.85705929  1
  Mo  Mo199  1  0.69312152  0.29734447  0.87006734  1
