# generated using pymatgen
data_HfZrTaTiMo
_symmetry_space_group_name_H-M   'P 1'
_cell_length_a   15.83922831
_cell_length_b   15.84185773
_cell_length_c   15.37656085
_cell_angle_alpha   89.98023278
_cell_angle_beta   89.97253714
_cell_angle_gamma   90.03708683
_symmetry_Int_Tables_number   1
_chemical_formula_structural   HfZrTaTiMo
_chemical_formula_sum   'Hf40 Zr40 Ta40 Ti40 Mo40'
_cell_volume   3858.32824318
_cell_formula_units_Z   40
loop_
 _symmetry_equiv_pos_site_id
 _symmetry_equiv_pos_as_xyz
  1  'x, y, z'
loop_
 _atom_site_type_symbol
 _atom_site_label
 _atom_site_symmetry_multiplicity
 _atom_site_fract_x
 _atom_site_fract_y
 _atom_site_fract_z
 _atom_site_occupancy
  Hf  Hf0  1  0.30729687  0.68723587  0.10766062  1
  Hf  Hf1  1  0.80571682  0.20934421  0.73683378  1
  Hf  Hf2  1  0.48622857  0.69810319  0.61681253  1
  Hf  Hf3  1  0.69707982  0.10426903  0.61787346  1
  Hf  Hf4  1  0.88893150  0.09405566  0.11264959  1
  Hf  Hf5  1  0.48459023  0.09921060  0.87789010  1
  Hf  Hf6  1  0.90036874  0.30474106  0.12293168  1
  Hf  Hf7  1  0.79899842  0.40758073  0.24906013  1
  Hf  Hf8  1  0.40478201  0.79367030  0.23947943  1
  Hf  Hf9  1  0.69847838  0.50745849  0.11685514  1
  Hf  Hf10  1  0.31142218  0.91062535  0.88522421  1
  Hf  Hf11  1  0.60236929  0.39241324  -0.00912070  1
  Hf  Hf12  1  -0.00180591  0.60293751  -0.00379147  1
  Hf  Hf13  1  0.19393957  0.80514711  -0.00505920  1
  Hf  Hf14  1  0.70273627  0.30020415  0.39137017  1
  Hf  Hf15  1  0.10369520  0.50873267  0.62021628  1
  Hf  Hf16  1  0.09529926  0.49321971  0.37569503  1
  Hf  Hf17  1  0.09808782  0.48735983  0.85649210  1
  Hf  Hf18  1  0.00135501  0.80012275  0.00030979  1
  Hf  Hf19  1  0.89307424  0.10809853  0.89178968  1
  Hf  Hf20  1  0.79937214  -0.00489984  0.50227150  1
  Hf  Hf21  1  0.00980517  0.80458390  0.49421163  1
  Hf  Hf22  1  0.50638675  0.70761121  0.37913357  1
  Hf  Hf23  1  0.80573749  0.79904449  0.01794425  1
  Hf  Hf24  1  0.29628606  0.29954885  0.37759604  1
  Hf  Hf25  1  0.50409382  0.91734242  0.35600596  1
  Hf  Hf26  1  0.71105322  0.69918393  0.87553794  1
  Hf  Hf27  1  0.30003558  0.49192187  0.87636460  1
  Hf  Hf28  1  0.39502399  0.80196299  0.75067628  1
  Hf  Hf29  1  0.19116219  0.59080936  -0.00702223  1
  Hf  Hf30  1  0.40276006  0.37674492  -0.00461842  1
  Hf  Hf31  1  0.58952909  -0.01150330  0.00657788  1
  Hf  Hf32  1  0.10042926  0.69923020  0.13815903  1
  Hf  Hf33  1  0.39169714  0.59788475  0.74884997  1
  Hf  Hf34  1  0.30571128  0.90568467  0.35938577  1
  Hf  Hf35  1  0.10815037  0.30651480  0.15510479  1
  Hf  Hf36  1  0.19410788  -0.00861943  0.49133920  1
  Hf  Hf37  1  0.59059128  0.19690590  0.26818645  1
  Hf  Hf38  1  0.69951627  0.89914874  0.63429509  1
  Hf  Hf39  1  0.08890219  0.09470450  0.62047163  1
  Zr  Zr40  1  0.90394479  0.31303427  0.38285178  1
  Zr  Zr41  1  0.89932111  0.50633847  0.39255729  1
  Zr  Zr42  1  0.69507871  0.10246046  0.11935463  1
  Zr  Zr43  1  0.58910129  0.80221851  0.75790263  1
  Zr  Zr44  1  0.10512255  0.10498584  0.14097581  1
  Zr  Zr45  1  0.20126187  0.79203591  0.48458297  1
  Zr  Zr46  1  0.60199509  0.80879750  0.50563585  1
  Zr  Zr47  1  0.50750412  0.68620565  0.11489350  1
  Zr  Zr48  1  0.01156808  0.80403605  0.75652773  1
  Zr  Zr49  1  0.21175444  0.59821727  0.26757708  1
  Zr  Zr50  1  0.19762254  -0.00608379  0.74644359  1
  Zr  Zr51  1  0.00040262  -0.00993378  0.00256437  1
  Zr  Zr52  1  0.70531396  0.50157318  0.85996983  1
  Zr  Zr53  1  0.19707564  0.19597696  0.49559499  1
  Zr  Zr54  1  0.79841627  0.61209249  0.24303332  1
  Zr  Zr55  1  0.59420506  0.59381619  0.50487654  1
  Zr  Zr56  1  0.59394715  0.40166512  0.26168087  1
  Zr  Zr57  1  0.29729072  0.29854743  0.14367155  1
  Zr  Zr58  1  0.00218072  0.00384683  0.76232193  1
  Zr  Zr59  1  0.49058386  0.49437224  0.11724709  1
  Zr  Zr60  1  0.49394050  0.69393600  0.88968105  1
  Zr  Zr61  1  0.40376578  0.59278535  0.26876794  1
  Zr  Zr62  1  0.70091285  0.89821901  0.36560508  1
  Zr  Zr63  1  0.01880234  0.21076324  -0.00312008  1
  Zr  Zr64  1  0.59231607  0.39910516  0.50999947  1
  Zr  Zr65  1  0.29440591  0.29425485  0.86568350  1
  Zr  Zr66  1  0.39967740  0.20528134  0.72776787  1
  Zr  Zr67  1  0.19502114  0.00593381  0.00316876  1
  Zr  Zr68  1  0.58008174  0.20914321  -0.00064432  1
  Zr  Zr69  1  0.70503869  0.69761189  0.63388018  1
  Zr  Zr70  1  -0.00769145  0.20100979  0.26425440  1
  Zr  Zr71  1  0.59439264  0.20064804  0.74278700  1
  Zr  Zr72  1  0.29834038  0.11266449  0.14410064  1
  Zr  Zr73  1  0.79185385  0.19792776  0.25691586  1
  Zr  Zr74  1  0.59531017  0.39054184  0.73394230  1
  Zr  Zr75  1  0.20063610  0.79648741  0.75681470  1
  Zr  Zr76  1  0.89417062  0.49816830  0.86855816  1
  Zr  Zr77  1  0.69953236  0.09939789  0.88066841  1
  Zr  Zr78  1  0.80490883  0.00672814  0.74202226  1
  Zr  Zr79  1  0.40019662  -0.00099309  0.73123006  1
  Ta  Ta80  1  0.49661179  0.49159127  0.86870392  1
  Ta  Ta81  1  0.61517041  0.79224022  0.23153452  1
  Ta  Ta82  1  0.80887647  0.80072475  0.50714347  1
  Ta  Ta83  1  0.18819926  0.38764957  0.00071294  1
  Ta  Ta84  1  0.90432928  0.50452377  0.11883944  1
  Ta  Ta85  1  0.90610618  0.50502643  0.62069945  1
  Ta  Ta86  1  0.39795655  0.40435281  0.27207910  1
  Ta  Ta87  1  0.00549495  0.60903486  0.74947975  1
  Ta  Ta88  1  0.10121493  0.89728505  0.14955012  1
  Ta  Ta89  1  0.58841160  -0.00339882  0.74566607  1
  Ta  Ta90  1  0.40036999  0.00533966  0.02156775  1
  Ta  Ta91  1  0.91274665  0.69890444  0.61681800  1
  Ta  Ta92  1  0.60619226  0.80301221  0.00814002  1
  Ta  Ta93  1  0.09709729  0.89711734  0.35258469  1
  Ta  Ta94  1  0.60609609  0.60075988  0.26110267  1
  Ta  Ta95  1  0.89449324  0.09482224  0.38497277  1
  Ta  Ta96  1  0.29594418  0.90399075  0.13757119  1
  Ta  Ta97  1  -0.01147227  -0.00053488  0.25120286  1
  Ta  Ta98  1  0.70760490  0.49876765  0.63316988  1
  Ta  Ta99  1  0.70438033  0.50582708  0.38790661  1
  Ta  Ta100  1  0.00099921  0.19936306  0.49398116  1
  Ta  Ta101  1  0.91397998  0.90365481  0.62192641  1
  Ta  Ta102  1  0.71067355  0.30572902  0.86574098  1
  Ta  Ta103  1  0.10020087  0.30076690  0.62935036  1
  Ta  Ta104  1  0.29722884  0.10846417  0.88343250  1
  Ta  Ta105  1  0.20064407  0.19610652  0.73406603  1
  Ta  Ta106  1  -0.00526996  0.60399760  0.25231111  1
  Ta  Ta107  1  0.57975216  0.00480560  0.51227223  1
  Ta  Ta108  1  0.70202324  0.89942629  0.87460246  1
  Ta  Ta109  1  0.10166872  0.49556637  0.13969963  1
  Ta  Ta110  1  0.41206743  0.81794160  0.01152354  1
  Ta  Ta111  1  0.40901379  0.19043223  0.49371327  1
  Ta  Ta112  1  0.19987435  0.60691920  0.75528975  1
  Ta  Ta113  1  0.90363892  0.70302721  0.38387814  1
  Ta  Ta114  1  0.71014579  0.70217934  0.38205587  1
  Ta  Ta115  1  0.88826353  0.89845934  0.87556800  1
  Ta  Ta116  1  0.89846627  0.89485347  0.36598405  1
  Ta  Ta117  1  0.19960271  0.40096676  0.50049232  1
  Ta  Ta118  1  0.00640048  0.40329304  0.00338878  1
  Ta  Ta119  1  0.90190317  0.30831305  0.87209541  1
  Ti  Ti120  1  0.29728322  0.89371053  0.61342671  1
  Ti  Ti121  1  0.69360197  0.30229143  0.12952111  1
  Ti  Ti122  1  0.80125304  0.40402421  0.00115483  1
  Ti  Ti123  1  0.80269484  0.60427085  0.51025437  1
  Ti  Ti124  1  0.40050672  0.81092267  0.49499550  1
  Ti  Ti125  1  0.48453499  0.28935098  0.14333461  1
  Ti  Ti126  1  0.40680471  0.41012538  0.49617307  1
  Ti  Ti127  1  0.90536590  0.29799838  0.61915900  1
  Ti  Ti128  1  0.59025257  0.19842284  0.49939939  1
  Ti  Ti129  1  0.30335725  0.50944894  0.60869156  1
  Ti  Ti130  1  -0.00354096  0.19939306  0.74539903  1
  Ti  Ti131  1  0.30199067  0.30286824  0.60766555  1
  Ti  Ti132  1  0.29424660  0.69223896  0.60692793  1
  Ti  Ti133  1  -0.00888739  0.39636584  0.73733210  1
  Ti  Ti134  1  0.79050517  0.21779465  -0.00119855  1
  Ti  Ti135  1  0.30393692  0.69671066  0.89242800  1
  Ti  Ti136  1  0.80573332  0.19838462  0.50637091  1
  Ti  Ti137  1  0.81256627  0.60119051  0.73852772  1
  Ti  Ti138  1  0.29498528  0.48827597  0.12143354  1
  Ti  Ti139  1  0.89772756  0.69924942  0.87204230  1
  Ti  Ti140  1  0.10140171  0.30001591  0.85418836  1
  Ti  Ti141  1  0.40428970  0.39784855  0.73256221  1
  Ti  Ti142  1  0.10922145  0.11143055  0.87159592  1
  Ti  Ti143  1  0.60625847  0.59538206  -0.01108284  1
  Ti  Ti144  1  0.30061639  0.09445323  0.60820749  1
  Ti  Ti145  1  0.80964142  0.79551275  0.23494156  1
  Ti  Ti146  1  0.00673132  0.39480290  0.51026868  1
  Ti  Ti147  1  0.31355987  0.09276902  0.36387986  1
  Ti  Ti148  1  0.59088314  0.59558014  0.74492691  1
  Ti  Ti149  1  0.70760297  0.90790635  0.13054450  1
  Ti  Ti150  1  -0.00010090  -0.00247945  0.48742760  1
  Ti  Ti151  1  0.79805648  0.00268398  0.25453746  1
  Ti  Ti152  1  0.21018937  0.40051072  0.72844082  1
  Ti  Ti153  1  0.49301325  0.10049690  0.14305069  1
  Ti  Ti154  1  0.79784251  0.39932355  0.52021573  1
  Ti  Ti155  1  0.20617627  0.78825905  0.25944716  1
  Ti  Ti156  1  0.81304691  0.79958778  0.74323189  1
  Ti  Ti157  1  0.10067834  0.09649242  0.36515861  1
  Ti  Ti158  1  0.10646417  0.69800441  0.61792652  1
  Ti  Ti159  1  0.68835082  0.08981368  0.38355588  1
  Mo  Mo160  1  0.09841449  0.90049790  0.61305058  1
  Mo  Mo161  1  -0.00417791  0.79612657  0.25608926  1
  Mo  Mo162  1  0.50152605  0.90331562  0.88393115  1
  Mo  Mo163  1  0.20007032  0.59989997  0.49055803  1
  Mo  Mo164  1  0.40249536  0.00166167  0.23432852  1
  Mo  Mo165  1  0.49711747  0.09889463  0.61964829  1
  Mo  Mo166  1  0.70223138  0.29593243  0.60889222  1
  Mo  Mo167  1  0.89855251  0.90120141  0.14481747  1
  Mo  Mo168  1  0.19945714  0.21046392  -0.00903501  1
  Mo  Mo169  1  0.60675952  0.00128791  0.23696884  1
  Mo  Mo170  1  0.19760212  0.19935590  0.28053675  1
  Mo  Mo171  1  0.10017676  0.69383558  0.87490199  1
  Mo  Mo172  1  0.50394486  0.50135803  0.37409167  1
  Mo  Mo173  1  0.39583719  0.19335523  0.00440196  1
  Mo  Mo174  1  0.00339045  0.60616546  0.50371475  1
  Mo  Mo175  1  0.20473992  0.40794349  0.26663719  1
  Mo  Mo176  1  0.80353793  0.60278258  0.00521192  1
  Mo  Mo177  1  0.49059331  0.89795135  0.61822226  1
  Mo  Mo178  1  0.30144391  0.49888291  0.39967931  1
  Mo  Mo179  1  -0.00413336  0.41053227  0.23964419  1
  Mo  Mo180  1  0.70038949  0.69684842  0.11169797  1
  Mo  Mo181  1  0.39560266  0.60027560  0.49360376  1
  Mo  Mo182  1  0.90571356  0.10414507  0.60317951  1
  Mo  Mo183  1  0.09587046  0.69709793  0.36251941  1
  Mo  Mo184  1  0.19707887  -0.00103885  0.25967143  1
  Mo  Mo185  1  0.49858522  0.09571327  0.37358200  1
  Mo  Mo186  1  0.49136767  0.50149398  0.63860736  1
  Mo  Mo187  1  0.30774507  0.70234692  0.38874271  1
  Mo  Mo188  1  0.90486214  0.69823877  0.12839566  1
  Mo  Mo189  1  0.49522824  0.29972118  0.38742356  1
  Mo  Mo190  1  0.49702184  0.30250733  0.86757407  1
  Mo  Mo191  1  0.09958992  0.90317655  0.88340323  1
  Mo  Mo192  1  0.40547039  0.20108525  0.27628342  1
  Mo  Mo193  1  0.79422605  -0.00961226  -0.00359922  1
  Mo  Mo194  1  0.49111766  0.29885780  0.60350769  1
  Mo  Mo195  1  0.80585080  0.39590638  0.72858170  1
  Mo  Mo196  1  0.50580565  0.90176210  0.14021445  1
  Mo  Mo197  1  0.09901858  0.30323114  0.37507145  1
  Mo  Mo198  1  0.39441934  -0.00245966  0.50649073  1
  Mo  Mo199  1  0.39721482  0.58437158  -0.01211300  1
