# generated using pymatgen
data_HfZrTaTiMo
_symmetry_space_group_name_H-M   'P 1'
_cell_length_a   15.82864747
_cell_length_b   15.82958022
_cell_length_c   15.40875562
_cell_angle_alpha   90.10295948
_cell_angle_beta   89.98358117
_cell_angle_gamma   89.98826498
_symmetry_Int_Tables_number   1
_chemical_formula_structural   HfZrTaTiMo
_chemical_formula_sum   'Hf40 Zr40 Ta40 Ti40 Mo40'
_cell_volume   3860.82435541
_cell_formula_units_Z   40
loop_
 _symmetry_equiv_pos_site_id
 _symmetry_equiv_pos_as_xyz
  1  'x, y, z'
loop_
 _atom_site_type_symbol
 _atom_site_label
 _atom_site_symmetry_multiplicity
 _atom_site_fract_x
 _atom_site_fract_y
 _atom_site_fract_z
 _atom_site_occupancy
  Hf  Hf0  1  0.69566039  0.70648312  0.37033498  1
  Hf  Hf1  1  0.29576632  0.09592738  0.86003720  1
  Hf  Hf2  1  0.29414081  0.90810699  0.64736883  1
  Hf  Hf3  1  0.50514613  0.30974375  0.39632634  1
  Hf  Hf4  1  0.79522823  -0.01366012  0.51806737  1
  Hf  Hf5  1  0.59259792  0.81169593  0.74856205  1
  Hf  Hf6  1  0.50241651  0.89939216  0.10504396  1
  Hf  Hf7  1  0.80185040  0.61279495  0.49966094  1
  Hf  Hf8  1  0.89875914  0.10210364  0.36797959  1
  Hf  Hf9  1  0.39921778  0.58978644  0.75839559  1
  Hf  Hf10  1  0.89200382  0.89601155  0.36404415  1
  Hf  Hf11  1  0.90473366  0.90268410  0.11020269  1
  Hf  Hf12  1  0.29243821  0.70043004  0.87690955  1
  Hf  Hf13  1  0.58717238  0.19590634  0.25452055  1
  Hf  Hf14  1  0.58416034  0.80817724  0.24199594  1
  Hf  Hf15  1  0.09449685  0.49189718  0.87783707  1
  Hf  Hf16  1  -0.00491882  0.59302515  0.49144489  1
  Hf  Hf17  1  0.19982378  0.39417175  0.25953627  1
  Hf  Hf18  1  0.19646511  0.40272220  0.49556173  1
  Hf  Hf19  1  0.29976881  0.50006814  0.11587917  1
  Hf  Hf20  1  0.10412838  0.90795148  0.88584747  1
  Hf  Hf21  1  0.38450558  0.61239426  0.24806147  1
  Hf  Hf22  1  0.90791306  0.10393751  0.12688480  1
  Hf  Hf23  1  0.69643565  0.09286082  0.37337969  1
  Hf  Hf24  1  0.10840938  0.69621806  0.35671593  1
  Hf  Hf25  1  0.79499000  0.58734441  0.25169243  1
  Hf  Hf26  1  0.11368810  0.89663463  0.36913854  1
  Hf  Hf27  1  0.39918373  0.19369642  0.26006812  1
  Hf  Hf28  1  0.08159605  0.70756446  0.87857897  1
  Hf  Hf29  1  0.70478696  0.29734598  0.13554462  1
  Hf  Hf30  1  0.91243460  0.10374747  0.62946630  1
  Hf  Hf31  1  0.48406477  0.51018227  0.39904350  1
  Hf  Hf32  1  0.80181704  0.19974203  0.51244479  1
  Hf  Hf33  1  0.69711539  0.91570639  0.86333974  1
  Hf  Hf34  1  0.20162592  0.20827011  0.74374421  1
  Hf  Hf35  1  0.40189596  0.00461947  -0.00841422  1
  Hf  Hf36  1  0.00692389  0.80596419  0.23583398  1
  Hf  Hf37  1  0.61566784  0.81326393  0.51794254  1
  Hf  Hf38  1  0.19122743  0.59938605  0.00183753  1
  Hf  Hf39  1  0.09027559  0.49807502  0.62469176  1
  Zr  Zr40  1  0.39576324  0.39625721  0.74942736  1
  Zr  Zr41  1  0.40157315  0.40357231  0.24820723  1
  Zr  Zr42  1  0.49311035  0.71054282  0.38347346  1
  Zr  Zr43  1  0.00213324  -0.00052775  0.49271057  1
  Zr  Zr44  1  0.10847135  0.09785550  0.62257019  1
  Zr  Zr45  1  0.20399715  0.19882260  0.49680220  1
  Zr  Zr46  1  0.28617303  0.28888230  0.12170161  1
  Zr  Zr47  1  0.69818866  0.49068644  0.87541203  1
  Zr  Zr48  1  0.68909507  0.69726733  0.13456735  1
  Zr  Zr49  1  0.50035866  0.68831334  0.60946139  1
  Zr  Zr50  1  0.59199595  0.40946603  0.23735721  1
  Zr  Zr51  1  0.21166500  -0.00578430  0.23942467  1
  Zr  Zr52  1  0.09361634  0.89867239  0.63582169  1
  Zr  Zr53  1  0.50260173  0.10187694  0.63183920  1
  Zr  Zr54  1  0.52110924  0.09575183  0.86587036  1
  Zr  Zr55  1  0.91201121  0.88871419  0.87795763  1
  Zr  Zr56  1  0.70269097  0.29764064  0.37248551  1
  Zr  Zr57  1  0.79589829  0.79900866  -0.00524641  1
  Zr  Zr58  1  0.79878478  0.38854765  0.00099275  1
  Zr  Zr59  1  0.90394548  0.30010770  0.86915167  1
  Zr  Zr60  1  0.59091650  0.60776498  0.76841645  1
  Zr  Zr61  1  0.79058602  0.60571939  -0.01126821  1
  Zr  Zr62  1  0.31139406  0.07984239  0.37922165  1
  Zr  Zr63  1  0.59378837  0.39913654  0.74590737  1
  Zr  Zr64  1  0.80581298  0.40048418  0.51111272  1
  Zr  Zr65  1  0.09672339  0.49676437  0.13155579  1
  Zr  Zr66  1  -0.00747765  0.79590906  0.50029857  1
  Zr  Zr67  1  0.90060629  0.49990849  0.11890577  1
  Zr  Zr68  1  0.29036865  0.48496785  0.88443861  1
  Zr  Zr69  1  0.40743389  0.79570786  0.75827036  1
  Zr  Zr70  1  0.90134222  0.70158195  0.64687854  1
  Zr  Zr71  1  0.59871147  0.78969148  -0.01925656  1
  Zr  Zr72  1  0.70342130  0.10442071  0.12869416  1
  Zr  Zr73  1  0.69269539  0.51218253  0.62327875  1
  Zr  Zr74  1  0.68320140  0.49921054  0.39018437  1
  Zr  Zr75  1  0.38920744  0.81289307  0.51212721  1
  Zr  Zr76  1  0.70079580  0.89884054  0.36520657  1
  Zr  Zr77  1  0.89716847  0.70201506  0.35354309  1
  Zr  Zr78  1  0.49621336  0.92570131  0.38615646  1
  Zr  Zr79  1  0.00881463  0.19889515  -0.00018211  1
  Ta  Ta80  1  0.41201684  -0.00283004  0.23334572  1
  Ta  Ta81  1  0.80074524  0.39247503  0.73928060  1
  Ta  Ta82  1  0.50118581  0.30046034  0.61287342  1
  Ta  Ta83  1  0.21765927  0.78616140  0.22438980  1
  Ta  Ta84  1  0.49239417  0.49566125  0.60199758  1
  Ta  Ta85  1  0.19636765  0.59350642  0.74721368  1
  Ta  Ta86  1  0.50424286  0.30056774  0.87929990  1
  Ta  Ta87  1  0.80180721  0.00792331  -0.00689798  1
  Ta  Ta88  1  0.19474288  0.60482920  0.50470938  1
  Ta  Ta89  1  0.90405852  0.69513914  0.12544136  1
  Ta  Ta90  1  0.60781469  0.20423071  -0.00714101  1
  Ta  Ta91  1  0.09348206  0.69261487  0.12406929  1
  Ta  Ta92  1  0.00669340  0.00282198  0.24669327  1
  Ta  Ta93  1  0.19771384  0.39683737  0.73150555  1
  Ta  Ta94  1  0.40263290  0.39413887  0.00112197  1
  Ta  Ta95  1  0.29213899  0.69591727  0.63214466  1
  Ta  Ta96  1  0.90206703  0.29472918  0.14216330  1
  Ta  Ta97  1  0.10000899  0.50523962  0.36552487  1
  Ta  Ta98  1  0.40135399  0.20023730  -0.01332053  1
  Ta  Ta99  1  0.48114747  0.70307779  0.11059459  1
  Ta  Ta100  1  0.10449436  0.10144120  0.36800161  1
  Ta  Ta101  1  -0.00371411  0.40062211  0.25845858  1
  Ta  Ta102  1  0.20037182  0.79899345  0.00786948  1
  Ta  Ta103  1  0.80742735  0.00714991  0.75507567  1
  Ta  Ta104  1  0.11323762  0.11231389  0.13805786  1
  Ta  Ta105  1  0.09854276  0.69740699  0.63598422  1
  Ta  Ta106  1  0.40522190  0.20699744  0.75461398  1
  Ta  Ta107  1  0.00564970  0.00684194  0.76414503  1
  Ta  Ta108  1  0.30739583  0.09711971  0.63439563  1
  Ta  Ta109  1  0.59601277  0.39664593  0.00291057  1
  Ta  Ta110  1  0.79937796  -0.00669233  0.23286922  1
  Ta  Ta111  1  0.90022894  0.29577884  0.36784636  1
  Ta  Ta112  1  0.40569557  0.19138031  0.49671169  1
  Ta  Ta113  1  0.30951286  0.89353974  0.10984131  1
  Ta  Ta114  1  0.29737176  0.90090089  0.87751146  1
  Ta  Ta115  1  0.19677708  0.79596579  0.50897258  1
  Ta  Ta116  1  0.90393240  0.49739663  0.87336153  1
  Ta  Ta117  1  0.30124294  0.50288249  0.61261179  1
  Ta  Ta118  1  0.11058427  0.30586246  0.87400091  1
  Ta  Ta119  1  0.10202367  0.90837185  0.11015538  1
  Ti  Ti120  1  0.19223440  0.79757270  0.75458034  1
  Ti  Ti121  1  0.69128118  0.50282458  0.11613737  1
  Ti  Ti122  1  0.50043688  0.10670806  0.11076002  1
  Ti  Ti123  1  0.71078835  0.71209306  0.63891857  1
  Ti  Ti124  1  -0.00710473  0.39684761  0.48718291  1
  Ti  Ti125  1  0.00231533  0.39459788  0.74764143  1
  Ti  Ti126  1  0.19806488  0.01307317  0.00304495  1
  Ti  Ti127  1  0.79913306  0.60125349  0.76464790  1
  Ti  Ti128  1  0.50074778  0.51131090  0.10810733  1
  Ti  Ti129  1  0.60829728  0.19881044  0.50898321  1
  Ti  Ti130  1  0.80198574  0.40140838  0.25589218  1
  Ti  Ti131  1  0.00774776  0.19986739  0.76084112  1
  Ti  Ti132  1  0.00699480  0.39118688  0.01042616  1
  Ti  Ti133  1  0.30504593  0.30196419  0.38085583  1
  Ti  Ti134  1  0.29394784  0.69887798  0.38102009  1
  Ti  Ti135  1  0.41798211  -0.01072059  0.75716192  1
  Ti  Ti136  1  0.79941267  0.19631974  -0.00795950  1
  Ti  Ti137  1  0.09518900  0.29360563  0.37730883  1
  Ti  Ti138  1  0.08704388  0.29485308  0.61359762  1
  Ti  Ti139  1  0.89944581  0.50001325  0.63943028  1
  Ti  Ti140  1  0.30626948  0.88559734  0.36282050  1
  Ti  Ti141  1  0.19763378  0.19933448  -0.00876304  1
  Ti  Ti142  1  0.60957744  0.20606997  0.74753284  1
  Ti  Ti143  1  0.30921456  0.29823979  0.61480908  1
  Ti  Ti144  1  0.90743924  0.29635819  0.63015996  1
  Ti  Ti145  1  0.70355775  0.29052773  0.86495100  1
  Ti  Ti146  1  0.60232810  0.00380015  0.52162080  1
  Ti  Ti147  1  0.29761965  0.29985374  0.88022461  1
  Ti  Ti148  1  0.21156706  -0.01159511  0.49877548  1
  Ti  Ti149  1  0.70683549  0.10298458  0.64491035  1
  Ti  Ti150  1  0.30506413  0.10198714  0.12194598  1
  Ti  Ti151  1  0.58318600  0.59994727  0.24946128  1
  Ti  Ti152  1  0.61341928  0.00550502  0.00183109  1
  Ti  Ti153  1  0.01053871  0.20423245  0.25241550  1
  Ti  Ti154  1  0.59678538  0.00306942  0.23733791  1
  Ti  Ti155  1  0.90261889  0.10021122  0.87571764  1
  Ti  Ti156  1  0.49660484  0.29355744  0.11340654  1
  Ti  Ti157  1  -0.00226237  0.59736135  0.75986024  1
  Ti  Ti158  1  0.89390080  0.89297500  0.64554222  1
  Ti  Ti159  1  0.40393585  0.60106417  -0.01314487  1
  Mo  Mo160  1  0.89907766  0.69294206  0.86815074  1
  Mo  Mo161  1  0.38310650  0.60482954  0.49826999  1
  Mo  Mo162  1  0.70058740  0.29281156  0.63375466  1
  Mo  Mo163  1  0.39433688  0.80803509  0.24517606  1
  Mo  Mo164  1  0.30248404  0.69917413  0.10475598  1
  Mo  Mo165  1  0.00251798  0.80261280  0.74677040  1
  Mo  Mo166  1  0.49922566  0.90779024  0.61680034  1
  Mo  Mo167  1  0.80668792  0.20044693  0.74600747  1
  Mo  Mo168  1  0.89969304  0.49182369  0.36978174  1
  Mo  Mo169  1  0.00388012  0.79415237  0.01663270  1
  Mo  Mo170  1  0.20171725  0.60122266  0.24328506  1
  Mo  Mo171  1  0.19344239  0.38533562  0.00828061  1
  Mo  Mo172  1  0.60106269  0.60813329  0.50324738  1
  Mo  Mo173  1  0.39682218  0.80163413  -0.01905241  1
  Mo  Mo174  1  0.70075879  0.90434646  0.12284597  1
  Mo  Mo175  1  0.39639530  0.00222423  0.51714317  1
  Mo  Mo176  1  0.59955973  0.39722968  0.51721371  1
  Mo  Mo177  1  0.00053031  0.20976457  0.48773245  1
  Mo  Mo178  1  0.60573820  0.00316142  0.73726736  1
  Mo  Mo179  1  0.71255598  0.10912339  0.86719447  1
  Mo  Mo180  1  0.49471830  0.69663534  0.88576102  1
  Mo  Mo181  1  0.09417159  0.29468412  0.13714406  1
  Mo  Mo182  1  0.38892928  0.39443951  0.50286394  1
  Mo  Mo183  1  0.79493713  0.80228529  0.22328834  1
  Mo  Mo184  1  0.50796366  0.10095638  0.39153083  1
  Mo  Mo185  1  -0.00230620  0.59711434  0.25733774  1
  Mo  Mo186  1  0.20080822  0.19941583  0.26916100  1
  Mo  Mo187  1  0.70709323  0.90697034  0.64555225  1
  Mo  Mo188  1  0.80133927  0.80114750  0.51607997  1
  Mo  Mo189  1  0.80497520  0.19767517  0.25652062  1
  Mo  Mo190  1  0.10183843  0.10497777  0.87035988  1
  Mo  Mo191  1  0.70154509  0.70388343  0.85760748  1
  Mo  Mo192  1  0.00757591  0.00929905  -0.00338499  1
  Mo  Mo193  1  0.79884094  0.79994159  0.76357622  1
  Mo  Mo194  1  0.28850967  0.51148175  0.38669502  1
  Mo  Mo195  1  -0.00934661  0.59849160  -0.01115077  1
  Mo  Mo196  1  0.20155834  0.00102045  0.75725208  1
  Mo  Mo197  1  0.50063770  0.90578793  0.88721219  1
  Mo  Mo198  1  0.49666718  0.49377174  0.89546891  1
  Mo  Mo199  1  0.59035838  0.59533564  -0.00755992  1
