# generated using pymatgen
data_HfZrTaTiMo
_symmetry_space_group_name_H-M   'P 1'
_cell_length_a   15.83666904
_cell_length_b   15.82874754
_cell_length_c   15.42344992
_cell_angle_alpha   89.95241188
_cell_angle_beta   89.97416837
_cell_angle_gamma   90.09527956
_symmetry_Int_Tables_number   1
_chemical_formula_structural   HfZrTaTiMo
_chemical_formula_sum   'Hf40 Zr40 Ta40 Ti40 Mo40'
_cell_volume   3866.26062376
_cell_formula_units_Z   40
loop_
 _symmetry_equiv_pos_site_id
 _symmetry_equiv_pos_as_xyz
  1  'x, y, z'
loop_
 _atom_site_type_symbol
 _atom_site_label
 _atom_site_symmetry_multiplicity
 _atom_site_fract_x
 _atom_site_fract_y
 _atom_site_fract_z
 _atom_site_occupancy
  Hf  Hf0  1  0.89930444  0.90183923  0.38137884  1
  Hf  Hf1  1  0.70164252  0.09236146  0.87548287  1
  Hf  Hf2  1  0.80522898  0.59897879  0.76703386  1
  Hf  Hf3  1  0.59551597  0.19977561  0.27197787  1
  Hf  Hf4  1  0.50288576  0.10557677  0.13037441  1
  Hf  Hf5  1  0.90759228  0.49741787  0.61084912  1
  Hf  Hf6  1  0.10225397  0.88637740  0.63357649  1
  Hf  Hf7  1  0.30386817  0.69870870  0.63656979  1
  Hf  Hf8  1  0.89149923  0.69540962  0.61825374  1
  Hf  Hf9  1  0.09442444  0.69097982  0.10550920  1
  Hf  Hf10  1  0.59576508  -0.00193116  0.49524904  1
  Hf  Hf11  1  0.30332764  0.89780223  0.12671261  1
  Hf  Hf12  1  0.51487454  0.71950548  0.88054771  1
  Hf  Hf13  1  0.39174536  0.20165125  0.48508049  1
  Hf  Hf14  1  0.19871858  0.21111877  0.00436280  1
  Hf  Hf15  1  0.00578463  0.20073468  -0.00475341  1
  Hf  Hf16  1  0.80716167  0.41103134  -0.00426076  1
  Hf  Hf17  1  0.79722150  0.20386039  0.26222469  1
  Hf  Hf18  1  0.19227132  -0.00373558  0.23472002  1
  Hf  Hf19  1  0.80694820  0.19718966  0.50253491  1
  Hf  Hf20  1  -0.00798379  -0.00457790  0.74723281  1
  Hf  Hf21  1  0.89444338  0.09061418  0.87710449  1
  Hf  Hf22  1  0.79870325  0.39981302  0.26486049  1
  Hf  Hf23  1  0.90850418  0.10626738  0.36973148  1
  Hf  Hf24  1  0.59728906  0.79012828  0.48124569  1
  Hf  Hf25  1  0.20792234  -0.00695659  0.75017524  1
  Hf  Hf26  1  0.10481508  0.68906588  0.63282068  1
  Hf  Hf27  1  0.40336857  0.60390512  0.00669065  1
  Hf  Hf28  1  0.90156359  0.29746505  0.12844808  1
  Hf  Hf29  1  0.10186490  0.50010155  0.37520940  1
  Hf  Hf30  1  0.29952366  0.50139406  0.13236813  1
  Hf  Hf31  1  0.40211480  0.21030339  -0.00576678  1
  Hf  Hf32  1  0.01258952  0.41275268  0.75874561  1
  Hf  Hf33  1  0.40517081  0.39786205  0.48719650  1
  Hf  Hf34  1  0.20716123  0.38163810  0.48150911  1
  Hf  Hf35  1  0.09943028  0.27830494  0.36148143  1
  Hf  Hf36  1  0.58734947  -0.01030183  0.75037030  1
  Hf  Hf37  1  0.70305431  0.50254486  0.13525455  1
  Hf  Hf38  1  0.50779755  0.70919240  0.62758263  1
  Hf  Hf39  1  0.90737176  0.51248075  0.13866324  1
  Zr  Zr40  1  0.89070426  0.09861531  0.10399322  1
  Zr  Zr41  1  0.60497106  0.40919854  0.74006871  1
  Zr  Zr42  1  0.90210213  0.29304430  0.86206650  1
  Zr  Zr43  1  0.00987035  0.39965956  -0.00360321  1
  Zr  Zr44  1  0.11578964  0.70633381  0.88116650  1
  Zr  Zr45  1  0.20809357  0.79352176  0.50260853  1
  Zr  Zr46  1  0.60949448  0.60601900  0.00826041  1
  Zr  Zr47  1  0.78633748  0.78708554  -0.00508120  1
  Zr  Zr48  1  0.08975621  0.89751604  0.88433573  1
  Zr  Zr49  1  0.69446043  0.29621063  0.11459866  1
  Zr  Zr50  1  0.20083184  0.19605428  0.75476766  1
  Zr  Zr51  1  0.09784789  0.30343486  0.62580874  1
  Zr  Zr52  1  0.78677669  -0.00160030  0.24304791  1
  Zr  Zr53  1  0.38951673  0.42173480  0.74456586  1
  Zr  Zr54  1  0.10553862  0.89496127  0.38153260  1
  Zr  Zr55  1  0.30056639  0.29717583  0.63127367  1
  Zr  Zr56  1  -0.01133392  -0.00210069  0.51736880  1
  Zr  Zr57  1  0.61312470  0.61028997  0.75282927  1
  Zr  Zr58  1  0.80678915  0.79848469  0.25031471  1
  Zr  Zr59  1  -0.00371433  -0.00869130  0.23591139  1
  Zr  Zr60  1  0.69597809  0.10281103  0.10397525  1
  Zr  Zr61  1  0.90331385  0.89484345  0.09945034  1
  Zr  Zr62  1  0.69831532  0.08874610  0.62705858  1
  Zr  Zr63  1  0.69668785  0.29516114  0.88180867  1
  Zr  Zr64  1  0.50116814  0.51338489  0.61273753  1
  Zr  Zr65  1  0.28958279  0.88585486  0.89390952  1
  Zr  Zr66  1  0.30356828  0.10947876  0.13058594  1
  Zr  Zr67  1  0.49594948  0.30530173  0.86499770  1
  Zr  Zr68  1  0.39640157  0.00420049  0.48352830  1
  Zr  Zr69  1  0.00882102  0.77880219  0.25780247  1
  Zr  Zr70  1  0.10587131  0.10362899  0.61892995  1
  Zr  Zr71  1  0.10112989  0.09460070  0.37692274  1
  Zr  Zr72  1  0.40425819  0.62304915  0.47875052  1
  Zr  Zr73  1  0.30042049  0.09996341  0.88296498  1
  Zr  Zr74  1  0.69813127  0.30411844  0.61504002  1
  Zr  Zr75  1  0.49630400  0.30514542  0.13230656  1
  Zr  Zr76  1  0.20974002  0.57166677  0.76848074  1
  Zr  Zr77  1  0.59395625  -0.01512097  -0.00231672  1
  Zr  Zr78  1  0.00183789  0.59650495  0.76260488  1
  Zr  Zr79  1  0.40399813  0.81228701  0.76199136  1
  Ta  Ta80  1  0.10061773  0.50080950  0.12860959  1
  Ta  Ta81  1  0.50167469  0.70112878  0.14032515  1
  Ta  Ta82  1  -0.00974540  0.59342303  -0.02163412  1
  Ta  Ta83  1  0.71075939  0.51884833  0.60080088  1
  Ta  Ta84  1  0.29741949  0.50799638  0.37210665  1
  Ta  Ta85  1  0.18870321  0.60793367  0.25030771  1
  Ta  Ta86  1  0.28844028  0.70954596  0.35503547  1
  Ta  Ta87  1  0.70626105  0.69439115  0.14192240  1
  Ta  Ta88  1  0.40240135  -0.00265826  0.00115806  1
  Ta  Ta89  1  0.69804766  0.30255514  0.39388492  1
  Ta  Ta90  1  0.28824983  0.11311427  0.35570700  1
  Ta  Ta91  1  0.60271474  0.60323916  0.26412608  1
  Ta  Ta92  1  0.00528527  0.60668624  0.48591095  1
  Ta  Ta93  1  0.59932610  0.40346610  0.27008019  1
  Ta  Ta94  1  0.90317125  0.29763757  0.63897103  1
  Ta  Ta95  1  0.29098067  0.50760436  0.59975240  1
  Ta  Ta96  1  0.78952535  0.78978077  0.75499611  1
  Ta  Ta97  1  0.30800395  0.90101318  0.62480945  1
  Ta  Ta98  1  0.68689992  0.88504733  0.86513696  1
  Ta  Ta99  1  0.60548281  0.80389104  0.25031133  1
  Ta  Ta100  1  0.10789317  0.49860094  0.60258335  1
  Ta  Ta101  1  -0.00054858  0.39779875  0.25913082  1
  Ta  Ta102  1  0.40420549  0.40223000  0.26936010  1
  Ta  Ta103  1  0.50141369  0.50612752  0.88004573  1
  Ta  Ta104  1  0.48935428  0.10193408  0.62623520  1
  Ta  Ta105  1  0.18858062  0.00589253  0.01046754  1
  Ta  Ta106  1  0.29484416  0.31711462  0.86775964  1
  Ta  Ta107  1  0.79281440  0.79459764  0.49316657  1
  Ta  Ta108  1  0.40218875  0.80270755  0.25218344  1
  Ta  Ta109  1  0.59364416  0.19511232  0.74482705  1
  Ta  Ta110  1  0.59105036  0.40660266  0.00133348  1
  Ta  Ta111  1  0.80081356  0.40852792  0.74666790  1
  Ta  Ta112  1  0.79414202  0.19784123  0.74507730  1
  Ta  Ta113  1  0.49631967  0.90060412  0.61559334  1
  Ta  Ta114  1  0.39998678  0.60249771  0.25383650  1
  Ta  Ta115  1  0.29510983  0.90341042  0.35829795  1
  Ta  Ta116  1  -0.00387754  0.79369110  0.50085146  1
  Ta  Ta117  1  0.90241690  0.50167945  0.37982439  1
  Ta  Ta118  1  0.70291342  0.50515345  0.38866653  1
  Ta  Ta119  1  0.40598099  0.00782176  0.25941769  1
  Ti  Ti120  1  0.80926294  0.39559604  0.49624344  1
  Ti  Ti121  1  -0.00349830  0.20392689  0.50689746  1
  Ti  Ti122  1  0.40037951  0.00267409  0.75657504  1
  Ti  Ti123  1  0.88894265  0.89820331  0.88025780  1
  Ti  Ti124  1  0.69572536  0.88491757  0.62929232  1
  Ti  Ti125  1  0.30046134  0.69838413  0.88830227  1
  Ti  Ti126  1  0.29490547  0.70254004  0.12848537  1
  Ti  Ti127  1  0.49906487  0.29754383  0.62580651  1
  Ti  Ti128  1  0.08957558  0.10534659  0.12661014  1
  Ti  Ti129  1  0.21278876  0.00602119  0.50491033  1
  Ti  Ti130  1  0.50311087  0.90404271  0.36204398  1
  Ti  Ti131  1  0.41109302  0.80408869  0.01263938  1
  Ti  Ti132  1  0.60028735  0.80182113  0.02583209  1
  Ti  Ti133  1  0.40383270  0.60406916  0.76711724  1
  Ti  Ti134  1  0.20210702  0.40004326  0.25503029  1
  Ti  Ti135  1  0.20543908  0.40349607  0.00307415  1
  Ti  Ti136  1  0.39914307  0.40595795  0.00179500  1
  Ti  Ti137  1  0.10815307  0.30267968  0.86438713  1
  Ti  Ti138  1  -0.01432695  0.79212781  0.75917934  1
  Ti  Ti139  1  0.09387944  0.09827010  0.87260748  1
  Ti  Ti140  1  0.69857131  0.09527106  0.38387122  1
  Ti  Ti141  1  0.50443482  0.90610077  0.14307152  1
  Ti  Ti142  1  0.09764487  0.88453524  0.10403381  1
  Ti  Ti143  1  -0.00339586  0.38915590  0.48613360  1
  Ti  Ti144  1  0.39975834  0.19400881  0.75006617  1
  Ti  Ti145  1  0.50260915  0.50096012  0.13660220  1
  Ti  Ti146  1  0.10215235  0.30344570  0.13882469  1
  Ti  Ti147  1  0.89501648  0.10166113  0.64024984  1
  Ti  Ti148  1  0.90117020  0.69266151  0.11228610  1
  Ti  Ti149  1  0.50563707  0.50919909  0.37982443  1
  Ti  Ti150  1  0.69899331  0.50227434  0.88421886  1
  Ti  Ti151  1  0.30211441  0.30364970  0.14320801  1
  Ti  Ti152  1  0.50191084  0.10151057  0.87790370  1
  Ti  Ti153  1  0.88410450  0.89380429  0.63216848  1
  Ti  Ti154  1  0.79651599  -0.00605382  0.50547275  1
  Ti  Ti155  1  0.39998920  0.80914905  0.48104140  1
  Ti  Ti156  1  0.58836234  0.19828840  0.49637803  1
  Ti  Ti157  1  0.80985790  0.60817667  0.27115929  1
  Ti  Ti158  1  0.69902032  0.90272885  0.37039859  1
  Ti  Ti159  1  0.59821316  0.40419871  0.49694226  1
  Mo  Mo160  1  -0.00258858  0.19790630  0.75363368  1
  Mo  Mo161  1  0.80373483  0.59749670  -0.00635149  1
  Mo  Mo162  1  0.60526265  0.60508855  0.48228312  1
  Mo  Mo163  1  0.90140974  0.70645428  0.87673590  1
  Mo  Mo164  1  0.79793419  0.20245497  -0.01289439  1
  Mo  Mo165  1  0.20070218  0.79692683  0.23322337  1
  Mo  Mo166  1  0.70260243  0.70151625  0.36082520  1
  Mo  Mo167  1  0.30920511  0.09210035  0.62926984  1
  Mo  Mo168  1  0.69439340  0.89531131  0.13102509  1
  Mo  Mo169  1  0.29724970  0.30010108  0.35551737  1
  Mo  Mo170  1  0.49926730  0.10095666  0.37142206  1
  Mo  Mo171  1  0.89710730  0.49639487  0.87433568  1
  Mo  Mo172  1  0.49652354  0.70768625  0.35597169  1
  Mo  Mo173  1  0.20691426  0.79541912  0.01742281  1
  Mo  Mo174  1  0.20491989  0.18854356  0.50168351  1
  Mo  Mo175  1  0.90360229  0.30113927  0.37701191  1
  Mo  Mo176  1  0.79213572  -0.01259486  -0.01749145  1
  Mo  Mo177  1  0.00409930  -0.00149478  -0.00311688  1
  Mo  Mo178  1  0.10309348  0.69951357  0.37858745  1
  Mo  Mo179  1  0.30899551  0.50009404  0.89893058  1
  Mo  Mo180  1  -0.00170997  0.59475310  0.26157600  1
  Mo  Mo181  1  0.79659584  -0.01503080  0.74970085  1
  Mo  Mo182  1  0.59845246  -0.00077845  0.26064877  1
  Mo  Mo183  1  0.20207394  0.60070855  0.48703023  1
  Mo  Mo184  1  0.80428372  0.60329277  0.48574605  1
  Mo  Mo185  1  -0.00244251  0.20095891  0.23244821  1
  Mo  Mo186  1  0.60166293  0.80347437  0.73768989  1
  Mo  Mo187  1  0.11055452  0.49404457  0.89891974  1
  Mo  Mo188  1  0.59069645  0.20150789  -0.01534487  1
  Mo  Mo189  1  0.50469500  0.30634773  0.38133179  1
  Mo  Mo190  1  0.20350827  0.59192344  0.00466204  1
  Mo  Mo191  1  0.20021794  0.40471101  0.74938899  1
  Mo  Mo192  1  -0.00623508  0.79136131  -0.01271726  1
  Mo  Mo193  1  0.19673317  0.20331047  0.22760119  1
  Mo  Mo194  1  0.70513295  0.70156614  0.61432675  1
  Mo  Mo195  1  0.20653451  0.79603701  0.74012067  1
  Mo  Mo196  1  0.49502928  0.90290908  0.88436598  1
  Mo  Mo197  1  0.69808577  0.70043610  0.88103010  1
  Mo  Mo198  1  0.90122557  0.70053334  0.38901065  1
  Mo  Mo199  1  0.39882256  0.20701727  0.26414151  1
