# generated using pymatgen
data_HfZrTaTiMo
_symmetry_space_group_name_H-M   'P 1'
_cell_length_a   15.84516286
_cell_length_b   15.82257880
_cell_length_c   15.38336528
_cell_angle_alpha   89.93571978
_cell_angle_beta   90.02304531
_cell_angle_gamma   89.93228950
_symmetry_Int_Tables_number   1
_chemical_formula_structural   HfZrTaTiMo
_chemical_formula_sum   'Hf40 Zr40 Ta40 Ti40 Mo40'
_cell_volume   3856.77865827
_cell_formula_units_Z   40
loop_
 _symmetry_equiv_pos_site_id
 _symmetry_equiv_pos_as_xyz
  1  'x, y, z'
loop_
 _atom_site_type_symbol
 _atom_site_label
 _atom_site_symmetry_multiplicity
 _atom_site_fract_x
 _atom_site_fract_y
 _atom_site_fract_z
 _atom_site_occupancy
  Hf  Hf0  1  0.48997841  0.70167326  0.63797473  1
  Hf  Hf1  1  0.59812926  0.60427744  0.76722365  1
  Hf  Hf2  1  0.29167678  0.29902724  0.86925593  1
  Hf  Hf3  1  0.29449410  0.30475059  0.13063906  1
  Hf  Hf4  1  0.60500637  0.20013057  0.51346895  1
  Hf  Hf5  1  0.08684084  0.71313801  0.88309777  1
  Hf  Hf6  1  0.09674086  0.49099065  0.86506681  1
  Hf  Hf7  1  -0.00350725  0.19050466  0.25553270  1
  Hf  Hf8  1  0.30161915  0.50509756  0.13125734  1
  Hf  Hf9  1  0.89735159  0.92379676  0.10944587  1
  Hf  Hf10  1  0.49075261  0.90476603  0.87257019  1
  Hf  Hf11  1  0.50010458  0.69951824  0.10330880  1
  Hf  Hf12  1  0.79509606  -0.00004658  0.50142072  1
  Hf  Hf13  1  0.60859220  -0.00854325  0.24605772  1
  Hf  Hf14  1  0.79623603  0.60636810  0.24025399  1
  Hf  Hf15  1  0.20872949  0.61151991  0.25961172  1
  Hf  Hf16  1  0.69879989  0.30509042  0.36685517  1
  Hf  Hf17  1  0.09434059  0.31067137  0.61948573  1
  Hf  Hf18  1  0.19888115  0.00490846  -0.00621624  1
  Hf  Hf19  1  0.90696418  0.49608827  0.87634042  1
  Hf  Hf20  1  0.19484085  0.78590204  0.48880954  1
  Hf  Hf21  1  0.79613421  0.59709217  0.00099136  1
  Hf  Hf22  1  0.69927488  0.89155398  0.37991947  1
  Hf  Hf23  1  0.80424473  0.39875874  0.49693641  1
  Hf  Hf24  1  0.71161451  0.69890873  0.64028030  1
  Hf  Hf25  1  0.30030862  0.90786563  0.36798074  1
  Hf  Hf26  1  0.91259439  0.88850750  0.89265337  1
  Hf  Hf27  1  0.90408762  0.70824461  0.11738569  1
  Hf  Hf28  1  0.30254367  0.70036937  0.11511215  1
  Hf  Hf29  1  0.50018689  0.30193027  0.39089193  1
  Hf  Hf30  1  0.50559649  0.50722348  0.10713580  1
  Hf  Hf31  1  0.39207502  0.80640593  0.50427488  1
  Hf  Hf32  1  0.90965629  0.09342488  0.88095429  1
  Hf  Hf33  1  0.29571890  0.89923083  0.13367818  1
  Hf  Hf34  1  0.89878281  0.70699373  0.36915084  1
  Hf  Hf35  1  0.29680778  0.71098297  0.87099459  1
  Hf  Hf36  1  0.28638770  0.10809122  0.38058825  1
  Hf  Hf37  1  0.49087638  0.51170223  0.63384382  1
  Hf  Hf38  1  0.81163741  0.39017338  0.01151591  1
  Hf  Hf39  1  0.60783390  0.40406665  0.52196084  1
  Zr  Zr40  1  0.58831862  0.01278597  0.75850533  1
  Zr  Zr41  1  0.10803653  0.29274313  0.37877843  1
  Zr  Zr42  1  0.20243919  0.41646964  0.50536989  1
  Zr  Zr43  1  0.51415657  0.09859824  0.11165020  1
  Zr  Zr44  1  0.69453733  0.29285846  0.13020263  1
  Zr  Zr45  1  0.49017586  0.09581227  0.38915827  1
  Zr  Zr46  1  0.10026567  0.10369857  0.60981482  1
  Zr  Zr47  1  0.29291466  0.69509831  0.63618899  1
  Zr  Zr48  1  0.90240601  0.29638462  0.63230381  1
  Zr  Zr49  1  0.39967926  0.38699760  0.73525624  1
  Zr  Zr50  1  0.41235525  0.20355721  0.24050734  1
  Zr  Zr51  1  0.90486757  0.49602140  0.63536714  1
  Zr  Zr52  1  0.09739366  0.90367677  0.13266503  1
  Zr  Zr53  1  0.59461054  0.20682337  0.75204547  1
  Zr  Zr54  1  0.70896010  0.89783863  0.64318614  1
  Zr  Zr55  1  0.90298540  0.50060018  0.36261270  1
  Zr  Zr56  1  0.41538025  0.40372718  0.24052423  1
  Zr  Zr57  1  0.60439075  0.40089357  -0.01179684  1
  Zr  Zr58  1  0.39494324  0.19815051  0.00129669  1
  Zr  Zr59  1  0.60612576  0.19662268  -0.02018118  1
  Zr  Zr60  1  0.40728151  0.79067903  0.25104077  1
  Zr  Zr61  1  0.59723985  0.00298933  0.51279488  1
  Zr  Zr62  1  0.10077920  0.30076265  0.86993788  1
  Zr  Zr63  1  0.40684940  0.18272697  0.73589583  1
  Zr  Zr64  1  0.10587097  0.30228598  0.13436851  1
  Zr  Zr65  1  0.01222350  0.59538902  0.49943814  1
  Zr  Zr66  1  0.71967531  0.08413464  0.11202719  1
  Zr  Zr67  1  0.89972049  0.10047320  0.62283772  1
  Zr  Zr68  1  0.60281151  0.80045462  0.51733429  1
  Zr  Zr69  1  0.41490260  -0.00575739  0.23889776  1
  Zr  Zr70  1  0.59076062  0.60279537  0.25255339  1
  Zr  Zr71  1  0.28141570  0.09902824  0.14420227  1
  Zr  Zr72  1  0.60652754  0.59659230  0.50661856  1
  Zr  Zr73  1  0.20158587  0.59430252  -0.00751530  1
  Zr  Zr74  1  0.00459798  -0.01846044  0.73908528  1
  Zr  Zr75  1  0.30253249  0.30126148  0.37681217  1
  Zr  Zr76  1  0.90616142  0.30197309  0.86258738  1
  Zr  Zr77  1  -0.00284001  0.20254931  0.01569337  1
  Zr  Zr78  1  0.79714223  0.59901834  0.50083043  1
  Zr  Zr79  1  0.49926098  0.70059120  0.38440118  1
  Ta  Ta80  1  0.70850654  0.89775787  0.87279109  1
  Ta  Ta81  1  0.19458127  0.60396820  0.76266350  1
  Ta  Ta82  1  0.29881528  0.09579099  0.86252068  1
  Ta  Ta83  1  0.70396169  0.70803146  0.36925954  1
  Ta  Ta84  1  -0.00090399  -0.00930083  0.49514909  1
  Ta  Ta85  1  0.69935523  0.50209510  0.12537066  1
  Ta  Ta86  1  0.89648463  0.89066781  0.38243020  1
  Ta  Ta87  1  0.80871867  -0.00465030  0.75669107  1
  Ta  Ta88  1  0.49320280  0.30278873  0.87804886  1
  Ta  Ta89  1  0.10304284  0.49754498  0.35841457  1
  Ta  Ta90  1  0.10673689  0.10121994  0.86486887  1
  Ta  Ta91  1  0.20836485  0.20025063  0.73043563  1
  Ta  Ta92  1  0.80449209  0.00016521  0.26136337  1
  Ta  Ta93  1  0.30624723  0.50192741  0.36714030  1
  Ta  Ta94  1  0.90665545  0.49696249  0.13127901  1
  Ta  Ta95  1  0.10165011  0.70158201  0.12790414  1
  Ta  Ta96  1  0.49654983  0.49759239  0.38533850  1
  Ta  Ta97  1  0.71416960  0.30001967  0.64128120  1
  Ta  Ta98  1  0.39606449  0.40260205  -0.00395931  1
  Ta  Ta99  1  0.40399664  0.59873930  -0.02622403  1
  Ta  Ta100  1  0.09274145  0.89530848  0.37193901  1
  Ta  Ta101  1  0.19737097  -0.00690480  0.49818981  1
  Ta  Ta102  1  0.70813819  0.49602222  0.86820079  1
  Ta  Ta103  1  0.60182539  0.40128152  0.74740775  1
  Ta  Ta104  1  0.39620121  -0.00069706  -0.00020687  1
  Ta  Ta105  1  -0.00468657  0.61387916  0.75163503  1
  Ta  Ta106  1  0.10246531  0.50578887  0.63951891  1
  Ta  Ta107  1  -0.00307492  0.39309523  0.25074370  1
  Ta  Ta108  1  0.09885922  0.69751376  0.62971142  1
  Ta  Ta109  1  0.39976505  0.40342310  0.51537162  1
  Ta  Ta110  1  0.78961589  0.81147945  0.23156325  1
  Ta  Ta111  1  0.89923095  0.09543343  0.38468900  1
  Ta  Ta112  1  0.60389620  0.19252105  0.25593167  1
  Ta  Ta113  1  0.00516635  0.59229855  0.01159922  1
  Ta  Ta114  1  0.79485550  0.20009887  0.48655452  1
  Ta  Ta115  1  0.80368181  0.19055317  0.25750604  1
  Ta  Ta116  1  0.48685360  0.90643848  0.64016121  1
  Ta  Ta117  1  0.59801003  0.80093961  0.76214108  1
  Ta  Ta118  1  0.70979050  0.10747326  0.64380191  1
  Ta  Ta119  1  0.69063438  0.70104234  0.11197548  1
  Ti  Ti120  1  0.19772668  0.80002751  0.25964458  1
  Ti  Ti121  1  0.19703990  0.80763687  0.00020723  1
  Ti  Ti122  1  0.80207327  0.39377618  0.24323292  1
  Ti  Ti123  1  0.70543876  0.70391487  0.87874945  1
  Ti  Ti124  1  0.59920375  0.80597886  0.23337520  1
  Ti  Ti125  1  0.49638385  0.49721502  0.86889499  1
  Ti  Ti126  1  -0.00691466  0.80461531  0.24408309  1
  Ti  Ti127  1  0.19966561  0.00264985  0.73859772  1
  Ti  Ti128  1  0.29945216  0.49310993  0.85894834  1
  Ti  Ti129  1  0.18285223  0.80877041  0.74794962  1
  Ti  Ti130  1  0.09710024  0.90385870  0.88021944  1
  Ti  Ti131  1  0.59831337  0.80045100  -0.01418664  1
  Ti  Ti132  1  0.08888185  0.69689281  0.36345679  1
  Ti  Ti133  1  0.29243491  0.50794688  0.63892347  1
  Ti  Ti134  1  0.79059842  0.80656658  0.00736278  1
  Ti  Ti135  1  -0.00838288  0.20679562  0.48549177  1
  Ti  Ti136  1  0.29193627  0.90698656  0.86457306  1
  Ti  Ti137  1  0.80749058  0.19797964  0.00296812  1
  Ti  Ti138  1  0.82226603  0.79833136  0.75515857  1
  Ti  Ti139  1  0.10216124  0.50084811  0.14152649  1
  Ti  Ti140  1  0.71352992  0.30103525  0.86099873  1
  Ti  Ti141  1  0.39466507  0.80452584  0.75390095  1
  Ti  Ti142  1  0.29203993  0.90185398  0.62896421  1
  Ti  Ti143  1  0.08969115  0.88394289  0.60913673  1
  Ti  Ti144  1  0.60451547  -0.00793692  -0.01040565  1
  Ti  Ti145  1  0.39681936  0.80859383  -0.00567845  1
  Ti  Ti146  1  -0.00540062  0.00160971  0.26556763  1
  Ti  Ti147  1  0.90854343  0.71469945  0.61562280  1
  Ti  Ti148  1  0.71178592  0.09809110  0.86925106  1
  Ti  Ti149  1  0.50006166  0.90111279  0.38581683  1
  Ti  Ti150  1  0.19714318  0.19525595  0.00008753  1
  Ti  Ti151  1  0.19621608  0.40377192  0.00186440  1
  Ti  Ti152  1  0.37971336  0.60006197  0.49421506  1
  Ti  Ti153  1  0.80621821  0.60255752  0.75931011  1
  Ti  Ti154  1  0.39320537  0.19934593  0.52503963  1
  Ti  Ti155  1  0.00762156  0.19457044  0.74799487  1
  Ti  Ti156  1  0.69505783  0.50068612  0.36116584  1
  Ti  Ti157  1  0.90277720  0.70168626  0.89105512  1
  Ti  Ti158  1  0.09310512  0.09195953  0.13229489  1
  Ti  Ti159  1  0.59591632  0.39649872  0.24056469  1
  Mo  Mo160  1  0.70430427  0.49972615  0.65312284  1
  Mo  Mo161  1  0.50426233  0.30261947  0.61468845  1
  Mo  Mo162  1  0.50416669  0.89391467  0.09769260  1
  Mo  Mo163  1  0.38583780  -0.00524999  0.74634359  1
  Mo  Mo164  1  0.50340712  0.30480418  0.10657292  1
  Mo  Mo165  1  0.09584505  0.09390819  0.38971650  1
  Mo  Mo166  1  0.20000280  0.59963913  0.48501434  1
  Mo  Mo167  1  0.01142165  0.00552704  -0.00719310  1
  Mo  Mo168  1  0.49823171  0.09577588  0.61402502  1
  Mo  Mo169  1  0.90033615  0.89019526  0.60985932  1
  Mo  Mo170  1  0.90427386  0.09791859  0.12299907  1
  Mo  Mo171  1  0.17993691  0.00439440  0.27233113  1
  Mo  Mo172  1  0.49583540  0.70671518  0.87735277  1
  Mo  Mo173  1  0.79733261  0.00012284  -0.02190575  1
  Mo  Mo174  1  0.20280762  0.40171431  0.73593428  1
  Mo  Mo175  1  0.29633653  0.08942259  0.61775799  1
  Mo  Mo176  1  0.29788471  0.69939525  0.37930730  1
  Mo  Mo177  1  0.00320822  0.40555875  0.74609841  1
  Mo  Mo178  1  0.00133303  0.79570029  0.49494729  1
  Mo  Mo179  1  -0.00054445  0.39981996  0.47722095  1
  Mo  Mo180  1  0.40436155  0.59928521  0.25975167  1
  Mo  Mo181  1  0.39092929  -0.00221378  0.51653909  1
  Mo  Mo182  1  0.79864391  0.40194797  0.75261754  1
  Mo  Mo183  1  0.70148917  0.09935861  0.36856016  1
  Mo  Mo184  1  0.00500837  0.60202011  0.23514145  1
  Mo  Mo185  1  0.39323713  0.59793833  0.76965177  1
  Mo  Mo186  1  0.00711175  0.79970243  0.01584700  1
  Mo  Mo187  1  0.00658899  0.40739076  0.02585037  1
  Mo  Mo188  1  0.49196638  0.09768118  0.88961931  1
  Mo  Mo189  1  0.19300664  0.19810232  0.24817523  1
  Mo  Mo190  1  0.20380654  0.20005475  0.51623703  1
  Mo  Mo191  1  0.20239301  0.40504389  0.25771662  1
  Mo  Mo192  1  -0.00064378  0.79573184  0.74153191  1
  Mo  Mo193  1  0.69655671  0.89477530  0.10959349  1
  Mo  Mo194  1  0.80399078  0.79671800  0.50480023  1
  Mo  Mo195  1  0.29560734  0.29776842  0.61765305  1
  Mo  Mo196  1  0.60535204  0.60306889  -0.02207100  1
  Mo  Mo197  1  0.89571847  0.29733383  0.14351129  1
  Mo  Mo198  1  0.89790623  0.29782540  0.36811763  1
  Mo  Mo199  1  0.80229839  0.19352236  0.76111835  1
