# generated using pymatgen
data_HfZrTaTiMo
_symmetry_space_group_name_H-M   'P 1'
_cell_length_a   15.83967530
_cell_length_b   15.83619797
_cell_length_c   15.39548150
_cell_angle_alpha   90.00840232
_cell_angle_beta   90.05785478
_cell_angle_gamma   90.06450423
_symmetry_Int_Tables_number   1
_chemical_formula_structural   HfZrTaTiMo
_chemical_formula_sum   'Hf40 Zr40 Ta40 Ti40 Mo40'
_cell_volume   3861.80172021
_cell_formula_units_Z   40
loop_
 _symmetry_equiv_pos_site_id
 _symmetry_equiv_pos_as_xyz
  1  'x, y, z'
loop_
 _atom_site_type_symbol
 _atom_site_label
 _atom_site_symmetry_multiplicity
 _atom_site_fract_x
 _atom_site_fract_y
 _atom_site_fract_z
 _atom_site_occupancy
  Hf  Hf0  1  0.59662766  0.00518946  0.23882539  1
  Hf  Hf1  1  0.40822712  0.38970144  0.49786134  1
  Hf  Hf2  1  0.69591363  0.09620208  0.38451119  1
  Hf  Hf3  1  0.80107829  0.18586848  0.23469025  1
  Hf  Hf4  1  0.89720442  0.10623849  0.38864868  1
  Hf  Hf5  1  -0.01041319  0.00578303  0.25167645  1
  Hf  Hf6  1  0.22324959  -0.00125180  0.50693325  1
  Hf  Hf7  1  -0.01861375  0.58640640  0.26053180  1
  Hf  Hf8  1  0.49635430  0.90501087  0.11649987  1
  Hf  Hf9  1  0.89658373  0.88188496  0.62019106  1
  Hf  Hf10  1  0.91902495  0.30214396  0.14235645  1
  Hf  Hf11  1  0.78115367  0.60021925  0.24715540  1
  Hf  Hf12  1  0.20520312  0.58989713  0.23723653  1
  Hf  Hf13  1  0.09639794  0.29828795  0.62349029  1
  Hf  Hf14  1  0.11217744  0.89850734  0.36205792  1
  Hf  Hf15  1  0.10700742  0.10120638  0.13466671  1
  Hf  Hf16  1  0.11191350  0.10418957  0.62496484  1
  Hf  Hf17  1  0.38943500  0.00940439  -0.00424201  1
  Hf  Hf18  1  0.49128840  0.09054709  0.62081733  1
  Hf  Hf19  1  0.20134171  0.40242664  -0.00471785  1
  Hf  Hf20  1  0.70930342  0.10482758  0.89067333  1
  Hf  Hf21  1  0.79878517  0.61256526  0.75411845  1
  Hf  Hf22  1  0.49917092  0.90160573  0.62715658  1
  Hf  Hf23  1  0.10276638  0.69257697  0.37277089  1
  Hf  Hf24  1  0.40218399  0.18337072  0.25496495  1
  Hf  Hf25  1  0.60595560  0.79856378  0.24500187  1
  Hf  Hf26  1  0.51787297  0.48314655  0.64459386  1
  Hf  Hf27  1  0.08300308  0.70276016  0.62535343  1
  Hf  Hf28  1  0.39854077  0.80498732  0.25243529  1
  Hf  Hf29  1  0.60158266  0.79749047  0.76123346  1
  Hf  Hf30  1  0.69224954  0.89654369  0.38530412  1
  Hf  Hf31  1  0.90900032  0.29290645  0.37524629  1
  Hf  Hf32  1  0.41866574  0.60829228  0.51862955  1
  Hf  Hf33  1  0.80173877  0.59493201  0.00445333  1
  Hf  Hf34  1  0.21484381  0.19124053  -0.01139394  1
  Hf  Hf35  1  0.49805454  0.70123713  0.11573662  1
  Hf  Hf36  1  0.88706532  0.29320073  0.86626082  1
  Hf  Hf37  1  0.90642713  0.10590779  0.61238998  1
  Hf  Hf38  1  0.20408007  0.61348727  0.73909796  1
  Hf  Hf39  1  0.30718172  0.49548758  0.62718852  1
  Zr  Zr40  1  0.39489965  0.80958887  0.50439320  1
  Zr  Zr41  1  0.39661714  0.60010762  0.23149089  1
  Zr  Zr42  1  0.60602097  0.40854205  0.48362914  1
  Zr  Zr43  1  0.79289716  0.40694611  0.74171957  1
  Zr  Zr44  1  0.10286509  0.10955504  0.37999548  1
  Zr  Zr45  1  0.20532166  0.39914443  0.75009832  1
  Zr  Zr46  1  0.10509667  0.09054160  0.86276944  1
  Zr  Zr47  1  0.60416283  0.00853280  0.75698304  1
  Zr  Zr48  1  -0.00907516  0.60297529  0.76029323  1
  Zr  Zr49  1  0.20258497  0.80179391  0.51194640  1
  Zr  Zr50  1  0.29160802  0.49798693  0.38754171  1
  Zr  Zr51  1  0.68683611  0.31575821  0.62816241  1
  Zr  Zr52  1  0.50930316  0.51530342  0.36154697  1
  Zr  Zr53  1  0.00369144  0.19909890  -0.00664007  1
  Zr  Zr54  1  0.50719658  0.29199655  0.36055836  1
  Zr  Zr55  1  0.81113377  0.41589997  0.24855241  1
  Zr  Zr56  1  0.10844977  0.30719856  0.36649693  1
  Zr  Zr57  1  0.29408485  0.70545836  0.88357170  1
  Zr  Zr58  1  0.68557803  0.49801400  0.87075931  1
  Zr  Zr59  1  0.88829441  0.90040113  0.37609250  1
  Zr  Zr60  1  0.79104548  0.39134311  0.01521060  1
  Zr  Zr61  1  0.41902556  0.21698938  0.74975736  1
  Zr  Zr62  1  0.09101402  0.69920548  0.13268087  1
  Zr  Zr63  1  0.80250188  0.80583639  0.00622491  1
  Zr  Zr64  1  0.79794186  0.00066657  0.74140390  1
  Zr  Zr65  1  0.70529700  0.29588582  0.36479902  1
  Zr  Zr66  1  0.00333139  0.41388552  0.49052202  1
  Zr  Zr67  1  0.30727822  0.50744863  0.87277176  1
  Zr  Zr68  1  0.11147276  0.29894057  0.13606222  1
  Zr  Zr69  1  -0.00134738  0.40181475  -0.01144839  1
  Zr  Zr70  1  0.00831200  -0.00990929  0.50055810  1
  Zr  Zr71  1  0.49843971  0.29833764  0.13020743  1
  Zr  Zr72  1  0.30199556  0.69706994  0.38359736  1
  Zr  Zr73  1  0.10058733  0.89606926  0.64399823  1
  Zr  Zr74  1  0.00330337  -0.00988866  -0.00093715  1
  Zr  Zr75  1  0.38026473  0.39700997  0.24693964  1
  Zr  Zr76  1  0.49380779  0.68737747  0.88247370  1
  Zr  Zr77  1  0.69483420  0.89750281  0.61248556  1
  Zr  Zr78  1  0.00311628  0.59952859  -0.00790562  1
  Zr  Zr79  1  0.10761522  0.88999732  0.85878301  1
  Ta  Ta80  1  0.50607847  0.11031382  0.88774841  1
  Ta  Ta81  1  0.20926006  0.20281306  0.75234807  1
  Ta  Ta82  1  0.89853260  0.70083761  0.12838403  1
  Ta  Ta83  1  -0.00438485  0.79220938  0.48508133  1
  Ta  Ta84  1  0.00022614  0.79775388  -0.00455305  1
  Ta  Ta85  1  0.39662688  0.79558010  0.74605326  1
  Ta  Ta86  1  0.30059798  0.28928843  0.61729261  1
  Ta  Ta87  1  0.30029623  0.90655718  0.13266083  1
  Ta  Ta88  1  0.59653545  0.39955979  0.00807232  1
  Ta  Ta89  1  0.10040863  0.29847265  0.86119529  1
  Ta  Ta90  1  0.79460203  0.79738473  0.76605293  1
  Ta  Ta91  1  0.49443687  0.90273133  0.88107523  1
  Ta  Ta92  1  0.20428092  -0.00504948  0.00652854  1
  Ta  Ta93  1  0.69988059  0.90582647  0.89012909  1
  Ta  Ta94  1  0.40390428  0.40318358  0.00669212  1
  Ta  Ta95  1  0.59285223  0.19992020  0.51083115  1
  Ta  Ta96  1  0.39440023  0.19001056  0.49724681  1
  Ta  Ta97  1  0.21908846  0.20415282  0.25801082  1
  Ta  Ta98  1  0.60756444  0.20657716  0.01391276  1
  Ta  Ta99  1  0.80328704  0.40925424  0.49483339  1
  Ta  Ta100  1  0.29588351  0.90225874  0.86260659  1
  Ta  Ta101  1  0.78829485  -0.00932950  0.22779007  1
  Ta  Ta102  1  0.70178204  0.70587723  0.61053917  1
  Ta  Ta103  1  0.89287715  0.49614134  0.87380107  1
  Ta  Ta104  1  0.90038151  0.30348071  0.62005528  1
  Ta  Ta105  1  0.20086840  0.39949793  0.50790820  1
  Ta  Ta106  1  0.89499499  0.09896059  0.87714228  1
  Ta  Ta107  1  0.79479948  0.79821081  0.24269833  1
  Ta  Ta108  1  0.59692234  0.80309471  -0.00291891  1
  Ta  Ta109  1  0.09435133  0.50215847  0.63024898  1
  Ta  Ta110  1  0.69530496  0.69879863  0.89053387  1
  Ta  Ta111  1  -0.00571583  0.19930996  0.74883373  1
  Ta  Ta112  1  0.19581122  0.80626321  0.01541569  1
  Ta  Ta113  1  -0.00838498  0.00175154  0.74987967  1
  Ta  Ta114  1  0.30827116  0.09590121  0.85425766  1
  Ta  Ta115  1  0.20773513  0.79503962  0.23938505  1
  Ta  Ta116  1  0.61421476  0.41994727  0.23416353  1
  Ta  Ta117  1  0.09944017  0.90000398  0.13926330  1
  Ta  Ta118  1  0.79360672  0.19547168  0.73556791  1
  Ta  Ta119  1  0.09000124  0.48788728  0.13849921  1
  Ti  Ti120  1  0.30574810  0.09135589  0.37732577  1
  Ti  Ti121  1  0.69078083  0.68955922  0.38849002  1
  Ti  Ti122  1  0.10481287  0.70549527  0.87298620  1
  Ti  Ti123  1  0.90272889  0.09395096  0.11312971  1
  Ti  Ti124  1  0.39335652  0.59021033  0.01507548  1
  Ti  Ti125  1  -0.00849001  0.79581823  0.25949578  1
  Ti  Ti126  1  0.90407131  0.89504111  0.12882433  1
  Ti  Ti127  1  0.50339257  0.08968402  0.38531796  1
  Ti  Ti128  1  0.69397537  0.69924806  0.11374556  1
  Ti  Ti129  1  0.79013712  0.20912807  0.51410652  1
  Ti  Ti130  1  0.38836802  0.80572265  0.00156782  1
  Ti  Ti131  1  -0.02078545  0.79166273  0.76716079  1
  Ti  Ti132  1  0.58679344  0.78842836  0.50017645  1
  Ti  Ti133  1  -0.00627936  0.40185810  0.75052332  1
  Ti  Ti134  1  0.49502344  0.90851888  0.37934270  1
  Ti  Ti135  1  0.21753863  0.00546276  0.24783426  1
  Ti  Ti136  1  0.10206902  0.50134869  0.86308355  1
  Ti  Ti137  1  0.88774408  0.69756945  0.60776370  1
  Ti  Ti138  1  -0.00511874  0.59839533  0.48910498  1
  Ti  Ti139  1  0.60560039  0.00319744  0.00742284  1
  Ti  Ti140  1  0.40729964  0.60635597  0.73730969  1
  Ti  Ti141  1  0.70671007  0.51830832  0.61071803  1
  Ti  Ti142  1  0.59152466  0.58635735  0.00996364  1
  Ti  Ti143  1  0.79343754  0.00250407  0.51079434  1
  Ti  Ti144  1  0.19242862  0.59577340  0.51244174  1
  Ti  Ti145  1  0.90063247  0.50659528  0.61969062  1
  Ti  Ti146  1  0.89402115  0.90678330  0.87731166  1
  Ti  Ti147  1  0.31057898  0.91876637  0.65035001  1
  Ti  Ti148  1  0.50675036  0.69859451  0.36743408  1
  Ti  Ti149  1  0.79831252  0.20085527  0.01878457  1
  Ti  Ti150  1  0.60364378  0.60882896  0.74294315  1
  Ti  Ti151  1  0.60427747  0.19860617  0.74084406  1
  Ti  Ti152  1  0.49152866  0.10293109  0.11272458  1
  Ti  Ti153  1  0.69028158  0.29434041  0.87086191  1
  Ti  Ti154  1  0.30347703  0.28981304  0.11560965  1
  Ti  Ti155  1  0.49473693  0.48611815  0.86334447  1
  Ti  Ti156  1  0.31490442  0.30258937  0.87634805  1
  Ti  Ti157  1  0.60995581  0.19321115  0.22935545  1
  Ti  Ti158  1  0.19796332  0.60074911  0.01170116  1
  Ti  Ti159  1  0.88371345  0.69921786  0.37910276  1
  Mo  Mo160  1  0.89455623  0.70578044  0.88645785  1
  Mo  Mo161  1  0.29700506  0.70458579  0.10710424  1
  Mo  Mo162  1  0.69723815  0.10650413  0.61007478  1
  Mo  Mo163  1  0.70119368  0.51070906  0.38424374  1
  Mo  Mo164  1  0.40188078  0.39766121  0.75352214  1
  Mo  Mo165  1  0.30130678  0.70151313  0.62573967  1
  Mo  Mo166  1  0.29062767  0.49414548  0.10725209  1
  Mo  Mo167  1  0.58430938  0.37514156  0.77225423  1
  Mo  Mo168  1  0.40261363  0.00094426  0.25655107  1
  Mo  Mo169  1  0.20669376  0.00524846  0.74063141  1
  Mo  Mo170  1  0.49737091  0.29560896  0.61417367  1
  Mo  Mo171  1  0.59265811  -0.00103114  0.49623988  1
  Mo  Mo172  1  0.40180465  0.20194202  -0.00859573  1
  Mo  Mo173  1  0.10376877  0.50366015  0.37017613  1
  Mo  Mo174  1  0.30142889  0.90534022  0.35513543  1
  Mo  Mo175  1  0.60031326  0.60705313  0.51311345  1
  Mo  Mo176  1  0.30587042  0.10112311  0.63809381  1
  Mo  Mo177  1  0.50667201  0.70177900  0.64069274  1
  Mo  Mo178  1  0.69801825  0.89742023  0.11575217  1
  Mo  Mo179  1  0.00144268  0.20609505  0.51363451  1
  Mo  Mo180  1  0.20764586  0.39803541  0.24111004  1
  Mo  Mo181  1  0.89418887  0.50566646  0.38909246  1
  Mo  Mo182  1  0.20952564  0.20080568  0.49518607  1
  Mo  Mo183  1  0.60216965  0.60682353  0.23511640  1
  Mo  Mo184  1  0.50368225  0.29921290  0.89765094  1
  Mo  Mo185  1  0.49779047  0.49906670  0.12831759  1
  Mo  Mo186  1  0.39960777  -0.00126091  0.48769029  1
  Mo  Mo187  1  0.70005922  0.09684033  0.10985543  1
  Mo  Mo188  1  0.29770629  0.29042918  0.39112973  1
  Mo  Mo189  1  0.90483267  0.50340851  0.11639527  1
  Mo  Mo190  1  0.80073865  0.60024314  0.49701666  1
  Mo  Mo191  1  0.69535595  0.50456956  0.11131987  1
  Mo  Mo192  1  0.41031381  0.00093618  0.76947445  1
  Mo  Mo193  1  0.30188909  0.10118020  0.12975664  1
  Mo  Mo194  1  0.00690879  0.40554393  0.26548842  1
  Mo  Mo195  1  0.79694114  0.79478394  0.48701327  1
  Mo  Mo196  1  0.80489935  0.00088760  0.01127404  1
  Mo  Mo197  1  0.21064514  0.79849547  0.73629218  1
  Mo  Mo198  1  0.00249882  0.19321133  0.24315945  1
  Mo  Mo199  1  0.70123628  0.29989087  0.13651987  1
