# generated using pymatgen
data_HfZrTaTiMo
_symmetry_space_group_name_H-M   'P 1'
_cell_length_a   15.83689123
_cell_length_b   15.83213896
_cell_length_c   15.38975190
_cell_angle_alpha   90.09973315
_cell_angle_beta   90.02886381
_cell_angle_gamma   89.91328441
_symmetry_Int_Tables_number   1
_chemical_formula_structural   HfZrTaTiMo
_chemical_formula_sum   'Hf40 Zr40 Ta40 Ti40 Mo40'
_cell_volume   3858.69041118
_cell_formula_units_Z   40
loop_
 _symmetry_equiv_pos_site_id
 _symmetry_equiv_pos_as_xyz
  1  'x, y, z'
loop_
 _atom_site_type_symbol
 _atom_site_label
 _atom_site_symmetry_multiplicity
 _atom_site_fract_x
 _atom_site_fract_y
 _atom_site_fract_z
 _atom_site_occupancy
  Hf  Hf0  1  0.43054811  0.39892805  0.26604619  1
  Hf  Hf1  1  0.70075851  0.50684571  0.13001111  1
  Hf  Hf2  1  0.10358182  0.88754408  0.37981471  1
  Hf  Hf3  1  0.30418625  0.49983906  0.37966091  1
  Hf  Hf4  1  0.38983965  0.20619404  0.00636458  1
  Hf  Hf5  1  0.29485102  0.09494668  0.86181921  1
  Hf  Hf6  1  0.09725592  0.69571844  0.12966129  1
  Hf  Hf7  1  0.20620463  0.59219981  0.00056333  1
  Hf  Hf8  1  0.00252203  0.38871408  0.75953490  1
  Hf  Hf9  1  0.09531394  0.07862141  0.88395633  1
  Hf  Hf10  1  0.60313864  0.61677176  0.74309649  1
  Hf  Hf11  1  0.31148847  0.29872530  0.38329234  1
  Hf  Hf12  1  0.80657430  0.61034779  0.48598892  1
  Hf  Hf13  1  0.58691316  0.59661645  0.25238368  1
  Hf  Hf14  1  0.90933738  0.09959983  0.14414387  1
  Hf  Hf15  1  0.39919911  0.80140560  0.75303957  1
  Hf  Hf16  1  0.69591133  0.90876599  0.13433474  1
  Hf  Hf17  1  0.58455284  0.80244114  0.24444530  1
  Hf  Hf18  1  0.00626992  0.60523509  0.75066193  1
  Hf  Hf19  1  0.50627064  0.09759877  0.88600350  1
  Hf  Hf20  1  0.50902241  0.29856600  0.87698129  1
  Hf  Hf21  1  0.19319742  -0.00532598  0.73523074  1
  Hf  Hf22  1  0.09228138  0.88997101  0.59692531  1
  Hf  Hf23  1  0.90376763  0.49861981  0.62877407  1
  Hf  Hf24  1  0.59829577  0.81360536  0.73237417  1
  Hf  Hf25  1  0.69486350  0.71297016  0.37434376  1
  Hf  Hf26  1  0.30568918  0.69297370  0.12456340  1
  Hf  Hf27  1  0.19045649  0.79013054  0.73909972  1
  Hf  Hf28  1  0.89069397  0.10329538  0.60710249  1
  Hf  Hf29  1  0.31003239  0.09438457  0.36750417  1
  Hf  Hf30  1  -0.00133578  0.80506837  0.74537390  1
  Hf  Hf31  1  0.80265606  0.80164207  0.01097251  1
  Hf  Hf32  1  0.50279862  0.70633514  0.88254809  1
  Hf  Hf33  1  0.39688263  0.39466536  0.74540175  1
  Hf  Hf34  1  0.58107844  0.21817482  0.25846396  1
  Hf  Hf35  1  0.69593660  0.50547659  0.86905103  1
  Hf  Hf36  1  0.80755023  0.00596695  0.01486680  1
  Hf  Hf37  1  -0.01380182  0.78290965  0.49174642  1
  Hf  Hf38  1  -0.00322385  0.38707358  -0.00211345  1
  Hf  Hf39  1  0.79294985  0.80408240  0.75317762  1
  Zr  Zr40  1  0.69601810  0.91163912  0.59297980  1
  Zr  Zr41  1  0.59295162  0.41736824  0.49639547  1
  Zr  Zr42  1  0.00355432  0.38664166  0.25723759  1
  Zr  Zr43  1  0.30071863  0.89446455  0.61456944  1
  Zr  Zr44  1  -0.00940690  -0.00595601  0.73542114  1
  Zr  Zr45  1  0.80561231  0.39402750  0.75221293  1
  Zr  Zr46  1  0.59973493  0.61684728  0.51504738  1
  Zr  Zr47  1  0.21149807  0.19600895  0.50914859  1
  Zr  Zr48  1  0.81287637  0.21269022  0.01496663  1
  Zr  Zr49  1  0.29894238  0.47819452  0.12995925  1
  Zr  Zr50  1  0.20291110  -0.00409889  0.24594985  1
  Zr  Zr51  1  0.60907031  0.19214345  0.49065158  1
  Zr  Zr52  1  0.70587989  0.29389911  0.62235977  1
  Zr  Zr53  1  0.68530545  0.90729252  0.89325073  1
  Zr  Zr54  1  0.49912985  0.10161585  0.11979173  1
  Zr  Zr55  1  0.40240567  0.19257852  0.73348993  1
  Zr  Zr56  1  0.09996268  0.69130413  0.36190797  1
  Zr  Zr57  1  0.69520729  0.29740638  0.87462663  1
  Zr  Zr58  1  0.80340900  0.40972446  0.49277189  1
  Zr  Zr59  1  0.69909009  0.31449465  0.36533245  1
  Zr  Zr60  1  0.20605323  0.18134408  0.01727104  1
  Zr  Zr61  1  0.09172417  0.29547546  0.61227712  1
  Zr  Zr62  1  0.49907577  0.49584429  0.10668002  1
  Zr  Zr63  1  0.81846095  0.21837221  0.25320546  1
  Zr  Zr64  1  0.10723458  0.49145092  0.88150889  1
  Zr  Zr65  1  0.40352472  0.78262735  0.51044877  1
  Zr  Zr66  1  0.48430487  0.90443206  0.11556422  1
  Zr  Zr67  1  0.88529233  0.69950531  0.62984503  1
  Zr  Zr68  1  0.49711345  0.90824958  0.89191885  1
  Zr  Zr69  1  0.11612897  0.29966279  0.12018441  1
  Zr  Zr70  1  0.91209074  0.90851030  0.88782859  1
  Zr  Zr71  1  -0.00124027  0.19325428  0.75234731  1
  Zr  Zr72  1  0.10304792  0.70726231  0.88927649  1
  Zr  Zr73  1  0.20026800  0.60842518  0.50810433  1
  Zr  Zr74  1  0.78494707  0.00758573  0.74592326  1
  Zr  Zr75  1  0.20475325  0.80267381  0.23590100  1
  Zr  Zr76  1  0.80398906  0.40541271  0.00087138  1
  Zr  Zr77  1  -0.01064008  0.57700846  0.24328177  1
  Zr  Zr78  1  0.68755885  0.31380751  0.13095363  1
  Zr  Zr79  1  0.69146093  0.10540959  0.89260820  1
  Ta  Ta80  1  0.40878974  -0.00306196  0.73977928  1
  Ta  Ta81  1  0.80102856  0.60410122  -0.00159071  1
  Ta  Ta82  1  0.40661882  0.19800216  0.51573598  1
  Ta  Ta83  1  -0.00826994  0.00173759  0.47909414  1
  Ta  Ta84  1  0.09227571  0.09340398  0.60402620  1
  Ta  Ta85  1  0.00425247  0.80676878  0.01641193  1
  Ta  Ta86  1  0.69357462  0.90448614  0.37123262  1
  Ta  Ta87  1  0.20050702  0.58998361  0.74427421  1
  Ta  Ta88  1  -0.00739260  0.59692411  0.00800439  1
  Ta  Ta89  1  0.49445941  0.69988985  0.11168979  1
  Ta  Ta90  1  0.79578712  0.80160624  0.24844762  1
  Ta  Ta91  1  0.10628951  0.10078395  0.37684394  1
  Ta  Ta92  1  0.69513202  0.70141855  0.12518706  1
  Ta  Ta93  1  0.79726278  0.01354047  0.47220415  1
  Ta  Ta94  1  0.20202485  0.39986390  0.50480984  1
  Ta  Ta95  1  0.89905345  0.70162093  0.88047938  1
  Ta  Ta96  1  0.50293021  0.30535350  0.61777817  1
  Ta  Ta97  1  0.81965163  0.42072031  0.25078669  1
  Ta  Ta98  1  0.69579636  0.10608798  0.13759711  1
  Ta  Ta99  1  0.58887727  0.00434235  0.25751388  1
  Ta  Ta100  1  0.50029289  0.49966467  0.87030754  1
  Ta  Ta101  1  0.49533395  0.90417708  0.38674266  1
  Ta  Ta102  1  0.69847303  0.70909110  0.88868047  1
  Ta  Ta103  1  0.00609633  -0.00209101  0.26030533  1
  Ta  Ta104  1  0.60207279  0.60234180  -0.00205903  1
  Ta  Ta105  1  0.90611085  0.89915529  0.14326732  1
  Ta  Ta106  1  0.90032525  0.10451320  0.88475165  1
  Ta  Ta107  1  0.30439113  0.89434759  0.38885192  1
  Ta  Ta108  1  0.38096189  0.79915189  -0.00729198  1
  Ta  Ta109  1  0.49347702  0.70542203  0.37473671  1
  Ta  Ta110  1  0.20270208  0.00048585  0.49776976  1
  Ta  Ta111  1  0.11283388  0.28351324  0.88108232  1
  Ta  Ta112  1  0.48717660  0.51273234  0.63680908  1
  Ta  Ta113  1  0.31119336  0.68094579  0.63972072  1
  Ta  Ta114  1  0.90063616  0.50706216  0.87333231  1
  Ta  Ta115  1  0.89379685  0.69681100  0.13406029  1
  Ta  Ta116  1  0.20072558  0.38925863  0.74109364  1
  Ta  Ta117  1  0.10029609  0.49635804  0.62249961  1
  Ta  Ta118  1  0.90232020  0.29525919  0.60653222  1
  Ta  Ta119  1  0.40063628  0.60292535  0.25856583  1
  Ti  Ti120  1  0.29769874  0.70313442  0.37124372  1
  Ti  Ti121  1  0.29993299  0.49411071  0.86695700  1
  Ti  Ti122  1  0.01346905  0.20320659  0.26416383  1
  Ti  Ti123  1  0.29280438  0.29403880  0.86729389  1
  Ti  Ti124  1  0.20062238  0.39023905  0.26525648  1
  Ti  Ti125  1  0.50533294  0.90616362  0.60463544  1
  Ti  Ti126  1  0.80573849  0.19852279  0.75082733  1
  Ti  Ti127  1  0.40546153  0.59370824  0.49721240  1
  Ti  Ti128  1  0.39455170  0.80652334  0.25001780  1
  Ti  Ti129  1  0.27817872  0.89689249  0.87880752  1
  Ti  Ti130  1  0.38899164  0.39641474  -0.01203516  1
  Ti  Ti131  1  0.51967955  0.08718705  0.61726441  1
  Ti  Ti132  1  0.10456427  0.49488811  0.38195413  1
  Ti  Ti133  1  0.70258707  0.51238802  0.36256494  1
  Ti  Ti134  1  0.20299444  0.58673005  0.24747902  1
  Ti  Ti135  1  0.88661643  0.90059984  0.60016936  1
  Ti  Ti136  1  0.39789562  0.20624573  0.24385393  1
  Ti  Ti137  1  0.19977270  0.19568124  0.73144822  1
  Ti  Ti138  1  0.30163245  0.49398275  0.62405438  1
  Ti  Ti139  1  0.39804220  0.01040475  0.50921210  1
  Ti  Ti140  1  0.89789950  0.69890403  0.35057540  1
  Ti  Ti141  1  0.00424337  0.19079254  0.00903459  1
  Ti  Ti142  1  0.59951373  0.40473603  0.73681206  1
  Ti  Ti143  1  0.39735290  0.59634887  -0.01421312  1
  Ti  Ti144  1  0.80599926  0.20197231  0.47673937  1
  Ti  Ti145  1  0.70390745  0.10045072  0.34794612  1
  Ti  Ti146  1  0.60787486  0.18664960  0.73424803  1
  Ti  Ti147  1  0.71166564  0.51694429  0.63642677  1
  Ti  Ti148  1  0.89301430  0.89791853  0.36115506  1
  Ti  Ti149  1  0.30823696  0.08904471  0.14141555  1
  Ti  Ti150  1  0.18860281  -0.01509977  0.02117759  1
  Ti  Ti151  1  0.37595597  0.00208635  -0.00343048  1
  Ti  Ti152  1  0.49983298  0.31000039  0.10928197  1
  Ti  Ti153  1  0.49341823  0.10081481  0.37511743  1
  Ti  Ti154  1  0.00041625  0.59343334  0.49740827  1
  Ti  Ti155  1  0.20236916  0.20207309  0.24969038  1
  Ti  Ti156  1  0.10514030  0.48995423  0.11660654  1
  Ti  Ti157  1  -0.00223770  0.19989287  0.47580812  1
  Ti  Ti158  1  0.29631346  0.69417948  0.86755226  1
  Ti  Ti159  1  0.00262578  0.39933333  0.48544975  1
  Mo  Mo160  1  0.30035242  0.89915089  0.11360766  1
  Mo  Mo161  1  0.59387121  0.40721098  -0.01262846  1
  Mo  Mo162  1  0.39871050  0.40359784  0.51556192  1
  Mo  Mo163  1  0.70261997  0.71101061  0.61351035  1
  Mo  Mo164  1  0.79688203  0.60429381  0.25427538  1
  Mo  Mo165  1  0.58980347  0.00611330  0.74170325  1
  Mo  Mo166  1  0.90855428  0.28823378  0.87625555  1
  Mo  Mo167  1  0.59777887  0.00877795  0.47153852  1
  Mo  Mo168  1  0.30971915  0.29937097  0.14246037  1
  Mo  Mo169  1  0.10318823  0.89778830  0.89270838  1
  Mo  Mo170  1  0.09949600  0.09790316  0.14358869  1
  Mo  Mo171  1  0.30173024  0.09424331  0.63282617  1
  Mo  Mo172  1  0.70432493  0.10185766  0.61781209  1
  Mo  Mo173  1  0.20072338  0.80046278  0.00510449  1
  Mo  Mo174  1  0.40149897  -0.00820715  0.26271030  1
  Mo  Mo175  1  0.80251606  0.80842694  0.47259335  1
  Mo  Mo176  1  0.21167578  0.38655335  -0.01565767  1
  Mo  Mo177  1  0.00565878  0.00395402  0.02423164  1
  Mo  Mo178  1  0.30146589  0.30280005  0.62212600  1
  Mo  Mo179  1  0.09377645  0.90038651  0.12668915  1
  Mo  Mo180  1  0.91036168  0.30185192  0.13137703  1
  Mo  Mo181  1  0.90702805  0.30389261  0.38701809  1
  Mo  Mo182  1  0.90582290  0.09991545  0.36608509  1
  Mo  Mo183  1  0.60283852  0.00547428  0.02518361  1
  Mo  Mo184  1  0.59467105  0.79734686  0.01773183  1
  Mo  Mo185  1  0.59638018  0.80520498  0.50261982  1
  Mo  Mo186  1  0.11101471  0.29718763  0.38334812  1
  Mo  Mo187  1  0.79862618  0.00227069  0.25632181  1
  Mo  Mo188  1  0.60188664  0.41151720  0.26746800  1
  Mo  Mo189  1  0.39553777  0.59558981  0.76715661  1
  Mo  Mo190  1  0.79890253  0.60758154  0.77007280  1
  Mo  Mo191  1  -0.00517089  0.79852422  0.24668606  1
  Mo  Mo192  1  0.89984334  0.50106405  0.11143651  1
  Mo  Mo193  1  0.20339914  0.79246498  0.50505042  1
  Mo  Mo194  1  0.49401318  0.69997093  0.63703348  1
  Mo  Mo195  1  0.49532313  0.30004398  0.40149017  1
  Mo  Mo196  1  0.59796791  0.20698381  0.01816818  1
  Mo  Mo197  1  0.09941540  0.69002800  0.62049235  1
  Mo  Mo198  1  0.49827532  0.51034363  0.38990258  1
  Mo  Mo199  1  0.90777439  0.50637878  0.38581269  1
