# generated using pymatgen
data_HfZrTaTiMo
_symmetry_space_group_name_H-M   'P 1'
_cell_length_a   15.83206424
_cell_length_b   15.82119648
_cell_length_c   15.42847853
_cell_angle_alpha   90.02542824
_cell_angle_beta   89.96527881
_cell_angle_gamma   90.17339695
_symmetry_Int_Tables_number   1
_chemical_formula_structural   HfZrTaTiMo
_chemical_formula_sum   'Hf40 Zr40 Ta40 Ti40 Mo40'
_cell_volume   3864.54044461
_cell_formula_units_Z   40
loop_
 _symmetry_equiv_pos_site_id
 _symmetry_equiv_pos_as_xyz
  1  'x, y, z'
loop_
 _atom_site_type_symbol
 _atom_site_label
 _atom_site_symmetry_multiplicity
 _atom_site_fract_x
 _atom_site_fract_y
 _atom_site_fract_z
 _atom_site_occupancy
  Hf  Hf0  1  0.90434042  0.09370417  0.62686054  1
  Hf  Hf1  1  0.41077916  0.39542720  -0.01453419  1
  Hf  Hf2  1  0.59927479  0.80035102  0.26557109  1
  Hf  Hf3  1  0.69161929  0.10001710  0.37777965  1
  Hf  Hf4  1  0.39479547  0.79255619  0.25354174  1
  Hf  Hf5  1  -0.00750825  0.19910720  0.76530998  1
  Hf  Hf6  1  0.71585214  0.50183455  0.86415491  1
  Hf  Hf7  1  0.58534873  -0.02085626  0.73634001  1
  Hf  Hf8  1  -0.00190937  0.18415901  0.47802810  1
  Hf  Hf9  1  0.28761353  0.90551283  0.37183832  1
  Hf  Hf10  1  0.89712765  0.29509060  0.61709102  1
  Hf  Hf11  1  0.09631845  0.70362406  0.64437330  1
  Hf  Hf12  1  0.69349448  0.89638563  0.12313714  1
  Hf  Hf13  1  0.59244250  0.59437733  0.26004299  1
  Hf  Hf14  1  0.10395293  0.10006864  0.13032886  1
  Hf  Hf15  1  0.79011757  0.21188452  0.00776989  1
  Hf  Hf16  1  0.22046954  0.39187845  0.25515284  1
  Hf  Hf17  1  0.60690342  0.39661321  -0.00208650  1
  Hf  Hf18  1  0.11017375  0.68860184  0.88441607  1
  Hf  Hf19  1  0.19857921  0.80662384  0.51126414  1
  Hf  Hf20  1  0.91363374  0.69270605  0.36900996  1
  Hf  Hf21  1  0.09068944  0.91487519  0.63917395  1
  Hf  Hf22  1  0.38571720  0.20080564  -0.00940518  1
  Hf  Hf23  1  0.10341316  0.51160163  0.36435221  1
  Hf  Hf24  1  0.59841384  0.18668688  0.74235428  1
  Hf  Hf25  1  0.58843424  0.20567017  0.24741592  1
  Hf  Hf26  1  0.20810706  0.61032719  0.51692790  1
  Hf  Hf27  1  0.20513161  0.40644218  0.49059666  1
  Hf  Hf28  1  0.59923738  0.60110485  0.49461728  1
  Hf  Hf29  1  -0.00849108  0.19881376  0.25913404  1
  Hf  Hf30  1  0.60336504  0.79864245  0.48411179  1
  Hf  Hf31  1  0.39601954  0.00533295  0.50859022  1
  Hf  Hf32  1  0.48542263  0.07954222  0.87343453  1
  Hf  Hf33  1  0.50051387  0.30137690  0.62513226  1
  Hf  Hf34  1  -0.01320389  -0.01144670  0.25705538  1
  Hf  Hf35  1  0.09249456  0.49948026  0.88851208  1
  Hf  Hf36  1  0.21906668  0.01055661  -0.00984055  1
  Hf  Hf37  1  0.21417039  0.61658107  0.22607525  1
  Hf  Hf38  1  0.50376465  0.50919729  0.86295999  1
  Hf  Hf39  1  0.09848956  0.29904077  0.13241018  1
  Zr  Zr40  1  0.21321055  0.38421292  0.00359679  1
  Zr  Zr41  1  0.32200793  0.71320171  0.88010162  1
  Zr  Zr42  1  0.29112770  0.51392645  0.88678330  1
  Zr  Zr43  1  0.78300764  0.00163012  -0.00074160  1
  Zr  Zr44  1  0.80377096  -0.00692134  0.48524473  1
  Zr  Zr45  1  -0.00906071  0.79875325  0.76797642  1
  Zr  Zr46  1  0.31365450  0.52736831  0.37463224  1
  Zr  Zr47  1  0.59918744  0.59893098  0.00024141  1
  Zr  Zr48  1  0.00543206  0.60464922  0.23191446  1
  Zr  Zr49  1  0.79258931  -0.00222195  0.76475420  1
  Zr  Zr50  1  0.89694068  0.09415505  0.11924090  1
  Zr  Zr51  1  0.21976857  0.80594779  0.00806894  1
  Zr  Zr52  1  0.81402953  0.59534631  0.50360375  1
  Zr  Zr53  1  0.29350546  0.11247867  0.37547358  1
  Zr  Zr54  1  -0.00475378  0.39930708  0.48038302  1
  Zr  Zr55  1  0.39380961  0.79495901  0.50792261  1
  Zr  Zr56  1  0.71045262  0.49542976  0.36945301  1
  Zr  Zr57  1  -0.00222326  0.20763925  -0.00420162  1
  Zr  Zr58  1  -0.02145542  0.58616491  0.74524352  1
  Zr  Zr59  1  0.59252320  0.00105712  0.25491415  1
  Zr  Zr60  1  0.39907138  0.61384212  0.73377011  1
  Zr  Zr61  1  0.32249731  0.49437151  0.12151557  1
  Zr  Zr62  1  0.10198141  0.29042197  0.61278943  1
  Zr  Zr63  1  0.10254224  0.49770971  0.11210561  1
  Zr  Zr64  1  -0.00333727  0.79862972  0.50787746  1
  Zr  Zr65  1  0.70282336  0.69109702  0.13564115  1
  Zr  Zr66  1  0.09500280  0.90759194  0.11861436  1
  Zr  Zr67  1  0.89616170  0.47537532  0.11028724  1
  Zr  Zr68  1  0.38356940  0.40339951  0.74896347  1
  Zr  Zr69  1  0.22989529  0.81051036  0.74506439  1
  Zr  Zr70  1  0.70395977  0.49551066  0.62589349  1
  Zr  Zr71  1  0.11050015  0.89834773  0.87371670  1
  Zr  Zr72  1  0.79473979  -0.00666540  0.25203786  1
  Zr  Zr73  1  0.00182917  0.39378804  0.75489096  1
  Zr  Zr74  1  0.19642456  0.79916820  0.23299646  1
  Zr  Zr75  1  0.59741811  0.19665388  0.00801403  1
  Zr  Zr76  1  0.70680518  0.09619980  0.62217284  1
  Zr  Zr77  1  0.20333835  0.20864938  0.75823042  1
  Zr  Zr78  1  0.79572193  0.79804822  0.76604645  1
  Zr  Zr79  1  0.48014735  0.09615317  0.12636339  1
  Ta  Ta80  1  0.41660619  0.40289787  0.27275915  1
  Ta  Ta81  1  0.09354232  0.89539887  0.36843984  1
  Ta  Ta82  1  0.69369380  0.29878993  0.37099901  1
  Ta  Ta83  1  -0.00855110  0.00109488  0.77071679  1
  Ta  Ta84  1  -0.00213677  -0.00075509  -0.01259926  1
  Ta  Ta85  1  0.00798560  0.59682725  0.50855121  1
  Ta  Ta86  1  0.29840555  0.30222199  0.61415608  1
  Ta  Ta87  1  0.70465118  0.70281160  0.62684641  1
  Ta  Ta88  1  0.57951107  -0.01350491  0.00808223  1
  Ta  Ta89  1  0.10103932  0.09990539  0.87470969  1
  Ta  Ta90  1  0.20488830  0.19980988  -0.01083728  1
  Ta  Ta91  1  0.72229512  0.70653676  0.36853132  1
  Ta  Ta92  1  0.11030188  0.70471932  0.37497604  1
  Ta  Ta93  1  0.81488303  0.79997720  0.23577371  1
  Ta  Ta94  1  0.59397133  -0.00186542  0.50155426  1
  Ta  Ta95  1  0.79399920  0.79372394  -0.00159243  1
  Ta  Ta96  1  0.79384875  0.19562902  0.24889662  1
  Ta  Ta97  1  0.39643268  0.19022808  0.74095317  1
  Ta  Ta98  1  0.50392734  0.49985383  0.62308745  1
  Ta  Ta99  1  0.80046310  0.20455341  0.76127746  1
  Ta  Ta100  1  0.89347716  0.89905383  0.62695770  1
  Ta  Ta101  1  0.18325194  0.00705402  0.50070896  1
  Ta  Ta102  1  0.60486872  0.60698486  0.74273840  1
  Ta  Ta103  1  0.39095328  -0.00903096  0.72535616  1
  Ta  Ta104  1  0.79824913  0.20266437  0.48603005  1
  Ta  Ta105  1  0.81326700  0.40615145  0.74244565  1
  Ta  Ta106  1  0.70124773  0.88741387  0.61540397  1
  Ta  Ta107  1  0.50200134  0.29276920  0.85819547  1
  Ta  Ta108  1  0.20482234  0.58866831  0.73766108  1
  Ta  Ta109  1  0.50150927  0.70544693  0.12645492  1
  Ta  Ta110  1  0.90194334  0.69534130  0.10764470  1
  Ta  Ta111  1  0.28936972  0.11154409  0.14595229  1
  Ta  Ta112  1  0.70415912  0.29805157  0.62750340  1
  Ta  Ta113  1  0.40688616  0.40599311  0.49595508  1
  Ta  Ta114  1  0.70669826  0.31153763  0.14436557  1
  Ta  Ta115  1  0.69902391  0.30252550  0.85968997  1
  Ta  Ta116  1  0.59661523  0.20064572  0.50477984  1
  Ta  Ta117  1  0.89246533  0.67949823  0.89186508  1
  Ta  Ta118  1  0.10193564  0.49078741  0.62561902  1
  Ta  Ta119  1  0.31303522  0.92124683  0.13811656  1
  Ti  Ti120  1  0.20962032  0.00747666  0.75372761  1
  Ti  Ti121  1  0.10627447  0.30694119  0.87863064  1
  Ti  Ti122  1  0.89289510  0.70169856  0.62915462  1
  Ti  Ti123  1  0.40980912  0.61026123  0.00872063  1
  Ti  Ti124  1  0.41642108  0.82566354  0.01168906  1
  Ti  Ti125  1  0.50909471  0.71724628  0.86427323  1
  Ti  Ti126  1  -0.00324866  -0.00433766  0.48545272  1
  Ti  Ti127  1  0.49466271  0.90533780  0.38115765  1
  Ti  Ti128  1  0.88903352  0.31971174  0.88673367  1
  Ti  Ti129  1  0.40101030  0.60248364  0.52188143  1
  Ti  Ti130  1  0.89108595  0.10205635  0.88485094  1
  Ti  Ti131  1  0.68779529  0.09918052  0.87617528  1
  Ti  Ti132  1  -0.00192151  0.79621084  -0.00127602  1
  Ti  Ti133  1  0.81274024  0.59055387  0.24721531  1
  Ti  Ti134  1  0.59439995  0.79676479  0.00396376  1
  Ti  Ti135  1  0.49236158  0.31522423  0.12770982  1
  Ti  Ti136  1  0.48996238  0.11695864  0.38739679  1
  Ti  Ti137  1  0.79494174  0.58969249  0.00758335  1
  Ti  Ti138  1  0.80046080  0.39639459  0.49541941  1
  Ti  Ti139  1  0.28618374  0.10897515  0.61486353  1
  Ti  Ti140  1  0.40021539  0.00627269  0.26488775  1
  Ti  Ti141  1  0.40996885  0.59912235  0.23629564  1
  Ti  Ti142  1  0.69759931  0.69484757  0.87181865  1
  Ti  Ti143  1  0.11393981  0.28992272  0.37037665  1
  Ti  Ti144  1  0.67736328  0.89202153  0.88124187  1
  Ti  Ti145  1  0.51185675  0.71384846  0.63022825  1
  Ti  Ti146  1  -0.00900036  0.39957402  0.26023088  1
  Ti  Ti147  1  0.59986402  0.39634908  0.49341419  1
  Ti  Ti148  1  0.89218809  0.87972181  0.37947709  1
  Ti  Ti149  1  0.69764218  0.49178085  0.13629232  1
  Ti  Ti150  1  0.58971006  0.40274219  0.25921083  1
  Ti  Ti151  1  0.00052017  0.79520778  0.23142430  1
  Ti  Ti152  1  0.30983897  0.29156036  0.39602071  1
  Ti  Ti153  1  0.89370436  0.89676080  0.89225080  1
  Ti  Ti154  1  0.39544289  0.22010890  0.25357342  1
  Ti  Ti155  1  0.88437129  0.30236842  0.36457509  1
  Ti  Ti156  1  0.10668153  0.09170256  0.36051316  1
  Ti  Ti157  1  0.09460692  0.09979167  0.63361487  1
  Ti  Ti158  1  0.47984373  0.68602158  0.37842925  1
  Ti  Ti159  1  0.60160376  0.39972998  0.74805105  1
  Mo  Mo160  1  0.10057631  0.70127211  0.09890919  1
  Mo  Mo161  1  0.80058470  0.60051102  0.74371439  1
  Mo  Mo162  1  0.89595662  0.49699817  0.89393677  1
  Mo  Mo163  1  0.78842142  0.39459570  -0.00047864  1
  Mo  Mo164  1  0.49651510  0.09983728  0.61938989  1
  Mo  Mo165  1  0.32897908  0.91753564  0.87394162  1
  Mo  Mo166  1  0.30190355  0.49778014  0.61478811  1
  Mo  Mo167  1  0.31733794  0.70667003  0.10618502  1
  Mo  Mo168  1  0.39588152  0.00143476  0.00801749  1
  Mo  Mo169  1  0.89500260  0.29877334  0.14009536  1
  Mo  Mo170  1  0.29136114  0.91388908  0.61082538  1
  Mo  Mo171  1  0.50328505  0.50231517  0.39521495  1
  Mo  Mo172  1  0.20781924  0.60549742  0.01399141  1
  Mo  Mo173  1  0.49435471  0.89024457  0.87525192  1
  Mo  Mo174  1  0.29584067  0.70044169  0.37600390  1
  Mo  Mo175  1  -0.00153212  0.60060623  0.00502512  1
  Mo  Mo176  1  0.31003720  0.29341968  0.13465534  1
  Mo  Mo177  1  0.80216753  0.79422529  0.50495689  1
  Mo  Mo178  1  0.89607536  0.09977673  0.37071937  1
  Mo  Mo179  1  0.49709020  0.89725840  0.14035543  1
  Mo  Mo180  1  0.42047146  0.81684832  0.73165972  1
  Mo  Mo181  1  0.90766112  0.49818314  0.37359925  1
  Mo  Mo182  1  0.19371087  0.19646076  0.50112291  1
  Mo  Mo183  1  0.39938833  0.20310175  0.51984505  1
  Mo  Mo184  1  0.30360461  0.29964851  0.85977571  1
  Mo  Mo185  1  0.89807673  0.88809827  0.10356351  1
  Mo  Mo186  1  0.19699544  0.40532439  0.74422406  1
  Mo  Mo187  1  0.50335023  0.89730538  0.60695748  1
  Mo  Mo188  1  0.19632639  0.00092720  0.25632053  1
  Mo  Mo189  1  0.50891653  0.49804418  0.12543730  1
  Mo  Mo190  1  0.50083483  0.29864321  0.38870096  1
  Mo  Mo191  1  0.80086475  0.39783262  0.25861903  1
  Mo  Mo192  1  0.68960810  0.10534673  0.12798187  1
  Mo  Mo193  1  0.90501965  0.49321241  0.60931178  1
  Mo  Mo194  1  0.60421328  0.79506788  0.74828826  1
  Mo  Mo195  1  0.30232116  0.70551317  0.63413497  1
  Mo  Mo196  1  0.70266470  0.89179329  0.38024166  1
  Mo  Mo197  1  0.20002026  0.20671899  0.25822913  1
  Mo  Mo198  1  -0.00285733  0.39259150  -0.00888885  1
  Mo  Mo199  1  0.30127796  0.09998901  0.85880628  1
