# generated using pymatgen
data_HfZrTaTiMo
_symmetry_space_group_name_H-M   'P 1'
_cell_length_a   15.84330150
_cell_length_b   15.82789852
_cell_length_c   15.42483321
_cell_angle_alpha   90.02538518
_cell_angle_beta   89.93531572
_cell_angle_gamma   90.00674696
_symmetry_Int_Tables_number   1
_chemical_formula_structural   HfZrTaTiMo
_chemical_formula_sum   'Hf40 Zr40 Ta40 Ti40 Mo40'
_cell_volume   3868.02345066
_cell_formula_units_Z   40
loop_
 _symmetry_equiv_pos_site_id
 _symmetry_equiv_pos_as_xyz
  1  'x, y, z'
loop_
 _atom_site_type_symbol
 _atom_site_label
 _atom_site_symmetry_multiplicity
 _atom_site_fract_x
 _atom_site_fract_y
 _atom_site_fract_z
 _atom_site_occupancy
  Hf  Hf0  1  0.19296280  0.40194786  0.74506150  1
  Hf  Hf1  1  0.79388539  0.19533953  0.26837446  1
  Hf  Hf2  1  0.79469340  0.00055702  0.74517680  1
  Hf  Hf3  1  0.79772342  0.79760615  -0.01338969  1
  Hf  Hf4  1  0.90991207  0.09301251  0.62197668  1
  Hf  Hf5  1  0.00526565  0.78896501  0.49304769  1
  Hf  Hf6  1  0.00876877  0.40233001  0.73875654  1
  Hf  Hf7  1  0.90435509  0.89560899  0.61908291  1
  Hf  Hf8  1  0.59806289  0.00596697  0.73461427  1
  Hf  Hf9  1  0.51343855  0.92030555  0.39471843  1
  Hf  Hf10  1  0.70881879  0.70747151  0.37627723  1
  Hf  Hf11  1  0.40071116  0.40855933  0.49811768  1
  Hf  Hf12  1  0.79550849  0.19670687  0.49186189  1
  Hf  Hf13  1  0.90496476  0.50279085  0.87313630  1
  Hf  Hf14  1  0.09486979  0.29806058  0.88716708  1
  Hf  Hf15  1  0.41862485  0.00644565  0.24675642  1
  Hf  Hf16  1  0.09996073  0.30121108  0.12789729  1
  Hf  Hf17  1  0.79350331  0.60110434  -0.00371017  1
  Hf  Hf18  1  0.39269035  0.40050006  0.25624174  1
  Hf  Hf19  1  0.68136403  0.07148234  0.37316634  1
  Hf  Hf20  1  0.40533725  0.18527174  0.73654835  1
  Hf  Hf21  1  0.20599009  0.80264505  0.00061278  1
  Hf  Hf22  1  0.50106719  0.71054819  0.11958324  1
  Hf  Hf23  1  0.09819309  0.09836371  0.13284874  1
  Hf  Hf24  1  0.29385929  0.29433784  0.61468915  1
  Hf  Hf25  1  0.79796073  -0.03556909  0.24948308  1
  Hf  Hf26  1  0.79218526  0.39410630  0.00242167  1
  Hf  Hf27  1  0.40746159  0.80567336  0.26799526  1
  Hf  Hf28  1  0.20233583  0.80282845  0.49254478  1
  Hf  Hf29  1  0.49977070  0.52303492  0.62843128  1
  Hf  Hf30  1  0.09283594  0.90013175  0.13673663  1
  Hf  Hf31  1  0.39417798  0.41188758  0.74431664  1
  Hf  Hf32  1  0.60421635  0.19472437  0.50737430  1
  Hf  Hf33  1  0.80274660  -0.00879354  -0.00342367  1
  Hf  Hf34  1  0.89350794  0.70974355  0.13210930  1
  Hf  Hf35  1  0.90215282  0.50615114  0.37691649  1
  Hf  Hf36  1  0.79314434  0.39981102  0.50770580  1
  Hf  Hf37  1  0.20102632  0.60032744  0.75261455  1
  Hf  Hf38  1  0.20755944  -0.00458271  0.26727003  1
  Hf  Hf39  1  0.90130899  0.09906552  0.86591255  1
  Zr  Zr40  1  0.09020219  0.90484661  0.86746100  1
  Zr  Zr41  1  0.90636543  0.08651380  0.13526334  1
  Zr  Zr42  1  0.49142572  0.49368497  0.88413311  1
  Zr  Zr43  1  0.70422163  0.50273399  0.36424006  1
  Zr  Zr44  1  0.40414488  0.00126283  0.00513780  1
  Zr  Zr45  1  0.79337750  0.79761381  0.75297727  1
  Zr  Zr46  1  0.19339973  0.18083829  0.48041579  1
  Zr  Zr47  1  0.69236710  0.09348812  0.13930684  1
  Zr  Zr48  1  0.79024928  0.19396652  0.00219931  1
  Zr  Zr49  1  0.90054993  0.51135975  0.62634963  1
  Zr  Zr50  1  0.68976081  0.27432493  0.85485606  1
  Zr  Zr51  1  0.21284174  0.20359195  0.25903193  1
  Zr  Zr52  1  -0.00919563  0.80992423  0.26606832  1
  Zr  Zr53  1  0.31146175  0.10076283  0.87436929  1
  Zr  Zr54  1  0.00012564  0.19576399  0.49083899  1
  Zr  Zr55  1  0.68169411  0.70318793  0.62039127  1
  Zr  Zr56  1  0.01432099  0.19539256  0.73921236  1
  Zr  Zr57  1  0.49776674  0.50330966  0.12149427  1
  Zr  Zr58  1  0.00836673  0.59526915  0.24428507  1
  Zr  Zr59  1  0.20474670  0.79629742  0.73502864  1
  Zr  Zr60  1  0.20209076  -0.00232983  0.00194935  1
  Zr  Zr61  1  0.09987261  0.70319107  0.87935623  1
  Zr  Zr62  1  0.20753578  0.20054743  0.00657299  1
  Zr  Zr63  1  0.02151915  -0.00831209  0.47733118  1
  Zr  Zr64  1  0.59441039  0.38173731  0.00716650  1
  Zr  Zr65  1  -0.00007367  0.19735428  0.27100947  1
  Zr  Zr66  1  0.30824735  0.30591230  0.87533733  1
  Zr  Zr67  1  0.19783492  0.01027033  0.74728715  1
  Zr  Zr68  1  0.58594893  0.62207699  0.76855900  1
  Zr  Zr69  1  0.89597817  0.29326911  0.13348391  1
  Zr  Zr70  1  0.80565832  0.39284532  0.74944192  1
  Zr  Zr71  1  0.09836780  0.31796418  0.37546553  1
  Zr  Zr72  1  0.38655684  0.60411098  0.26424226  1
  Zr  Zr73  1  0.51002353  0.49987614  0.37172358  1
  Zr  Zr74  1  -0.00927111  0.40154606  0.00995099  1
  Zr  Zr75  1  0.50508764  0.30344551  0.63293023  1
  Zr  Zr76  1  0.51003149  0.30132836  0.37308143  1
  Zr  Zr77  1  0.29529954  0.51397080  0.61703872  1
  Zr  Zr78  1  0.69156887  0.49218360  0.86443953  1
  Zr  Zr79  1  0.19977028  0.42996253  0.25612140  1
  Ta  Ta80  1  0.39701545  0.61301286  0.48012851  1
  Ta  Ta81  1  0.49922130  0.29199025  0.14410177  1
  Ta  Ta82  1  0.30336550  0.50680408  0.10991178  1
  Ta  Ta83  1  -0.00163902  0.60892588  0.00780180  1
  Ta  Ta84  1  0.69611525  0.50361424  0.13567337  1
  Ta  Ta85  1  0.60765749  0.40465010  0.51583509  1
  Ta  Ta86  1  0.40340446  0.19318168  0.49597924  1
  Ta  Ta87  1  0.29354764  0.50462147  0.88894396  1
  Ta  Ta88  1  0.41732731  0.21020622  0.00421896  1
  Ta  Ta89  1  0.60713542  0.81426327  0.26041855  1
  Ta  Ta90  1  0.90034913  0.29519544  0.61813492  1
  Ta  Ta91  1  0.89385883  0.31148295  0.37985587  1
  Ta  Ta92  1  0.79386300  -0.00384408  0.50479822  1
  Ta  Ta93  1  0.39420255  0.61449656  -0.00841270  1
  Ta  Ta94  1  0.89419605  0.07993899  0.37261302  1
  Ta  Ta95  1  0.40619084  -0.00843785  0.73590906  1
  Ta  Ta96  1  0.30092483  0.70528966  0.13090991  1
  Ta  Ta97  1  0.51993442  0.11012205  0.87674319  1
  Ta  Ta98  1  0.79758118  0.60380203  0.51005258  1
  Ta  Ta99  1  0.50226358  0.88342511  0.61475247  1
  Ta  Ta100  1  0.69316577  0.50436534  0.63840311  1
  Ta  Ta101  1  0.00655195  0.60274713  0.75026074  1
  Ta  Ta102  1  0.39862388  0.19476696  0.26524011  1
  Ta  Ta103  1  0.30596421  0.89580486  0.13410713  1
  Ta  Ta104  1  0.59660514  0.61382535  0.25100976  1
  Ta  Ta105  1  0.00024037  0.79744267  0.74005682  1
  Ta  Ta106  1  0.69159592  0.90714549  0.87434004  1
  Ta  Ta107  1  0.30659902  0.89608385  0.86211014  1
  Ta  Ta108  1  0.49910465  0.90920148  0.87429536  1
  Ta  Ta109  1  0.00272727  0.40881938  0.50926312  1
  Ta  Ta110  1  0.68868520  0.29737344  0.14730594  1
  Ta  Ta111  1  0.19981533  0.60842194  0.00694008  1
  Ta  Ta112  1  0.90573562  0.70197008  0.86940617  1
  Ta  Ta113  1  0.50481943  0.29627553  0.85767612  1
  Ta  Ta114  1  0.31061108  0.10444226  0.12901570  1
  Ta  Ta115  1  0.20184262  0.40448159  0.00679577  1
  Ta  Ta116  1  0.10042342  0.50278495  0.88970222  1
  Ta  Ta117  1  0.60325122  0.00398478  0.00213329  1
  Ta  Ta118  1  0.40990822  0.79390325  0.75396353  1
  Ta  Ta119  1  0.29647442  0.09072120  0.61090614  1
  Ti  Ti120  1  0.30068700  0.30540611  0.38619356  1
  Ti  Ti121  1  0.60082544  0.79878984  -0.01494885  1
  Ti  Ti122  1  0.10267447  0.50723320  0.11359857  1
  Ti  Ti123  1  0.30882353  0.30567397  0.12326640  1
  Ti  Ti124  1  0.80049357  0.40105096  0.24650193  1
  Ti  Ti125  1  0.70299913  0.29251872  0.64028872  1
  Ti  Ti126  1  0.60220706  0.60896156  -0.00489354  1
  Ti  Ti127  1  -0.00831010  0.80841512  0.00069993  1
  Ti  Ti128  1  0.50806884  0.90014727  0.11833438  1
  Ti  Ti129  1  0.79807199  0.60779334  0.75524327  1
  Ti  Ti130  1  0.39737948  0.80390826  -0.00958312  1
  Ti  Ti131  1  0.40077000  0.79735085  0.48299441  1
  Ti  Ti132  1  0.20045781  0.19899404  0.74506087  1
  Ti  Ti133  1  0.31702380  0.07962126  0.39110498  1
  Ti  Ti134  1  0.58307384  0.17953915  0.25860957  1
  Ti  Ti135  1  0.69580149  0.89338561  0.60955355  1
  Ti  Ti136  1  -0.00252124  0.40654611  0.24804616  1
  Ti  Ti137  1  0.10424508  0.70650404  0.13040800  1
  Ti  Ti138  1  0.69664915  0.88586295  0.11535115  1
  Ti  Ti139  1  0.39319620  0.61702234  0.77071253  1
  Ti  Ti140  1  0.87702252  0.88164145  0.39438141  1
  Ti  Ti141  1  0.09379501  0.10438167  0.88409083  1
  Ti  Ti142  1  0.90072824  0.69804605  0.62424979  1
  Ti  Ti143  1  0.10330602  0.29627397  0.60990343  1
  Ti  Ti144  1  0.19608298  0.41244137  0.49757036  1
  Ti  Ti145  1  0.59341362  0.80612604  0.76165459  1
  Ti  Ti146  1  0.89047017  0.69350925  0.37229907  1
  Ti  Ti147  1  0.90200304  0.28771741  0.87192295  1
  Ti  Ti148  1  0.59517842  0.60600434  0.49251914  1
  Ti  Ti149  1  0.31549391  0.70280892  0.61790254  1
  Ti  Ti150  1  0.30642945  0.89805013  0.61765147  1
  Ti  Ti151  1  0.09694263  0.68607792  0.61744495  1
  Ti  Ti152  1  0.89057825  0.50675969  0.13023156  1
  Ti  Ti153  1  0.10602720  0.68919171  0.36628843  1
  Ti  Ti154  1  -0.00560570  -0.00308660  -0.00478438  1
  Ti  Ti155  1  0.10174646  0.91352188  0.62653984  1
  Ti  Ti156  1  0.19881423  0.60378375  0.48933532  1
  Ti  Ti157  1  0.69696417  0.70044239  0.13303219  1
  Ti  Ti158  1  0.20917637  0.79634507  0.26445137  1
  Ti  Ti159  1  0.69141844  0.31072721  0.36382013  1
  Mo  Mo160  1  0.59745796  -0.01356481  0.23314122  1
  Mo  Mo161  1  0.59816067  0.79713071  0.48892301  1
  Mo  Mo162  1  0.79703102  0.60015241  0.23768148  1
  Mo  Mo163  1  0.50050923  0.10687708  0.11596181  1
  Mo  Mo164  1  0.59766111  0.40159496  0.73634632  1
  Mo  Mo165  1  0.59715861  0.19763184  0.01118234  1
  Mo  Mo166  1  0.29145366  0.50365251  0.38829912  1
  Mo  Mo167  1  0.10039316  0.50733774  0.61000529  1
  Mo  Mo168  1  0.90312687  0.89688442  0.86611485  1
  Mo  Mo169  1  0.60324323  -0.00169371  0.52422645  1
  Mo  Mo170  1  0.40039325  -0.00670629  0.51822010  1
  Mo  Mo171  1  0.10952778  0.09637767  0.62453849  1
  Mo  Mo172  1  0.80544805  0.19490485  0.73617212  1
  Mo  Mo173  1  0.59899422  0.40319368  0.23767997  1
  Mo  Mo174  1  0.79224767  0.79383437  0.24316795  1
  Mo  Mo175  1  0.29479833  0.70179650  0.37111086  1
  Mo  Mo176  1  0.49805144  0.10056111  0.39118938  1
  Mo  Mo177  1  0.50733587  0.70616983  0.37924118  1
  Mo  Mo178  1  0.49700682  0.71348885  0.89392772  1
  Mo  Mo179  1  0.20693489  -0.01054047  0.49187831  1
  Mo  Mo180  1  0.09992230  0.09204285  0.35553322  1
  Mo  Mo181  1  0.10681177  0.88766786  0.36439615  1
  Mo  Mo182  1  0.90219983  0.89622779  0.11383115  1
  Mo  Mo183  1  -0.00004136  -0.00749206  0.75131504  1
  Mo  Mo184  1  0.69870863  0.70356166  0.87355330  1
  Mo  Mo185  1  0.00138174  0.60602343  0.49288377  1
  Mo  Mo186  1  0.69596008  0.09165870  0.87501162  1
  Mo  Mo187  1  0.39571667  0.39670486  0.00671956  1
  Mo  Mo188  1  0.30010905  0.70524320  0.87479679  1
  Mo  Mo189  1  0.49704224  0.09273253  0.61156302  1
  Mo  Mo190  1  0.70597406  0.10050901  0.61832912  1
  Mo  Mo191  1  0.60355426  0.19074743  0.73134368  1
  Mo  Mo192  1  0.70207970  0.89322652  0.39391989  1
  Mo  Mo193  1  0.80260160  0.79167579  0.51490950  1
  Mo  Mo194  1  0.09664063  0.51101551  0.39069534  1
  Mo  Mo195  1  0.30823454  0.89954492  0.38286707  1
  Mo  Mo196  1  0.48795134  0.70661937  0.61112474  1
  Mo  Mo197  1  -0.00313733  -0.00881830  0.26752250  1
  Mo  Mo198  1  -0.00008475  0.18900406  -0.00426675  1
  Mo  Mo199  1  0.19800665  0.60946829  0.23402360  1
