# generated using pymatgen
data_HfZrTaTiMo
_symmetry_space_group_name_H-M   'P 1'
_cell_length_a   15.82116328
_cell_length_b   15.83343596
_cell_length_c   15.40062857
_cell_angle_alpha   90.02748123
_cell_angle_beta   90.00506626
_cell_angle_gamma   90.14232435
_symmetry_Int_Tables_number   1
_chemical_formula_structural   HfZrTaTiMo
_chemical_formula_sum   'Hf40 Zr40 Ta40 Ti40 Mo40'
_cell_volume   3857.89708251
_cell_formula_units_Z   40
loop_
 _symmetry_equiv_pos_site_id
 _symmetry_equiv_pos_as_xyz
  1  'x, y, z'
loop_
 _atom_site_type_symbol
 _atom_site_label
 _atom_site_symmetry_multiplicity
 _atom_site_fract_x
 _atom_site_fract_y
 _atom_site_fract_z
 _atom_site_occupancy
  Hf  Hf0  1  0.09693750  0.50174343  0.11161696  1
  Hf  Hf1  1  0.90273537  0.89677389  0.36265133  1
  Hf  Hf2  1  0.30004850  0.29445324  0.87574646  1
  Hf  Hf3  1  0.50241753  0.30501761  0.86587849  1
  Hf  Hf4  1  0.80616374  0.01080745  0.00509413  1
  Hf  Hf5  1  -0.00053637  0.78467963  0.25113268  1
  Hf  Hf6  1  0.60066562  0.59886759  0.24609453  1
  Hf  Hf7  1  0.51374177  0.69724529  0.62690760  1
  Hf  Hf8  1  -0.00134435  0.19790992  0.50667028  1
  Hf  Hf9  1  0.20247091  0.40598102  0.51683641  1
  Hf  Hf10  1  0.80593466  0.41043198  0.75692705  1
  Hf  Hf11  1  0.80189237  0.40187033  0.50566785  1
  Hf  Hf12  1  0.70145786  0.88901273  0.88908398  1
  Hf  Hf13  1  0.19328753  0.41981241  0.26375958  1
  Hf  Hf14  1  0.59525866  0.17859103  0.75993656  1
  Hf  Hf15  1  0.59343382  0.20520950  0.49025206  1
  Hf  Hf16  1  0.38822682  -0.01123038  0.25816594  1
  Hf  Hf17  1  0.60333733  0.20241553  -0.00289594  1
  Hf  Hf18  1  0.79854095  -0.00277375  0.49841504  1
  Hf  Hf19  1  0.19721867  0.60206649  0.74033286  1
  Hf  Hf20  1  0.69143300  0.09146132  0.61462006  1
  Hf  Hf21  1  0.51117286  0.69725588  0.87463767  1
  Hf  Hf22  1  0.29157034  0.10079061  0.60134928  1
  Hf  Hf23  1  -0.01586105  0.20346039  0.25118351  1
  Hf  Hf24  1  0.08901568  0.29991234  0.11653730  1
  Hf  Hf25  1  0.20439583  0.78229519  0.24624752  1
  Hf  Hf26  1  0.81413903  0.01264103  0.23482823  1
  Hf  Hf27  1  0.20178033  0.81199781  0.00033272  1
  Hf  Hf28  1  0.39231075  0.62218680  0.26259117  1
  Hf  Hf29  1  0.89330260  0.70556663  0.89430388  1
  Hf  Hf30  1  0.68876713  0.89795362  0.12875971  1
  Hf  Hf31  1  0.90612499  0.51457283  0.62786367  1
  Hf  Hf32  1  0.51370435  0.90688883  0.62688872  1
  Hf  Hf33  1  0.20127336  0.40503511  -0.00659237  1
  Hf  Hf34  1  0.30140349  0.10000685  0.12881797  1
  Hf  Hf35  1  0.80066425  0.79498384  0.74829383  1
  Hf  Hf36  1  0.49958981  0.09594985  0.37464286  1
  Hf  Hf37  1  0.70570395  0.50593605  0.37270391  1
  Hf  Hf38  1  0.69787312  0.90620162  0.34976454  1
  Hf  Hf39  1  0.70500391  0.29921236  0.37633023  1
  Zr  Zr40  1  0.69277918  0.30021122  0.63502398  1
  Zr  Zr41  1  0.00290880  0.19988555  0.74081225  1
  Zr  Zr42  1  0.82751107  0.61109660  0.25900226  1
  Zr  Zr43  1  0.61978101  0.40496658  0.02034485  1
  Zr  Zr44  1  0.00751615  -0.00566160  0.01402602  1
  Zr  Zr45  1  0.91206214  0.90043038  0.87433821  1
  Zr  Zr46  1  0.39262814  0.19535935  0.74790782  1
  Zr  Zr47  1  0.59510550  0.40477384  0.49961270  1
  Zr  Zr48  1  0.30420101  0.71060250  0.86750719  1
  Zr  Zr49  1  0.40362031  0.40089191  0.00244199  1
  Zr  Zr50  1  0.51151912  0.49895434  0.86154279  1
  Zr  Zr51  1  0.70376164  0.11457075  0.12661588  1
  Zr  Zr52  1  0.80708863  0.40047125  0.24984741  1
  Zr  Zr53  1  0.49956648  0.09331553  0.13051092  1
  Zr  Zr54  1  0.09877964  0.28929232  0.87666684  1
  Zr  Zr55  1  0.71066895  0.71128421  0.36387112  1
  Zr  Zr56  1  0.28834630  0.89800745  0.62601425  1
  Zr  Zr57  1  0.40265258  0.00698431  0.74569840  1
  Zr  Zr58  1  0.02065581  0.59315001  0.25734371  1
  Zr  Zr59  1  0.71249838  0.70190160  0.11663926  1
  Zr  Zr60  1  0.49354226  0.89354493  0.87681575  1
  Zr  Zr61  1  0.49396533  0.50651378  0.38306301  1
  Zr  Zr62  1  0.49906639  0.70556489  0.10278822  1
  Zr  Zr63  1  0.80508115  0.80468518  0.50365357  1
  Zr  Zr64  1  0.29738976  0.30379428  0.12773840  1
  Zr  Zr65  1  0.89840964  0.29942680  0.62170416  1
  Zr  Zr66  1  0.79801667  0.19125346  0.76134880  1
  Zr  Zr67  1  0.87688328  0.29435550  0.09575784  1
  Zr  Zr68  1  0.39568369  -0.00617604  0.49328746  1
  Zr  Zr69  1  0.08272151  0.31832522  0.38805579  1
  Zr  Zr70  1  0.09580459  0.09478554  0.37571563  1
  Zr  Zr71  1  0.10177489  0.08318907  0.86509744  1
  Zr  Zr72  1  0.88827846  0.50569407  0.09821657  1
  Zr  Zr73  1  0.49088619  0.50515846  0.12902862  1
  Zr  Zr74  1  0.19964017  0.20672386  0.26216655  1
  Zr  Zr75  1  0.39793855  0.78556732  0.50062638  1
  Zr  Zr76  1  0.48590050  0.89196458  0.12092871  1
  Zr  Zr77  1  0.92624476  0.48794244  0.39638078  1
  Zr  Zr78  1  0.39066693  0.40448066  0.26529517  1
  Zr  Zr79  1  0.19845619  0.39071546  0.73322765  1
  Ta  Ta80  1  0.00430544  0.40521649  0.74843055  1
  Ta  Ta81  1  0.10669988  0.70461331  0.39723570  1
  Ta  Ta82  1  0.90176043  0.90188055  0.63580347  1
  Ta  Ta83  1  -0.00656810  0.40417952  -0.02449437  1
  Ta  Ta84  1  0.19526117  -0.01051109  0.24917183  1
  Ta  Ta85  1  0.10657025  0.69087161  0.10797246  1
  Ta  Ta86  1  0.49875689  0.89481331  0.37419608  1
  Ta  Ta87  1  0.28544382  0.88450844  0.37819849  1
  Ta  Ta88  1  0.69645962  0.90144337  0.63440965  1
  Ta  Ta89  1  0.69831497  0.30695450  0.86884708  1
  Ta  Ta90  1  -0.00516942  -0.00656199  0.50587904  1
  Ta  Ta91  1  0.39758037  0.40019900  0.73344442  1
  Ta  Ta92  1  0.50979017  0.49979677  0.63105035  1
  Ta  Ta93  1  0.19649533  0.18985365  0.00450044  1
  Ta  Ta94  1  0.49667343  0.29569105  0.62995528  1
  Ta  Ta95  1  0.09352518  0.90148346  0.63667246  1
  Ta  Ta96  1  0.29573456  0.09414155  0.88647261  1
  Ta  Ta97  1  0.60562914  0.80571018  0.49287127  1
  Ta  Ta98  1  0.29038296  0.52158227  0.12595933  1
  Ta  Ta99  1  0.20325065  0.60214796  -0.01841126  1
  Ta  Ta100  1  0.57811207  0.79090150  0.25839219  1
  Ta  Ta101  1  0.50030966  0.10092571  0.60728659  1
  Ta  Ta102  1  0.60255833  0.39729097  0.24500504  1
  Ta  Ta103  1  0.59919321  0.20503500  0.25603021  1
  Ta  Ta104  1  0.30638403  0.70684159  0.11083281  1
  Ta  Ta105  1  0.28839096  0.90877460  0.85909002  1
  Ta  Ta106  1  0.69894148  0.09810031  0.37122037  1
  Ta  Ta107  1  0.10165393  0.50297205  0.86433137  1
  Ta  Ta108  1  0.79060756  -0.00051587  0.75628106  1
  Ta  Ta109  1  0.91104773  0.70087129  0.10118318  1
  Ta  Ta110  1  0.80680012  0.60645769  0.49684537  1
  Ta  Ta111  1  0.20120478  -0.00386150  0.01576149  1
  Ta  Ta112  1  0.10260490  0.09020674  0.62008523  1
  Ta  Ta113  1  0.49931254  0.29336037  0.13740570  1
  Ta  Ta114  1  0.40069069  0.59959274  0.73815444  1
  Ta  Ta115  1  0.90777004  0.70358600  0.61811111  1
  Ta  Ta116  1  0.09930791  0.10173114  0.13309841  1
  Ta  Ta117  1  0.39311932  0.59784391  -0.01248149  1
  Ta  Ta118  1  0.69875310  0.51473350  0.63240121  1
  Ta  Ta119  1  0.30453265  0.49919350  0.85928063  1
  Ti  Ti120  1  0.39902877  0.79646228  0.73737573  1
  Ti  Ti121  1  0.59861899  0.00126421  -0.00597367  1
  Ti  Ti122  1  0.61172673  0.59513018  0.00358536  1
  Ti  Ti123  1  0.00124356  0.79375139  0.74676156  1
  Ti  Ti124  1  0.09982259  0.89143921  0.13520808  1
  Ti  Ti125  1  -0.00882164  0.39861013  0.24007879  1
  Ti  Ti126  1  0.29222804  0.10155430  0.38647530  1
  Ti  Ti127  1  0.20877730  0.60419688  0.53074346  1
  Ti  Ti128  1  0.90234987  0.09535445  0.87046564  1
  Ti  Ti129  1  -0.00012892  0.60694786  0.75764383  1
  Ti  Ti130  1  0.20188609  0.19039762  0.74149680  1
  Ti  Ti131  1  0.00212491  0.00073477  0.24343633  1
  Ti  Ti132  1  0.09603109  0.71006581  0.88151211  1
  Ti  Ti133  1  0.29985709  0.29837458  0.39386326  1
  Ti  Ti134  1  0.10127715  0.90000772  0.85882066  1
  Ti  Ti135  1  0.60608991  0.60890742  0.49487940  1
  Ti  Ti136  1  0.49301865  0.09115550  0.88741862  1
  Ti  Ti137  1  0.11556994  0.51804119  0.40230176  1
  Ti  Ti138  1  0.89640991  0.29842517  0.87708657  1
  Ti  Ti139  1  0.38413035  -0.01292476  0.00221537  1
  Ti  Ti140  1  0.30276798  0.28706227  0.60996644  1
  Ti  Ti141  1  0.40079788  0.39810214  0.50556128  1
  Ti  Ti142  1  0.79835775  0.61094995  0.75862338  1
  Ti  Ti143  1  0.28812919  0.68747153  0.39300771  1
  Ti  Ti144  1  0.00663789  0.81001919  0.49692006  1
  Ti  Ti145  1  0.80216301  0.20693536  0.25590748  1
  Ti  Ti146  1  0.39988203  0.19799707  0.00180231  1
  Ti  Ti147  1  0.61177044  0.79368086  0.75451402  1
  Ti  Ti148  1  0.89290257  0.10557299  0.38334208  1
  Ti  Ti149  1  0.19400897  0.79525796  0.74203926  1
  Ti  Ti150  1  0.69889365  0.50817878  0.86375183  1
  Ti  Ti151  1  0.39876719  0.20451463  0.26653731  1
  Ti  Ti152  1  0.39429103  0.59158323  0.51589525  1
  Ti  Ti153  1  0.89400833  0.09309077  0.62619242  1
  Ti  Ti154  1  0.70533117  0.70033824  0.61996977  1
  Ti  Ti155  1  0.00477276  0.59618104  -0.01939018  1
  Ti  Ti156  1  -0.00810731  0.18831754  -0.00164557  1
  Ti  Ti157  1  0.09562101  0.70467702  0.61542001  1
  Ti  Ti158  1  0.18210100  -0.01850674  0.48624774  1
  Ti  Ti159  1  0.90077179  0.88842700  0.12391890  1
  Mo  Mo160  1  0.01016601  0.40525089  0.53045383  1
  Mo  Mo161  1  0.29565046  0.50664055  0.40051394  1
  Mo  Mo162  1  0.50296425  0.69836890  0.39692343  1
  Mo  Mo163  1  0.01147508  0.79911499  0.00693348  1
  Mo  Mo164  1  0.60137308  0.79833937  -0.00447057  1
  Mo  Mo165  1  0.39970621  0.20813409  0.49297021  1
  Mo  Mo166  1  0.39163076  0.80340557  -0.01617298  1
  Mo  Mo167  1  0.20289128  0.60155798  0.25481113  1
  Mo  Mo168  1  0.80490351  0.80523706  0.01391514  1
  Mo  Mo169  1  0.81218649  0.80209192  0.23208001  1
  Mo  Mo170  1  0.61137658  0.60673322  0.74394467  1
  Mo  Mo171  1  0.30271048  0.70036648  0.63250128  1
  Mo  Mo172  1  0.29571617  0.89577818  0.13548486  1
  Mo  Mo173  1  0.59490251  0.00077657  0.25542776  1
  Mo  Mo174  1  0.09646320  0.50773819  0.63450868  1
  Mo  Mo175  1  0.09817624  0.89689638  0.36534433  1
  Mo  Mo176  1  0.90384344  0.50615350  0.86576780  1
  Mo  Mo177  1  0.70575778  0.50187154  0.13361629  1
  Mo  Mo178  1  0.91317575  0.70136913  0.39559311  1
  Mo  Mo179  1  0.80060326  0.19436852  0.49234846  1
  Mo  Mo180  1  0.49553191  0.30156687  0.36123673  1
  Mo  Mo181  1  0.00830848  0.60966967  0.50576151  1
  Mo  Mo182  1  0.79315344  0.59441583  -0.01601342  1
  Mo  Mo183  1  0.30907349  0.49897857  0.62727637  1
  Mo  Mo184  1  0.19762053  0.19902132  0.49539502  1
  Mo  Mo185  1  0.39473013  0.79352550  0.27159742  1
  Mo  Mo186  1  0.60507354  -0.00130756  0.76455858  1
  Mo  Mo187  1  0.19207102  0.79802595  0.50855159  1
  Mo  Mo188  1  0.69842510  0.30063648  0.13264760  1
  Mo  Mo189  1  0.89695726  0.29352204  0.39135921  1
  Mo  Mo190  1  0.69926264  0.69641482  0.88960082  1
  Mo  Mo191  1  0.19826047  0.00332375  0.74598840  1
  Mo  Mo192  1  0.69793183  0.09390894  0.88527504  1
  Mo  Mo193  1  0.90870524  0.10629215  0.12167131  1
  Mo  Mo194  1  0.10542372  0.29244750  0.62219248  1
  Mo  Mo195  1  0.60236748  0.40038086  0.74043986  1
  Mo  Mo196  1  -0.00646672  -0.00064020  0.73472902  1
  Mo  Mo197  1  0.60200467  -0.00538327  0.48568467  1
  Mo  Mo198  1  0.79710407  0.40336933  -0.02623295  1
  Mo  Mo199  1  0.79623032  0.20064518  -0.02371290  1
