# generated using pymatgen
data_HfZrTaTiMo
_symmetry_space_group_name_H-M   'P 1'
_cell_length_a   15.83703185
_cell_length_b   15.83442858
_cell_length_c   15.38744273
_cell_angle_alpha   90.00217910
_cell_angle_beta   89.98325456
_cell_angle_gamma   90.10065893
_symmetry_Int_Tables_number   1
_chemical_formula_structural   HfZrTaTiMo
_chemical_formula_sum   'Hf40 Zr40 Ta40 Ti40 Mo40'
_cell_volume   3858.70827210
_cell_formula_units_Z   40
loop_
 _symmetry_equiv_pos_site_id
 _symmetry_equiv_pos_as_xyz
  1  'x, y, z'
loop_
 _atom_site_type_symbol
 _atom_site_label
 _atom_site_symmetry_multiplicity
 _atom_site_fract_x
 _atom_site_fract_y
 _atom_site_fract_z
 _atom_site_occupancy
  Hf  Hf0  1  0.89728760  0.69855594  0.11956466  1
  Hf  Hf1  1  0.80928678  0.19507698  0.25930460  1
  Hf  Hf2  1  0.78737378  0.80802703  0.23452406  1
  Hf  Hf3  1  0.59587382  0.60983949  0.23857012  1
  Hf  Hf4  1  0.80802849  0.19900682  0.75542392  1
  Hf  Hf5  1  0.60358413  0.40396894  -0.01829950  1
  Hf  Hf6  1  0.60055727  0.40245319  0.50048681  1
  Hf  Hf7  1  0.00537474  0.39009245  0.25027244  1
  Hf  Hf8  1  0.40278023  0.00391358  0.26761333  1
  Hf  Hf9  1  0.08304856  0.08950704  0.13155076  1
  Hf  Hf10  1  0.19357465  0.60322173  0.75858358  1
  Hf  Hf11  1  0.00804179  0.59555295  0.00356169  1
  Hf  Hf12  1  0.70119012  0.30194056  0.63694093  1
  Hf  Hf13  1  0.50275981  0.90543588  0.86136220  1
  Hf  Hf14  1  0.20236266  0.80293953  0.02755179  1
  Hf  Hf15  1  0.81296006  0.00314921  -0.00551578  1
  Hf  Hf16  1  0.79602651  0.01243351  0.48554928  1
  Hf  Hf17  1  0.59076572  0.58832092  0.75859345  1
  Hf  Hf18  1  0.81298327  0.41487692  0.50131104  1
  Hf  Hf19  1  0.20484898  0.00133886  0.48373650  1
  Hf  Hf20  1  0.20370249  0.59086000  0.00577559  1
  Hf  Hf21  1  0.60203909  0.19654486  0.49558876  1
  Hf  Hf22  1  0.10796491  0.89867742  0.88021972  1
  Hf  Hf23  1  0.70431756  0.50527018  0.63209647  1
  Hf  Hf24  1  0.30482948  0.10312122  0.13120195  1
  Hf  Hf25  1  0.29134885  0.29599793  0.37933493  1
  Hf  Hf26  1  0.49758820  0.10998354  0.12564532  1
  Hf  Hf27  1  0.50605413  0.88197448  0.38618923  1
  Hf  Hf28  1  0.09844113  0.69588964  0.14487041  1
  Hf  Hf29  1  0.60193475  0.81649733  0.01138693  1
  Hf  Hf30  1  0.19989062  0.00235412  0.73993270  1
  Hf  Hf31  1  0.00297837  0.20043189  0.49955216  1
  Hf  Hf32  1  -0.00815721  0.00563589  0.27198619  1
  Hf  Hf33  1  0.20469948  0.40239832  0.75154858  1
  Hf  Hf34  1  0.89867148  0.09270217  0.62681511  1
  Hf  Hf35  1  0.79357427  0.59951123  0.24535816  1
  Hf  Hf36  1  -0.00008796  0.40952363  0.74364480  1
  Hf  Hf37  1  0.79079197  0.19796616  -0.01029719  1
  Hf  Hf38  1  0.19963386  0.18881733  -0.00908178  1
  Hf  Hf39  1  0.89879734  0.31125000  0.88664650  1
  Zr  Zr40  1  0.10867347  0.88818447  0.60968116  1
  Zr  Zr41  1  0.59700906  0.41016371  0.25510225  1
  Zr  Zr42  1  0.40913303  0.41648368  0.74750295  1
  Zr  Zr43  1  0.80215733  0.00021982  0.25833333  1
  Zr  Zr44  1  0.49170021  0.70285525  0.10955848  1
  Zr  Zr45  1  0.88423499  0.70026763  0.37837691  1
  Zr  Zr46  1  0.80572939  0.40574934  0.25328562  1
  Zr  Zr47  1  0.48873204  0.71135023  0.88404790  1
  Zr  Zr48  1  0.28437756  0.70378183  0.60695182  1
  Zr  Zr49  1  0.38956082  -0.00151461  0.74003516  1
  Zr  Zr50  1  0.69053260  0.08695777  0.85948642  1
  Zr  Zr51  1  0.29873419  0.49685365  0.37878952  1
  Zr  Zr52  1  0.81874007  0.79494915  0.75478996  1
  Zr  Zr53  1  0.30832262  0.89417426  0.88502602  1
  Zr  Zr54  1  0.39617627  0.61255730  0.73831114  1
  Zr  Zr55  1  0.10463301  0.70557835  0.88525238  1
  Zr  Zr56  1  0.31272373  0.69673550  0.37280507  1
  Zr  Zr57  1  0.01001592  0.78636460  0.74314775  1
  Zr  Zr58  1  0.29933128  0.30597971  0.11785690  1
  Zr  Zr59  1  -0.00670944  -0.00852638  0.76305848  1
  Zr  Zr60  1  -0.01051014  0.16762888  -0.02037491  1
  Zr  Zr61  1  0.10030902  0.31321816  0.88649327  1
  Zr  Zr62  1  0.70064271  0.89594183  0.86016477  1
  Zr  Zr63  1  0.69243346  0.30164875  0.12756760  1
  Zr  Zr64  1  0.69675352  0.10516005  0.12844133  1
  Zr  Zr65  1  0.69993481  0.90591216  0.63181730  1
  Zr  Zr66  1  0.49901007  0.52613787  0.39086800  1
  Zr  Zr67  1  0.00982323  0.19567794  0.75355992  1
  Zr  Zr68  1  0.09414084  0.30093590  0.10432584  1
  Zr  Zr69  1  0.49442114  0.10101107  0.62141070  1
  Zr  Zr70  1  0.70539308  0.70080876  0.62234395  1
  Zr  Zr71  1  0.60531957  -0.00106881  0.26157929  1
  Zr  Zr72  1  0.40622951  0.39479005  0.25387017  1
  Zr  Zr73  1  0.09866922  0.51049560  0.62130875  1
  Zr  Zr74  1  0.38838464  0.19714111  0.75840916  1
  Zr  Zr75  1  0.67735344  0.70339151  0.39264221  1
  Zr  Zr76  1  0.69948582  0.30259526  0.37202354  1
  Zr  Zr77  1  0.90136337  0.88868221  0.60561970  1
  Zr  Zr78  1  0.30003156  0.29333733  0.61829985  1
  Zr  Zr79  1  0.19246041  0.20800786  0.24927497  1
  Ta  Ta80  1  0.90300601  0.70596290  0.89539004  1
  Ta  Ta81  1  0.00316822  0.00000858  0.48416775  1
  Ta  Ta82  1  0.49572699  0.09334321  0.87818099  1
  Ta  Ta83  1  0.49871007  0.50004872  0.10830829  1
  Ta  Ta84  1  0.89916877  0.29488650  0.10954113  1
  Ta  Ta85  1  0.79914257  0.20308136  0.50073107  1
  Ta  Ta86  1  0.30458235  0.89615794  0.60343541  1
  Ta  Ta87  1  0.79320795  0.59950130  -0.01145357  1
  Ta  Ta88  1  0.49738606  0.29802380  0.11340548  1
  Ta  Ta89  1  -0.01043219  0.58679817  0.48218722  1
  Ta  Ta90  1  0.10507267  0.29540959  0.62042579  1
  Ta  Ta91  1  0.29991329  0.30467855  0.88085807  1
  Ta  Ta92  1  0.90272440  0.30590601  0.62144755  1
  Ta  Ta93  1  0.49690468  0.30326711  0.86901467  1
  Ta  Ta94  1  0.18931663  0.59924037  0.48065729  1
  Ta  Ta95  1  0.59983090  0.00286103  0.49684128  1
  Ta  Ta96  1  0.89856250  0.49226959  0.11193667  1
  Ta  Ta97  1  0.10701394  0.10823086  0.37515456  1
  Ta  Ta98  1  0.19445801  -0.00670342  0.02153989  1
  Ta  Ta99  1  0.50331994  0.30318048  0.63111816  1
  Ta  Ta100  1  0.40049011  0.40490986  -0.00783607  1
  Ta  Ta101  1  0.49691384  0.89508872  0.61955821  1
  Ta  Ta102  1  0.91118254  0.91409699  0.12080127  1
  Ta  Ta103  1  -0.00723959  0.80512297  0.25043613  1
  Ta  Ta104  1  0.00283933  0.40404851  0.50155090  1
  Ta  Ta105  1  0.30620026  0.70596144  0.89057571  1
  Ta  Ta106  1  0.60112094  0.59862539  -0.01557110  1
  Ta  Ta107  1  0.19856021  0.19166600  0.76133580  1
  Ta  Ta108  1  0.10211619  0.89236076  0.36888767  1
  Ta  Ta109  1  0.59423768  0.20205454  -0.01770288  1
  Ta  Ta110  1  0.70047406  0.50294932  0.10926396  1
  Ta  Ta111  1  0.09705592  0.69645102  0.36262531  1
  Ta  Ta112  1  0.40484052  0.39876576  0.50630158  1
  Ta  Ta113  1  0.59197449  0.20075008  0.75598012  1
  Ta  Ta114  1  0.20114748  0.59044674  0.25137066  1
  Ta  Ta115  1  0.70137838  0.88795121  0.39415421  1
  Ta  Ta116  1  0.90321692  0.50014179  0.88774767  1
  Ta  Ta117  1  0.69851991  0.30923309  0.85989980  1
  Ta  Ta118  1  0.20195789  -0.00403047  0.25529267  1
  Ta  Ta119  1  0.90624941  0.30345913  0.38732469  1
  Ti  Ti120  1  0.29913571  0.08537171  0.88794845  1
  Ti  Ti121  1  0.10795806  0.48872851  0.13140856  1
  Ti  Ti122  1  0.31195915  0.89889950  0.13671551  1
  Ti  Ti123  1  0.10567238  0.10060397  0.61349346  1
  Ti  Ti124  1  0.30463469  0.50612987  0.88101286  1
  Ti  Ti125  1  0.80683440  0.41174554  0.75094178  1
  Ti  Ti126  1  0.30420339  0.69431238  0.12964800  1
  Ti  Ti127  1  0.69875670  0.09724018  0.63913704  1
  Ti  Ti128  1  0.60103042  0.00125284  0.01161309  1
  Ti  Ti129  1  0.69823042  0.70416099  0.87233785  1
  Ti  Ti130  1  0.19296184  0.39762570  0.50197950  1
  Ti  Ti131  1  0.30127432  0.49422799  0.12638177  1
  Ti  Ti132  1  0.40190076  0.19989734  -0.01247322  1
  Ti  Ti133  1  0.57591748  0.20246099  0.27368145  1
  Ti  Ti134  1  0.60006034  0.80755138  0.23268908  1
  Ti  Ti135  1  0.70408946  0.51652533  0.38982086  1
  Ti  Ti136  1  0.00500889  0.79040183  0.48443561  1
  Ti  Ti137  1  0.09559419  0.69609531  0.60372383  1
  Ti  Ti138  1  -0.00757323  0.60183778  0.76005498  1
  Ti  Ti139  1  0.30295087  0.88871709  0.38032195  1
  Ti  Ti140  1  0.90090987  0.68182196  0.60855150  1
  Ti  Ti141  1  0.41139354  0.79703293  0.24673594  1
  Ti  Ti142  1  0.00599893  0.81115560  0.01777001  1
  Ti  Ti143  1  0.40141203  0.00315841  0.48717740  1
  Ti  Ti144  1  -0.00599705  0.20174274  0.26047034  1
  Ti  Ti145  1  0.40763178  -0.00952049  0.01247037  1
  Ti  Ti146  1  0.40814205  0.78637908  0.50518392  1
  Ti  Ti147  1  0.89551582  0.89102934  0.38463629  1
  Ti  Ti148  1  -0.00662331  0.58942976  0.25325059  1
  Ti  Ti149  1  0.20527993  0.80148034  0.25112291  1
  Ti  Ti150  1  0.69877539  0.69817816  0.10842751  1
  Ti  Ti151  1  0.58345828  0.78929882  0.73676818  1
  Ti  Ti152  1  0.80059618  0.80750537  0.00281030  1
  Ti  Ti153  1  0.10013901  0.49100231  0.36832108  1
  Ti  Ti154  1  0.80822154  0.59992473  0.76855630  1
  Ti  Ti155  1  0.29842278  0.50487213  0.60947965  1
  Ti  Ti156  1  0.40356804  0.59725611  0.23983402  1
  Ti  Ti157  1  0.40343107  0.19727977  0.48156458  1
  Ti  Ti158  1  0.21705455  0.80032406  0.74880517  1
  Ti  Ti159  1  0.29378264  0.10583972  0.60634712  1
  Mo  Mo160  1  0.50092742  0.50012133  0.61424749  1
  Mo  Mo161  1  0.20483835  0.40871131  -0.01080423  1
  Mo  Mo162  1  0.11341648  0.08621941  0.87880570  1
  Mo  Mo163  1  0.90432042  0.49914426  0.36058832  1
  Mo  Mo164  1  0.10117479  0.89869280  0.15086428  1
  Mo  Mo165  1  0.39484938  0.80899814  0.01839851  1
  Mo  Mo166  1  0.70840940  0.50280905  0.86751744  1
  Mo  Mo167  1  0.69590244  0.09996844  0.37249120  1
  Mo  Mo168  1  0.39715473  0.59765470  0.51565002  1
  Mo  Mo169  1  0.49875658  0.09759706  0.38641899  1
  Mo  Mo170  1  0.00527197  -0.01223324  -0.00584312  1
  Mo  Mo171  1  0.19715906  0.79707105  0.47471820  1
  Mo  Mo172  1  0.80396756  -0.00387088  0.75529191  1
  Mo  Mo173  1  0.39428003  0.59741436  0.00650135  1
  Mo  Mo174  1  0.59328699  0.00208346  0.72940657  1
  Mo  Mo175  1  0.80183225  0.79983428  0.50658718  1
  Mo  Mo176  1  0.79832091  0.40118619  0.00087205  1
  Mo  Mo177  1  0.49789190  0.90834685  0.13478401  1
  Mo  Mo178  1  0.10031781  0.50386104  0.86909254  1
  Mo  Mo179  1  0.49402066  0.50561055  0.89012231  1
  Mo  Mo180  1  0.70541895  0.90202018  0.11655649  1
  Mo  Mo181  1  0.89907222  0.51022377  0.63740822  1
  Mo  Mo182  1  0.90250104  0.10830943  0.39009154  1
  Mo  Mo183  1  0.39591579  0.80167181  0.72961273  1
  Mo  Mo184  1  0.90710983  0.88919402  0.89610043  1
  Mo  Mo185  1  0.80226618  0.59725530  0.49625273  1
  Mo  Mo186  1  0.49331458  0.30299519  0.38925978  1
  Mo  Mo187  1  0.89567170  0.09060735  0.85644958  1
  Mo  Mo188  1  0.59940667  0.40006753  0.75691275  1
  Mo  Mo189  1  0.49686345  0.70364438  0.37539746  1
  Mo  Mo190  1  0.30066785  0.10044734  0.36952803  1
  Mo  Mo191  1  0.49978800  0.69773570  0.61543298  1
  Mo  Mo192  1  0.59662419  0.60007139  0.51950623  1
  Mo  Mo193  1  0.09941979  0.30609961  0.38917655  1
  Mo  Mo194  1  0.40490335  0.20162229  0.26319927  1
  Mo  Mo195  1  0.19626383  0.40629044  0.25060472  1
  Mo  Mo196  1  0.59609749  0.80109022  0.51788260  1
  Mo  Mo197  1  0.00134240  0.40809498  0.00854318  1
  Mo  Mo198  1  0.90249706  0.10576673  0.12970727  1
  Mo  Mo199  1  0.19984372  0.19671195  0.49848206  1
