# generated using pymatgen
data_HfZrTaTiMo
_symmetry_space_group_name_H-M   'P 1'
_cell_length_a   15.83119074
_cell_length_b   15.85243454
_cell_length_c   15.40574226
_cell_angle_alpha   89.98414635
_cell_angle_beta   89.96743289
_cell_angle_gamma   90.08220411
_symmetry_Int_Tables_number   1
_chemical_formula_structural   HfZrTaTiMo
_chemical_formula_sum   'Hf40 Zr40 Ta40 Ti40 Mo40'
_cell_volume   3866.26522896
_cell_formula_units_Z   40
loop_
 _symmetry_equiv_pos_site_id
 _symmetry_equiv_pos_as_xyz
  1  'x, y, z'
loop_
 _atom_site_type_symbol
 _atom_site_label
 _atom_site_symmetry_multiplicity
 _atom_site_fract_x
 _atom_site_fract_y
 _atom_site_fract_z
 _atom_site_occupancy
  Hf  Hf0  1  0.10023697  0.69922570  0.62786491  1
  Hf  Hf1  1  0.88842687  0.68048755  0.88378726  1
  Hf  Hf2  1  0.19765057  0.00766112  -0.01098934  1
  Hf  Hf3  1  0.09597898  0.90944752  0.12145983  1
  Hf  Hf4  1  0.21145021  0.61101515  0.49765381  1
  Hf  Hf5  1  0.59359301  0.80327965  0.75626887  1
  Hf  Hf6  1  0.48630516  0.69474597  0.36945044  1
  Hf  Hf7  1  0.42083225  0.19968734  0.22543322  1
  Hf  Hf8  1  0.41055134  0.18800994  0.76711933  1
  Hf  Hf9  1  0.40591464  0.59805685  0.73605720  1
  Hf  Hf10  1  0.59671017  0.39960235  0.48729600  1
  Hf  Hf11  1  0.10227122  0.29747209  0.13681979  1
  Hf  Hf12  1  0.08212990  0.70636055  0.12759049  1
  Hf  Hf13  1  0.80211389  0.40013760  0.48188206  1
  Hf  Hf14  1  0.70684250  0.89471256  0.12749586  1
  Hf  Hf15  1  0.59331136  0.38719364  0.25680462  1
  Hf  Hf16  1  0.69397442  0.30646015  0.62674105  1
  Hf  Hf17  1  0.00650377  0.81018695  0.50061732  1
  Hf  Hf18  1  0.60980067  0.79569335  0.25779186  1
  Hf  Hf19  1  0.48966768  0.69052257  0.87872637  1
  Hf  Hf20  1  0.70012847  0.69907354  0.87589419  1
  Hf  Hf21  1  0.38353962  0.00098724  0.22974707  1
  Hf  Hf22  1  0.89824718  0.10807872  0.86690254  1
  Hf  Hf23  1  0.59591909  0.58878516  -0.00593858  1
  Hf  Hf24  1  0.00142959  0.19415679  0.51068581  1
  Hf  Hf25  1  0.50686759  0.30427259  0.88420271  1
  Hf  Hf26  1  0.59291423  -0.00016875  0.25168093  1
  Hf  Hf27  1  0.38812044  0.79068397  0.02100647  1
  Hf  Hf28  1  0.80950199  0.00315989  0.50066177  1
  Hf  Hf29  1  0.50216883  0.10983919  0.37944993  1
  Hf  Hf30  1  0.81472348  0.41736825  0.75438606  1
  Hf  Hf31  1  0.20130395  0.19799752  0.49211781  1
  Hf  Hf32  1  0.21983007  0.18468082  0.23430853  1
  Hf  Hf33  1  0.20474068  0.40793892  0.00582998  1
  Hf  Hf34  1  0.50775619  0.69227955  0.13193479  1
  Hf  Hf35  1  0.89803377  0.89753940  0.63225224  1
  Hf  Hf36  1  0.80710726  0.60879605  0.25449327  1
  Hf  Hf37  1  0.00247828  0.00591014  0.50105118  1
  Hf  Hf38  1  0.68822379  0.89099129  0.61106929  1
  Hf  Hf39  1  0.90513208  0.31021727  0.62141061  1
  Zr  Zr40  1  0.37205153  -0.00938011  0.77197089  1
  Zr  Zr41  1  0.39929315  0.59640054  0.51277042  1
  Zr  Zr42  1  0.69511013  0.10487027  0.63104301  1
  Zr  Zr43  1  0.09806319  0.69471665  0.87779710  1
  Zr  Zr44  1  0.20581224  0.80697811  0.23418677  1
  Zr  Zr45  1  0.80100212  0.40544801  0.25662678  1
  Zr  Zr46  1  0.40045237  0.19720752  0.00386706  1
  Zr  Zr47  1  0.70497634  0.50561123  0.62206302  1
  Zr  Zr48  1  0.20199004  0.60136649  0.01272426  1
  Zr  Zr49  1  0.19605932  0.59273257  0.74917971  1
  Zr  Zr50  1  0.57945974  0.00839897  0.75925891  1
  Zr  Zr51  1  0.69541656  0.70031893  0.61297169  1
  Zr  Zr52  1  0.78605829  -0.00920598  0.75904273  1
  Zr  Zr53  1  0.60032027  0.00386349  0.49428825  1
  Zr  Zr54  1  0.80241139  0.20482387  0.00662633  1
  Zr  Zr55  1  0.30083001  0.08335920  0.61961712  1
  Zr  Zr56  1  0.47348016  0.90135185  0.61436476  1
  Zr  Zr57  1  0.21098632  0.19459759  0.76872794  1
  Zr  Zr58  1  0.19279408  -0.00441849  0.48780752  1
  Zr  Zr59  1  -0.00444792  -0.01459711  0.25331999  1
  Zr  Zr60  1  0.31079386  0.29735350  0.63064393  1
  Zr  Zr61  1  0.12456224  0.89759149  0.64340115  1
  Zr  Zr62  1  0.48876041  0.89132769  0.88840711  1
  Zr  Zr63  1  0.80343300  0.40676940  0.00420746  1
  Zr  Zr64  1  -0.00299574  0.79609726  0.75851564  1
  Zr  Zr65  1  0.80134771  -0.00337166  -0.01056430  1
  Zr  Zr66  1  0.11582349  0.30918345  0.62823127  1
  Zr  Zr67  1  0.29284172  0.48057101  0.63063316  1
  Zr  Zr68  1  -0.00136289  0.42259256  0.24869614  1
  Zr  Zr69  1  -0.01476298  0.58279684  0.74938978  1
  Zr  Zr70  1  0.91000370  0.30137087  0.87015737  1
  Zr  Zr71  1  0.90306456  0.29223262  0.36622076  1
  Zr  Zr72  1  0.89783138  0.10646704  0.35766749  1
  Zr  Zr73  1  0.10288030  0.70415603  0.36816286  1
  Zr  Zr74  1  0.49072372  0.89822475  0.38122963  1
  Zr  Zr75  1  0.69449879  0.50277713  0.13282478  1
  Zr  Zr76  1  0.70726628  0.10032941  0.14226691  1
  Zr  Zr77  1  0.60204766  0.00546270  -0.00622337  1
  Zr  Zr78  1  0.00221285  0.40011317  0.01393492  1
  Zr  Zr79  1  0.10469065  0.29425572  0.36127149  1
  Ta  Ta80  1  0.00782507  0.40645153  0.48418870  1
  Ta  Ta81  1  0.60074191  0.20377751  0.01246609  1
  Ta  Ta82  1  0.69338442  0.11850629  0.86835098  1
  Ta  Ta83  1  0.71013146  0.88717801  0.38673494  1
  Ta  Ta84  1  0.90515206  0.50511306  0.60240212  1
  Ta  Ta85  1  0.59539680  0.59992266  0.48731454  1
  Ta  Ta86  1  0.89229418  0.69424905  0.61386204  1
  Ta  Ta87  1  0.09875054  0.49531771  0.61140296  1
  Ta  Ta88  1  0.30203478  0.70501829  0.86615976  1
  Ta  Ta89  1  0.71139133  0.50972658  0.87089412  1
  Ta  Ta90  1  0.49745937  0.49554554  0.13494104  1
  Ta  Ta91  1  0.30590288  0.30739626  0.12052453  1
  Ta  Ta92  1  0.19686829  0.80394625  -0.00122693  1
  Ta  Ta93  1  -0.00514366  0.80570839  -0.01081289  1
  Ta  Ta94  1  0.30612634  0.50789256  0.36174473  1
  Ta  Ta95  1  0.70238702  0.10511977  0.36799902  1
  Ta  Ta96  1  0.70851115  0.70061165  0.11676941  1
  Ta  Ta97  1  0.20749722  0.40640034  0.24708003  1
  Ta  Ta98  1  0.39194330  0.59111692  0.01400396  1
  Ta  Ta99  1  0.79855159  0.19673162  0.50892699  1
  Ta  Ta100  1  -0.00252558  -0.00020218  -0.01094662  1
  Ta  Ta101  1  0.89628258  0.71197021  0.38922238  1
  Ta  Ta102  1  0.00714379  0.19007027  0.01322958  1
  Ta  Ta103  1  0.60426202  0.79901807  0.00085797  1
  Ta  Ta104  1  0.49448367  0.11022338  0.60919227  1
  Ta  Ta105  1  0.10210104  0.09924605  0.35142788  1
  Ta  Ta106  1  0.20038736  0.59799325  0.23904953  1
  Ta  Ta107  1  0.50275319  0.89881652  0.12135791  1
  Ta  Ta108  1  0.59701041  0.59471802  0.75138061  1
  Ta  Ta109  1  0.39977291  0.39608558  0.24784767  1
  Ta  Ta110  1  0.29769497  0.89438953  0.37890494  1
  Ta  Ta111  1  0.49791636  0.29379832  0.38130721  1
  Ta  Ta112  1  0.00077815  0.00029005  0.75962729  1
  Ta  Ta113  1  0.29465752  0.72790955  0.64238303  1
  Ta  Ta114  1  0.10273946  0.09599171  0.64368609  1
  Ta  Ta115  1  0.59877762  0.40755064  0.76092614  1
  Ta  Ta116  1  0.90587848  0.09268194  0.13215022  1
  Ta  Ta117  1  0.19816504  0.20132916  0.00262342  1
  Ta  Ta118  1  0.39598161  0.80056839  0.23737918  1
  Ta  Ta119  1  0.31033315  0.50256370  0.87159272  1
  Ti  Ti120  1  0.50033436  0.30118851  0.61949603  1
  Ti  Ti121  1  0.30850120  0.29722584  0.36405511  1
  Ti  Ti122  1  0.00139517  0.20144356  0.73875838  1
  Ti  Ti123  1  0.70431430  0.30354672  0.86800268  1
  Ti  Ti124  1  0.50038762  0.70848532  0.61852266  1
  Ti  Ti125  1  0.50623211  0.49067910  0.62171363  1
  Ti  Ti126  1  0.80092797  -0.01432473  0.26123254  1
  Ti  Ti127  1  0.60464766  0.40105545  -0.00447067  1
  Ti  Ti128  1  0.10171309  0.29954010  0.87734365  1
  Ti  Ti129  1  0.40669838  0.40867781  0.00547089  1
  Ti  Ti130  1  0.20648445  0.40157610  0.47914851  1
  Ti  Ti131  1  0.30578880  0.09300275  0.37591586  1
  Ti  Ti132  1  0.69707659  0.50622333  0.37189629  1
  Ti  Ti133  1  0.00305944  0.60121934  0.49214161  1
  Ti  Ti134  1  0.39725758  0.20327105  0.49747585  1
  Ti  Ti135  1  0.69560179  0.27814269  0.37063576  1
  Ti  Ti136  1  0.10674936  0.50740663  0.37347364  1
  Ti  Ti137  1  0.39582976  0.00310118  0.00535529  1
  Ti  Ti138  1  0.09738833  0.49493947  0.87873963  1
  Ti  Ti139  1  0.49262351  0.49907172  0.36390879  1
  Ti  Ti140  1  0.81261998  0.79709156  0.25452434  1
  Ti  Ti141  1  0.37931730  0.78876910  0.49400191  1
  Ti  Ti142  1  0.79491931  0.79126774  0.74920213  1
  Ti  Ti143  1  0.30136944  0.30933374  0.88125037  1
  Ti  Ti144  1  0.39740631  0.39921681  0.48760863  1
  Ti  Ti145  1  0.40922916  0.39997522  0.75797948  1
  Ti  Ti146  1  -0.00755479  0.59231750  0.01260133  1
  Ti  Ti147  1  0.89327763  0.89313432  0.87037810  1
  Ti  Ti148  1  0.59423906  0.20687804  0.75101290  1
  Ti  Ti149  1  0.90233177  0.88869366  0.12126899  1
  Ti  Ti150  1  -0.01018678  0.60872214  0.25135549  1
  Ti  Ti151  1  0.60408462  0.60152802  0.26150704  1
  Ti  Ti152  1  0.01251268  0.40348921  0.74950831  1
  Ti  Ti153  1  0.09453940  0.10500881  0.86821163  1
  Ti  Ti154  1  0.79759347  0.60226372  0.48328569  1
  Ti  Ti155  1  0.80122350  0.79900396  -0.00305470  1
  Ti  Ti156  1  0.89907518  0.29116013  0.14119112  1
  Ti  Ti157  1  0.69848611  0.29899779  0.13432283  1
  Ti  Ti158  1  0.80276683  0.20417711  0.73883749  1
  Ti  Ti159  1  0.10244110  0.89660704  0.36333875  1
  Mo  Mo160  1  0.79844619  0.60182942  0.73943707  1
  Mo  Mo161  1  0.29825589  0.69672310  0.13446443  1
  Mo  Mo162  1  0.19215593  0.00018388  0.77397690  1
  Mo  Mo163  1  0.60177755  0.20615244  0.50576992  1
  Mo  Mo164  1  0.20227400  -0.00158144  0.25730151  1
  Mo  Mo165  1  0.20832907  0.81168525  0.77714290  1
  Mo  Mo166  1  0.80249459  0.80002745  0.50299557  1
  Mo  Mo167  1  0.09714764  0.09658281  0.12868347  1
  Mo  Mo168  1  0.39269203  0.00590105  0.48935558  1
  Mo  Mo169  1  0.90436783  0.50109648  0.89052793  1
  Mo  Mo170  1  0.29736997  0.89622411  0.61138120  1
  Mo  Mo171  1  0.89868550  0.89585686  0.38115967  1
  Mo  Mo172  1  0.90637273  0.51496435  0.38919537  1
  Mo  Mo173  1  0.50888597  0.31135598  0.10784802  1
  Mo  Mo174  1  0.39901856  0.79713166  0.75082623  1
  Mo  Mo175  1  0.30351812  0.49590481  0.13528291  1
  Mo  Mo176  1  0.39741295  0.59626991  0.23808081  1
  Mo  Mo177  1  0.29582544  0.89322985  0.89624781  1
  Mo  Mo178  1  0.49934496  0.49653462  0.87520395  1
  Mo  Mo179  1  0.29639003  0.10101201  0.10800837  1
  Mo  Mo180  1  0.69789345  0.69964785  0.38610591  1
  Mo  Mo181  1  0.50495957  0.09489067  0.11486486  1
  Mo  Mo182  1  0.30286034  0.69980565  0.35493604  1
  Mo  Mo183  1  0.70205696  0.89213503  0.87805372  1
  Mo  Mo184  1  0.19732974  0.40071740  0.77775468  1
  Mo  Mo185  1  0.09473279  0.90241089  0.87765229  1
  Mo  Mo186  1  0.89956256  0.51492280  0.12050788  1
  Mo  Mo187  1  0.29814319  0.90338603  0.11057872  1
  Mo  Mo188  1  -0.01270303  0.79682538  0.25720106  1
  Mo  Mo189  1  0.90464528  0.10399968  0.64342837  1
  Mo  Mo190  1  0.79987211  0.19979437  0.24146338  1
  Mo  Mo191  1  0.59181557  0.79137734  0.48666978  1
  Mo  Mo192  1  0.00467814  0.19419975  0.23028591  1
  Mo  Mo193  1  0.79936053  0.60053520  0.01556216  1
  Mo  Mo194  1  0.50445709  0.10365519  0.89029647  1
  Mo  Mo195  1  0.60249675  0.20168639  0.23696985  1
  Mo  Mo196  1  0.89531698  0.70838263  0.11435147  1
  Mo  Mo197  1  0.20255673  0.79684237  0.48933790  1
  Mo  Mo198  1  0.09769391  0.50620574  0.13810123  1
  Mo  Mo199  1  0.29879164  0.10435459  0.89256911  1
