# generated using pymatgen
data_HfZrTaTiMo
_symmetry_space_group_name_H-M   'P 1'
_cell_length_a   15.83325312
_cell_length_b   15.83458412
_cell_length_c   15.36533141
_cell_angle_alpha   90.07592007
_cell_angle_beta   89.96107049
_cell_angle_gamma   90.17667459
_symmetry_Int_Tables_number   1
_chemical_formula_structural   HfZrTaTiMo
_chemical_formula_sum   'Hf40 Zr40 Ta40 Ti40 Mo40'
_cell_volume   3852.26542874
_cell_formula_units_Z   40
loop_
 _symmetry_equiv_pos_site_id
 _symmetry_equiv_pos_as_xyz
  1  'x, y, z'
loop_
 _atom_site_type_symbol
 _atom_site_label
 _atom_site_symmetry_multiplicity
 _atom_site_fract_x
 _atom_site_fract_y
 _atom_site_fract_z
 _atom_site_occupancy
  Hf  Hf0  1  0.38821102  0.80201749  0.26711978  1
  Hf  Hf1  1  -0.00806185  0.77880855  0.25321840  1
  Hf  Hf2  1  0.19975104  0.00220642  -0.00776270  1
  Hf  Hf3  1  0.10853713  0.10294925  0.12914079  1
  Hf  Hf4  1  0.71229358  0.70133918  0.13390746  1
  Hf  Hf5  1  0.50155698  0.29949688  0.36887327  1
  Hf  Hf6  1  0.90317545  0.10567411  0.61980442  1
  Hf  Hf7  1  0.40130319  0.20549302  -0.01822373  1
  Hf  Hf8  1  0.38104662  -0.00520486  0.73900210  1
  Hf  Hf9  1  0.71146178  0.09798550  0.61310290  1
  Hf  Hf10  1  0.89528931  0.10301371  0.86388570  1
  Hf  Hf11  1  0.50199559  0.91045761  0.38165681  1
  Hf  Hf12  1  0.59787115  0.20039563  0.49881493  1
  Hf  Hf13  1  0.30976359  0.30083722  0.63248333  1
  Hf  Hf14  1  0.59762703  0.58209468  0.00578060  1
  Hf  Hf15  1  0.79680470  0.79377167  0.49447003  1
  Hf  Hf16  1  0.89621195  0.30731615  0.86638777  1
  Hf  Hf17  1  0.38465018  0.59482887  0.26174754  1
  Hf  Hf18  1  -0.00061948  0.20463232  0.00091424  1
  Hf  Hf19  1  0.50739945  0.47998898  0.14114006  1
  Hf  Hf20  1  0.60358344  0.80463529  0.01349189  1
  Hf  Hf21  1  0.30605802  0.50412085  0.10322699  1
  Hf  Hf22  1  0.00345142  0.00422359  0.49095840  1
  Hf  Hf23  1  0.30235332  0.30448801  0.11652862  1
  Hf  Hf24  1  0.29099080  0.69918576  0.11127170  1
  Hf  Hf25  1  -0.00468742  0.60561706  0.74264070  1
  Hf  Hf26  1  0.19142771  0.78745012  0.25646610  1
  Hf  Hf27  1  0.89103045  0.89005031  0.13496583  1
  Hf  Hf28  1  0.20327409  0.19077994  0.75086072  1
  Hf  Hf29  1  0.69616059  0.89718434  0.86475871  1
  Hf  Hf30  1  0.49220656  0.09846082  0.61376567  1
  Hf  Hf31  1  0.09645847  0.90217519  0.61852877  1
  Hf  Hf32  1  0.70946764  0.50274511  0.37508709  1
  Hf  Hf33  1  0.49310312  0.69609410  0.12938538  1
  Hf  Hf34  1  0.29532327  0.90352017  0.13178616  1
  Hf  Hf35  1  0.50151441  0.68758474  0.88567421  1
  Hf  Hf36  1  0.31816990  0.50079248  0.86396425  1
  Hf  Hf37  1  0.71047715  0.49470911  0.13801255  1
  Hf  Hf38  1  0.69368869  0.09552102  0.37203761  1
  Hf  Hf39  1  0.41433010  0.61165423  0.73344509  1
  Zr  Zr40  1  0.60484582  0.60276948  0.25455185  1
  Zr  Zr41  1  0.69213600  0.30927721  0.14015932  1
  Zr  Zr42  1  0.09838211  0.90080287  0.36927544  1
  Zr  Zr43  1  0.50720332  0.70686944  0.38418158  1
  Zr  Zr44  1  0.38760042  0.40040035  0.26732091  1
  Zr  Zr45  1  -0.00107098  0.00109762  0.25339811  1
  Zr  Zr46  1  0.89616045  0.90129804  0.86962939  1
  Zr  Zr47  1  0.79049303  -0.00307561  0.01010219  1
  Zr  Zr48  1  0.89099618  0.90798678  0.63606164  1
  Zr  Zr49  1  0.59732014  0.20631438  0.00392225  1
  Zr  Zr50  1  0.20172734  0.39706894  0.50909212  1
  Zr  Zr51  1  0.19337156  -0.00126827  0.74949113  1
  Zr  Zr52  1  0.89921614  0.48793655  0.63297207  1
  Zr  Zr53  1  0.80316680  -0.00935218  0.47941840  1
  Zr  Zr54  1  0.20007476  0.41277278  0.25448699  1
  Zr  Zr55  1  0.40166761  0.00431467  -0.00561041  1
  Zr  Zr56  1  0.59986441  -0.00671623  0.73092421  1
  Zr  Zr57  1  0.49026520  0.88467745  0.86268944  1
  Zr  Zr58  1  0.69583547  0.49058784  0.87017188  1
  Zr  Zr59  1  0.00562862  0.80177662  0.75449158  1
  Zr  Zr60  1  -0.00035250  -0.00453566  0.00074004  1
  Zr  Zr61  1  0.10618371  0.71230601  0.88419369  1
  Zr  Zr62  1  0.28207822  0.67900367  0.39325434  1
  Zr  Zr63  1  0.70583200  0.10230490  0.86781400  1
  Zr  Zr64  1  0.90424343  0.29630242  0.62014542  1
  Zr  Zr65  1  0.01726954  0.40165690  0.50691246  1
  Zr  Zr66  1  0.31469517  0.10677931  0.13976515  1
  Zr  Zr67  1  0.09501330  0.50102246  0.86863587  1
  Zr  Zr68  1  0.19484611  0.21449866  0.25799040  1
  Zr  Zr69  1  0.30714656  0.70377907  0.87587659  1
  Zr  Zr70  1  0.60267337  0.40300680  0.50264558  1
  Zr  Zr71  1  0.59535569  0.00276825  0.01925060  1
  Zr  Zr72  1  0.60283350  0.21555106  0.73282901  1
  Zr  Zr73  1  0.50850750  0.09373577  0.86119599  1
  Zr  Zr74  1  0.39924035  0.20281894  0.75951500  1
  Zr  Zr75  1  0.79338503  0.78563266  0.74109996  1
  Zr  Zr76  1  0.58814368  0.78117522  0.72587996  1
  Zr  Zr77  1  0.19582325  0.80513964  0.49506515  1
  Zr  Zr78  1  0.89425320  0.10595539  0.13630136  1
  Zr  Zr79  1  0.01009290  0.40045402  0.25006025  1
  Ta  Ta80  1  0.68615673  0.89284239  0.36724040  1
  Ta  Ta81  1  0.90163412  0.10882460  0.37219164  1
  Ta  Ta82  1  0.70040597  0.10489200  0.14593043  1
  Ta  Ta83  1  0.30262845  0.10389330  0.37906124  1
  Ta  Ta84  1  0.20269368  0.01022846  0.50175415  1
  Ta  Ta85  1  0.50169048  0.50341150  0.38111405  1
  Ta  Ta86  1  0.39406052  0.80349493  0.50228737  1
  Ta  Ta87  1  0.41958333  0.40237328  -0.01233245  1
  Ta  Ta88  1  0.89338569  0.49870925  0.86843332  1
  Ta  Ta89  1  -0.00171606  0.40336354  -0.00168703  1
  Ta  Ta90  1  0.80333837  0.20821331  0.26054384  1
  Ta  Ta91  1  0.10702232  0.51141179  0.38028044  1
  Ta  Ta92  1  0.20032463  0.60512640  0.74157707  1
  Ta  Ta93  1  0.18823206  0.20149562  0.51179913  1
  Ta  Ta94  1  0.20524360  0.20166693  -0.01944976  1
  Ta  Ta95  1  0.28968641  0.88762359  0.87982057  1
  Ta  Ta96  1  0.49160959  0.90186016  0.14497973  1
  Ta  Ta97  1  0.60550402  0.60409671  0.51326180  1
  Ta  Ta98  1  0.60707779  0.59552526  0.73037275  1
  Ta  Ta99  1  0.90100035  0.50047521  0.12231571  1
  Ta  Ta100  1  0.72023582  0.30628148  0.60599237  1
  Ta  Ta101  1  0.81530953  0.40203795  0.26488913  1
  Ta  Ta102  1  0.00601217  0.59551685  0.23810239  1
  Ta  Ta103  1  0.09650550  0.70057804  0.61768686  1
  Ta  Ta104  1  0.40031378  0.80504908  0.01003764  1
  Ta  Ta105  1  0.20514282  0.39450305  -0.01952379  1
  Ta  Ta106  1  0.09768362  0.30126756  0.86764844  1
  Ta  Ta107  1  0.80900499  0.60043586  0.50661100  1
  Ta  Ta108  1  0.90818662  0.29916774  0.38821426  1
  Ta  Ta109  1  0.79515829  0.60025067  0.73981066  1
  Ta  Ta110  1  0.29791674  0.70194197  0.62014503  1
  Ta  Ta111  1  0.80186901  0.79436891  0.26906674  1
  Ta  Ta112  1  0.58912631  0.00622217  0.24731035  1
  Ta  Ta113  1  0.80066944  0.79290412  -0.00209572  1
  Ta  Ta114  1  0.40164310  0.40126589  0.50154673  1
  Ta  Ta115  1  0.10119237  0.89150995  0.12597391  1
  Ta  Ta116  1  0.89524738  0.30883093  0.12484100  1
  Ta  Ta117  1  0.49245248  0.29112910  0.14001613  1
  Ta  Ta118  1  0.30475683  0.50029190  0.63190820  1
  Ta  Ta119  1  -0.01448921  0.79616688  0.49287122  1
  Ti  Ti120  1  0.19954434  0.59591245  -0.01334126  1
  Ti  Ti121  1  0.18965944  0.59714377  0.24402048  1
  Ti  Ti122  1  0.82428520  0.60792161  0.25843665  1
  Ti  Ti123  1  -0.00889245  0.59873259  0.00322752  1
  Ti  Ti124  1  0.91547493  0.50846052  0.38445628  1
  Ti  Ti125  1  0.60406541  0.40064427  0.72947785  1
  Ti  Ti126  1  -0.00429010  0.79854524  0.00195939  1
  Ti  Ti127  1  0.10316400  0.30609341  0.10893709  1
  Ti  Ti128  1  0.69845492  0.69945449  0.37783627  1
  Ti  Ti129  1  0.49887924  0.49402737  0.62316818  1
  Ti  Ti130  1  0.70001969  0.30481247  0.87669999  1
  Ti  Ti131  1  0.20713596  -0.00040814  0.26467115  1
  Ti  Ti132  1  0.70909393  0.30142448  0.37918249  1
  Ti  Ti133  1  0.20777561  0.80444733  0.73751700  1
  Ti  Ti134  1  0.39645748  0.20214520  0.49683686  1
  Ti  Ti135  1  0.59355410  0.19753689  0.25540207  1
  Ti  Ti136  1  0.71228259  0.49339463  0.61951786  1
  Ti  Ti137  1  0.39147636  0.00098525  0.49598282  1
  Ti  Ti138  1  0.00016778  0.21269218  0.24830538  1
  Ti  Ti139  1  0.09690907  0.69656645  0.10946103  1
  Ti  Ti140  1  0.89381328  0.69384677  0.88128482  1
  Ti  Ti141  1  0.08321698  0.68330559  0.39245047  1
  Ti  Ti142  1  0.09899783  0.11418642  0.37510580  1
  Ti  Ti143  1  0.69270484  0.89787900  0.60927724  1
  Ti  Ti144  1  0.69914657  0.90016002  0.15130849  1
  Ti  Ti145  1  0.00600852  0.00584198  0.75137958  1
  Ti  Ti146  1  0.69893367  0.69225642  0.87852083  1
  Ti  Ti147  1  0.40128828  0.59542430  0.50607315  1
  Ti  Ti148  1  0.79933905  0.40043031  0.00064429  1
  Ti  Ti149  1  0.79615115  0.20764112  0.74584420  1
  Ti  Ti150  1  0.00989066  0.20089858  0.74449975  1
  Ti  Ti151  1  0.50942000  0.32219569  0.86232507  1
  Ti  Ti152  1  0.18838904  0.58528463  0.52507595  1
  Ti  Ti153  1  0.49391219  0.89688237  0.60971584  1
  Ti  Ti154  1  0.29455201  0.29704533  0.38658373  1
  Ti  Ti155  1  0.10359795  0.49946476  0.10734244  1
  Ti  Ti156  1  0.79572303  0.20468809  0.00742249  1
  Ti  Ti157  1  0.09537360  0.10137104  0.87730602  1
  Ti  Ti158  1  0.80334534  0.59863958  0.00006755  1
  Ti  Ti159  1  0.20180880  0.39823158  0.75197259  1
  Mo  Mo160  1  0.10686215  0.49885335  0.64809382  1
  Mo  Mo161  1  0.60019295  0.80146779  0.50798422  1
  Mo  Mo162  1  0.39817879  0.20056459  0.26687360  1
  Mo  Mo163  1  0.29760109  0.50154924  0.40253051  1
  Mo  Mo164  1  0.50764865  0.49709736  0.85598062  1
  Mo  Mo165  1  0.40577377  0.59552982  0.00068047  1
  Mo  Mo166  1  0.29803043  0.09581418  0.87943925  1
  Mo  Mo167  1  0.90020210  0.68775372  0.38587905  1
  Mo  Mo168  1  0.30227305  0.30761302  0.87002011  1
  Mo  Mo169  1  0.49301522  0.10210012  0.37741869  1
  Mo  Mo170  1  0.29855725  0.90692863  0.38123739  1
  Mo  Mo171  1  0.00315246  0.39743913  0.75465933  1
  Mo  Mo172  1  0.59744928  0.39201109  -0.00171192  1
  Mo  Mo173  1  0.70281955  0.69278345  0.61308125  1
  Mo  Mo174  1  0.90012313  0.69161341  0.11194480  1
  Mo  Mo175  1  0.00471902  0.59799381  0.51707863  1
  Mo  Mo176  1  0.38896763  0.80373706  0.72544490  1
  Mo  Mo177  1  0.79348219  -0.00141321  0.25966079  1
  Mo  Mo178  1  0.09547139  0.10348848  0.62175184  1
  Mo  Mo179  1  0.39646982  0.00394661  0.26737386  1
  Mo  Mo180  1  0.80260005  0.20140431  0.48054930  1
  Mo  Mo181  1  0.50157790  0.30384759  0.61813808  1
  Mo  Mo182  1  0.49637923  0.69802243  0.60246998  1
  Mo  Mo183  1  0.80787618  0.40406834  0.48003300  1
  Mo  Mo184  1  0.09940285  0.29748741  0.37806316  1
  Mo  Mo185  1  0.60625496  0.39664332  0.27162561  1
  Mo  Mo186  1  0.79101560  0.39504934  0.75394039  1
  Mo  Mo187  1  0.50007943  0.10784823  0.14301020  1
  Mo  Mo188  1  0.60001336  0.80375440  0.24220068  1
  Mo  Mo189  1  0.29979266  0.10229221  0.60353746  1
  Mo  Mo190  1  0.10328789  0.29996613  0.65050017  1
  Mo  Mo191  1  0.19555623  0.80339053  0.00977147  1
  Mo  Mo192  1  0.59540600  -0.00334101  0.50416629  1
  Mo  Mo193  1  0.10046199  0.90009104  0.88259084  1
  Mo  Mo194  1  0.79874385  0.00247293  0.74291652  1
  Mo  Mo195  1  0.89484479  0.89732964  0.36204565  1
  Mo  Mo196  1  0.90231089  0.69761537  0.61339407  1
  Mo  Mo197  1  0.00993333  0.19960711  0.49852881  1
  Mo  Mo198  1  0.29929805  0.90092201  0.61075354  1
  Mo  Mo199  1  0.41304625  0.40521388  0.74162019  1
