# generated using pymatgen
data_HfZrTaTiMo
_symmetry_space_group_name_H-M   'P 1'
_cell_length_a   15.83229948
_cell_length_b   15.83353422
_cell_length_c   15.38667634
_cell_angle_alpha   89.93173444
_cell_angle_beta   90.04187451
_cell_angle_gamma   89.95506247
_symmetry_Int_Tables_number   1
_chemical_formula_structural   HfZrTaTiMo
_chemical_formula_sum   'Hf40 Zr40 Ta40 Ti40 Mo40'
_cell_volume   3857.14638803
_cell_formula_units_Z   40
loop_
 _symmetry_equiv_pos_site_id
 _symmetry_equiv_pos_as_xyz
  1  'x, y, z'
loop_
 _atom_site_type_symbol
 _atom_site_label
 _atom_site_symmetry_multiplicity
 _atom_site_fract_x
 _atom_site_fract_y
 _atom_site_fract_z
 _atom_site_occupancy
  Hf  Hf0  1  0.40520743  0.79551210  0.75344403  1
  Hf  Hf1  1  0.51110695  0.09960478  0.12280460  1
  Hf  Hf2  1  0.90564793  0.11655635  0.38716931  1
  Hf  Hf3  1  0.60099129  -0.00181982  0.76183641  1
  Hf  Hf4  1  0.08903637  0.30599303  0.14019023  1
  Hf  Hf5  1  0.50104800  0.09880553  0.89285077  1
  Hf  Hf6  1  0.69863006  0.69506839  0.10714597  1
  Hf  Hf7  1  0.38998904  0.00266813  0.00716005  1
  Hf  Hf8  1  0.38959764  0.40095767  0.00129609  1
  Hf  Hf9  1  0.00406898  -0.02053691  0.49199702  1
  Hf  Hf10  1  0.89903820  0.49123841  0.10513188  1
  Hf  Hf11  1  0.09696676  0.31227767  0.86629544  1
  Hf  Hf12  1  0.39601080  0.62333275  0.23690747  1
  Hf  Hf13  1  0.80679076  -0.00724846  -0.00464401  1
  Hf  Hf14  1  0.01380997  0.59121814  -0.02735618  1
  Hf  Hf15  1  0.60810925  0.59945379  0.25351284  1
  Hf  Hf16  1  0.39336438  0.20729427  0.50256360  1
  Hf  Hf17  1  0.00560426  0.00918539  0.76718972  1
  Hf  Hf18  1  0.49856913  0.49751138  0.64016951  1
  Hf  Hf19  1  0.22540051  0.79622706  0.23073957  1
  Hf  Hf20  1  0.91386802  0.70469374  0.62866450  1
  Hf  Hf21  1  0.30035371  0.90406278  0.63218921  1
  Hf  Hf22  1  0.69917368  0.49092544  0.85356994  1
  Hf  Hf23  1  0.19126391  0.79804995  -0.00280925  1
  Hf  Hf24  1  0.79594150  0.59240413  -0.02144370  1
  Hf  Hf25  1  0.89790939  0.90196838  0.64250816  1
  Hf  Hf26  1  0.20138759  0.20106373  0.00103393  1
  Hf  Hf27  1  0.61154154  0.59911549  0.51347905  1
  Hf  Hf28  1  0.59791916  0.20251952  0.49706893  1
  Hf  Hf29  1  0.20981355  0.00173364  0.24866694  1
  Hf  Hf30  1  0.38750214  0.18997628  0.75389054  1
  Hf  Hf31  1  -0.00313993  0.20944348  0.74220500  1
  Hf  Hf32  1  0.80643067  0.58787552  0.25017726  1
  Hf  Hf33  1  0.60128519  0.19539122  0.75764877  1
  Hf  Hf34  1  0.89540618  0.11414159  0.87948044  1
  Hf  Hf35  1  0.60652770  0.80279045  0.51421866  1
  Hf  Hf36  1  -0.02759725  0.40366660  0.25976109  1
  Hf  Hf37  1  0.90884768  0.69538766  0.11178448  1
  Hf  Hf38  1  0.80964026  0.21976882  0.24835595  1
  Hf  Hf39  1  0.10754350  0.09944175  0.61302224  1
  Zr  Zr40  1  0.70268292  0.09309670  0.62410219  1
  Zr  Zr41  1  0.18623666  0.41105460  0.00233698  1
  Zr  Zr42  1  0.90516000  0.10819647  0.12138286  1
  Zr  Zr43  1  0.09630768  0.10453688  0.13694247  1
  Zr  Zr44  1  0.52744078  0.90002135  0.12377430  1
  Zr  Zr45  1  0.49981640  0.70545792  0.38745296  1
  Zr  Zr46  1  0.49681882  0.09457420  0.62151919  1
  Zr  Zr47  1  0.29622344  0.89943648  0.86826093  1
  Zr  Zr48  1  0.90474995  0.89328333  0.13644795  1
  Zr  Zr49  1  0.90238105  0.09926462  0.61654750  1
  Zr  Zr50  1  0.28484473  0.50749621  0.63398749  1
  Zr  Zr51  1  0.90556089  0.87980384  0.36120389  1
  Zr  Zr52  1  0.10257231  0.89506664  0.64468142  1
  Zr  Zr53  1  0.50265847  0.50314378  0.12129790  1
  Zr  Zr54  1  0.60748712  0.39986563  -0.00152722  1
  Zr  Zr55  1  0.69553665  0.89347548  0.35492530  1
  Zr  Zr56  1  0.00117701  0.39768779  0.52002957  1
  Zr  Zr57  1  0.79679453  0.00901109  0.25254891  1
  Zr  Zr58  1  0.39452761  -0.01324588  0.23468383  1
  Zr  Zr59  1  0.18870412  0.79837574  0.51241363  1
  Zr  Zr60  1  0.50253832  0.30271064  0.87777248  1
  Zr  Zr61  1  0.60973578  0.20011355  0.25018586  1
  Zr  Zr62  1  0.49666681  0.89185803  0.36544588  1
  Zr  Zr63  1  0.10517916  0.10878135  0.37703864  1
  Zr  Zr64  1  0.79972740  0.80135751  0.50927590  1
  Zr  Zr65  1  0.59515598  0.61201727  0.74565797  1
  Zr  Zr66  1  0.09165134  0.29363276  0.37266243  1
  Zr  Zr67  1  0.39134269  0.39132369  0.74714916  1
  Zr  Zr68  1  0.51249528  0.88855241  0.88485982  1
  Zr  Zr69  1  0.89369325  0.70420417  0.86329174  1
  Zr  Zr70  1  0.28610936  0.29800625  0.35582060  1
  Zr  Zr71  1  0.49702119  0.50062826  0.36969841  1
  Zr  Zr72  1  0.30253151  0.49213866  0.36801484  1
  Zr  Zr73  1  0.30068678  0.70220894  0.39463922  1
  Zr  Zr74  1  0.48830985  0.30605301  0.35850433  1
  Zr  Zr75  1  0.59650731  0.40115352  0.50561059  1
  Zr  Zr76  1  0.39123479  0.79826990  0.01488783  1
  Zr  Zr77  1  0.08725711  0.89480988  0.13564528  1
  Zr  Zr78  1  0.09945320  0.49892438  0.38465264  1
  Zr  Zr79  1  0.18920373  0.61057373  0.25467774  1
  Ta  Ta80  1  0.39471690  0.20438025  0.01169582  1
  Ta  Ta81  1  0.89767727  0.31139917  0.87874868  1
  Ta  Ta82  1  0.39093882  0.59614732  -0.01083659  1
  Ta  Ta83  1  0.30440968  0.10012564  0.37914766  1
  Ta  Ta84  1  0.70000823  0.09450460  0.11899415  1
  Ta  Ta85  1  0.70948547  0.69556847  0.37555111  1
  Ta  Ta86  1  0.89149163  0.50458584  0.40184974  1
  Ta  Ta87  1  0.79728003  0.80828432  -0.00367566  1
  Ta  Ta88  1  0.49589793  0.50392865  0.87030822  1
  Ta  Ta89  1  0.20457573  -0.00508105  0.48740027  1
  Ta  Ta90  1  0.79343729  -0.00283308  0.49017754  1
  Ta  Ta91  1  0.38894612  0.61096771  0.76289806  1
  Ta  Ta92  1  0.61423854  0.40176685  0.24551255  1
  Ta  Ta93  1  0.09357055  0.69460075  0.11478817  1
  Ta  Ta94  1  0.00398970  0.20769959  -0.00824938  1
  Ta  Ta95  1  0.29094858  0.50335708  0.13262861  1
  Ta  Ta96  1  0.29376144  0.30690465  0.13827382  1
  Ta  Ta97  1  0.79424310  0.21205862  0.51172214  1
  Ta  Ta98  1  0.49768248  0.09495345  0.36844561  1
  Ta  Ta99  1  0.90717591  0.51234768  0.62816084  1
  Ta  Ta100  1  0.39160071  0.18945419  0.23504357  1
  Ta  Ta101  1  0.00698710  -0.00011549  -0.01759871  1
  Ta  Ta102  1  0.69431958  0.30631844  0.64058034  1
  Ta  Ta103  1  0.09066768  0.50525442  0.13421286  1
  Ta  Ta104  1  0.50803177  0.69608727  0.10329307  1
  Ta  Ta105  1  0.39881062  0.00391707  0.75822676  1
  Ta  Ta106  1  0.10538221  0.88318252  0.35982937  1
  Ta  Ta107  1  0.49106265  0.70460415  0.61971987  1
  Ta  Ta108  1  0.19456879  0.00372760  -0.00248022  1
  Ta  Ta109  1  0.49958052  0.30147709  0.13014094  1
  Ta  Ta110  1  0.39820006  0.59506315  0.51115451  1
  Ta  Ta111  1  0.71077988  0.29644841  0.86488364  1
  Ta  Ta112  1  0.60221727  -0.00271257  0.48996657  1
  Ta  Ta113  1  0.89221308  0.30916742  0.39910133  1
  Ta  Ta114  1  0.30644323  0.89183128  0.38264012  1
  Ta  Ta115  1  0.28651963  0.49661926  0.86146781  1
  Ta  Ta116  1  0.69178344  0.71039055  0.86804408  1
  Ta  Ta117  1  0.20576525  0.39147950  0.51556783  1
  Ta  Ta118  1  0.70782377  0.31100679  0.37999531  1
  Ta  Ta119  1  0.40125793  -0.00394805  0.49731253  1
  Ti  Ti120  1  0.10174099  0.67451896  0.62550210  1
  Ti  Ti121  1  0.70687000  0.49558644  0.11568301  1
  Ti  Ti122  1  0.70962289  0.88769889  0.86052230  1
  Ti  Ti123  1  0.60209099  0.78740693  0.24049642  1
  Ti  Ti124  1  0.50050757  0.90248793  0.62732989  1
  Ti  Ti125  1  0.09112216  0.69826665  0.39132018  1
  Ti  Ti126  1  0.20036917  0.19948968  0.75468227  1
  Ti  Ti127  1  0.89715887  0.30800993  0.10412860  1
  Ti  Ti128  1  0.79903505  0.00582722  0.76857729  1
  Ti  Ti129  1  0.00943674  0.79256686  0.76440869  1
  Ti  Ti130  1  0.29572022  0.69639305  0.61985650  1
  Ti  Ti131  1  0.50507670  0.70023471  0.88945860  1
  Ti  Ti132  1  -0.00731441  0.60295379  0.25965861  1
  Ti  Ti133  1  0.70897042  0.49753020  0.38097165  1
  Ti  Ti134  1  0.80116250  0.78254664  0.24055659  1
  Ti  Ti135  1  0.11037939  0.29430733  0.62582047  1
  Ti  Ti136  1  0.20022690  0.60082594  -0.01435973  1
  Ti  Ti137  1  0.00394697  0.40561805  0.73289191  1
  Ti  Ti138  1  0.80984117  0.39719232  0.73505014  1
  Ti  Ti139  1  -0.00147297  0.00595937  0.26464336  1
  Ti  Ti140  1  0.80147412  0.20218339  0.74322418  1
  Ti  Ti141  1  0.20774908  0.02241660  0.76980089  1
  Ti  Ti142  1  0.49902064  0.29794064  0.63370230  1
  Ti  Ti143  1  0.70881434  0.30878126  0.12104663  1
  Ti  Ti144  1  0.79251449  0.20498471  0.00011442  1
  Ti  Ti145  1  0.70171060  0.10606111  0.37894293  1
  Ti  Ti146  1  0.90314066  0.69324242  0.39059252  1
  Ti  Ti147  1  0.29333198  0.30114782  0.87386580  1
  Ti  Ti148  1  0.79944390  0.60238794  0.74030255  1
  Ti  Ti149  1  0.79532682  0.60294833  0.51896741  1
  Ti  Ti150  1  0.90642830  0.49021221  0.86012356  1
  Ti  Ti151  1  0.20330727  0.77528877  0.75874971  1
  Ti  Ti152  1  0.79126906  0.40882497  0.52557634  1
  Ti  Ti153  1  0.39470686  0.39828919  0.51338425  1
  Ti  Ti154  1  0.62511760  -0.00772223  -0.00929072  1
  Ti  Ti155  1  0.10401023  0.89992182  0.86642190  1
  Ti  Ti156  1  0.29374773  0.09907317  0.61439286  1
  Ti  Ti157  1  -0.00539876  0.80835512  -0.02029469  1
  Ti  Ti158  1  0.60947519  0.20225896  0.00102498  1
  Ti  Ti159  1  0.70156899  0.90094621  0.64029798  1
  Mo  Mo160  1  0.59757306  0.59943677  -0.02103095  1
  Mo  Mo161  1  0.09984451  0.49843627  0.84842915  1
  Mo  Mo162  1  0.10129494  0.70299139  0.87505776  1
  Mo  Mo163  1  0.00195126  0.59666129  0.75602103  1
  Mo  Mo164  1  0.70766999  0.89660368  0.13430178  1
  Mo  Mo165  1  -0.00202951  0.40181484  -0.00576797  1
  Mo  Mo166  1  0.40194011  0.40216865  0.22983525  1
  Mo  Mo167  1  0.19818555  0.59346355  0.49606191  1
  Mo  Mo168  1  0.29356482  0.29131829  0.62681597  1
  Mo  Mo169  1  0.30098018  0.69521585  0.88357972  1
  Mo  Mo170  1  0.10023621  0.50160065  0.63011053  1
  Mo  Mo171  1  0.79362751  0.40494492  0.25510174  1
  Mo  Mo172  1  0.29776797  0.10453715  0.11744953  1
  Mo  Mo173  1  0.28917075  0.90219921  0.11070194  1
  Mo  Mo174  1  0.29486422  0.68859719  0.10331130  1
  Mo  Mo175  1  -0.00223459  0.60148315  0.50073370  1
  Mo  Mo176  1  0.19471611  0.60352655  0.76394323  1
  Mo  Mo177  1  -0.00349253  0.20509541  0.51848565  1
  Mo  Mo178  1  0.19362787  0.39246199  0.73786070  1
  Mo  Mo179  1  0.60484791  0.00666316  0.26171567  1
  Mo  Mo180  1  -0.00996455  0.20750168  0.24877091  1
  Mo  Mo181  1  0.59948167  0.80331057  0.73534113  1
  Mo  Mo182  1  0.29832519  0.10736474  0.88542607  1
  Mo  Mo183  1  0.01210484  0.76982306  0.25749009  1
  Mo  Mo184  1  0.60053364  0.39664125  0.75130186  1
  Mo  Mo185  1  0.79782727  0.80189996  0.74608959  1
  Mo  Mo186  1  0.79850589  0.39582991  -0.01545406  1
  Mo  Mo187  1  0.00324916  0.79596543  0.49638804  1
  Mo  Mo188  1  0.89325259  0.30477656  0.62306926  1
  Mo  Mo189  1  0.70770351  0.50122374  0.64010937  1
  Mo  Mo190  1  0.20270057  0.19797360  0.23890825  1
  Mo  Mo191  1  0.40791808  0.79310434  0.22769046  1
  Mo  Mo192  1  0.70353847  0.70579921  0.64159924  1
  Mo  Mo193  1  0.19155265  0.40814336  0.23854664  1
  Mo  Mo194  1  0.90262871  0.90107921  0.86586082  1
  Mo  Mo195  1  0.61473014  0.80152693  -0.00038930  1
  Mo  Mo196  1  0.10122722  0.10717440  0.87807076  1
  Mo  Mo197  1  0.39818165  0.80535497  0.52159891  1
  Mo  Mo198  1  0.70318386  0.10445923  0.88858790  1
  Mo  Mo199  1  0.20468431  0.19930453  0.50710891  1
