# generated using pymatgen
data_HfZrTaTiMo
_symmetry_space_group_name_H-M   'P 1'
_cell_length_a   15.85256686
_cell_length_b   15.84090756
_cell_length_c   15.41408896
_cell_angle_alpha   90.02754204
_cell_angle_beta   89.95102289
_cell_angle_gamma   89.83085845
_symmetry_Int_Tables_number   1
_chemical_formula_structural   HfZrTaTiMo
_chemical_formula_sum   'Hf40 Zr40 Ta40 Ti40 Mo40'
_cell_volume   3870.75258607
_cell_formula_units_Z   40
loop_
 _symmetry_equiv_pos_site_id
 _symmetry_equiv_pos_as_xyz
  1  'x, y, z'
loop_
 _atom_site_type_symbol
 _atom_site_label
 _atom_site_symmetry_multiplicity
 _atom_site_fract_x
 _atom_site_fract_y
 _atom_site_fract_z
 _atom_site_occupancy
  Hf  Hf0  1  0.41248302  0.60118631  0.24027128  1
  Hf  Hf1  1  0.60273107  0.40474541  0.76278515  1
  Hf  Hf2  1  0.41061810  0.77693206  0.73651671  1
  Hf  Hf3  1  0.30949624  0.30226249  0.63172383  1
  Hf  Hf4  1  0.29358739  0.09931778  0.35593632  1
  Hf  Hf5  1  0.69477894  0.30602762  0.61955214  1
  Hf  Hf6  1  0.39816088  0.41464260  0.00773327  1
  Hf  Hf7  1  0.20926946  0.20795570  0.77293795  1
  Hf  Hf8  1  0.21221154  0.00642784  0.50255981  1
  Hf  Hf9  1  0.41392616  0.40705251  0.24685019  1
  Hf  Hf10  1  0.60096452  0.00169217  0.74251269  1
  Hf  Hf11  1  0.00527055  0.37781221  0.25759231  1
  Hf  Hf12  1  0.10412748  0.49613891  0.37955832  1
  Hf  Hf13  1  0.50158673  0.89202365  0.86763168  1
  Hf  Hf14  1  0.40162503  0.79615930  0.00254136  1
  Hf  Hf15  1  0.40946199  0.20345407  0.25002431  1
  Hf  Hf16  1  0.78911371  0.00224907  0.00500850  1
  Hf  Hf17  1  0.08729706  0.10325141  0.37629347  1
  Hf  Hf18  1  0.31863831  0.90864853  0.63394426  1
  Hf  Hf19  1  0.79419753  0.59356523  0.73317130  1
  Hf  Hf20  1  0.29170933  0.31092752  0.36839739  1
  Hf  Hf21  1  0.10759260  0.50001697  0.85179088  1
  Hf  Hf22  1  0.58868751  0.80705783  0.50142736  1
  Hf  Hf23  1  0.41324749  -0.00738676  0.48737739  1
  Hf  Hf24  1  0.09394527  0.89445779  0.86948523  1
  Hf  Hf25  1  0.69674731  0.89751606  0.13784080  1
  Hf  Hf26  1  0.60018111  0.21179161  0.25539666  1
  Hf  Hf27  1  0.88451396  0.10526259  0.88044765  1
  Hf  Hf28  1  0.80932988  0.40646971  -0.00394186  1
  Hf  Hf29  1  0.70009971  0.89440895  0.87404322  1
  Hf  Hf30  1  0.10161870  0.69230305  0.87308821  1
  Hf  Hf31  1  0.10791653  0.10387060  0.62940388  1
  Hf  Hf32  1  0.30380263  0.50880815  0.85861725  1
  Hf  Hf33  1  0.10988733  0.30527298  0.63563828  1
  Hf  Hf34  1  0.29457909  0.50847016  0.63705788  1
  Hf  Hf35  1  0.29947780  0.89776162  0.13655598  1
  Hf  Hf36  1  0.10381689  0.90096423  0.38814986  1
  Hf  Hf37  1  -0.00417850  0.40468847  0.51175496  1
  Hf  Hf38  1  -0.00354706  0.59848069  0.72254769  1
  Hf  Hf39  1  0.00332038  0.58422459  0.00264891  1
  Zr  Zr40  1  0.19706382  -0.00108647  0.00362223  1
  Zr  Zr41  1  0.90422102  0.90824277  0.37043904  1
  Zr  Zr42  1  0.60661610  0.79393670  0.73067598  1
  Zr  Zr43  1  0.19962824  0.79755340  -0.00063072  1
  Zr  Zr44  1  0.20736634  0.21042523  -0.00259911  1
  Zr  Zr45  1  0.30955587  0.10192710  0.12972487  1
  Zr  Zr46  1  0.59270138  0.60011873  0.73190051  1
  Zr  Zr47  1  -0.00504901  -0.00622529  0.00978803  1
  Zr  Zr48  1  0.70085936  0.31091977  0.38716302  1
  Zr  Zr49  1  0.17714306  0.21951912  0.24009844  1
  Zr  Zr50  1  0.49694558  0.30220066  0.62883860  1
  Zr  Zr51  1  -0.01186205  0.20238051  0.75189700  1
  Zr  Zr52  1  0.00474633  0.79673382  0.24993835  1
  Zr  Zr53  1  0.30739362  0.89570896  0.36188877  1
  Zr  Zr54  1  0.30399030  0.50749993  0.37462591  1
  Zr  Zr55  1  0.89693278  0.89045421  0.86939843  1
  Zr  Zr56  1  0.59286316  0.19915995  0.49681294  1
  Zr  Zr57  1  -0.00253492  0.79075197  0.50390729  1
  Zr  Zr58  1  -0.01314798  0.40333949  0.73568598  1
  Zr  Zr59  1  0.19738869  0.78469070  0.25195491  1
  Zr  Zr60  1  0.88825995  0.67948088  0.13325544  1
  Zr  Zr61  1  0.80198382  0.00242732  0.50771203  1
  Zr  Zr62  1  0.19894840  0.40972308  0.00650994  1
  Zr  Zr63  1  -0.00794514  0.19792589  0.51133238  1
  Zr  Zr64  1  0.79549708  0.78972261  0.01228493  1
  Zr  Zr65  1  0.21269504  0.01038420  0.76436588  1
  Zr  Zr66  1  0.69252969  0.10998286  0.12826461  1
  Zr  Zr67  1  0.20966489  0.78893697  0.74846338  1
  Zr  Zr68  1  0.89594075  0.69259196  0.87249661  1
  Zr  Zr69  1  0.17238400  -0.00217268  0.23042145  1
  Zr  Zr70  1  0.69958522  0.89813890  0.37207925  1
  Zr  Zr71  1  0.49149488  0.90955867  0.13668374  1
  Zr  Zr72  1  0.11048603  0.89588623  0.61965625  1
  Zr  Zr73  1  0.50930388  0.29650628  0.11098969  1
  Zr  Zr74  1  0.90693193  0.48636634  0.13975434  1
  Zr  Zr75  1  0.48747570  0.09873703  0.63378657  1
  Zr  Zr76  1  0.69855063  0.68428576  0.38125271  1
  Zr  Zr77  1  0.70995529  0.51051248  0.13083613  1
  Zr  Zr78  1  -0.00723778  -0.00236551  0.74296513  1
  Zr  Zr79  1  0.81338565  0.20991249  0.25009423  1
  Ta  Ta80  1  0.39871782  0.19889896  0.77711947  1
  Ta  Ta81  1  0.39418776  0.20137240  0.48397828  1
  Ta  Ta82  1  0.89521942  0.89775348  0.13658906  1
  Ta  Ta83  1  0.11930568  0.68604625  0.61040495  1
  Ta  Ta84  1  0.59938842  -0.00127325  0.50184258  1
  Ta  Ta85  1  0.20264446  0.40472671  0.51214420  1
  Ta  Ta86  1  0.59415360  0.00005476  0.00017015  1
  Ta  Ta87  1  -0.00025500  0.79300720  0.01650318  1
  Ta  Ta88  1  -0.00064337  0.78892817  0.72871138  1
  Ta  Ta89  1  0.59730725  0.60347482  0.01626644  1
  Ta  Ta90  1  0.89344403  0.49900765  0.37956183  1
  Ta  Ta91  1  0.00439013  0.59941655  0.26355667  1
  Ta  Ta92  1  0.50106489  0.09701441  0.87846269  1
  Ta  Ta93  1  0.30284822  0.69107847  0.12128660  1
  Ta  Ta94  1  0.07642812  0.12753590  0.11146669  1
  Ta  Ta95  1  0.59313954  0.00574669  0.25619337  1
  Ta  Ta96  1  0.79993270  0.00600505  0.24631131  1
  Ta  Ta97  1  0.69263874  0.69421583  0.88007676  1
  Ta  Ta98  1  0.50174398  0.69074854  0.88590639  1
  Ta  Ta99  1  0.60283036  0.40696818  -0.00628141  1
  Ta  Ta100  1  0.50220788  0.09915675  0.37538002  1
  Ta  Ta101  1  0.70753762  0.69415239  0.59857673  1
  Ta  Ta102  1  0.70221284  0.09906896  0.37308353  1
  Ta  Ta103  1  0.40424318  0.60064390  0.51144973  1
  Ta  Ta104  1  0.79483577  0.40309611  0.75301789  1
  Ta  Ta105  1  0.09463675  0.30962907  0.87685671  1
  Ta  Ta106  1  0.60593387  0.19705295  -0.01427245  1
  Ta  Ta107  1  0.70838576  0.30765715  0.11392152  1
  Ta  Ta108  1  0.59312551  0.78620090  0.24815057  1
  Ta  Ta109  1  0.39809870  0.00224599  -0.01049171  1
  Ta  Ta110  1  0.20643181  0.20471039  0.49919912  1
  Ta  Ta111  1  0.60127014  0.20194517  0.76673500  1
  Ta  Ta112  1  0.10174732  0.68530674  0.12229428  1
  Ta  Ta113  1  0.70748406  0.30040608  0.88306252  1
  Ta  Ta114  1  0.79213043  0.00122621  0.74326065  1
  Ta  Ta115  1  0.59872192  0.79458349  0.01555553  1
  Ta  Ta116  1  0.09168662  0.10615167  0.88492938  1
  Ta  Ta117  1  0.49703872  0.69347415  0.38529475  1
  Ta  Ta118  1  0.79903033  0.78830795  0.25541548  1
  Ta  Ta119  1  0.70104808  0.50995390  0.88340651  1
  Ti  Ti120  1  0.78779298  0.20268082  0.75296134  1
  Ti  Ti121  1  -0.00938770  0.59963495  0.50546995  1
  Ti  Ti122  1  0.21073466  0.59381205  0.00803225  1
  Ti  Ti123  1  0.90063399  0.29882383  0.38632168  1
  Ti  Ti124  1  0.88022132  0.30412940  0.62105804  1
  Ti  Ti125  1  0.50028194  0.30535377  0.88440820  1
  Ti  Ti126  1  0.89865504  0.10243484  0.37293997  1
  Ti  Ti127  1  0.69742395  0.10677285  0.62357689  1
  Ti  Ti128  1  0.70067077  0.49344965  0.59639246  1
  Ti  Ti129  1  0.91724236  0.28977128  0.10771520  1
  Ti  Ti130  1  0.49772569  0.51501339  0.87956580  1
  Ti  Ti131  1  0.10286559  0.49299704  0.13890775  1
  Ti  Ti132  1  0.79831153  0.19745298  0.49857249  1
  Ti  Ti133  1  0.40114526  0.80004063  0.50529949  1
  Ti  Ti134  1  0.40510335  0.39921147  0.76149773  1
  Ti  Ti135  1  0.89909420  0.30241820  0.87945473  1
  Ti  Ti136  1  0.59649165  0.59584132  0.24428108  1
  Ti  Ti137  1  0.09939457  0.29905662  0.39307859  1
  Ti  Ti138  1  0.29433085  0.31385497  0.13687588  1
  Ti  Ti139  1  0.10839369  0.69140354  0.39205811  1
  Ti  Ti140  1  0.40030034  0.20181416  -0.00715239  1
  Ti  Ti141  1  0.49950794  0.49434983  0.61816145  1
  Ti  Ti142  1  0.88755518  0.10368824  0.63246279  1
  Ti  Ti143  1  0.30916100  0.89788139  0.86716319  1
  Ti  Ti144  1  0.59825535  0.40902478  0.25711075  1
  Ti  Ti145  1  0.20257057  0.59637691  0.24832991  1
  Ti  Ti146  1  0.40628429  0.78926293  0.25187389  1
  Ti  Ti147  1  -0.00905716  0.01152930  0.23343823  1
  Ti  Ti148  1  -0.00540329  0.00147822  0.51392670  1
  Ti  Ti149  1  0.89322310  0.89207579  0.62618298  1
  Ti  Ti150  1  0.30765701  0.10985067  0.62913610  1
  Ti  Ti151  1  0.31197688  0.68630438  0.87799497  1
  Ti  Ti152  1  0.89368045  0.11093055  0.11454086  1
  Ti  Ti153  1  0.80006816  0.79079791  0.73894397  1
  Ti  Ti154  1  0.30026870  0.69863248  0.38879390  1
  Ti  Ti155  1  0.90097442  0.50014697  0.87206280  1
  Ti  Ti156  1  0.70576773  0.89663800  0.61725559  1
  Ti  Ti157  1  0.79624589  0.40108328  0.25794997  1
  Ti  Ti158  1  0.81087980  0.79022214  0.49034300  1
  Ti  Ti159  1  0.40794303  0.40058818  0.48968930  1
  Mo  Mo160  1  0.50909145  0.50671527  0.38637511  1
  Mo  Mo161  1  0.49550986  0.30580708  0.38006416  1
  Mo  Mo162  1  0.40986544  0.00332918  0.26001961  1
  Mo  Mo163  1  0.40760598  0.60006501  0.73573023  1
  Mo  Mo164  1  0.20091074  0.39949760  0.74737245  1
  Mo  Mo165  1  0.30875102  0.31149515  0.87250443  1
  Mo  Mo166  1  0.50116414  0.10162459  0.10457254  1
  Mo  Mo167  1  0.40111869  0.60012498  0.01310397  1
  Mo  Mo168  1  0.20332696  0.59716943  0.49424412  1
  Mo  Mo169  1  -0.00598022  0.20515122  -0.01952025  1
  Mo  Mo170  1  0.59604100  0.59443857  0.50679113  1
  Mo  Mo171  1  0.19825974  0.40644304  0.24102920  1
  Mo  Mo172  1  0.08793535  0.31075344  0.10589733  1
  Mo  Mo173  1  0.29609634  0.50430940  0.14008628  1
  Mo  Mo174  1  0.20471822  0.60913358  0.74450519  1
  Mo  Mo175  1  0.79947993  0.39925777  0.49638878  1
  Mo  Mo176  1  0.50305446  0.69702605  0.60291336  1
  Mo  Mo177  1  0.69712304  0.69742479  0.13978317  1
  Mo  Mo178  1  0.21265289  0.79707235  0.49671517  1
  Mo  Mo179  1  0.30280861  0.10351565  0.89366192  1
  Mo  Mo180  1  0.88464934  0.49806352  0.60715028  1
  Mo  Mo181  1  0.59089442  0.40662124  0.49145396  1
  Mo  Mo182  1  0.50100888  0.70150013  0.12151249  1
  Mo  Mo183  1  0.00223307  0.40113767  -0.00880532  1
  Mo  Mo184  1  0.40029505  0.00245109  0.77051489  1
  Mo  Mo185  1  0.79761618  0.20718594  0.00189660  1
  Mo  Mo186  1  0.69765436  0.49903855  0.37107218  1
  Mo  Mo187  1  0.89427582  0.70199861  0.62189872  1
  Mo  Mo188  1  0.90640299  0.69085433  0.37012651  1
  Mo  Mo189  1  0.80133931  0.59349564  0.27444498  1
  Mo  Mo190  1  0.80525725  0.59606045  0.49607660  1
  Mo  Mo191  1  0.30186831  0.70399482  0.60427456  1
  Mo  Mo192  1  0.79723580  0.59778355  -0.01164076  1
  Mo  Mo193  1  -0.00776117  0.19703447  0.25371834  1
  Mo  Mo194  1  0.50269229  0.90159151  0.63238808  1
  Mo  Mo195  1  0.50864536  0.49890690  0.11784904  1
  Mo  Mo196  1  0.08972590  0.88974091  0.12312391  1
  Mo  Mo197  1  0.69707363  0.09988606  0.87179634  1
  Mo  Mo198  1  0.50153116  0.89505777  0.35817924  1
  Mo  Mo199  1  0.10154403  0.50301164  0.61775188  1
