# generated using pymatgen
data_HfZrTaTiMo
_symmetry_space_group_name_H-M   'P 1'
_cell_length_a   15.84447266
_cell_length_b   15.84059013
_cell_length_c   15.40819190
_cell_angle_alpha   90.00647847
_cell_angle_beta   90.07222479
_cell_angle_gamma   89.93055552
_symmetry_Int_Tables_number   1
_chemical_formula_structural   HfZrTaTiMo
_chemical_formula_sum   'Hf40 Zr40 Ta40 Ti40 Mo40'
_cell_volume   3867.23138973
_cell_formula_units_Z   40
loop_
 _symmetry_equiv_pos_site_id
 _symmetry_equiv_pos_as_xyz
  1  'x, y, z'
loop_
 _atom_site_type_symbol
 _atom_site_label
 _atom_site_symmetry_multiplicity
 _atom_site_fract_x
 _atom_site_fract_y
 _atom_site_fract_z
 _atom_site_occupancy
  Hf  Hf0  1  0.81383043  0.40776456  0.23705481  1
  Hf  Hf1  1  0.49417188  0.49553595  0.86512986  1
  Hf  Hf2  1  0.40690448  0.19303881  0.50099948  1
  Hf  Hf3  1  0.80610011  0.59960017  0.73333195  1
  Hf  Hf4  1  0.81033688  0.20037959  0.75734991  1
  Hf  Hf5  1  0.90767670  0.50503148  0.89113410  1
  Hf  Hf6  1  0.20317737  0.80733414  0.01867595  1
  Hf  Hf7  1  0.19872004  0.59621266  0.03651304  1
  Hf  Hf8  1  0.39092629  0.58765354  0.01261160  1
  Hf  Hf9  1  0.28778156  0.51213851  0.60793379  1
  Hf  Hf10  1  0.06918518  0.89755238  0.11559075  1
  Hf  Hf11  1  0.39048174  -0.00032996  -0.00084217  1
  Hf  Hf12  1  0.80812842  0.79397022  0.25130541  1
  Hf  Hf13  1  0.29581118  0.30515509  0.61549762  1
  Hf  Hf14  1  0.50626963  0.50735362  0.61826122  1
  Hf  Hf15  1  0.09458235  0.69817777  0.90023487  1
  Hf  Hf16  1  0.10769210  0.50653386  0.88074191  1
  Hf  Hf17  1  0.28980785  0.68664981  0.87697113  1
  Hf  Hf18  1  0.40406989  0.20451748  -0.00310650  1
  Hf  Hf19  1  0.70234363  0.10597486  0.36373023  1
  Hf  Hf20  1  0.79746457  0.20022923  -0.01738720  1
  Hf  Hf21  1  0.79890549  0.20674764  0.51031637  1
  Hf  Hf22  1  0.29091001  0.89169655  0.61090920  1
  Hf  Hf23  1  0.21066078  0.40546227  0.02375427  1
  Hf  Hf24  1  0.71450226  0.49898800  0.37570254  1
  Hf  Hf25  1  0.48059755  0.91031041  0.37177988  1
  Hf  Hf26  1  -0.00145807  0.81041608  0.76526037  1
  Hf  Hf27  1  0.89572971  0.90609212  0.61716315  1
  Hf  Hf28  1  0.30559215  0.08211534  0.37865037  1
  Hf  Hf29  1  0.69985821  0.10577751  0.12036023  1
  Hf  Hf30  1  0.68862760  0.30429352  0.35779976  1
  Hf  Hf31  1  0.61008423  0.60381052  0.26205732  1
  Hf  Hf32  1  0.69850469  0.70416113  0.12092589  1
  Hf  Hf33  1  0.58834853  0.59995514  -0.00246677  1
  Hf  Hf34  1  0.30071738  0.31100608  0.87193781  1
  Hf  Hf35  1  0.60448902  0.20552083  0.51326021  1
  Hf  Hf36  1  0.80880866  0.40848774  0.51647303  1
  Hf  Hf37  1  0.19939527  -0.01050735  0.23762093  1
  Hf  Hf38  1  0.00061538  0.41109463  0.73438146  1
  Hf  Hf39  1  0.80363136  -0.00699090  0.24936933  1
  Zr  Zr40  1  0.38736035  -0.00785852  0.74775595  1
  Zr  Zr41  1  0.79680494  0.59503745  0.01280713  1
  Zr  Zr42  1  0.60667171  0.80528988  0.25792025  1
  Zr  Zr43  1  0.89777683  0.69928824  0.88501237  1
  Zr  Zr44  1  0.50690324  0.10183548  0.36654499  1
  Zr  Zr45  1  0.28472522  0.10204892  0.87686688  1
  Zr  Zr46  1  0.90809122  0.31576148  0.88509172  1
  Zr  Zr47  1  0.79483609  0.00246290  0.49802901  1
  Zr  Zr48  1  0.60087758  0.80229122  0.50560042  1
  Zr  Zr49  1  0.02158062  0.18601429  -0.00579367  1
  Zr  Zr50  1  0.90505147  0.07697236  0.10482749  1
  Zr  Zr51  1  0.00383482  0.19836432  0.25001753  1
  Zr  Zr52  1  0.60136378  0.39944900  0.00012364  1
  Zr  Zr53  1  0.19599671  0.78781204  0.74721591  1
  Zr  Zr54  1  0.91639656  0.71356115  0.60814470  1
  Zr  Zr55  1  0.39283571  0.19874807  0.74836378  1
  Zr  Zr56  1  0.00934608  0.19823489  0.75521381  1
  Zr  Zr57  1  0.90574344  0.30935260  0.37795690  1
  Zr  Zr58  1  0.40608816  0.39517441  0.49202429  1
  Zr  Zr59  1  0.59987708  0.20368636  -0.01418995  1
  Zr  Zr60  1  0.51422132  0.48938428  0.38068138  1
  Zr  Zr61  1  0.39152334  0.60766155  0.74091927  1
  Zr  Zr62  1  0.49017271  0.89816118  0.13025973  1
  Zr  Zr63  1  0.01556690  0.60780225  0.73693289  1
  Zr  Zr64  1  0.51298475  0.29812669  0.14217667  1
  Zr  Zr65  1  0.49063365  0.69887337  0.14195885  1
  Zr  Zr66  1  0.49363937  0.70485827  0.37706185  1
  Zr  Zr67  1  -0.00069523  -0.00775296  0.26284625  1
  Zr  Zr68  1  0.90554465  0.88616732  0.39337166  1
  Zr  Zr69  1  0.39712369  0.78843935  -0.00608314  1
  Zr  Zr70  1  0.11301514  0.30807965  0.87945501  1
  Zr  Zr71  1  0.28746510  0.29378171  0.37252444  1
  Zr  Zr72  1  0.79988478  0.40531818  0.73041802  1
  Zr  Zr73  1  0.79148392  0.80704676  0.75035833  1
  Zr  Zr74  1  0.90576960  0.29805068  0.11078373  1
  Zr  Zr75  1  0.59741838  -0.00122979  0.51061330  1
  Zr  Zr76  1  0.08953393  0.89383737  0.60885822  1
  Zr  Zr77  1  0.49718476  0.89838781  0.87082942  1
  Zr  Zr78  1  0.70678538  0.09113654  0.64561291  1
  Zr  Zr79  1  0.50848345  0.30461656  0.64355749  1
  Ta  Ta80  1  0.69819741  0.08766644  0.86911430  1
  Ta  Ta81  1  0.69354107  0.49674115  0.13589804  1
  Ta  Ta82  1  0.30620619  0.29888723  0.14116408  1
  Ta  Ta83  1  0.28840679  0.89520009  0.38284851  1
  Ta  Ta84  1  0.59712478  0.79747787  -0.00861400  1
  Ta  Ta85  1  0.30477895  0.10239847  0.13190815  1
  Ta  Ta86  1  0.09214888  0.70279950  0.14315877  1
  Ta  Ta87  1  0.00041324  0.59721858  0.47763080  1
  Ta  Ta88  1  0.60206487  0.60302563  0.74789995  1
  Ta  Ta89  1  0.11070878  0.09982576  0.37515888  1
  Ta  Ta90  1  -0.01259640  0.59622077  0.25206071  1
  Ta  Ta91  1  0.91353119  0.09752729  0.62420518  1
  Ta  Ta92  1  0.49985486  0.09256488  0.64011456  1
  Ta  Ta93  1  0.39163467  0.40854800  0.73993698  1
  Ta  Ta94  1  0.19285878  0.60210305  0.47150713  1
  Ta  Ta95  1  0.19516468  0.19845473  0.73002695  1
  Ta  Ta96  1  -0.00120266  0.00366577  0.76520963  1
  Ta  Ta97  1  0.60357452  -0.00091003  0.23913008  1
  Ta  Ta98  1  0.19365327  0.19063521  0.50596610  1
  Ta  Ta99  1  0.09674388  0.71001963  0.35637651  1
  Ta  Ta100  1  0.49704062  0.49716927  0.14422785  1
  Ta  Ta101  1  0.50728077  0.09638241  0.85990124  1
  Ta  Ta102  1  0.40441312  0.39405212  0.26456487  1
  Ta  Ta103  1  0.40226091  0.19804769  0.25777811  1
  Ta  Ta104  1  0.70468276  0.90412434  0.11043519  1
  Ta  Ta105  1  0.09988149  0.30415900  0.61129172  1
  Ta  Ta106  1  0.59022031  0.79101600  0.75047901  1
  Ta  Ta107  1  0.69347288  0.69757738  0.87504398  1
  Ta  Ta108  1  0.18670107  0.01151707  0.01625235  1
  Ta  Ta109  1  0.00508733  0.20034774  0.49446629  1
  Ta  Ta110  1  0.59667272  0.00075281  0.00086831  1
  Ta  Ta111  1  0.19633265  0.40951726  0.73519861  1
  Ta  Ta112  1  0.49845981  0.09949265  0.13171697  1
  Ta  Ta113  1  0.00879572  0.00841069  0.48909382  1
  Ta  Ta114  1  0.29256355  0.49946949  0.36627874  1
  Ta  Ta115  1  0.39644854  0.79171124  0.74584858  1
  Ta  Ta116  1  0.80378767  0.60371388  0.50195665  1
  Ta  Ta117  1  0.29254982  0.70722409  0.36425013  1
  Ta  Ta118  1  0.18364968  0.00289763  0.73895716  1
  Ta  Ta119  1  0.70152020  0.50229110  0.86656218  1
  Ti  Ti120  1  0.29835593  0.49412110  0.16147205  1
  Ti  Ti121  1  0.78831630  0.79342817  0.49791600  1
  Ti  Ti122  1  0.28658832  0.89776249  0.87119302  1
  Ti  Ti123  1  0.18741984  0.39940186  0.48667465  1
  Ti  Ti124  1  0.49350008  0.69928394  0.61629279  1
  Ti  Ti125  1  0.69529542  0.70123058  0.62592554  1
  Ti  Ti126  1  0.69566017  0.31440426  0.85799513  1
  Ti  Ti127  1  0.20600476  0.20004165  0.01713736  1
  Ti  Ti128  1  0.40133172  0.40105204  0.01196710  1
  Ti  Ti129  1  0.61959116  0.39569552  0.52031684  1
  Ti  Ti130  1  0.09793615  0.50514182  0.60532492  1
  Ti  Ti131  1  0.11665258  0.69641483  0.60229816  1
  Ti  Ti132  1  0.09558934  0.48873105  0.36064084  1
  Ti  Ti133  1  0.60824445  0.20221889  0.75354408  1
  Ti  Ti134  1  0.49944974  0.30556013  0.85994356  1
  Ti  Ti135  1  0.39294867  0.60352836  0.48857439  1
  Ti  Ti136  1  0.91171525  0.71116925  0.11660723  1
  Ti  Ti137  1  0.39799361  0.59759939  0.26368922  1
  Ti  Ti138  1  0.61363497  0.60546909  0.49760465  1
  Ti  Ti139  1  0.69723148  0.90230065  0.37467306  1
  Ti  Ti140  1  0.79130955  0.40049050  0.01009225  1
  Ti  Ti141  1  0.01249951  0.41872190  0.02584625  1
  Ti  Ti142  1  0.79781045  0.80269020  -0.00083067  1
  Ti  Ti143  1  0.29607762  0.08897051  0.61323184  1
  Ti  Ti144  1  0.39336195  0.79604633  0.50038239  1
  Ti  Ti145  1  0.00369148  0.40236980  0.24158192  1
  Ti  Ti146  1  0.29565039  0.70901688  0.15676174  1
  Ti  Ti147  1  0.60611908  -0.01781574  0.74565633  1
  Ti  Ti148  1  0.10963496  0.30199151  0.13389362  1
  Ti  Ti149  1  0.81048619  -0.00303521  0.76461191  1
  Ti  Ti150  1  0.19750385  0.19576707  0.24809410  1
  Ti  Ti151  1  0.91203274  0.29771173  0.61937107  1
  Ti  Ti152  1  0.69699146  0.89856553  0.88268042  1
  Ti  Ti153  1  0.89979125  0.10478817  0.37879056  1
  Ti  Ti154  1  0.49305649  0.89700669  0.62630450  1
  Ti  Ti155  1  0.80951004  0.60374466  0.25169251  1
  Ti  Ti156  1  0.10276511  0.90709971  0.88737201  1
  Ti  Ti157  1  0.89952138  0.90639151  0.89862787  1
  Ti  Ti158  1  0.29293392  0.49837611  0.86894963  1
  Ti  Ti159  1  0.80453390  0.20387997  0.23907942  1
  Mo  Mo160  1  0.90130561  0.50450937  0.11886358  1
  Mo  Mo161  1  0.19678595  0.39280172  0.25064264  1
  Mo  Mo162  1  -0.00683726  0.79483289  0.25849007  1
  Mo  Mo163  1  0.60034564  0.40842401  0.74981708  1
  Mo  Mo164  1  0.90103833  0.09308551  0.87658930  1
  Mo  Mo165  1  0.60497274  0.19642164  0.24204638  1
  Mo  Mo166  1  0.88867157  0.89055451  0.10874747  1
  Mo  Mo167  1  0.49927319  0.69629579  0.86664763  1
  Mo  Mo168  1  -0.00303422  0.80008646  -0.00867765  1
  Mo  Mo169  1  0.70759125  0.69981667  0.38295594  1
  Mo  Mo170  1  0.90652348  0.50144264  0.37657144  1
  Mo  Mo171  1  0.40030468  -0.00462385  0.51817225  1
  Mo  Mo172  1  0.10062539  0.49993737  0.15199809  1
  Mo  Mo173  1  0.00258327  0.00018314  -0.01821937  1
  Mo  Mo174  1  0.10057036  0.29684518  0.38287023  1
  Mo  Mo175  1  0.19186617  0.80497710  0.24297921  1
  Mo  Mo176  1  0.91157763  0.50915580  0.60635014  1
  Mo  Mo177  1  0.60647103  0.40251662  0.24431820  1
  Mo  Mo178  1  0.00833972  0.79301758  0.48396967  1
  Mo  Mo179  1  0.39641981  0.00118775  0.23674354  1
  Mo  Mo180  1  0.19549529  0.59773635  0.25660779  1
  Mo  Mo181  1  0.10823115  0.89829697  0.38633592  1
  Mo  Mo182  1  0.00638350  0.40422792  0.50425792  1
  Mo  Mo183  1  0.10998308  0.09578951  0.86879980  1
  Mo  Mo184  1  0.10463210  0.10226378  0.13559363  1
  Mo  Mo185  1  0.89690801  0.69331748  0.38091367  1
  Mo  Mo186  1  0.38447108  0.80833216  0.25744635  1
  Mo  Mo187  1  0.50487482  0.29532654  0.36749559  1
  Mo  Mo188  1  0.09684069  0.09877952  0.61945339  1
  Mo  Mo189  1  0.69762884  0.89099315  0.63817632  1
  Mo  Mo190  1  0.29558195  0.90196583  0.12301849  1
  Mo  Mo191  1  0.69616386  0.51140570  0.62004802  1
  Mo  Mo192  1  0.19737105  0.00030931  0.50300599  1
  Mo  Mo193  1  0.19385734  0.59354777  0.74089379  1
  Mo  Mo194  1  0.29899871  0.69739712  0.59831174  1
  Mo  Mo195  1  0.70783099  0.29958968  0.13424513  1
  Mo  Mo196  1  0.00239245  0.59932733  0.02925449  1
  Mo  Mo197  1  0.79170135  -0.00277567  -0.01417763  1
  Mo  Mo198  1  0.70491775  0.30069909  0.63995727  1
  Mo  Mo199  1  0.19908739  0.79154136  0.49097663  1
