# generated using pymatgen
data_HfZrTaTiMo
_symmetry_space_group_name_H-M   'P 1'
_cell_length_a   15.82766359
_cell_length_b   15.84494563
_cell_length_c   15.39734900
_cell_angle_alpha   90.01921906
_cell_angle_beta   90.02839475
_cell_angle_gamma   90.10759910
_symmetry_Int_Tables_number   1
_chemical_formula_structural   HfZrTaTiMo
_chemical_formula_sum   'Hf40 Zr40 Ta40 Ti40 Mo40'
_cell_volume   3861.47008260
_cell_formula_units_Z   40
loop_
 _symmetry_equiv_pos_site_id
 _symmetry_equiv_pos_as_xyz
  1  'x, y, z'
loop_
 _atom_site_type_symbol
 _atom_site_label
 _atom_site_symmetry_multiplicity
 _atom_site_fract_x
 _atom_site_fract_y
 _atom_site_fract_z
 _atom_site_occupancy
  Hf  Hf0  1  -0.01301374  0.79543213  0.50526619  1
  Hf  Hf1  1  0.62003644  0.79906139  0.51447969  1
  Hf  Hf2  1  0.89615881  0.10764599  0.13494511  1
  Hf  Hf3  1  0.30411284  0.89464918  0.62164683  1
  Hf  Hf4  1  0.91246990  0.10746111  0.89016360  1
  Hf  Hf5  1  0.71039639  0.91778946  0.64479486  1
  Hf  Hf6  1  0.18152639  0.18356638  0.49237976  1
  Hf  Hf7  1  0.70900534  0.49397526  0.63825074  1
  Hf  Hf8  1  0.90048322  0.30368526  0.36745056  1
  Hf  Hf9  1  0.50345208  0.49679769  0.86335934  1
  Hf  Hf10  1  0.59544631  0.80167827  0.74692246  1
  Hf  Hf11  1  -0.00266375  0.40755608  0.49891718  1
  Hf  Hf12  1  -0.00754568  0.20689549  0.73765160  1
  Hf  Hf13  1  0.29968860  0.69495996  0.62810577  1
  Hf  Hf14  1  0.19810319  0.40038194  0.48934738  1
  Hf  Hf15  1  0.59436562  0.60236829  0.73651343  1
  Hf  Hf16  1  0.00488517  -0.00174044  0.01678131  1
  Hf  Hf17  1  0.78807609  0.41099267  0.24801302  1
  Hf  Hf18  1  0.20174740  0.80272823  0.76353524  1
  Hf  Hf19  1  0.20273956  0.60030000  0.26960872  1
  Hf  Hf20  1  0.90209398  0.51794173  0.13352265  1
  Hf  Hf21  1  0.32081355  0.68930144  0.38929323  1
  Hf  Hf22  1  0.11466698  0.90836235  0.61045357  1
  Hf  Hf23  1  0.59715851  0.19222013  0.00168928  1
  Hf  Hf24  1  0.18124401  -0.01371614  0.26332751  1
  Hf  Hf25  1  0.29987882  0.09883224  0.36566337  1
  Hf  Hf26  1  0.41922770  0.38708822  0.72437732  1
  Hf  Hf27  1  0.28359268  0.69249730  0.11780692  1
  Hf  Hf28  1  0.50710854  0.30391432  0.88203761  1
  Hf  Hf29  1  0.79832199  0.62072884  0.50012035  1
  Hf  Hf30  1  0.19670789  -0.00003462  -0.00255065  1
  Hf  Hf31  1  0.70489988  0.90577329  0.87780465  1
  Hf  Hf32  1  0.69663732  0.49498179  0.86953004  1
  Hf  Hf33  1  0.88578143  0.10036866  0.61041192  1
  Hf  Hf34  1  0.88623406  0.70842710  0.35303891  1
  Hf  Hf35  1  0.01378923  0.81725464  0.24516092  1
  Hf  Hf36  1  0.01128356  0.00901744  0.48593140  1
  Hf  Hf37  1  0.10759345  0.51470069  0.87028413  1
  Hf  Hf38  1  0.50239087  0.89799580  0.11386834  1
  Hf  Hf39  1  0.90987068  0.50290890  0.87514316  1
  Zr  Zr40  1  0.40514177  0.78324704  0.23709840  1
  Zr  Zr41  1  0.20155236  0.59006532  0.49240441  1
  Zr  Zr42  1  0.50274211  0.09329475  0.63367190  1
  Zr  Zr43  1  0.49764473  0.90120623  0.87610215  1
  Zr  Zr44  1  0.59052737  0.40894057  0.49782185  1
  Zr  Zr45  1  0.60417947  -0.00606311  0.49674428  1
  Zr  Zr46  1  0.19204915  0.38395810  0.74947868  1
  Zr  Zr47  1  0.70358989  0.29277517  0.61344484  1
  Zr  Zr48  1  0.39146095  0.19521440  0.01467467  1
  Zr  Zr49  1  0.09078689  0.27757609  0.89698338  1
  Zr  Zr50  1  0.60108444  0.40492278  0.24907690  1
  Zr  Zr51  1  0.29944673  0.29523266  0.37450328  1
  Zr  Zr52  1  0.30396549  0.89076596  0.38690246  1
  Zr  Zr53  1  0.79746275  0.19822263  0.75954509  1
  Zr  Zr54  1  0.90338103  0.51800488  0.35446679  1
  Zr  Zr55  1  0.09750481  0.50308396  0.63681700  1
  Zr  Zr56  1  -0.00261582  0.80541872  0.00981853  1
  Zr  Zr57  1  0.80787760  0.79431508  0.76029590  1
  Zr  Zr58  1  0.30623119  0.49772931  0.86008132  1
  Zr  Zr59  1  0.39632626  0.19173815  0.74608601  1
  Zr  Zr60  1  0.18623667  0.79345903  -0.01669105  1
  Zr  Zr61  1  0.89063967  0.90502458  0.36750709  1
  Zr  Zr62  1  0.28762908  0.08367771  0.61430797  1
  Zr  Zr63  1  0.00370121  0.80505954  0.74336889  1
  Zr  Zr64  1  0.80472742  0.60852743  -0.00526505  1
  Zr  Zr65  1  0.90632781  0.29982073  0.12681743  1
  Zr  Zr66  1  0.40256944  0.59466298  0.01206442  1
  Zr  Zr67  1  0.41195465  -0.00068750  0.49623325  1
  Zr  Zr68  1  0.29970902  0.29332615  0.87601211  1
  Zr  Zr69  1  0.18671731  0.18370089  0.74112489  1
  Zr  Zr70  1  0.00724601  0.41101543  0.01214267  1
  Zr  Zr71  1  0.79538576  0.41686009  0.48467159  1
  Zr  Zr72  1  0.51837621  0.69343897  0.37926568  1
  Zr  Zr73  1  0.70553195  0.29184760  0.11373868  1
  Zr  Zr74  1  0.29108781  0.89475667  0.12877421  1
  Zr  Zr75  1  0.50934931  0.88924530  0.36244900  1
  Zr  Zr76  1  0.40455506  0.39735788  0.01872262  1
  Zr  Zr77  1  0.59823174  0.19001822  0.25036028  1
  Zr  Zr78  1  0.20512120  0.39819028  0.01377938  1
  Zr  Zr79  1  0.49471016  0.29499674  0.37459156  1
  Ta  Ta80  1  0.59959699  0.59604440  0.01004395  1
  Ta  Ta81  1  0.79883008  0.40662087  0.00096934  1
  Ta  Ta82  1  0.60200805  0.79021382  -0.00082563  1
  Ta  Ta83  1  0.30050698  0.49819761  0.63868396  1
  Ta  Ta84  1  0.59807592  0.20880724  0.75143099  1
  Ta  Ta85  1  0.09652382  0.10398168  0.14329460  1
  Ta  Ta86  1  0.19744266  0.40008697  0.25392771  1
  Ta  Ta87  1  0.89680590  0.90728633  0.62463674  1
  Ta  Ta88  1  0.41479433  0.58741273  0.52107692  1
  Ta  Ta89  1  0.60403802  0.01550352  0.76320925  1
  Ta  Ta90  1  0.80283379  0.80619040  0.00520649  1
  Ta  Ta91  1  0.39664028  0.40020914  0.24490304  1
  Ta  Ta92  1  0.59457951  0.60628180  0.22319550  1
  Ta  Ta93  1  0.29792788  0.68500028  0.86799564  1
  Ta  Ta94  1  0.29041410  0.09805111  0.13699020  1
  Ta  Ta95  1  0.90073766  0.70709740  0.13929351  1
  Ta  Ta96  1  0.70491270  0.09029394  0.12188376  1
  Ta  Ta97  1  0.00445024  0.01140422  0.74230073  1
  Ta  Ta98  1  0.89788586  0.10341008  0.36465795  1
  Ta  Ta99  1  -0.00644886  0.20142497  0.49386603  1
  Ta  Ta100  1  0.79176950  0.19976896  0.25999858  1
  Ta  Ta101  1  0.42174795  0.79574874  0.52022364  1
  Ta  Ta102  1  0.80971780  0.39138146  0.75971493  1
  Ta  Ta103  1  0.39367430  -0.00018056  0.00005304  1
  Ta  Ta104  1  0.48738010  0.51107678  0.36321211  1
  Ta  Ta105  1  0.10531170  0.70266191  0.61912231  1
  Ta  Ta106  1  0.49571952  0.69250976  0.87840563  1
  Ta  Ta107  1  0.39699191  0.40575301  0.50670955  1
  Ta  Ta108  1  0.29708427  0.50092885  0.14125511  1
  Ta  Ta109  1  0.70090680  0.30305808  0.88437530  1
  Ta  Ta110  1  0.29552635  0.29441855  0.61039899  1
  Ta  Ta111  1  0.40536194  -0.00050018  0.24203044  1
  Ta  Ta112  1  0.09208655  0.29739667  0.61236439  1
  Ta  Ta113  1  0.77891053  0.81580780  0.23115169  1
  Ta  Ta114  1  0.19484277  0.79082121  0.26931147  1
  Ta  Ta115  1  0.89949709  0.91329238  0.86865566  1
  Ta  Ta116  1  0.39190925  0.79790275  -0.01157552  1
  Ta  Ta117  1  0.60330944  0.60268156  0.51632092  1
  Ta  Ta118  1  0.61593243  -0.01558324  0.24291767  1
  Ta  Ta119  1  0.59895673  0.18978951  0.49247149  1
  Ti  Ti120  1  0.68845189  0.53485701  0.36486319  1
  Ti  Ti121  1  0.08903435  0.90916110  0.87108370  1
  Ti  Ti122  1  0.50043169  0.09149850  0.12795409  1
  Ti  Ti123  1  0.19684910  -0.00120398  0.76585989  1
  Ti  Ti124  1  0.80800605  0.60351308  0.75852681  1
  Ti  Ti125  1  0.39641798  0.19868907  0.23793205  1
  Ti  Ti126  1  0.60194958  0.40935210  0.01923492  1
  Ti  Ti127  1  0.70502147  0.69870954  0.11764980  1
  Ti  Ti128  1  0.89785394  0.50462492  0.63659078  1
  Ti  Ti129  1  0.10881761  0.52111840  0.12993487  1
  Ti  Ti130  1  0.70759828  0.10309274  0.88354228  1
  Ti  Ti131  1  -0.00841086  0.60190981  0.50934617  1
  Ti  Ti132  1  0.89201385  0.91189001  0.13868123  1
  Ti  Ti133  1  0.69532728  0.69746205  0.87746478  1
  Ti  Ti134  1  0.79360630  -0.00854830  0.48916398  1
  Ti  Ti135  1  0.01987242  0.61977239  0.00809039  1
  Ti  Ti136  1  0.09300540  0.29344902  0.36324120  1
  Ti  Ti137  1  0.88982651  0.30393007  0.60813427  1
  Ti  Ti138  1  0.10803417  0.28935091  0.13280441  1
  Ti  Ti139  1  0.08941406  0.50296264  0.36883906  1
  Ti  Ti140  1  0.91360182  0.70522515  0.88117087  1
  Ti  Ti141  1  -0.00620683  0.39254966  0.74852756  1
  Ti  Ti142  1  0.71517045  0.70295581  0.63649602  1
  Ti  Ti143  1  0.80260757  -0.00008656  0.00422738  1
  Ti  Ti144  1  0.49423036  0.10169206  0.87509388  1
  Ti  Ti145  1  -0.00147348  0.61343294  0.74431970  1
  Ti  Ti146  1  0.01013714  0.40679862  0.24062998  1
  Ti  Ti147  1  0.70040506  0.29290386  0.38321830  1
  Ti  Ti148  1  0.60530602  0.79369151  0.22885847  1
  Ti  Ti149  1  0.59908357  0.00180424  -0.00406317  1
  Ti  Ti150  1  0.29068457  0.10041698  0.88438059  1
  Ti  Ti151  1  0.70267477  0.10300539  0.62339958  1
  Ti  Ti152  1  0.89772712  0.29845248  0.89890686  1
  Ti  Ti153  1  0.40283829  0.79328580  0.75196173  1
  Ti  Ti154  1  0.39222773  -0.00780539  0.76343085  1
  Ti  Ti155  1  0.70386518  0.08906912  0.36906994  1
  Ti  Ti156  1  0.09087818  0.70023252  0.38595309  1
  Ti  Ti157  1  0.40524983  0.20002169  0.50701364  1
  Ti  Ti158  1  0.50125140  0.29722912  0.13123437  1
  Ti  Ti159  1  0.49990912  0.09428224  0.36411840  1
  Mo  Mo160  1  0.61051521  0.38874393  0.74341063  1
  Mo  Mo161  1  0.00990031  0.61354962  0.24490068  1
  Mo  Mo162  1  -0.00162767  0.20791549  0.25319356  1
  Mo  Mo163  1  -0.00360528  0.00426673  0.25359972  1
  Mo  Mo164  1  0.79875360  0.19910800  -0.00786506  1
  Mo  Mo165  1  0.08999738  0.09917491  0.62513958  1
  Mo  Mo166  1  0.70257606  0.89114311  0.37184656  1
  Mo  Mo167  1  0.10168058  0.90167295  0.12415155  1
  Mo  Mo168  1  0.19854544  0.59735259  0.00004037  1
  Mo  Mo169  1  0.79200628  0.00368540  0.24581228  1
  Mo  Mo170  1  0.30973383  0.49563511  0.36488988  1
  Mo  Mo171  1  0.80749337  0.00781787  0.75904654  1
  Mo  Mo172  1  0.40348912  0.59722812  0.23755804  1
  Mo  Mo173  1  0.29561908  0.29611008  0.14445947  1
  Mo  Mo174  1  0.40177700  0.60131710  0.74058630  1
  Mo  Mo175  1  0.08985574  0.10729873  0.35318257  1
  Mo  Mo176  1  0.50572971  0.49578501  0.62923107  1
  Mo  Mo177  1  0.20063777  0.79131179  0.48850811  1
  Mo  Mo178  1  0.69894561  0.70818111  0.36067050  1
  Mo  Mo179  1  0.10056210  0.89022180  0.39469798  1
  Mo  Mo180  1  0.00561995  0.19765496  0.01997675  1
  Mo  Mo181  1  0.78513854  0.61500266  0.23969500  1
  Mo  Mo182  1  0.19822552  -0.00382794  0.47906394  1
  Mo  Mo183  1  0.50240184  0.29093801  0.60569508  1
  Mo  Mo184  1  0.30324614  0.89842564  0.87200380  1
  Mo  Mo185  1  0.50040401  0.49832408  0.13859831  1
  Mo  Mo186  1  0.80066313  0.80689512  0.51303723  1
  Mo  Mo187  1  0.19797823  0.19034969  0.02143108  1
  Mo  Mo188  1  0.50015520  0.70262906  0.10488150  1
  Mo  Mo189  1  0.09629099  0.69564377  0.86189775  1
  Mo  Mo190  1  0.50086693  0.90153573  0.64935608  1
  Mo  Mo191  1  0.19878692  0.20167429  0.24786534  1
  Mo  Mo192  1  0.50356932  0.70021547  0.62584077  1
  Mo  Mo193  1  0.90161719  0.69534653  0.62996790  1
  Mo  Mo194  1  0.79433255  0.19246050  0.47831072  1
  Mo  Mo195  1  0.10049010  0.70047570  0.13763693  1
  Mo  Mo196  1  0.09820175  0.09213288  0.87522713  1
  Mo  Mo197  1  0.19798825  0.60496642  0.74118094  1
  Mo  Mo198  1  0.69831585  0.90203201  0.09975528  1
  Mo  Mo199  1  0.70172859  0.50390925  0.11573330  1
