# generated using pymatgen
data_HfZrTaTiMo
_symmetry_space_group_name_H-M   'P 1'
_cell_length_a   15.84541254
_cell_length_b   15.83136017
_cell_length_c   15.42538488
_cell_angle_alpha   90.04271446
_cell_angle_beta   89.94503856
_cell_angle_gamma   90.09924244
_symmetry_Int_Tables_number   1
_chemical_formula_structural   HfZrTaTiMo
_chemical_formula_sum   'Hf40 Zr40 Ta40 Ti40 Mo40'
_cell_volume   3869.51752288
_cell_formula_units_Z   40
loop_
 _symmetry_equiv_pos_site_id
 _symmetry_equiv_pos_as_xyz
  1  'x, y, z'
loop_
 _atom_site_type_symbol
 _atom_site_label
 _atom_site_symmetry_multiplicity
 _atom_site_fract_x
 _atom_site_fract_y
 _atom_site_fract_z
 _atom_site_occupancy
  Hf  Hf0  1  0.39136092  0.61514753  -0.01369675  1
  Hf  Hf1  1  0.79775675  0.00098686  0.26509535  1
  Hf  Hf2  1  0.10857456  0.49569008  0.61945753  1
  Hf  Hf3  1  0.22112192  0.60024303  0.49292669  1
  Hf  Hf4  1  -0.00595746  0.80117881  0.51080655  1
  Hf  Hf5  1  0.08682442  0.07993701  0.87395118  1
  Hf  Hf6  1  0.59235598  0.60873679  0.75306352  1
  Hf  Hf7  1  0.51921507  0.71008889  0.38674558  1
  Hf  Hf8  1  0.09298223  0.09829746  0.12156226  1
  Hf  Hf9  1  0.80706383  0.59269521  -0.02252967  1
  Hf  Hf10  1  0.89842539  0.09647478  0.11463527  1
  Hf  Hf11  1  0.59237458  0.40259284  0.24948342  1
  Hf  Hf12  1  0.49586244  0.10221987  0.88801675  1
  Hf  Hf13  1  0.68776691  0.49340153  0.63428563  1
  Hf  Hf14  1  0.30392573  0.89711846  0.62813979  1
  Hf  Hf15  1  0.20458528  0.60543568  0.24820767  1
  Hf  Hf16  1  0.49941454  0.51057496  0.11516033  1
  Hf  Hf17  1  0.29351045  0.09085226  0.13042755  1
  Hf  Hf18  1  0.68924998  0.89467523  0.87036800  1
  Hf  Hf19  1  0.30185778  0.69742279  0.64267066  1
  Hf  Hf20  1  -0.00421758  0.39640682  -0.02087927  1
  Hf  Hf21  1  0.72023752  0.11813618  0.62572474  1
  Hf  Hf22  1  0.19519845  0.61409031  0.00990964  1
  Hf  Hf23  1  0.38368113  0.40128127  -0.01462997  1
  Hf  Hf24  1  0.59209447  -0.00585410  0.73719077  1
  Hf  Hf25  1  0.22128591  0.80217197  0.01000696  1
  Hf  Hf26  1  0.00214866  0.60027756  0.24988957  1
  Hf  Hf27  1  0.41209992  0.61155147  0.26088766  1
  Hf  Hf28  1  0.91224016  0.89824584  0.11341790  1
  Hf  Hf29  1  0.79575564  0.19711020  -0.00694773  1
  Hf  Hf30  1  0.80252305  0.79710905  0.25099953  1
  Hf  Hf31  1  0.38647845  0.40699716  0.48032555  1
  Hf  Hf32  1  0.48817926  0.11498745  0.60061720  1
  Hf  Hf33  1  0.70437109  0.90108326  0.11703723  1
  Hf  Hf34  1  0.08755112  0.51697028  0.87352779  1
  Hf  Hf35  1  0.31443237  0.49591883  0.64281601  1
  Hf  Hf36  1  0.30674474  0.49482700  0.13601869  1
  Hf  Hf37  1  0.80408790  0.39864433  -0.01607792  1
  Hf  Hf38  1  0.59909497  0.19042197  0.24303418  1
  Hf  Hf39  1  0.90019185  0.70226973  0.37838989  1
  Zr  Zr40  1  0.11099488  0.70845287  0.38439631  1
  Zr  Zr41  1  0.70215127  0.29805421  0.12709478  1
  Zr  Zr42  1  0.39843571  0.20243193  0.25979644  1
  Zr  Zr43  1  0.38797648  0.78819292  0.48775774  1
  Zr  Zr44  1  0.49798307  0.69932662  0.62180181  1
  Zr  Zr45  1  -0.00728495  0.38908734  0.49914581  1
  Zr  Zr46  1  0.29845381  0.10482938  0.87473132  1
  Zr  Zr47  1  0.90526359  0.69420519  0.11609566  1
  Zr  Zr48  1  0.20596597  -0.01319463  -0.00422730  1
  Zr  Zr49  1  0.10001803  0.49276013  0.12094838  1
  Zr  Zr50  1  0.48780029  0.09275110  0.11222183  1
  Zr  Zr51  1  -0.00327168  -0.00249860  0.26640051  1
  Zr  Zr52  1  0.80322907  0.39673402  0.26177283  1
  Zr  Zr53  1  0.81812615  0.01434770  0.75901955  1
  Zr  Zr54  1  0.09530486  0.29816558  0.12949166  1
  Zr  Zr55  1  0.61057365  -0.00125269  0.51822516  1
  Zr  Zr56  1  0.70112871  0.50960473  0.11827733  1
  Zr  Zr57  1  0.29289591  0.90049964  0.37670062  1
  Zr  Zr58  1  0.29635092  0.09766396  0.38215057  1
  Zr  Zr59  1  0.88128628  0.28089800  0.63048948  1
  Zr  Zr60  1  0.79619838  0.60561504  0.51070423  1
  Zr  Zr61  1  -0.00030231  0.39616096  0.26926943  1
  Zr  Zr62  1  0.58953776  0.80053677  0.23213044  1
  Zr  Zr63  1  -0.00858454  0.19900824  0.27673632  1
  Zr  Zr64  1  -0.01046522  0.17776028  0.74478490  1
  Zr  Zr65  1  0.19294103  0.21040460  -0.00910740  1
  Zr  Zr66  1  0.78038462  0.38891427  0.49879864  1
  Zr  Zr67  1  0.80652389  0.79741148  -0.01719282  1
  Zr  Zr68  1  0.79919814  0.19231218  0.26066355  1
  Zr  Zr69  1  0.10639281  0.90516624  0.38852674  1
  Zr  Zr70  1  0.58627993  0.20457524  0.73362885  1
  Zr  Zr71  1  0.93277183  0.69222853  0.87418011  1
  Zr  Zr72  1  0.59386217  0.39433113  -0.00234056  1
  Zr  Zr73  1  0.89375835  0.49411142  0.63053377  1
  Zr  Zr74  1  0.68980967  0.09890174  0.87418206  1
  Zr  Zr75  1  0.40397729  0.00475997  0.74763806  1
  Zr  Zr76  1  0.68708168  0.29763293  0.86143846  1
  Zr  Zr77  1  0.68830681  0.88955908  0.37884601  1
  Zr  Zr78  1  0.20908800  0.80388619  0.23384692  1
  Zr  Zr79  1  0.28956242  0.30341934  0.13661218  1
  Ta  Ta80  1  0.69220142  0.50120343  0.86427104  1
  Ta  Ta81  1  0.57452800  0.40628401  0.74777143  1
  Ta  Ta82  1  0.09849902  0.09548394  0.61168366  1
  Ta  Ta83  1  0.90300590  0.90028085  0.64151116  1
  Ta  Ta84  1  0.90041789  0.49273476  0.12472801  1
  Ta  Ta85  1  0.59860193  0.59303365  0.50850885  1
  Ta  Ta86  1  0.89492551  0.70498291  0.63638707  1
  Ta  Ta87  1  0.19217075  0.40140061  0.75457764  1
  Ta  Ta88  1  0.20939566  0.20414805  0.51100481  1
  Ta  Ta89  1  0.48926755  0.32142894  0.60903810  1
  Ta  Ta90  1  0.48436422  0.30877806  0.12861587  1
  Ta  Ta91  1  0.90453436  0.29877752  0.11950255  1
  Ta  Ta92  1  0.79951784  0.80683897  0.50866321  1
  Ta  Ta93  1  0.29940707  0.30382939  0.63390384  1
  Ta  Ta94  1  0.10392088  0.09742716  0.40077367  1
  Ta  Ta95  1  0.93033004  0.90517363  0.86989499  1
  Ta  Ta96  1  0.29144735  0.71393932  0.85883102  1
  Ta  Ta97  1  0.79841848  0.59819651  0.25375621  1
  Ta  Ta98  1  0.80610010  -0.00175930  -0.01460333  1
  Ta  Ta99  1  0.10151718  0.29599972  0.62646691  1
  Ta  Ta100  1  0.29637665  0.30168003  0.85289298  1
  Ta  Ta101  1  0.50353875  0.10002580  0.38935437  1
  Ta  Ta102  1  0.69417317  0.50672532  0.37684375  1
  Ta  Ta103  1  0.20277287  0.39820176  0.27821735  1
  Ta  Ta104  1  0.89583309  0.50522986  0.38499501  1
  Ta  Ta105  1  0.19897921  0.00265491  0.73974594  1
  Ta  Ta106  1  0.80851526  -0.00671363  0.49691028  1
  Ta  Ta107  1  0.00164780  0.60141106  0.51026911  1
  Ta  Ta108  1  0.49835317  0.50521008  0.88350179  1
  Ta  Ta109  1  0.41976248  0.80631640  0.76783227  1
  Ta  Ta110  1  0.50188292  0.90810254  0.38752387  1
  Ta  Ta111  1  0.10463038  0.89862528  0.62241126  1
  Ta  Ta112  1  0.01832636  0.78871878  0.73869062  1
  Ta  Ta113  1  0.40695053  -0.00904774  0.25736233  1
  Ta  Ta114  1  0.79837158  0.60454336  0.75862405  1
  Ta  Ta115  1  0.11693074  0.88335255  0.85778974  1
  Ta  Ta116  1  0.10053679  0.50347097  0.38793849  1
  Ta  Ta117  1  0.49987666  0.29672220  0.38541326  1
  Ta  Ta118  1  -0.00191497  0.39504529  0.75101500  1
  Ta  Ta119  1  0.59549987  0.00234113  0.24319357  1
  Ti  Ti120  1  0.50278079  0.88843590  0.60844806  1
  Ti  Ti121  1  0.00416927  0.80122518  0.25146282  1
  Ti  Ti122  1  0.68941742  0.29918526  0.37110646  1
  Ti  Ti123  1  0.80722995  0.79639643  0.76314714  1
  Ti  Ti124  1  0.48754876  0.29805705  0.87425369  1
  Ti  Ti125  1  0.29036050  0.50767483  0.86171566  1
  Ti  Ti126  1  -0.00597660  0.19835691  -0.01366567  1
  Ti  Ti127  1  0.39134944  0.20877240  0.00250718  1
  Ti  Ti128  1  0.69894832  0.69732640  0.10821760  1
  Ti  Ti129  1  0.40285474  0.59563588  0.48605903  1
  Ti  Ti130  1  0.48082921  0.89229356  0.10790306  1
  Ti  Ti131  1  -0.00957478  -0.00215634  0.50312190  1
  Ti  Ti132  1  0.19567474  0.40090372  -0.02150232  1
  Ti  Ti133  1  0.09859948  0.29193876  0.85559251  1
  Ti  Ti134  1  0.19894003  0.19419878  0.73602506  1
  Ti  Ti135  1  0.70154405  0.69774354  0.38334399  1
  Ti  Ti136  1  0.18373674  0.61209704  0.74986851  1
  Ti  Ti137  1  0.19109893  0.19602444  0.26566258  1
  Ti  Ti138  1  0.20505984  0.39865635  0.49326007  1
  Ti  Ti139  1  0.10716884  0.90826599  0.13320238  1
  Ti  Ti140  1  0.68419034  0.70500229  0.87690698  1
  Ti  Ti141  1  0.80931119  0.19452853  0.47877129  1
  Ti  Ti142  1  0.71021592  0.89295738  0.63897225  1
  Ti  Ti143  1  0.61024352  0.21951738  0.50779571  1
  Ti  Ti144  1  0.03013540  0.79478983  0.00179423  1
  Ti  Ti145  1  0.10383691  0.29096119  0.39634336  1
  Ti  Ti146  1  0.68932382  0.09736054  0.38729096  1
  Ti  Ti147  1  0.50746293  0.49973908  0.37585184  1
  Ti  Ti148  1  0.00087170  0.59879053  0.73021436  1
  Ti  Ti149  1  0.69866599  0.71074163  0.63519669  1
  Ti  Ti150  1  0.79394496  0.39760591  0.75575707  1
  Ti  Ti151  1  0.59439376  0.20080349  0.01517360  1
  Ti  Ti152  1  0.89658325  0.28884335  0.85982779  1
  Ti  Ti153  1  0.51101841  0.70279201  0.09870460  1
  Ti  Ti154  1  0.60897756  0.60658217  0.24982351  1
  Ti  Ti155  1  0.59930872  -0.00368582  0.00876341  1
  Ti  Ti156  1  0.39244510  0.00218201  0.50350563  1
  Ti  Ti157  1  0.39663785  0.20606345  0.73971740  1
  Ti  Ti158  1  0.33402730  0.71998857  0.13326705  1
  Ti  Ti159  1  0.40699918  0.60085845  0.76662776  1
  Mo  Mo160  1  0.68772247  0.30557989  0.63829183  1
  Mo  Mo161  1  0.09526760  0.70929112  0.13002026  1
  Mo  Mo162  1  0.31545162  0.90600095  0.13584936  1
  Mo  Mo163  1  0.60107407  0.80270142  0.00854522  1
  Mo  Mo164  1  0.50346726  0.90313514  0.89038271  1
  Mo  Mo165  1  0.40377223  0.40372299  0.26563054  1
  Mo  Mo166  1  0.39701019  0.40277230  0.76323798  1
  Mo  Mo167  1  0.50370528  0.70824406  0.88143589  1
  Mo  Mo168  1  0.89595213  0.29866770  0.38888707  1
  Mo  Mo169  1  0.00191860  0.59448954  0.01528776  1
  Mo  Mo170  1  0.40231377  0.80537248  -0.02078120  1
  Mo  Mo171  1  0.30922712  0.70131812  0.36182894  1
  Mo  Mo172  1  0.49260162  0.50405932  0.61790739  1
  Mo  Mo173  1  0.90159924  0.09258578  0.39326434  1
  Mo  Mo174  1  0.59253214  0.40302956  0.49240900  1
  Mo  Mo175  1  0.10863735  0.70179858  0.87676764  1
  Mo  Mo176  1  0.00681883  -0.01566338  0.00267382  1
  Mo  Mo177  1  0.89847297  0.49569623  0.85218370  1
  Mo  Mo178  1  0.79770556  0.20221696  0.76158123  1
  Mo  Mo179  1  0.29422641  0.29709353  0.37327174  1
  Mo  Mo180  1  0.29683639  0.10662908  0.62211097  1
  Mo  Mo181  1  0.19911115  0.00775786  0.24356799  1
  Mo  Mo182  1  0.00340294  0.19521284  0.50344792  1
  Mo  Mo183  1  0.19954419  0.79433849  0.51790891  1
  Mo  Mo184  1  0.69544631  0.08892593  0.11198567  1
  Mo  Mo185  1  0.20457274  0.79841023  0.73771289  1
  Mo  Mo186  1  0.30241912  0.90038504  0.85272007  1
  Mo  Mo187  1  0.90204121  0.09411121  0.60558881  1
  Mo  Mo188  1  0.39634578  -0.01003352  -0.01387932  1
  Mo  Mo189  1  0.60233417  0.60460317  -0.01728027  1
  Mo  Mo190  1  0.30293445  0.50210951  0.36100453  1
  Mo  Mo191  1  0.10162347  0.69570265  0.61173923  1
  Mo  Mo192  1  0.60261610  0.80497414  0.73888084  1
  Mo  Mo193  1  0.39724091  0.20948812  0.49504323  1
  Mo  Mo194  1  0.61096387  0.79664090  0.51866488  1
  Mo  Mo195  1  0.90522639  0.09426654  0.89140236  1
  Mo  Mo196  1  0.41214980  0.80736686  0.26132938  1
  Mo  Mo197  1  0.89791891  0.89254340  0.37997542  1
  Mo  Mo198  1  0.00787558  -0.00946163  0.73616621  1
  Mo  Mo199  1  0.20379697  0.00149317  0.52118195  1
