# generated using pymatgen
data_HfZrTaTiMo
_symmetry_space_group_name_H-M   'P 1'
_cell_length_a   15.84396391
_cell_length_b   15.83557821
_cell_length_c   15.37305327
_cell_angle_alpha   90.01599245
_cell_angle_beta   90.09675950
_cell_angle_gamma   90.06153196
_symmetry_Int_Tables_number   1
_chemical_formula_structural   HfZrTaTiMo
_chemical_formula_sum   'Hf40 Zr40 Ta40 Ti40 Mo40'
_cell_volume   3857.06550894
_cell_formula_units_Z   40
loop_
 _symmetry_equiv_pos_site_id
 _symmetry_equiv_pos_as_xyz
  1  'x, y, z'
loop_
 _atom_site_type_symbol
 _atom_site_label
 _atom_site_symmetry_multiplicity
 _atom_site_fract_x
 _atom_site_fract_y
 _atom_site_fract_z
 _atom_site_occupancy
  Hf  Hf0  1  0.60390362  -0.00081183  0.50461936  1
  Hf  Hf1  1  0.49671782  0.09986549  0.88542418  1
  Hf  Hf2  1  0.08786390  0.70935790  0.87100085  1
  Hf  Hf3  1  0.01098985  0.20303317  0.51245321  1
  Hf  Hf4  1  0.79950789  0.20934161  0.74572721  1
  Hf  Hf5  1  0.59126150  0.59899907  0.50974204  1
  Hf  Hf6  1  0.70743820  0.69535448  0.62454103  1
  Hf  Hf7  1  0.22257872  0.20694756  0.75804729  1
  Hf  Hf8  1  0.60758984  0.40614962  -0.01952756  1
  Hf  Hf9  1  0.09165717  0.69409359  0.63580173  1
  Hf  Hf10  1  0.49477233  0.29909169  0.88042651  1
  Hf  Hf11  1  0.90120542  0.30204567  0.38727453  1
  Hf  Hf12  1  0.30536351  0.30492444  0.35798525  1
  Hf  Hf13  1  0.60432520  0.60353545  -0.01770537  1
  Hf  Hf14  1  0.30611583  0.68519069  0.63410097  1
  Hf  Hf15  1  0.70202610  0.70479502  0.38608741  1
  Hf  Hf16  1  0.90295626  0.90295347  0.39287276  1
  Hf  Hf17  1  0.49661275  0.69340693  0.84750500  1
  Hf  Hf18  1  0.30315007  0.49700545  0.88032530  1
  Hf  Hf19  1  0.20912721  0.00015183  0.75595887  1
  Hf  Hf20  1  0.29036672  0.90255232  0.12276570  1
  Hf  Hf21  1  0.72341383  0.09285287  0.10848313  1
  Hf  Hf22  1  0.29191802  0.70013659  0.35133897  1
  Hf  Hf23  1  0.30677106  0.29790866  0.12657554  1
  Hf  Hf24  1  0.11864957  0.31335214  0.63511131  1
  Hf  Hf25  1  0.49695661  0.10094048  0.62203765  1
  Hf  Hf26  1  0.19454102  0.40123378  0.48261024  1
  Hf  Hf27  1  0.10607197  0.10614763  0.63755860  1
  Hf  Hf28  1  0.40603705  0.79490297  0.50083776  1
  Hf  Hf29  1  0.29591776  0.50995175  0.13414774  1
  Hf  Hf30  1  0.20110571  0.80348454  0.50812295  1
  Hf  Hf31  1  0.41154868  0.19057663  0.25400233  1
  Hf  Hf32  1  0.60067040  -0.00728890  0.75058927  1
  Hf  Hf33  1  -0.00041545  0.00317206  -0.00922941  1
  Hf  Hf34  1  0.29375360  0.09968114  0.11786331  1
  Hf  Hf35  1  0.51615014  0.10486036  0.11018956  1
  Hf  Hf36  1  0.70025552  0.29458434  0.11429452  1
  Hf  Hf37  1  0.29950948  0.90031844  0.37062114  1
  Hf  Hf38  1  0.80432827  -0.01264160  0.75316115  1
  Hf  Hf39  1  -0.00477321  0.41470978  0.74653271  1
  Zr  Zr40  1  0.30275387  0.71200793  0.87854434  1
  Zr  Zr41  1  0.79910329  0.19838552  0.25903630  1
  Zr  Zr42  1  0.79923023  0.40038223  0.25306151  1
  Zr  Zr43  1  0.39530289  0.39724693  0.51386056  1
  Zr  Zr44  1  0.61791830  -0.00949399  -0.00903604  1
  Zr  Zr45  1  0.61542876  -0.00945227  0.24961782  1
  Zr  Zr46  1  0.67228609  0.70528282  0.14216605  1
  Zr  Zr47  1  0.38612119  0.38448093  0.74804374  1
  Zr  Zr48  1  0.50174184  0.30157310  0.37929511  1
  Zr  Zr49  1  0.81015967  0.00560199  0.25616939  1
  Zr  Zr50  1  0.49519747  0.88077655  0.88655726  1
  Zr  Zr51  1  0.01104062  0.80172035  0.50538678  1
  Zr  Zr52  1  0.41330237  0.00119572  0.24803772  1
  Zr  Zr53  1  0.50162101  0.49532539  0.36438185  1
  Zr  Zr54  1  0.20331159  0.81463304  0.74007731  1
  Zr  Zr55  1  0.41247423  0.80322277  0.24171421  1
  Zr  Zr56  1  -0.01212535  0.61244386  0.00175423  1
  Zr  Zr57  1  0.39369052  -0.00422754  0.76130396  1
  Zr  Zr58  1  0.19454318  0.60198256  0.48491457  1
  Zr  Zr59  1  0.79625694  0.81355056  0.24296022  1
  Zr  Zr60  1  0.09936740  0.29717560  0.87006146  1
  Zr  Zr61  1  0.27553083  0.48477038  0.63785061  1
  Zr  Zr62  1  0.09913540  0.28683802  0.12991547  1
  Zr  Zr63  1  0.90120208  0.30382178  0.87497535  1
  Zr  Zr64  1  0.08926142  0.29763965  0.36469705  1
  Zr  Zr65  1  0.79671565  0.79257491  0.00688276  1
  Zr  Zr66  1  0.50989238  0.50205639  0.13722059  1
  Zr  Zr67  1  0.79904438  0.20479242  0.51641952  1
  Zr  Zr68  1  0.60166485  0.20135415  0.50398956  1
  Zr  Zr69  1  0.09358531  0.70398634  0.14214124  1
  Zr  Zr70  1  -0.00502237  0.40778313  0.00925369  1
  Zr  Zr71  1  0.31326885  0.09872980  0.60563050  1
  Zr  Zr72  1  0.89936920  0.49972590  0.39683995  1
  Zr  Zr73  1  0.70310344  0.50440326  0.12717160  1
  Zr  Zr74  1  0.18813150  0.59141230  0.76360644  1
  Zr  Zr75  1  0.18508743  0.41371043  0.24565405  1
  Zr  Zr76  1  0.39742728  0.59573476  0.49359554  1
  Zr  Zr77  1  0.19212384  -0.00299875  0.49272395  1
  Zr  Zr78  1  0.19287482  0.40723838  0.00841488  1
  Zr  Zr79  1  0.40688976  0.60837626  0.00693086  1
  Ta  Ta80  1  0.60864765  0.19298922  0.26230965  1
  Ta  Ta81  1  0.49363693  0.29183823  0.62859345  1
  Ta  Ta82  1  0.70423964  0.09475236  0.63377665  1
  Ta  Ta83  1  0.09970620  0.90031387  0.87799414  1
  Ta  Ta84  1  0.89588571  0.89761241  0.61447021  1
  Ta  Ta85  1  0.89129332  0.70735453  0.85667887  1
  Ta  Ta86  1  0.19003703  0.60574247  0.00413989  1
  Ta  Ta87  1  0.40390634  -0.00765287  0.01136314  1
  Ta  Ta88  1  0.59971726  0.80435956  0.72983512  1
  Ta  Ta89  1  0.52462073  0.87642959  0.11117226  1
  Ta  Ta90  1  0.09252930  0.70978443  0.35551625  1
  Ta  Ta91  1  0.89179740  0.29441354  0.11398340  1
  Ta  Ta92  1  0.60562705  0.38880522  0.25122181  1
  Ta  Ta93  1  0.20921154  0.20123104  0.48640400  1
  Ta  Ta94  1  0.60035732  0.40310473  0.52656844  1
  Ta  Ta95  1  0.90498863  0.09659246  0.63153763  1
  Ta  Ta96  1  0.70650715  0.88091877  0.87351144  1
  Ta  Ta97  1  0.07745987  0.50833069  0.61188635  1
  Ta  Ta98  1  0.89144610  0.50713341  0.12243790  1
  Ta  Ta99  1  0.60302365  0.20260306  0.75280862  1
  Ta  Ta100  1  0.60399892  0.39662481  0.74679704  1
  Ta  Ta101  1  0.50753194  0.29828692  0.12078276  1
  Ta  Ta102  1  0.79871170  0.60123465  0.26391750  1
  Ta  Ta103  1  0.90668425  0.09815132  0.39773534  1
  Ta  Ta104  1  0.18910287  0.80090144  0.00766818  1
  Ta  Ta105  1  0.30530538  0.29188066  0.90493393  1
  Ta  Ta106  1  0.91034085  0.10324200  0.85889540  1
  Ta  Ta107  1  0.90067352  0.67963627  0.62083682  1
  Ta  Ta108  1  0.19105883  0.00034227  0.26078552  1
  Ta  Ta109  1  0.40006841  0.80732147  0.72789937  1
  Ta  Ta110  1  0.69923848  0.69618861  0.85025228  1
  Ta  Ta111  1  0.69900866  0.31043090  0.38838250  1
  Ta  Ta112  1  0.09971771  0.09107231  0.12794969  1
  Ta  Ta113  1  -0.01264152  0.18837120  0.24269963  1
  Ta  Ta114  1  -0.01076764  0.40191888  0.23347576  1
  Ta  Ta115  1  0.90011185  0.70204396  0.38027748  1
  Ta  Ta116  1  0.29348667  0.70490775  0.13034996  1
  Ta  Ta117  1  0.00275216  -0.00796964  0.74921516  1
  Ta  Ta118  1  0.70959212  0.89576537  0.40179203  1
  Ta  Ta119  1  0.70698699  0.50594290  0.63452822  1
  Ti  Ti120  1  0.08444145  0.50487857  0.37725270  1
  Ti  Ti121  1  0.08988961  0.09519399  0.37219658  1
  Ti  Ti122  1  0.49216290  0.51058772  0.64767446  1
  Ti  Ti123  1  0.80626627  0.19519009  -0.01854032  1
  Ti  Ti124  1  0.48930748  0.90860697  0.61441325  1
  Ti  Ti125  1  -0.00710173  0.59236778  0.25232589  1
  Ti  Ti126  1  0.09878473  0.10307636  0.86561153  1
  Ti  Ti127  1  0.30346519  0.09821666  0.90129658  1
  Ti  Ti128  1  0.61489004  0.20443428  -0.02048758  1
  Ti  Ti129  1  0.40783713  0.60450208  0.24423288  1
  Ti  Ti130  1  -0.00900138  0.80838537  0.74209709  1
  Ti  Ti131  1  -0.00995126  0.80640470  0.00274054  1
  Ti  Ti132  1  0.79269741  0.60055532  -0.01184591  1
  Ti  Ti133  1  0.09728977  0.90571848  0.12326348  1
  Ti  Ti134  1  0.00860792  -0.00216990  0.51476033  1
  Ti  Ti135  1  0.89182789  0.51111514  0.87236179  1
  Ti  Ti136  1  0.51236427  0.89652505  0.38042887  1
  Ti  Ti137  1  -0.00274064  0.19400946  0.00629801  1
  Ti  Ti138  1  0.90835448  0.30909463  0.62763914  1
  Ti  Ti139  1  0.40821128  0.40505372  0.00889741  1
  Ti  Ti140  1  -0.00830533  0.81725094  0.24789637  1
  Ti  Ti141  1  0.89215590  0.69623280  0.14094579  1
  Ti  Ti142  1  -0.00444804  0.00343933  0.24402543  1
  Ti  Ti143  1  0.30530447  0.50026313  0.35233022  1
  Ti  Ti144  1  0.19001059  0.19096907  -0.00231330  1
  Ti  Ti145  1  0.49890691  0.50163436  0.85536063  1
  Ti  Ti146  1  0.79663121  0.40524168  0.74855757  1
  Ti  Ti147  1  0.70869136  0.09642329  0.38930113  1
  Ti  Ti148  1  0.29787134  0.89895099  0.90083159  1
  Ti  Ti149  1  0.80209134  0.80123569  0.73576769  1
  Ti  Ti150  1  0.59796022  0.80000422  0.51673964  1
  Ti  Ti151  1  0.19813442  0.18608580  0.26098646  1
  Ti  Ti152  1  0.88745349  0.92090829  0.10886667  1
  Ti  Ti153  1  0.70891582  0.09741805  0.86723969  1
  Ti  Ti154  1  0.09008057  0.50247083  0.88006290  1
  Ti  Ti155  1  0.79513494  0.40259806  0.52184299  1
  Ti  Ti156  1  0.79518974  0.40500801  -0.01308767  1
  Ti  Ti157  1  0.40036808  0.19447918  0.75708680  1
  Ti  Ti158  1  0.51239514  0.70129420  0.35931065  1
  Ti  Ti159  1  0.69742206  0.49827031  0.38784882  1
  Mo  Mo160  1  0.40822483  -0.00111359  0.47621550  1
  Mo  Mo161  1  0.39758479  0.79694454  0.01817409  1
  Mo  Mo162  1  0.30761058  0.90137546  0.60578542  1
  Mo  Mo163  1  -0.00173062  0.39943034  0.51595592  1
  Mo  Mo164  1  0.70106616  0.89751651  0.61912443  1
  Mo  Mo165  1  0.09762010  0.90366134  0.64109899  1
  Mo  Mo166  1  0.81010125  -0.00165243  -0.02988260  1
  Mo  Mo167  1  0.08856628  0.51164906  0.12937454  1
  Mo  Mo168  1  0.19151193  0.60242690  0.25694781  1
  Mo  Mo169  1  0.60642902  0.59577762  0.27201563  1
  Mo  Mo170  1  0.80373330  0.00375984  0.51276040  1
  Mo  Mo171  1  0.69631624  0.30521671  0.63602704  1
  Mo  Mo172  1  0.89368687  0.50365331  0.61586569  1
  Mo  Mo173  1  0.39528481  0.59615505  0.75086937  1
  Mo  Mo174  1  0.60448477  0.80893795  0.26796423  1
  Mo  Mo175  1  0.90580740  0.89013574  0.87342784  1
  Mo  Mo176  1  0.19136364  0.80922681  0.23841730  1
  Mo  Mo177  1  0.39906983  0.19408566  0.47951401  1
  Mo  Mo178  1  0.30339529  0.28800512  0.61133793  1
  Mo  Mo179  1  0.09232779  0.90034507  0.35644455  1
  Mo  Mo180  1  0.00104274  0.60708727  0.48313449  1
  Mo  Mo181  1  0.80407930  0.59526640  0.75528604  1
  Mo  Mo182  1  0.30061970  0.10113362  0.37473112  1
  Mo  Mo183  1  0.70131893  0.29948924  0.86909673  1
  Mo  Mo184  1  0.79679789  0.59846553  0.49200601  1
  Mo  Mo185  1  0.50060452  0.69954898  0.63441775  1
  Mo  Mo186  1  0.70524899  0.50110162  0.85576880  1
  Mo  Mo187  1  0.00084469  0.19881519  0.73763898  1
  Mo  Mo188  1  0.19479159  0.39786007  0.77078838  1
  Mo  Mo189  1  0.40587992  0.39769750  0.23156712  1
  Mo  Mo190  1  -0.00874112  0.60081172  0.76033987  1
  Mo  Mo191  1  0.90615041  0.10437274  0.11017957  1
  Mo  Mo192  1  0.70477667  0.89913867  0.10622540  1
  Mo  Mo193  1  0.60043482  0.78403578  -0.01835303  1
  Mo  Mo194  1  0.50653793  0.09401748  0.38099385  1
  Mo  Mo195  1  0.19486674  0.00117905  -0.01305745  1
  Mo  Mo196  1  0.80422473  0.79680658  0.51286344  1
  Mo  Mo197  1  0.50000087  0.69693898  0.13685840  1
  Mo  Mo198  1  0.60135875  0.59513776  0.74165633  1
  Mo  Mo199  1  0.40558754  0.19805253  0.01072285  1
