# generated using pymatgen
data_HfZrTaTiMo
_symmetry_space_group_name_H-M   'P 1'
_cell_length_a   15.82582140
_cell_length_b   15.83869681
_cell_length_c   15.39875370
_cell_angle_alpha   89.95797350
_cell_angle_beta   90.02266324
_cell_angle_gamma   89.98070950
_symmetry_Int_Tables_number   1
_chemical_formula_structural   HfZrTaTiMo
_chemical_formula_sum   'Hf40 Zr40 Ta40 Ti40 Mo40'
_cell_volume   3859.85600433
_cell_formula_units_Z   40
loop_
 _symmetry_equiv_pos_site_id
 _symmetry_equiv_pos_as_xyz
  1  'x, y, z'
loop_
 _atom_site_type_symbol
 _atom_site_label
 _atom_site_symmetry_multiplicity
 _atom_site_fract_x
 _atom_site_fract_y
 _atom_site_fract_z
 _atom_site_occupancy
  Hf  Hf0  1  0.59432211  0.60529981  0.51031525  1
  Hf  Hf1  1  0.89750721  0.70874990  0.89047431  1
  Hf  Hf2  1  0.30505955  0.30469888  0.63508685  1
  Hf  Hf3  1  0.20218025  0.60324267  0.74684229  1
  Hf  Hf4  1  0.90126397  0.90411870  0.87969807  1
  Hf  Hf5  1  0.19930357  0.41257576  0.51042087  1
  Hf  Hf6  1  0.51485954  0.29876918  0.36360644  1
  Hf  Hf7  1  0.20389317  0.20495042  0.50636000  1
  Hf  Hf8  1  0.70662147  0.29516421  0.38178019  1
  Hf  Hf9  1  0.09551101  0.09709278  0.86509407  1
  Hf  Hf10  1  0.88842036  0.49408901  0.10871062  1
  Hf  Hf11  1  0.50970213  0.30637309  0.11580122  1
  Hf  Hf12  1  0.00540284  0.21623593  0.23860874  1
  Hf  Hf13  1  0.09366754  0.10888595  0.37563021  1
  Hf  Hf14  1  0.59404754  -0.00475713  0.75705815  1
  Hf  Hf15  1  0.50042013  0.29331422  0.63464093  1
  Hf  Hf16  1  -0.01492169  0.01603852  0.50356044  1
  Hf  Hf17  1  0.80312072  0.59774431  0.75648837  1
  Hf  Hf18  1  0.19557194  0.59882929  0.00871584  1
  Hf  Hf19  1  0.40363809  -0.00622555  0.77342882  1
  Hf  Hf20  1  0.89350851  0.71273344  0.11878704  1
  Hf  Hf21  1  0.61185472  0.18242830  0.51266190  1
  Hf  Hf22  1  0.71022140  0.30320681  0.63979565  1
  Hf  Hf23  1  0.50076412  0.89842329  0.12705119  1
  Hf  Hf24  1  0.69107055  0.69719598  0.36915278  1
  Hf  Hf25  1  0.18029860  0.39543996  0.24167485  1
  Hf  Hf26  1  0.30363014  0.70813303  0.62340089  1
  Hf  Hf27  1  0.49544426  0.69946182  0.33768371  1
  Hf  Hf28  1  0.78415048  0.00727261  0.50079881  1
  Hf  Hf29  1  -0.01301436  0.19677715  -0.00649523  1
  Hf  Hf30  1  0.80410812  0.59202188  0.25253369  1
  Hf  Hf31  1  0.20791301  0.00410591  0.49061153  1
  Hf  Hf32  1  0.69191426  0.50182949  0.88561296  1
  Hf  Hf33  1  0.40562607  0.18663185  0.76768383  1
  Hf  Hf34  1  0.57701840  0.80282678  0.49283955  1
  Hf  Hf35  1  0.40733472  0.60339636  0.74925735  1
  Hf  Hf36  1  0.30223281  0.89183664  0.61546128  1
  Hf  Hf37  1  0.72052042  0.49703883  0.62020851  1
  Hf  Hf38  1  0.18058229  0.19978043  0.01175542  1
  Hf  Hf39  1  0.50789026  0.69381489  0.89673348  1
  Zr  Zr40  1  0.69449104  0.70611661  0.13754426  1
  Zr  Zr41  1  0.30433617  0.50458876  0.35404888  1
  Zr  Zr42  1  0.31630896  0.09128723  0.62312926  1
  Zr  Zr43  1  0.50303771  0.31153388  0.88464488  1
  Zr  Zr44  1  0.19722597  -0.00443651  0.25268053  1
  Zr  Zr45  1  0.39746752  0.61283378  0.50093043  1
  Zr  Zr46  1  0.90024171  0.90457779  0.12852278  1
  Zr  Zr47  1  0.19902818  0.19962144  0.74618753  1
  Zr  Zr48  1  0.90085639  0.68725772  0.60316454  1
  Zr  Zr49  1  0.19624146  0.80149593  0.25369431  1
  Zr  Zr50  1  0.09836461  0.89469922  0.60871408  1
  Zr  Zr51  1  0.00008134  0.59900725  0.25313022  1
  Zr  Zr52  1  0.89712258  0.10131311  0.13777517  1
  Zr  Zr53  1  0.81742530  0.19346803  0.51466801  1
  Zr  Zr54  1  0.00125384  0.60077506  -0.00157470  1
  Zr  Zr55  1  0.78999090  0.00635750  0.26753141  1
  Zr  Zr56  1  0.79869160  0.79681009  0.74465643  1
  Zr  Zr57  1  0.29183392  0.30198388  0.88115512  1
  Zr  Zr58  1  0.50698494  0.49808452  0.37177422  1
  Zr  Zr59  1  0.39685064  0.39866056  0.49851878  1
  Zr  Zr60  1  0.69027883  0.89206166  0.62682876  1
  Zr  Zr61  1  0.30495045  0.69851706  0.89364942  1
  Zr  Zr62  1  0.09032581  0.30631862  0.39122934  1
  Zr  Zr63  1  0.30385910  0.09229120  0.12056618  1
  Zr  Zr64  1  0.49862173  0.49657901  0.62392245  1
  Zr  Zr65  1  0.30234126  0.29751872  0.36048760  1
  Zr  Zr66  1  0.20119655  -0.00768656  0.74866651  1
  Zr  Zr67  1  0.60270607  0.19180065  0.75569700  1
  Zr  Zr68  1  0.70320824  0.49378301  0.38669611  1
  Zr  Zr69  1  0.70990534  0.30390950  0.10837975  1
  Zr  Zr70  1  0.30676546  0.49685252  0.12483081  1
  Zr  Zr71  1  0.10420060  0.49946446  0.86885395  1
  Zr  Zr72  1  0.00235710  0.79911318  0.74281028  1
  Zr  Zr73  1  0.50387891  0.09633171  0.12053114  1
  Zr  Zr74  1  0.30877905  0.70131911  0.13017304  1
  Zr  Zr75  1  -0.00064480  0.80170146  0.26549092  1
  Zr  Zr76  1  0.41195923  0.18424767  0.49187138  1
  Zr  Zr77  1  0.51752536  0.08554500  0.35094568  1
  Zr  Zr78  1  0.30760663  0.29732583  0.12284180  1
  Zr  Zr79  1  0.72081135  0.10527901  0.87026746  1
  Ta  Ta80  1  0.89545498  0.30630935  0.11273408  1
  Ta  Ta81  1  0.48533822  0.89322695  0.62865905  1
  Ta  Ta82  1  0.61932244  0.19596529  0.23963589  1
  Ta  Ta83  1  0.09328355  0.10530702  0.62424853  1
  Ta  Ta84  1  0.10152381  0.70019243  0.60628486  1
  Ta  Ta85  1  0.00108374  0.00518546  -0.00432154  1
  Ta  Ta86  1  0.79788380  0.80594662  0.27235632  1
  Ta  Ta87  1  0.80489172  0.00086609  0.73880684  1
  Ta  Ta88  1  0.20685231  0.79218960  0.47645108  1
  Ta  Ta89  1  0.78896585  0.60643147  0.00132004  1
  Ta  Ta90  1  0.70021750  0.69880294  0.61474260  1
  Ta  Ta91  1  0.60331656  0.60654274  0.74165372  1
  Ta  Ta92  1  0.40136797  0.80215555  0.76760808  1
  Ta  Ta93  1  0.09007348  0.50899799  0.62550896  1
  Ta  Ta94  1  0.60168056  0.40954722  0.75658430  1
  Ta  Ta95  1  0.09144144  0.30110700  0.86207488  1
  Ta  Ta96  1  0.58990947  0.00024813  0.51011914  1
  Ta  Ta97  1  0.20150238  0.79904869  0.76103647  1
  Ta  Ta98  1  -0.00151388  0.60201358  0.75170949  1
  Ta  Ta99  1  0.10007213  0.89851599  0.88609220  1
  Ta  Ta100  1  0.30814270  0.49867054  0.89024962  1
  Ta  Ta101  1  0.20048544  0.60129425  0.49094808  1
  Ta  Ta102  1  0.09259454  0.90294662  0.38825511  1
  Ta  Ta103  1  0.30506666  0.90171670  0.11067911  1
  Ta  Ta104  1  0.70235126  0.89502363  0.88098412  1
  Ta  Ta105  1  0.19022627  0.80102406  0.00952988  1
  Ta  Ta106  1  -0.01368818  0.40477168  0.24924636  1
  Ta  Ta107  1  0.89990373  0.69172940  0.39113509  1
  Ta  Ta108  1  0.29559516  0.89742793  0.89926974  1
  Ta  Ta109  1  0.29443675  0.09096953  0.89788355  1
  Ta  Ta110  1  0.18882471  0.39656238  0.00552296  1
  Ta  Ta111  1  0.79128528  0.80336665  0.48574581  1
  Ta  Ta112  1  0.40888497  -0.01711439  0.47956298  1
  Ta  Ta113  1  0.61134175  0.19800967  -0.01094285  1
  Ta  Ta114  1  0.18969629  0.60207445  0.25489112  1
  Ta  Ta115  1  -0.00160331  0.39149706  -0.01294249  1
  Ta  Ta116  1  0.80507186  0.00744409  -0.00423127  1
  Ta  Ta117  1  0.80201631  0.39759945  0.25686550  1
  Ta  Ta118  1  0.39762611  0.41059479  0.75834076  1
  Ta  Ta119  1  -0.01091499  0.40553969  0.75267184  1
  Ti  Ti120  1  0.59147241  0.79336683  0.75401687  1
  Ti  Ti121  1  0.09218841  0.70573997  0.12434192  1
  Ti  Ti122  1  0.41987029  0.40607164  0.24325651  1
  Ti  Ti123  1  0.90423673  0.30641370  0.38752692  1
  Ti  Ti124  1  0.20006718  0.40880411  0.74239158  1
  Ti  Ti125  1  0.70652601  0.10003466  0.11607228  1
  Ti  Ti126  1  -0.00370338  -0.00261828  0.74213077  1
  Ti  Ti127  1  0.90054193  0.90254430  0.38463207  1
  Ti  Ti128  1  0.09046172  0.30605865  0.63077290  1
  Ti  Ti129  1  0.88339672  0.29080304  0.86844589  1
  Ti  Ti130  1  -0.01223274  0.20129335  0.74261996  1
  Ti  Ti131  1  0.30935470  0.70210726  0.35630862  1
  Ti  Ti132  1  0.69673593  0.70341168  0.88301872  1
  Ti  Ti133  1  0.09640570  0.70851619  0.87986641  1
  Ti  Ti134  1  0.40613278  0.19390145  -0.00792922  1
  Ti  Ti135  1  0.50062056  0.89147756  0.89786543  1
  Ti  Ti136  1  0.60398190  0.39137225  0.51186372  1
  Ti  Ti137  1  0.49989542  0.50660863  0.89304821  1
  Ti  Ti138  1  0.50077860  0.70014553  0.12462394  1
  Ti  Ti139  1  0.09305711  0.90347334  0.11979840  1
  Ti  Ti140  1  0.61032686  0.80104147  0.00795105  1
  Ti  Ti141  1  -0.01214063  0.41115529  0.51279475  1
  Ti  Ti142  1  0.60735295  0.00119038  -0.00486382  1
  Ti  Ti143  1  0.19635885  0.20116592  0.23972872  1
  Ti  Ti144  1  0.89756546  0.89458827  0.61139421  1
  Ti  Ti145  1  0.49169380  0.89353458  0.34515501  1
  Ti  Ti146  1  0.50466445  0.49766996  0.10204341  1
  Ti  Ti147  1  0.09026181  0.08861046  0.13372925  1
  Ti  Ti148  1  0.08942971  0.49560790  0.12255830  1
  Ti  Ti149  1  0.70523673  0.90384535  0.12416535  1
  Ti  Ti150  1  0.59811869  0.57697344  0.23300402  1
  Ti  Ti151  1  0.80428824  0.20893442  0.25276437  1
  Ti  Ti152  1  0.89445972  0.49837258  0.88279386  1
  Ti  Ti153  1  0.89648581  0.31416354  0.63161482  1
  Ti  Ti154  1  0.90380311  0.11325469  0.36768425  1
  Ti  Ti155  1  0.40748319  0.19714243  0.24636864  1
  Ti  Ti156  1  0.30766639  0.09521810  0.36019082  1
  Ti  Ti157  1  0.67577965  0.90866956  0.36873468  1
  Ti  Ti158  1  0.08868668  0.50299226  0.38282659  1
  Ti  Ti159  1  0.69665133  0.48858979  0.11026203  1
  Mo  Mo160  1  0.80951104  0.39780145  0.49315675  1
  Mo  Mo161  1  0.39738849  0.80386299  0.23558800  1
  Mo  Mo162  1  0.80036851  0.59952854  0.49268352  1
  Mo  Mo163  1  0.10054945  0.69568121  0.38755621  1
  Mo  Mo164  1  0.80886785  0.20045176  0.73611371  1
  Mo  Mo165  1  0.70011496  0.09419588  0.64300245  1
  Mo  Mo166  1  0.00204985  0.21145297  0.52294447  1
  Mo  Mo167  1  0.90231992  0.49209000  0.37967665  1
  Mo  Mo168  1  0.60290906  0.60201435  0.01610288  1
  Mo  Mo169  1  0.80321825  0.19604738  -0.00290130  1
  Mo  Mo170  1  0.39414725  -0.00401083  0.25719482  1
  Mo  Mo171  1  0.40708291  0.59485162  0.22944668  1
  Mo  Mo172  1  -0.00084231  0.00457569  0.27154349  1
  Mo  Mo173  1  0.70613788  0.30549586  0.86884947  1
  Mo  Mo174  1  0.60916272  0.39910795  0.23822619  1
  Mo  Mo175  1  0.49888972  0.08322998  0.62372857  1
  Mo  Mo176  1  0.60171735  0.40059848  -0.00955128  1
  Mo  Mo177  1  0.90656234  0.09685853  0.85764548  1
  Mo  Mo178  1  0.50308716  0.71236482  0.63864207  1
  Mo  Mo179  1  0.29267174  0.50502248  0.63660859  1
  Mo  Mo180  1  0.70064575  0.10553839  0.36962797  1
  Mo  Mo181  1  0.30523566  0.89522819  0.37497058  1
  Mo  Mo182  1  0.00514776  0.59342134  0.49548548  1
  Mo  Mo183  1  0.90410101  0.49698433  0.63185411  1
  Mo  Mo184  1  0.40458245  -0.00260981  -0.01184616  1
  Mo  Mo185  1  0.39791076  0.39996401  -0.00710284  1
  Mo  Mo186  1  -0.00261656  0.80169178  0.49024289  1
  Mo  Mo187  1  0.60655350  -0.00055364  0.23035697  1
  Mo  Mo188  1  0.60606097  0.80957144  0.24432504  1
  Mo  Mo189  1  0.19009387  -0.00183516  0.01101493  1
  Mo  Mo190  1  0.80334933  0.40037115  0.76865053  1
  Mo  Mo191  1  0.50575663  0.09498998  0.89800308  1
  Mo  Mo192  1  0.90372428  0.09736091  0.64077405  1
  Mo  Mo193  1  0.40392919  0.80119398  0.00487369  1
  Mo  Mo194  1  0.79162580  0.80971163  -0.00205148  1
  Mo  Mo195  1  0.40638087  0.59716538  0.01170473  1
  Mo  Mo196  1  0.08891003  0.30493822  0.11722847  1
  Mo  Mo197  1  0.80376427  0.39721222  -0.01959298  1
  Mo  Mo198  1  0.39937907  0.80081545  0.48238074  1
  Mo  Mo199  1  0.00445183  0.80777043  0.00513392  1
