# generated using pymatgen
data_HfZrTaTiMo
_symmetry_space_group_name_H-M   'P 1'
_cell_length_a   15.82742117
_cell_length_b   15.83336814
_cell_length_c   15.38912166
_cell_angle_alpha   90.04797682
_cell_angle_beta   89.93835842
_cell_angle_gamma   90.05169013
_symmetry_Int_Tables_number   1
_chemical_formula_structural   HfZrTaTiMo
_chemical_formula_sum   'Hf40 Zr40 Ta40 Ti40 Mo40'
_cell_volume   3856.53007017
_cell_formula_units_Z   40
loop_
 _symmetry_equiv_pos_site_id
 _symmetry_equiv_pos_as_xyz
  1  'x, y, z'
loop_
 _atom_site_type_symbol
 _atom_site_label
 _atom_site_symmetry_multiplicity
 _atom_site_fract_x
 _atom_site_fract_y
 _atom_site_fract_z
 _atom_site_occupancy
  Hf  Hf0  1  0.38198211  0.59576186  0.75980985  1
  Hf  Hf1  1  0.50111088  0.50124117  0.12003955  1
  Hf  Hf2  1  0.60128921  0.39468379  0.25820912  1
  Hf  Hf3  1  0.79190613  0.00872721  0.00345967  1
  Hf  Hf4  1  -0.01091214  0.60551409  0.48477613  1
  Hf  Hf5  1  0.60525263  0.19968631  0.75467666  1
  Hf  Hf6  1  0.91118226  0.30013069  0.87225483  1
  Hf  Hf7  1  0.30224441  0.49443273  0.12148998  1
  Hf  Hf8  1  0.49709258  0.30033156  0.39665923  1
  Hf  Hf9  1  0.50220955  0.88550098  0.36595076  1
  Hf  Hf10  1  0.28492908  0.68515471  0.62038201  1
  Hf  Hf11  1  0.42388784  0.19185435  -0.01295081  1
  Hf  Hf12  1  0.31069916  0.09254650  0.86978092  1
  Hf  Hf13  1  -0.01820165  0.58054571  0.00996026  1
  Hf  Hf14  1  0.09567952  0.70454560  0.36375516  1
  Hf  Hf15  1  0.88811642  0.69377281  0.89144253  1
  Hf  Hf16  1  0.39208670  -0.00864966  0.51114625  1
  Hf  Hf17  1  0.70164412  0.50919239  0.12957037  1
  Hf  Hf18  1  0.30268890  0.69881101  0.12308142  1
  Hf  Hf19  1  0.50264508  0.89870680  0.62899906  1
  Hf  Hf20  1  0.89303094  0.50811946  0.35543696  1
  Hf  Hf21  1  0.20279874  0.21249916  0.74304707  1
  Hf  Hf22  1  0.79772878  0.00355579  0.74739890  1
  Hf  Hf23  1  0.39949739  0.19829980  0.74084189  1
  Hf  Hf24  1  0.29248476  0.08718823  0.36151528  1
  Hf  Hf25  1  0.29675301  0.48348503  0.88008681  1
  Hf  Hf26  1  0.11356132  0.31268684  0.60342745  1
  Hf  Hf27  1  0.30265764  0.28188582  0.11459210  1
  Hf  Hf28  1  0.50142106  0.30519904  0.62121644  1
  Hf  Hf29  1  -0.00883013  0.01868329  -0.00173513  1
  Hf  Hf30  1  0.49861097  0.09497128  0.38056314  1
  Hf  Hf31  1  0.80063734  0.41522898  0.49274279  1
  Hf  Hf32  1  0.61176948  -0.01077026  0.49264147  1
  Hf  Hf33  1  0.38316580  0.19272618  0.51155464  1
  Hf  Hf34  1  0.49952253  0.69265480  0.61807424  1
  Hf  Hf35  1  0.61085192  0.59924412  0.75163780  1
  Hf  Hf36  1  0.51576353  0.11035904  0.14236341  1
  Hf  Hf37  1  0.40059750  0.39430142  0.24754969  1
  Hf  Hf38  1  0.19591387  0.00846351  0.74461253  1
  Hf  Hf39  1  0.49565758  0.91860517  0.87024278  1
  Zr  Zr40  1  -0.00801894  0.81518741  0.48532390  1
  Zr  Zr41  1  0.08959973  0.68890560  0.62924638  1
  Zr  Zr42  1  0.49566224  0.49463067  0.63417867  1
  Zr  Zr43  1  0.29327414  0.88699058  0.63558185  1
  Zr  Zr44  1  0.02094869  0.41470333  0.75696817  1
  Zr  Zr45  1  0.00413214  0.21062191  0.25263810  1
  Zr  Zr46  1  0.09281385  0.88379759  0.63726723  1
  Zr  Zr47  1  0.29985878  0.89923300  0.35765933  1
  Zr  Zr48  1  0.79939411  0.38391827  0.24497004  1
  Zr  Zr49  1  0.81987147  0.40550446  0.01460706  1
  Zr  Zr50  1  -0.01060526  0.00722673  0.74124939  1
  Zr  Zr51  1  0.90668222  0.30814304  0.61940159  1
  Zr  Zr52  1  0.81796985  -0.00524855  0.49693946  1
  Zr  Zr53  1  0.50144529  0.70475010  0.88656836  1
  Zr  Zr54  1  0.90569229  0.51504083  0.62808580  1
  Zr  Zr55  1  0.89973556  0.90998859  0.13481319  1
  Zr  Zr56  1  0.09402173  0.90019729  0.88106188  1
  Zr  Zr57  1  0.01222404  0.17937255  0.50117148  1
  Zr  Zr58  1  0.70366120  0.30446018  0.87905328  1
  Zr  Zr59  1  0.09002732  0.47935762  0.36952055  1
  Zr  Zr60  1  0.70059492  0.30428944  0.62011107  1
  Zr  Zr61  1  0.69778653  0.26863192  0.11165396  1
  Zr  Zr62  1  0.60532000  0.41348138  0.48976056  1
  Zr  Zr63  1  0.71286851  0.50825513  0.88965390  1
  Zr  Zr64  1  0.29890349  0.49003302  0.37056780  1
  Zr  Zr65  1  0.39553861  0.78945260  0.75695156  1
  Zr  Zr66  1  0.50546561  0.48908447  0.86993743  1
  Zr  Zr67  1  0.89302184  0.89563927  0.88209004  1
  Zr  Zr68  1  0.40031172  0.20341966  0.25672543  1
  Zr  Zr69  1  0.79630483  0.80568298  0.48727466  1
  Zr  Zr70  1  0.18678030  0.01205506  0.51274318  1
  Zr  Zr71  1  0.70081214  0.70842731  0.89477090  1
  Zr  Zr72  1  0.10501170  0.10751094  0.12274474  1
  Zr  Zr73  1  0.60651528  0.79873053  0.74612722  1
  Zr  Zr74  1  0.20030267  0.79626646  0.00238978  1
  Zr  Zr75  1  0.30212613  0.89998272  0.87535077  1
  Zr  Zr76  1  0.30388991  0.70207289  0.36806985  1
  Zr  Zr77  1  0.19613387  0.59698647  0.24347823  1
  Zr  Zr78  1  0.92125114  0.31306201  0.39056682  1
  Zr  Zr79  1  0.59594491  0.01964892  0.00339589  1
  Ta  Ta80  1  0.19533336  0.77463448  0.77239196  1
  Ta  Ta81  1  0.79978564  0.79960912  0.74428549  1
  Ta  Ta82  1  0.10011041  0.90331804  0.12018119  1
  Ta  Ta83  1  0.19740467  0.19983660  0.26037966  1
  Ta  Ta84  1  0.60921681  0.00279269  0.26207941  1
  Ta  Ta85  1  0.19269731  0.59271419  -0.00320118  1
  Ta  Ta86  1  0.81031678  0.19587640  0.74534174  1
  Ta  Ta87  1  0.19221197  0.80484487  0.23786143  1
  Ta  Ta88  1  -0.00341156  0.59972737  0.23583554  1
  Ta  Ta89  1  0.80403153  0.19648279  0.49082571  1
  Ta  Ta90  1  0.70356907  0.89926903  0.62847225  1
  Ta  Ta91  1  0.88911503  0.70148233  0.35356469  1
  Ta  Ta92  1  0.17910233  0.58146523  0.77176781  1
  Ta  Ta93  1  0.40878956  0.60120710  0.25252736  1
  Ta  Ta94  1  0.69007317  0.70754015  0.36562995  1
  Ta  Ta95  1  0.70220750  0.10364409  0.61418378  1
  Ta  Ta96  1  0.89547546  0.70687001  0.62376672  1
  Ta  Ta97  1  0.80285593  0.19670814  0.26974148  1
  Ta  Ta98  1  0.00524779  0.20014528  0.73931579  1
  Ta  Ta99  1  0.39568958  0.60285504  -0.00768385  1
  Ta  Ta100  1  0.58901832  0.60962801  0.25560888  1
  Ta  Ta101  1  0.19566826  0.59629961  0.48779746  1
  Ta  Ta102  1  0.79154227  0.80968905  0.25143997  1
  Ta  Ta103  1  0.20635199  0.00544154  0.00715489  1
  Ta  Ta104  1  0.88778995  0.69918449  0.13307706  1
  Ta  Ta105  1  0.80018113  0.40919325  0.75045463  1
  Ta  Ta106  1  0.69519567  0.90252457  0.87623848  1
  Ta  Ta107  1  0.39821582  0.79153802  0.49979921  1
  Ta  Ta108  1  0.08498227  0.68981899  0.88744167  1
  Ta  Ta109  1  0.69374398  0.91124760  0.14006587  1
  Ta  Ta110  1  0.19598532  0.80090126  0.48889617  1
  Ta  Ta111  1  0.40368173  0.80732976  0.00835043  1
  Ta  Ta112  1  0.09982262  0.49335108  0.12195109  1
  Ta  Ta113  1  0.39698057  0.59173505  0.49652861  1
  Ta  Ta114  1  0.30415073  0.90599544  0.13416878  1
  Ta  Ta115  1  0.09553830  0.11208759  0.87656725  1
  Ta  Ta116  1  0.19737461  0.39124903  0.00564510  1
  Ta  Ta117  1  0.19121220  0.37895561  0.23839793  1
  Ta  Ta118  1  0.78941049  0.80786767  0.02338279  1
  Ta  Ta119  1  0.50889933  0.09898690  0.61999162  1
  Ti  Ti120  1  0.60090226  0.79699431  0.49931607  1
  Ti  Ti121  1  0.20409964  0.19455668  -0.00865291  1
  Ti  Ti122  1  0.89041109  0.10956708  0.13934522  1
  Ti  Ti123  1  0.91159560  0.08873382  0.36849419  1
  Ti  Ti124  1  0.10335586  0.91401924  0.36124796  1
  Ti  Ti125  1  0.40639382  0.39120648  0.00204682  1
  Ti  Ti126  1  -0.01015174  0.78779047  0.75882131  1
  Ti  Ti127  1  0.00328958  0.38956516  0.01143673  1
  Ti  Ti128  1  0.00772909  0.00507124  0.24795324  1
  Ti  Ti129  1  0.09177509  0.69962191  0.11983553  1
  Ti  Ti130  1  0.49562277  0.50379328  0.37701764  1
  Ti  Ti131  1  0.28753555  0.48570050  0.62551378  1
  Ti  Ti132  1  0.70507460  0.09946057  0.38170164  1
  Ti  Ti133  1  0.50867907  0.29698007  0.12196606  1
  Ti  Ti134  1  0.50155706  0.70130767  0.11648193  1
  Ti  Ti135  1  0.50110571  0.90499528  0.13922190  1
  Ti  Ti136  1  -0.00014506  -0.00305994  0.51058824  1
  Ti  Ti137  1  0.81639030  0.19023128  -0.00761199  1
  Ti  Ti138  1  0.60318940  0.00681242  0.74704243  1
  Ti  Ti139  1  0.30477881  0.29931564  0.87775435  1
  Ti  Ti140  1  0.10668874  0.30159473  0.88243941  1
  Ti  Ti141  1  0.61448400  0.20563312  0.27417671  1
  Ti  Ti142  1  0.69004236  0.70768743  0.13498084  1
  Ti  Ti143  1  0.70320505  0.51570405  0.36129043  1
  Ti  Ti144  1  0.60226454  0.60513621  0.48691692  1
  Ti  Ti145  1  0.70783165  0.69477331  0.61000491  1
  Ti  Ti146  1  0.59701266  0.81656478  0.01229229  1
  Ti  Ti147  1  0.59901226  0.39136100  0.00272590  1
  Ti  Ti148  1  0.40999988  0.79057263  0.24097884  1
  Ti  Ti149  1  -0.00093800  0.80487682  0.24567757  1
  Ti  Ti150  1  0.80621000  0.60670361  0.74997489  1
  Ti  Ti151  1  0.50082203  0.30967521  0.85831931  1
  Ti  Ti152  1  -0.00067462  0.39224853  0.22389451  1
  Ti  Ti153  1  0.10571670  0.50436518  0.61306131  1
  Ti  Ti154  1  0.28970433  0.30214831  0.39199644  1
  Ti  Ti155  1  0.40072368  0.00444914  0.01900772  1
  Ti  Ti156  1  0.59910164  0.60341922  0.00496213  1
  Ti  Ti157  1  0.70156639  0.10443987  0.87334824  1
  Ti  Ti158  1  0.70444386  0.50998336  0.62249608  1
  Ti  Ti159  1  -0.00883230  0.79943309  0.01060568  1
  Mo  Mo160  1  0.39460248  0.40361365  0.50651683  1
  Mo  Mo161  1  0.70424565  0.29395623  0.38753422  1
  Mo  Mo162  1  0.90076932  0.49576949  0.14400595  1
  Mo  Mo163  1  0.50582723  0.09953261  0.85521981  1
  Mo  Mo164  1  0.30697033  0.09569596  0.12694908  1
  Mo  Mo165  1  0.78907703  0.60966723  0.48796254  1
  Mo  Mo166  1  0.10408954  0.29521864  0.10983669  1
  Mo  Mo167  1  -0.00466656  0.60393588  0.76800937  1
  Mo  Mo168  1  0.78976600  0.60918312  0.24542186  1
  Mo  Mo169  1  0.38393168  0.38917159  0.74143482  1
  Mo  Mo170  1  0.91008732  0.90298679  0.35113028  1
  Mo  Mo171  1  0.61399735  0.40375772  0.74504140  1
  Mo  Mo172  1  0.09936856  0.10617938  0.63627431  1
  Mo  Mo173  1  0.49959976  0.69493824  0.38775311  1
  Mo  Mo174  1  -0.00026466  0.20532276  0.00010540  1
  Mo  Mo175  1  0.30061665  0.09966710  0.63345393  1
  Mo  Mo176  1  0.10076834  0.09188507  0.35977993  1
  Mo  Mo177  1  0.69994193  0.89864906  0.36044848  1
  Mo  Mo178  1  0.90316717  0.28734929  0.11696299  1
  Mo  Mo179  1  0.89602326  0.10342428  0.62193228  1
  Mo  Mo180  1  0.19798887  -0.00086955  0.23012048  1
  Mo  Mo181  1  0.40313644  0.00522735  0.72963231  1
  Mo  Mo182  1  0.40728821  -0.00142563  0.23709214  1
  Mo  Mo183  1  0.60034704  0.20449818  -0.02113989  1
  Mo  Mo184  1  0.20440986  0.40028061  0.75895738  1
  Mo  Mo185  1  0.09522982  0.49053302  0.89990887  1
  Mo  Mo186  1  0.79514218  0.60741813  0.02608925  1
  Mo  Mo187  1  0.89936103  0.11116658  0.86766202  1
  Mo  Mo188  1  0.30093560  0.30962284  0.61286614  1
  Mo  Mo189  1  0.20287648  0.40651013  0.49365843  1
  Mo  Mo190  1  0.29153307  0.69088585  0.89152210  1
  Mo  Mo191  1  0.70848540  0.09941890  0.14731289  1
  Mo  Mo192  1  0.89916537  0.50138917  0.86371264  1
  Mo  Mo193  1  0.11126553  0.29659821  0.38749752  1
  Mo  Mo194  1  0.60571155  0.19269676  0.49668458  1
  Mo  Mo195  1  0.59407231  0.79854713  0.23730536  1
  Mo  Mo196  1  0.89659823  0.89182665  0.63578425  1
  Mo  Mo197  1  0.80444304  0.00683990  0.26529845  1
  Mo  Mo198  1  0.00219326  0.41408444  0.50657111  1
  Mo  Mo199  1  0.20035566  0.19799540  0.48782283  1
