# generated using pymatgen
data_HfZrTaTiMo
_symmetry_space_group_name_H-M   'P 1'
_cell_length_a   15.83125870
_cell_length_b   15.84603194
_cell_length_c   15.42419239
_cell_angle_alpha   89.95494172
_cell_angle_beta   90.01617868
_cell_angle_gamma   90.20080513
_symmetry_Int_Tables_number   1
_chemical_formula_structural   HfZrTaTiMo
_chemical_formula_sum   'Hf40 Zr40 Ta40 Ti40 Mo40'
_cell_volume   3869.32837245
_cell_formula_units_Z   40
loop_
 _symmetry_equiv_pos_site_id
 _symmetry_equiv_pos_as_xyz
  1  'x, y, z'
loop_
 _atom_site_type_symbol
 _atom_site_label
 _atom_site_symmetry_multiplicity
 _atom_site_fract_x
 _atom_site_fract_y
 _atom_site_fract_z
 _atom_site_occupancy
  Hf  Hf0  1  0.80281816  0.59688950  0.74650217  1
  Hf  Hf1  1  0.70236944  0.70312270  0.38717380  1
  Hf  Hf2  1  0.49718136  0.88872441  0.12263663  1
  Hf  Hf3  1  0.30065005  0.90935547  0.61520492  1
  Hf  Hf4  1  0.38132809  -0.01236602  0.24443686  1
  Hf  Hf5  1  0.69545426  0.70816914  0.62674988  1
  Hf  Hf6  1  0.90395328  0.30494514  0.38871963  1
  Hf  Hf7  1  0.89726759  0.70161436  0.61242116  1
  Hf  Hf8  1  0.39718258  0.40178457  0.24183394  1
  Hf  Hf9  1  0.28984482  0.09173881  0.11519272  1
  Hf  Hf10  1  0.30575896  0.09866760  0.62960477  1
  Hf  Hf11  1  0.28895699  0.29097497  0.11902913  1
  Hf  Hf12  1  0.59302067  0.39706586  0.75406733  1
  Hf  Hf13  1  0.18249251  0.38056524  0.25425887  1
  Hf  Hf14  1  0.49975176  0.69597094  0.12931049  1
  Hf  Hf15  1  0.70576032  0.89204428  0.12768216  1
  Hf  Hf16  1  0.90986179  0.89884566  0.88432302  1
  Hf  Hf17  1  0.49234563  0.70123971  0.36421346  1
  Hf  Hf18  1  0.70780016  0.11028908  0.35201703  1
  Hf  Hf19  1  0.60786367  0.00184956  0.23621564  1
  Hf  Hf20  1  0.89869181  0.70203824  0.12440942  1
  Hf  Hf21  1  0.00231888  0.81347979  0.25571870  1
  Hf  Hf22  1  0.58256754  0.39093489  -0.00265267  1
  Hf  Hf23  1  0.90770728  0.10854167  0.12801207  1
  Hf  Hf24  1  0.41528918  0.00378419  0.48797565  1
  Hf  Hf25  1  0.79725035  0.40255875  0.51835222  1
  Hf  Hf26  1  0.70051004  0.28366955  0.14042303  1
  Hf  Hf27  1  0.18887072  0.58674141  0.51114022  1
  Hf  Hf28  1  0.09076346  0.70584397  0.86320264  1
  Hf  Hf29  1  0.29081405  0.28433923  0.61091216  1
  Hf  Hf30  1  0.50039054  0.29347326  0.36388743  1
  Hf  Hf31  1  0.41287729  0.21755356  -0.00795594  1
  Hf  Hf32  1  0.39416075  0.58541543  0.00165417  1
  Hf  Hf33  1  0.39968560  0.59425648  0.51067938  1
  Hf  Hf34  1  -0.00903124  0.00015439  0.49004298  1
  Hf  Hf35  1  0.70046675  0.49641304  0.87089030  1
  Hf  Hf36  1  0.80352970  0.00415953  0.75703395  1
  Hf  Hf37  1  0.79141790  0.00644257  0.00082315  1
  Hf  Hf38  1  -0.00223836  0.39980633  0.73663874  1
  Hf  Hf39  1  0.49948887  0.10128480  0.12256849  1
  Zr  Zr40  1  0.81104039  0.80418876  0.26423695  1
  Zr  Zr41  1  0.60392293  0.19017092  0.76256318  1
  Zr  Zr42  1  0.89775684  0.50360973  0.12413199  1
  Zr  Zr43  1  0.19787374  0.39990318  0.73274432  1
  Zr  Zr44  1  0.10558354  0.11004640  0.11367691  1
  Zr  Zr45  1  0.10282898  0.90075149  0.88616647  1
  Zr  Zr46  1  0.09848090  0.50367093  0.86485771  1
  Zr  Zr47  1  0.10584084  0.11388932  0.60760203  1
  Zr  Zr48  1  0.29024123  0.50387129  0.36447883  1
  Zr  Zr49  1  0.19597855  0.60432775  0.00073098  1
  Zr  Zr50  1  0.10459313  0.69509753  0.14048933  1
  Zr  Zr51  1  0.29310058  0.70526901  0.61678886  1
  Zr  Zr52  1  0.01287878  0.21497546  0.26295094  1
  Zr  Zr53  1  0.10894115  0.70475735  0.37892615  1
  Zr  Zr54  1  0.19655106  0.20370605  0.76195790  1
  Zr  Zr55  1  0.29808145  0.88857503  0.39204864  1
  Zr  Zr56  1  0.49005603  0.28784525  0.62753768  1
  Zr  Zr57  1  0.29127788  0.70158302  0.86920314  1
  Zr  Zr58  1  0.60104358  0.39522458  0.50317003  1
  Zr  Zr59  1  0.80634133  0.39797567  0.25147139  1
  Zr  Zr60  1  0.90981833  0.10685062  0.88425611  1
  Zr  Zr61  1  0.70404215  0.91262991  0.62159592  1
  Zr  Zr62  1  0.50979799  0.89533419  0.63855865  1
  Zr  Zr63  1  0.39582665  0.79801713  0.75171622  1
  Zr  Zr64  1  0.50666985  0.89437914  0.35955588  1
  Zr  Zr65  1  0.60501556  0.79076867  -0.01560188  1
  Zr  Zr66  1  0.79812620  0.39523992  0.00363819  1
  Zr  Zr67  1  0.59577252  0.59749775  0.50367262  1
  Zr  Zr68  1  0.50393721  0.08749387  0.63884617  1
  Zr  Zr69  1  0.80036099  0.59548199  0.26494170  1
  Zr  Zr70  1  0.90079422  0.70454646  0.86766567  1
  Zr  Zr71  1  0.22200813  0.80798085  0.23596356  1
  Zr  Zr72  1  0.59663523  0.18949303  0.50053925  1
  Zr  Zr73  1  0.39574529  0.40042547  0.50121166  1
  Zr  Zr74  1  0.79201047  0.19102581  0.51285593  1
  Zr  Zr75  1  0.29774754  0.10527940  0.89095437  1
  Zr  Zr76  1  0.00878553  0.00412618  0.73766455  1
  Zr  Zr77  1  0.61248417  0.19145869  -0.00992877  1
  Zr  Zr78  1  0.69980057  0.69749380  0.12749803  1
  Zr  Zr79  1  0.59926679  0.59179049  0.25339726  1
  Ta  Ta80  1  0.50011960  0.29690167  0.13828089  1
  Ta  Ta81  1  0.20530933  -0.00349071  0.76190013  1
  Ta  Ta82  1  0.80898700  0.81885919  0.49654526  1
  Ta  Ta83  1  0.39321175  0.58806584  0.74588214  1
  Ta  Ta84  1  0.60954435  -0.01015847  0.78036104  1
  Ta  Ta85  1  0.10931355  0.91846182  0.12192801  1
  Ta  Ta86  1  0.41202524  0.79437125  0.50918795  1
  Ta  Ta87  1  0.60096810  0.40275382  0.24742464  1
  Ta  Ta88  1  -0.00207176  0.80994905  0.72587868  1
  Ta  Ta89  1  0.80357339  0.20336759  0.00433141  1
  Ta  Ta90  1  0.09382067  0.49854828  0.14098293  1
  Ta  Ta91  1  0.30586476  0.32561246  0.88601875  1
  Ta  Ta92  1  0.70737078  0.90939151  0.37544750  1
  Ta  Ta93  1  0.71132777  0.29845930  0.86586998  1
  Ta  Ta94  1  0.09724693  0.10287742  0.89419008  1
  Ta  Ta95  1  0.60368757  -0.00384147  -0.00736727  1
  Ta  Ta96  1  0.29981392  0.70139139  0.38505490  1
  Ta  Ta97  1  0.79321065  0.60327578  -0.01085135  1
  Ta  Ta98  1  0.18903654  0.80908019  0.73469533  1
  Ta  Ta99  1  0.19628707  0.59887670  0.73480651  1
  Ta  Ta100  1  0.20182037  0.41181002  0.00480022  1
  Ta  Ta101  1  -0.00501667  0.59911028  0.26671488  1
  Ta  Ta102  1  0.29289714  0.29086731  0.37588738  1
  Ta  Ta103  1  0.00283122  0.20741280  0.75003265  1
  Ta  Ta104  1  -0.00355013  0.60072867  -0.00033310  1
  Ta  Ta105  1  0.08731086  0.49145556  0.36885155  1
  Ta  Ta106  1  0.69087921  0.49899879  0.11462861  1
  Ta  Ta107  1  0.90236286  0.50121470  0.87241972  1
  Ta  Ta108  1  0.49661279  0.49830612  0.36690774  1
  Ta  Ta109  1  0.19141773  0.39559227  0.50342207  1
  Ta  Ta110  1  0.09283084  0.30108650  0.10833687  1
  Ta  Ta111  1  0.28675527  0.50453097  0.13866973  1
  Ta  Ta112  1  -0.00092174  0.40657252  0.00200713  1
  Ta  Ta113  1  0.60056908  0.80722519  0.49373226  1
  Ta  Ta114  1  0.80823159  0.20178388  0.74408192  1
  Ta  Ta115  1  0.49834230  0.89061091  0.87968469  1
  Ta  Ta116  1  0.39706609  -0.00368544  0.77225494  1
  Ta  Ta117  1  0.00783926  0.79961050  0.01682038  1
  Ta  Ta118  1  0.59306545  0.59007028  -0.01066656  1
  Ta  Ta119  1  0.09849987  0.30185840  0.89042776  1
  Ti  Ti120  1  0.00842832  0.40584655  0.51488817  1
  Ti  Ti121  1  0.38857194  0.19405861  0.24903304  1
  Ti  Ti122  1  0.69606401  0.50566491  0.63165862  1
  Ti  Ti123  1  0.89933404  0.50215496  0.39405532  1
  Ti  Ti124  1  0.90925515  0.51522377  0.61562459  1
  Ti  Ti125  1  0.47682063  0.48387235  0.87394140  1
  Ti  Ti126  1  0.69918096  0.70253082  0.86120685  1
  Ti  Ti127  1  0.50202759  0.10040091  0.35469474  1
  Ti  Ti128  1  0.89835016  0.10395818  0.37112438  1
  Ti  Ti129  1  0.69812955  0.29375584  0.63828880  1
  Ti  Ti130  1  0.59026278  0.59775404  0.76014007  1
  Ti  Ti131  1  0.50739117  0.70008114  0.63714909  1
  Ti  Ti132  1  0.81442407  -0.00029585  0.24718803  1
  Ti  Ti133  1  0.90457419  0.69764972  0.39678087  1
  Ti  Ti134  1  0.91253858  0.28827401  0.61423451  1
  Ti  Ti135  1  0.38690333  0.60650247  0.24149747  1
  Ti  Ti136  1  0.50002143  0.09318307  0.88105013  1
  Ti  Ti137  1  0.39396092  0.18721300  0.48293372  1
  Ti  Ti138  1  0.80289843  0.79875268  -0.00453142  1
  Ti  Ti139  1  0.89847782  0.09603472  0.61910715  1
  Ti  Ti140  1  0.70229836  0.29756875  0.36524178  1
  Ti  Ti141  1  0.20528595  0.80395730  0.01114895  1
  Ti  Ti142  1  0.10842389  0.90864903  0.60915649  1
  Ti  Ti143  1  0.90316609  0.30615182  0.87391117  1
  Ti  Ti144  1  0.20587487  0.01506647  0.48105256  1
  Ti  Ti145  1  0.08711464  0.69572240  0.62016772  1
  Ti  Ti146  1  0.00340804  0.80909753  0.50094174  1
  Ti  Ti147  1  0.39167415  0.39777167  0.73985912  1
  Ti  Ti148  1  0.10802634  0.90446077  0.37889516  1
  Ti  Ti149  1  0.91080482  0.90789696  0.11766146  1
  Ti  Ti150  1  0.80068554  0.81169235  0.74622717  1
  Ti  Ti151  1  0.39810588  -0.01325543  -0.00758159  1
  Ti  Ti152  1  0.39116017  0.79134611  0.00008302  1
  Ti  Ti153  1  0.00925093  0.00511948  0.26144389  1
  Ti  Ti154  1  0.61323263  0.00719222  0.49215474  1
  Ti  Ti155  1  0.49573330  0.69262623  0.87045248  1
  Ti  Ti156  1  0.39986371  0.20552240  0.76895297  1
  Ti  Ti157  1  0.70120853  0.49468592  0.38545241  1
  Ti  Ti158  1  0.50034341  0.49921725  0.63302480  1
  Ti  Ti159  1  0.80675192  0.39656254  0.73752090  1
  Mo  Mo160  1  0.20079214  0.21198007  -0.01343148  1
  Mo  Mo161  1  0.70900022  0.10297501  0.86885365  1
  Mo  Mo162  1  0.39595461  0.40636152  0.02053271  1
  Mo  Mo163  1  -0.00141448  0.59758906  0.48705837  1
  Mo  Mo164  1  0.70878251  0.09686076  0.13606567  1
  Mo  Mo165  1  0.39664599  0.79170955  0.23917359  1
  Mo  Mo166  1  0.59397530  0.20038011  0.25053081  1
  Mo  Mo167  1  0.09153275  0.50542617  0.62711201  1
  Mo  Mo168  1  0.29963093  0.90235928  0.10305928  1
  Mo  Mo169  1  0.10313575  0.09996808  0.37750869  1
  Mo  Mo170  1  0.20085875  0.19692722  0.47989214  1
  Mo  Mo171  1  -0.00192757  0.60424668  0.74478027  1
  Mo  Mo172  1  0.30584452  0.69973834  0.12058015  1
  Mo  Mo173  1  0.19226096  0.80273721  0.51337873  1
  Mo  Mo174  1  0.60283011  0.79400441  0.76621328  1
  Mo  Mo175  1  0.09708362  0.30124771  0.39680422  1
  Mo  Mo176  1  0.70693755  0.89335491  0.87969872  1
  Mo  Mo177  1  0.29955121  0.89648474  0.88370180  1
  Mo  Mo178  1  0.30256149  0.09863227  0.36244111  1
  Mo  Mo179  1  0.19785516  0.59746032  0.25646090  1
  Mo  Mo180  1  0.49721983  0.49625308  0.12931070  1
  Mo  Mo181  1  0.70330637  0.09810789  0.64231817  1
  Mo  Mo182  1  0.90313351  0.90202418  0.61964170  1
  Mo  Mo183  1  0.20184132  -0.00231819  -0.01284900  1
  Mo  Mo184  1  0.49525218  0.30376144  0.86436223  1
  Mo  Mo185  1  0.60638620  0.80154476  0.26206993  1
  Mo  Mo186  1  0.29862103  0.49869964  0.86147342  1
  Mo  Mo187  1  -0.00261540  0.40334951  0.24703245  1
  Mo  Mo188  1  0.79832892  0.59740819  0.50487885  1
  Mo  Mo189  1  0.09174122  0.29661342  0.60887667  1
  Mo  Mo190  1  0.29874820  0.49517964  0.63060686  1
  Mo  Mo191  1  0.19118777  0.00119206  0.26237879  1
  Mo  Mo192  1  -0.00595084  0.21113839  -0.00510386  1
  Mo  Mo193  1  0.90456938  0.90633748  0.37649493  1
  Mo  Mo194  1  0.79876203  0.00489484  0.49217125  1
  Mo  Mo195  1  -0.00259525  0.19915352  0.49024674  1
  Mo  Mo196  1  -0.00037555  -0.00147511  0.01072357  1
  Mo  Mo197  1  0.20162694  0.19274610  0.26459970  1
  Mo  Mo198  1  0.80870029  0.19865028  0.24509784  1
  Mo  Mo199  1  0.90744998  0.29958081  0.12008929  1
