# generated using pymatgen
data_HfZrTaTiMo
_symmetry_space_group_name_H-M   'P 1'
_cell_length_a   15.83204667
_cell_length_b   15.83639086
_cell_length_c   15.41437259
_cell_angle_alpha   90.01068901
_cell_angle_beta   89.95925733
_cell_angle_gamma   90.09174875
_symmetry_Int_Tables_number   1
_chemical_formula_structural   HfZrTaTiMo
_chemical_formula_sum   'Hf40 Zr40 Ta40 Ti40 Mo40'
_cell_volume   3864.72371320
_cell_formula_units_Z   40
loop_
 _symmetry_equiv_pos_site_id
 _symmetry_equiv_pos_as_xyz
  1  'x, y, z'
loop_
 _atom_site_type_symbol
 _atom_site_label
 _atom_site_symmetry_multiplicity
 _atom_site_fract_x
 _atom_site_fract_y
 _atom_site_fract_z
 _atom_site_occupancy
  Hf  Hf0  1  0.69107467  0.70020636  0.37307852  1
  Hf  Hf1  1  0.09871694  0.28638779  0.36552382  1
  Hf  Hf2  1  0.71048320  0.10340240  0.87237599  1
  Hf  Hf3  1  0.29079930  0.10070154  0.35907560  1
  Hf  Hf4  1  0.69732163  0.50008608  0.37106642  1
  Hf  Hf5  1  0.30914294  0.10743094  0.62095579  1
  Hf  Hf6  1  -0.00929517  0.19731602  0.50453444  1
  Hf  Hf7  1  0.39955624  0.79900917  0.24839964  1
  Hf  Hf8  1  0.48742713  0.29359103  0.62403316  1
  Hf  Hf9  1  0.40360808  0.40437008  0.25236580  1
  Hf  Hf10  1  0.59907080  0.20324189  0.75490732  1
  Hf  Hf11  1  0.51209094  0.90174563  0.36904584  1
  Hf  Hf12  1  -0.00271249  0.00067847  -0.00760449  1
  Hf  Hf13  1  0.10761510  0.89363705  0.88045223  1
  Hf  Hf14  1  0.10067788  0.88815972  0.11176388  1
  Hf  Hf15  1  0.50669967  0.70109377  0.38774649  1
  Hf  Hf16  1  0.19654968  0.39954583  0.24266148  1
  Hf  Hf17  1  0.08930836  0.69264852  0.62329386  1
  Hf  Hf18  1  0.30121875  0.71273200  0.87835347  1
  Hf  Hf19  1  0.48538310  0.69527917  0.61608857  1
  Hf  Hf20  1  0.69662565  0.89709048  0.12950355  1
  Hf  Hf21  1  0.19988684  0.59895873  0.75240477  1
  Hf  Hf22  1  0.19758586  0.79958965  0.73596554  1
  Hf  Hf23  1  0.07965299  0.48485498  0.37996071  1
  Hf  Hf24  1  0.49429389  0.88704087  0.86972999  1
  Hf  Hf25  1  0.30889387  0.08696989  0.14101985  1
  Hf  Hf26  1  0.48884657  0.49920553  0.61592516  1
  Hf  Hf27  1  0.81262918  0.40007887  0.50308572  1
  Hf  Hf28  1  0.28806767  0.70391691  0.38340550  1
  Hf  Hf29  1  0.90018589  0.70441562  0.10067950  1
  Hf  Hf30  1  0.52973122  0.30086874  0.35965631  1
  Hf  Hf31  1  0.50625371  0.10423917  0.12664107  1
  Hf  Hf32  1  0.08919161  0.69211945  0.11118394  1
  Hf  Hf33  1  0.89250123  0.49164385  0.65039418  1
  Hf  Hf34  1  0.60653641  -0.00517130  -0.01048497  1
  Hf  Hf35  1  0.40848989  0.19888650  0.47616671  1
  Hf  Hf36  1  0.30331323  0.29298460  0.88774670  1
  Hf  Hf37  1  0.61020919  0.19949873  0.51530506  1
  Hf  Hf38  1  0.78726249  0.59096488  -0.00557942  1
  Hf  Hf39  1  0.18802300  0.79692177  0.25349818  1
  Zr  Zr40  1  0.29071984  0.70131805  0.11890856  1
  Zr  Zr41  1  0.79529990  0.79485839  0.50779463  1
  Zr  Zr42  1  0.68563103  0.69962619  0.86456354  1
  Zr  Zr43  1  0.10839146  0.10909928  0.62595744  1
  Zr  Zr44  1  0.60054470  0.40001919  0.75044278  1
  Zr  Zr45  1  0.80285134  0.40877352  0.23844863  1
  Zr  Zr46  1  0.90783325  0.30421449  0.35872268  1
  Zr  Zr47  1  0.81151109  0.00838259  0.49527379  1
  Zr  Zr48  1  0.00371805  0.20975716  0.75975836  1
  Zr  Zr49  1  0.40340138  0.40170944  0.76146031  1
  Zr  Zr50  1  0.22098638  -0.01136460  0.00155355  1
  Zr  Zr51  1  0.31513471  0.50902669  0.88084141  1
  Zr  Zr52  1  0.60814481  0.01891953  0.25102748  1
  Zr  Zr53  1  0.80116015  0.79330097  0.24581480  1
  Zr  Zr54  1  0.39157942  0.81041084  0.49984287  1
  Zr  Zr55  1  0.28907731  0.29943705  0.61552637  1
  Zr  Zr56  1  0.91299035  0.30524412  0.12172013  1
  Zr  Zr57  1  0.59394253  0.79878946  0.73737528  1
  Zr  Zr58  1  0.29966503  0.50345123  0.11879805  1
  Zr  Zr59  1  0.39672700  0.59768197  0.25879879  1
  Zr  Zr60  1  0.20622539  0.00580752  0.75769926  1
  Zr  Zr61  1  0.39299681  0.39964694  0.47395666  1
  Zr  Zr62  1  0.49610135  0.90244163  0.13046459  1
  Zr  Zr63  1  0.80526305  0.00261358  0.24807647  1
  Zr  Zr64  1  0.88594114  0.69819834  0.65036391  1
  Zr  Zr65  1  0.18762764  0.59122609  -0.01213832  1
  Zr  Zr66  1  0.79235499  0.59952107  0.23338298  1
  Zr  Zr67  1  0.10142105  0.09626118  0.35949114  1
  Zr  Zr68  1  0.90358590  0.08812822  0.64750537  1
  Zr  Zr69  1  -0.01368044  0.59454641  0.25538348  1
  Zr  Zr70  1  -0.00991069  0.80484947  0.51315237  1
  Zr  Zr71  1  0.09276564  0.48992673  0.62222530  1
  Zr  Zr72  1  0.71261319  0.90691650  0.63391470  1
  Zr  Zr73  1  0.70311504  0.11638429  0.37970808  1
  Zr  Zr74  1  0.40751267  0.00529751  0.48871436  1
  Zr  Zr75  1  0.90640935  0.89729479  0.36661311  1
  Zr  Zr76  1  0.19372943  0.39505004  0.76149932  1
  Zr  Zr77  1  0.78798800  0.81401029  -0.01761557  1
  Zr  Zr78  1  0.71959491  0.30079535  0.88136261  1
  Zr  Zr79  1  0.61746241  0.39841950  0.51771763  1
  Ta  Ta80  1  0.10479193  0.09781750  0.13224802  1
  Ta  Ta81  1  0.40439646  0.00152668  0.75899659  1
  Ta  Ta82  1  0.59978012  0.00169642  0.75859157  1
  Ta  Ta83  1  0.60558069  0.20317621  0.00522201  1
  Ta  Ta84  1  0.30012093  0.90696178  0.63007056  1
  Ta  Ta85  1  0.08776748  0.91394260  0.63509219  1
  Ta  Ta86  1  0.19362155  0.59428305  0.49242831  1
  Ta  Ta87  1  0.00359918  0.00015536  0.49642713  1
  Ta  Ta88  1  0.18799524  0.59615977  0.26457542  1
  Ta  Ta89  1  0.69620404  0.89604064  0.37657684  1
  Ta  Ta90  1  0.00846291  0.19797545  0.00639341  1
  Ta  Ta91  1  0.38708877  0.81125228  0.00692881  1
  Ta  Ta92  1  0.70114001  0.49872670  0.86195066  1
  Ta  Ta93  1  -0.00505622  0.39517959  0.77438112  1
  Ta  Ta94  1  0.10878277  0.10490268  0.88515778  1
  Ta  Ta95  1  0.90621727  0.89664385  0.11591463  1
  Ta  Ta96  1  0.29781742  0.50450174  0.62025330  1
  Ta  Ta97  1  -0.00752351  0.80971676  0.75851690  1
  Ta  Ta98  1  0.70677234  0.10159802  0.64280687  1
  Ta  Ta99  1  0.19181985  0.80777764  0.51057616  1
  Ta  Ta100  1  0.40470420  0.19815279  0.00814665  1
  Ta  Ta101  1  0.60961780  0.60036568  0.52009424  1
  Ta  Ta102  1  0.51333073  0.50504448  0.38191544  1
  Ta  Ta103  1  0.78955518  0.59377580  0.51753319  1
  Ta  Ta104  1  0.00391395  0.40306526  -0.01564231  1
  Ta  Ta105  1  0.89408951  0.70003481  0.86963671  1
  Ta  Ta106  1  0.19903830  -0.00362836  0.50314577  1
  Ta  Ta107  1  0.20483892  0.19624656  0.01548043  1
  Ta  Ta108  1  0.60779516  0.41091409  -0.00143296  1
  Ta  Ta109  1  0.19719534  0.39404351  0.00502630  1
  Ta  Ta110  1  0.40665209  0.40137193  0.00293425  1
  Ta  Ta111  1  0.08690916  0.69897814  0.39085055  1
  Ta  Ta112  1  0.50503246  0.30671705  0.12151289  1
  Ta  Ta113  1  -0.02089381  0.58909754  0.49958988  1
  Ta  Ta114  1  0.50390074  0.51274125  0.10958649  1
  Ta  Ta115  1  0.79250187  0.19782286  0.22739519  1
  Ta  Ta116  1  0.90749797  0.09609727  0.12719067  1
  Ta  Ta117  1  0.41098850  0.20363691  0.25152637  1
  Ta  Ta118  1  0.67756583  0.69908627  0.11426145  1
  Ta  Ta119  1  0.50434263  0.09649296  0.63566893  1
  Ti  Ti120  1  0.10205861  0.89935149  0.37800373  1
  Ti  Ti121  1  0.80898113  0.19607308  0.01235120  1
  Ti  Ti122  1  -0.00322643  0.79067637  0.25316376  1
  Ti  Ti123  1  -0.00707867  0.59019541  -0.02427974  1
  Ti  Ti124  1  0.50386971  0.30101346  0.89148564  1
  Ti  Ti125  1  0.90317710  0.10826882  0.87476456  1
  Ti  Ti126  1  0.72747814  0.30262884  0.64877907  1
  Ti  Ti127  1  0.29650140  0.69272168  0.61532645  1
  Ti  Ti128  1  0.60417445  0.00635003  0.50319888  1
  Ti  Ti129  1  0.30518745  0.29476130  0.12650285  1
  Ti  Ti130  1  0.80902610  -0.01248246  0.77173510  1
  Ti  Ti131  1  0.20477899  0.20322713  0.75727296  1
  Ti  Ti132  1  0.60416061  0.41162281  0.22981163  1
  Ti  Ti133  1  0.09538589  0.30344585  0.61327374  1
  Ti  Ti134  1  0.50088534  0.10542631  0.88042141  1
  Ti  Ti135  1  0.80356093  0.00229098  -0.00261027  1
  Ti  Ti136  1  0.19968814  0.39888164  0.48840268  1
  Ti  Ti137  1  0.80435228  0.20549508  0.51484639  1
  Ti  Ti138  1  0.91072811  0.11050170  0.35273373  1
  Ti  Ti139  1  0.40206397  0.19674753  0.76200978  1
  Ti  Ti140  1  0.38907604  0.59051522  0.48400627  1
  Ti  Ti141  1  0.89114342  0.68946555  0.38278579  1
  Ti  Ti142  1  0.58360812  0.59573309  0.74757908  1
  Ti  Ti143  1  0.58170421  0.79016934  -0.00514709  1
  Ti  Ti144  1  0.49643487  0.91017383  0.62630613  1
  Ti  Ti145  1  -0.00085956  0.59271412  0.77149064  1
  Ti  Ti146  1  0.08731194  0.49288405  0.12531478  1
  Ti  Ti147  1  0.60499833  0.80323805  0.51822548  1
  Ti  Ti148  1  0.29120985  0.90889163  0.36378590  1
  Ti  Ti149  1  0.30536431  0.10268557  0.88138339  1
  Ti  Ti150  1  0.39458148  0.79622203  0.74048032  1
  Ti  Ti151  1  0.00725501  -0.01052482  0.24202042  1
  Ti  Ti152  1  0.70312644  0.30803905  0.11225975  1
  Ti  Ti153  1  0.10491450  0.29359202  0.89084752  1
  Ti  Ti154  1  0.28761324  0.29150360  0.36389400  1
  Ti  Ti155  1  0.40338539  -0.00318118  -0.01111746  1
  Ti  Ti156  1  0.58940486  0.60553888  0.23814733  1
  Ti  Ti157  1  0.90120060  0.49844633  0.10574437  1
  Ti  Ti158  1  0.09439439  0.70470788  0.87994092  1
  Ti  Ti159  1  0.71103521  0.30079386  0.36394066  1
  Mo  Mo160  1  0.28816008  0.49723512  0.37473606  1
  Mo  Mo161  1  0.10048563  0.49656454  0.87108441  1
  Mo  Mo162  1  0.80319224  0.40521848  -0.00233627  1
  Mo  Mo163  1  0.90180879  0.90367253  0.87608899  1
  Mo  Mo164  1  0.40975835  0.61250057  0.00141760  1
  Mo  Mo165  1  0.19685829  -0.01247691  0.24222017  1
  Mo  Mo166  1  0.20040879  0.79696334  0.00131790  1
  Mo  Mo167  1  0.89181013  0.50454230  0.38343353  1
  Mo  Mo168  1  0.49542685  0.70057984  0.11469120  1
  Mo  Mo169  1  0.00075706  0.19539832  0.23018431  1
  Mo  Mo170  1  0.30817903  0.89890645  0.85781506  1
  Mo  Mo171  1  0.20088631  0.20188471  0.49809715  1
  Mo  Mo172  1  0.30026896  0.90028650  0.14373436  1
  Mo  Mo173  1  0.61302475  0.21728126  0.22464708  1
  Mo  Mo174  1  0.00329036  0.00180490  0.77529231  1
  Mo  Mo175  1  0.89447158  0.49714511  0.87336686  1
  Mo  Mo176  1  0.40425928  0.00310031  0.26757958  1
  Mo  Mo177  1  0.59971464  0.79227352  0.24459826  1
  Mo  Mo178  1  0.69641623  0.90320334  0.86562084  1
  Mo  Mo179  1  0.70825386  0.10283270  0.10408683  1
  Mo  Mo180  1  0.48443088  0.69106152  0.87115980  1
  Mo  Mo181  1  0.90820278  0.30023413  0.62831778  1
  Mo  Mo182  1  0.79930063  0.80368677  0.76354139  1
  Mo  Mo183  1  0.69275945  0.69386334  0.64011681  1
  Mo  Mo184  1  0.70100251  0.50162579  0.64846619  1
  Mo  Mo185  1  -0.00536802  0.79456993  -0.02043177  1
  Mo  Mo186  1  0.80822559  0.19801363  0.74940268  1
  Mo  Mo187  1  0.90547264  0.29297276  0.89968256  1
  Mo  Mo188  1  0.10615737  0.30073669  0.11647549  1
  Mo  Mo189  1  -0.00259176  0.39425236  0.51048012  1
  Mo  Mo190  1  0.50733226  0.50511018  0.88725410  1
  Mo  Mo191  1  0.50685554  0.10790333  0.35885440  1
  Mo  Mo192  1  0.39866490  0.60641313  0.74265455  1
  Mo  Mo193  1  0.20555378  0.20363262  0.22682640  1
  Mo  Mo194  1  0.69087848  0.50281697  0.12164596  1
  Mo  Mo195  1  0.00187679  0.40428995  0.23301144  1
  Mo  Mo196  1  0.79057108  0.59636736  0.75709252  1
  Mo  Mo197  1  0.59445826  0.60088716  -0.01194191  1
  Mo  Mo198  1  0.81111342  0.39267327  0.76701205  1
  Mo  Mo199  1  0.90571678  0.90474306  0.64766024  1
