# generated using pymatgen
data_HfZrTaTiMo
_symmetry_space_group_name_H-M   'P 1'
_cell_length_a   15.83383659
_cell_length_b   15.83698519
_cell_length_c   15.38636093
_cell_angle_alpha   90.12789374
_cell_angle_beta   90.01070720
_cell_angle_gamma   90.06747083
_symmetry_Int_Tables_number   1
_chemical_formula_structural   HfZrTaTiMo
_chemical_formula_sum   'Hf40 Zr40 Ta40 Ti40 Mo40'
_cell_volume   3858.27513424
_cell_formula_units_Z   40
loop_
 _symmetry_equiv_pos_site_id
 _symmetry_equiv_pos_as_xyz
  1  'x, y, z'
loop_
 _atom_site_type_symbol
 _atom_site_label
 _atom_site_symmetry_multiplicity
 _atom_site_fract_x
 _atom_site_fract_y
 _atom_site_fract_z
 _atom_site_occupancy
  Hf  Hf0  1  0.49732524  0.50618054  0.62949949  1
  Hf  Hf1  1  0.20768045  0.17794849  -0.00810744  1
  Hf  Hf2  1  0.49475250  0.70084812  0.62329971  1
  Hf  Hf3  1  0.70771980  0.30072314  0.12784390  1
  Hf  Hf4  1  0.41094057  0.00175489  0.74265678  1
  Hf  Hf5  1  0.39597161  0.39266191  0.74859949  1
  Hf  Hf6  1  0.39874340  0.19046585  0.75652579  1
  Hf  Hf7  1  0.00409805  0.19539152  -0.01674887  1
  Hf  Hf8  1  0.89650566  0.69458977  0.12220702  1
  Hf  Hf9  1  0.60676292  0.20580091  0.50299041  1
  Hf  Hf10  1  0.90530268  0.08744047  0.39037429  1
  Hf  Hf11  1  0.70754102  0.31024433  0.36048069  1
  Hf  Hf12  1  0.20200969  0.79161788  0.48548673  1
  Hf  Hf13  1  -0.00603852  0.78989987  0.49984424  1
  Hf  Hf14  1  0.80862216  -0.01627341  0.24687393  1
  Hf  Hf15  1  0.30660910  0.91763749  0.37492589  1
  Hf  Hf16  1  0.41206673  0.41164295  0.23766651  1
  Hf  Hf17  1  0.28299224  0.71415944  0.87445572  1
  Hf  Hf18  1  0.51551793  0.29687225  0.12649854  1
  Hf  Hf19  1  0.88847020  0.68800274  0.64538050  1
  Hf  Hf20  1  0.39771004  0.60366952  0.76646863  1
  Hf  Hf21  1  0.89294542  0.48936653  0.35304330  1
  Hf  Hf22  1  0.89056880  0.49316851  0.11355004  1
  Hf  Hf23  1  -0.00481239  0.59274096  0.49277171  1
  Hf  Hf24  1  0.00776001  0.19200644  0.26575723  1
  Hf  Hf25  1  0.10461593  0.28579141  0.12728219  1
  Hf  Hf26  1  0.00814094  0.00191879  -0.01740733  1
  Hf  Hf27  1  0.69596508  0.08733140  0.38424350  1
  Hf  Hf28  1  -0.01050082  0.82074924  0.24341820  1
  Hf  Hf29  1  0.10764082  0.89384290  0.62484220  1
  Hf  Hf30  1  0.30368764  0.30037587  0.89064293  1
  Hf  Hf31  1  0.69546856  0.10270294  0.13664345  1
  Hf  Hf32  1  0.28669245  0.49276873  0.88304714  1
  Hf  Hf33  1  0.00395874  0.80426728  0.00457147  1
  Hf  Hf34  1  0.59581023  0.19525847  0.75079041  1
  Hf  Hf35  1  0.39154590  0.81630120  0.75368569  1
  Hf  Hf36  1  0.59456745  0.80331383  0.24611550  1
  Hf  Hf37  1  0.69104163  0.69257601  0.11253684  1
  Hf  Hf38  1  0.70466616  0.50335956  0.88697515  1
  Hf  Hf39  1  0.10687617  0.10886803  0.62432701  1
  Zr  Zr40  1  0.09387736  0.68425642  0.63978016  1
  Zr  Zr41  1  0.80824229  0.19513523  0.26212860  1
  Zr  Zr42  1  0.22275456  0.00411900  0.74526714  1
  Zr  Zr43  1  0.50250740  0.90511172  0.38424770  1
  Zr  Zr44  1  0.28879049  0.69769694  0.63567107  1
  Zr  Zr45  1  0.70161813  0.70349339  0.63799802  1
  Zr  Zr46  1  0.68436116  0.90584185  0.88139598  1
  Zr  Zr47  1  0.39667416  0.40265340  0.49804082  1
  Zr  Zr48  1  0.60858723  0.40945792  0.50625645  1
  Zr  Zr49  1  0.00298101  0.39935957  0.50219213  1
  Zr  Zr50  1  0.01959387  0.40507527  0.76490076  1
  Zr  Zr51  1  0.49054220  0.09696172  0.37388303  1
  Zr  Zr52  1  0.60197822  0.18305050  -0.01997745  1
  Zr  Zr53  1  0.49869742  0.10667437  0.14321256  1
  Zr  Zr54  1  0.89382779  0.69380472  0.35735542  1
  Zr  Zr55  1  0.19374829  0.59387669  0.48264315  1
  Zr  Zr56  1  0.80529773  0.19596806  -0.02073670  1
  Zr  Zr57  1  0.39353970  0.01950151  -0.01133458  1
  Zr  Zr58  1  0.50890351  0.30263325  0.36212305  1
  Zr  Zr59  1  0.88871403  0.88827784  0.63117581  1
  Zr  Zr60  1  0.38920366  0.60392405  0.48164737  1
  Zr  Zr61  1  0.89638981  0.89356759  0.85862583  1
  Zr  Zr62  1  0.50216410  0.49114300  0.88554876  1
  Zr  Zr63  1  0.59122734  0.81327768  0.74103000  1
  Zr  Zr64  1  0.09522192  0.69547053  0.87245367  1
  Zr  Zr65  1  0.80283329  0.80837959  0.00869586  1
  Zr  Zr66  1  0.11652625  0.88903915  0.85779736  1
  Zr  Zr67  1  0.79306316  0.59473051  0.49170969  1
  Zr  Zr68  1  0.19585886  0.80819062  0.25850693  1
  Zr  Zr69  1  0.39158118  0.60591830  0.00232393  1
  Zr  Zr70  1  0.10903652  0.31029308  0.36793657  1
  Zr  Zr71  1  0.91426177  0.09384492  0.13042403  1
  Zr  Zr72  1  0.91053678  0.29601327  0.64169242  1
  Zr  Zr73  1  0.71266570  0.30445791  0.64235056  1
  Zr  Zr74  1  0.19450650  0.60059373  0.24943668  1
  Zr  Zr75  1  0.78823468  0.80587779  0.24655414  1
  Zr  Zr76  1  0.30036076  0.09025369  0.15116333  1
  Zr  Zr77  1  0.80211118  0.01162194  -0.01101008  1
  Zr  Zr78  1  0.30910516  0.28551403  0.13251064  1
  Zr  Zr79  1  0.70506913  0.50890501  0.64689796  1
  Ta  Ta80  1  0.28896887  0.49757156  0.63485979  1
  Ta  Ta81  1  0.49698159  0.29877560  0.62254619  1
  Ta  Ta82  1  0.78918079  0.79658751  0.48769099  1
  Ta  Ta83  1  0.30427302  0.30139519  0.36163927  1
  Ta  Ta84  1  0.29368815  0.49007431  0.35396823  1
  Ta  Ta85  1  0.79144441  0.00119215  0.74311252  1
  Ta  Ta86  1  0.59435714  0.60709987  0.76974710  1
  Ta  Ta87  1  0.69421029  0.49879304  0.35401197  1
  Ta  Ta88  1  0.69234104  0.49208979  0.11352218  1
  Ta  Ta89  1  0.89984618  0.49962978  0.63627133  1
  Ta  Ta90  1  0.60243784  0.80095090  0.49913577  1
  Ta  Ta91  1  0.89984454  0.10664139  0.63002754  1
  Ta  Ta92  1  0.20570697  0.20241118  0.49227397  1
  Ta  Ta93  1  0.29831142  0.50450448  0.13078525  1
  Ta  Ta94  1  0.40472064  0.40169047  0.01749593  1
  Ta  Ta95  1  -0.00051698  -0.00027220  0.51831400  1
  Ta  Ta96  1  0.40069801  0.60828772  0.24757345  1
  Ta  Ta97  1  -0.00013203  0.59047254  -0.00176168  1
  Ta  Ta98  1  0.70081247  0.30581514  0.86635565  1
  Ta  Ta99  1  0.70704033  0.10414368  0.62320216  1
  Ta  Ta100  1  0.00446742  0.20084103  0.49613889  1
  Ta  Ta101  1  0.90469238  0.29652010  0.12280986  1
  Ta  Ta102  1  0.59605327  0.60571116  0.48916926  1
  Ta  Ta103  1  -0.00055131  0.00432734  0.74158238  1
  Ta  Ta104  1  0.49296166  0.70874729  0.11885552  1
  Ta  Ta105  1  0.59691378  0.00231560  0.73007876  1
  Ta  Ta106  1  0.69702861  0.70525657  0.88207042  1
  Ta  Ta107  1  0.29862436  0.71035561  0.13284489  1
  Ta  Ta108  1  0.20599507  0.21014264  0.75198001  1
  Ta  Ta109  1  0.49423405  0.90882496  0.12055927  1
  Ta  Ta110  1  0.00594230  0.40029438  0.23012603  1
  Ta  Ta111  1  0.68572639  0.69450132  0.36445239  1
  Ta  Ta112  1  0.80593729  0.40114397  0.50189674  1
  Ta  Ta113  1  0.19536021  0.40337685  0.02179915  1
  Ta  Ta114  1  0.10723758  0.08921561  0.13774775  1
  Ta  Ta115  1  0.50240645  0.71727784  0.89065805  1
  Ta  Ta116  1  0.80869214  0.20707515  0.49712638  1
  Ta  Ta117  1  0.19244744  0.60312480  0.01316199  1
  Ta  Ta118  1  0.09679122  0.70248337  0.12764619  1
  Ta  Ta119  1  0.38891915  0.81333561  0.00448367  1
  Ti  Ti120  1  0.81436951  0.41074654  0.76708489  1
  Ti  Ti121  1  0.68685433  0.90793828  0.10739225  1
  Ti  Ti122  1  0.90848136  0.29720366  0.86473837  1
  Ti  Ti123  1  -0.01220462  0.58325430  0.77592363  1
  Ti  Ti124  1  0.10178510  0.49384330  0.62415287  1
  Ti  Ti125  1  0.60569399  -0.00898644  0.25263041  1
  Ti  Ti126  1  0.18361720  0.57846766  0.76298589  1
  Ti  Ti127  1  0.89761435  0.90198514  0.39121603  1
  Ti  Ti128  1  0.09184099  0.91029457  0.38650251  1
  Ti  Ti129  1  0.39870577  0.79861684  0.49727805  1
  Ti  Ti130  1  0.20371445  -0.00833099  -0.01108867  1
  Ti  Ti131  1  0.79407676  -0.00671032  0.51445161  1
  Ti  Ti132  1  0.20652641  0.40016121  0.50133912  1
  Ti  Ti133  1  0.10789012  0.08745701  0.38713331  1
  Ti  Ti134  1  0.50513555  0.50430125  0.37126382  1
  Ti  Ti135  1  0.20040278  0.80769454  0.01662333  1
  Ti  Ti136  1  0.08830550  0.70087829  0.36028667  1
  Ti  Ti137  1  0.59101174  0.59886411  -0.00134567  1
  Ti  Ti138  1  0.29859891  0.90707500  0.14024869  1
  Ti  Ti139  1  0.00110451  0.59366789  0.23533851  1
  Ti  Ti140  1  0.88720191  0.69056480  0.87906479  1
  Ti  Ti141  1  0.10476594  0.10190591  0.85305356  1
  Ti  Ti142  1  0.20454790  0.18994283  0.27044252  1
  Ti  Ti143  1  0.10943681  0.30116043  0.62719654  1
  Ti  Ti144  1  0.50149791  0.29954718  0.88792325  1
  Ti  Ti145  1  0.49343437  0.70477171  0.36635191  1
  Ti  Ti146  1  -0.00236896  0.79349687  0.74959920  1
  Ti  Ti147  1  0.30215495  0.90625362  0.60335158  1
  Ti  Ti148  1  0.09776849  0.49223296  0.36029672  1
  Ti  Ti149  1  0.58692745  0.59297054  0.23766747  1
  Ti  Ti150  1  0.80801762  0.39056398  -0.01083793  1
  Ti  Ti151  1  0.90515872  0.30660402  0.36929598  1
  Ti  Ti152  1  0.11238055  0.30773922  0.88232854  1
  Ti  Ti153  1  0.78612415  0.59465918  0.23980208  1
  Ti  Ti154  1  0.29766371  0.29566307  0.62188604  1
  Ti  Ti155  1  0.59423230  0.39934670  0.75256112  1
  Ti  Ti156  1  0.10137374  0.91534950  0.13204176  1
  Ti  Ti157  1  0.50153637  0.90808966  0.89291598  1
  Ti  Ti158  1  0.49755846  0.10188179  0.60677565  1
  Ti  Ti159  1  0.39422495  0.20290661  0.49481900  1
  Mo  Mo160  1  0.50731411  0.09054459  0.86828860  1
  Mo  Mo161  1  0.70000013  0.89862041  0.39037657  1
  Mo  Mo162  1  0.20347111  0.80126197  0.73264779  1
  Mo  Mo163  1  0.29754573  0.10133033  0.86999931  1
  Mo  Mo164  1  0.30326044  0.11070420  0.60588824  1
  Mo  Mo165  1  0.09507874  0.50030102  0.11948365  1
  Mo  Mo166  1  0.49435781  0.90118184  0.60372584  1
  Mo  Mo167  1  0.90734454  0.10144190  0.84550481  1
  Mo  Mo168  1  0.30772019  0.70503986  0.35728291  1
  Mo  Mo169  1  0.40262856  -0.00584263  0.24744107  1
  Mo  Mo170  1  0.19744724  0.00303088  0.49922173  1
  Mo  Mo171  1  0.39700273  0.00722084  0.51574416  1
  Mo  Mo172  1  0.80351280  0.19826027  0.75930270  1
  Mo  Mo173  1  0.40114027  0.80372841  0.23761550  1
  Mo  Mo174  1  0.50415927  0.50945354  0.11266538  1
  Mo  Mo175  1  0.40011441  0.20110198  0.26894482  1
  Mo  Mo176  1  0.20465258  0.39522350  0.74352501  1
  Mo  Mo177  1  0.59784781  0.00205835  0.00413764  1
  Mo  Mo178  1  0.60445422  0.41134172  0.23876170  1
  Mo  Mo179  1  0.10157516  0.49257272  0.90008473  1
  Mo  Mo180  1  0.40550845  0.20384846  -0.01380616  1
  Mo  Mo181  1  0.79997295  0.59797960  0.77506787  1
  Mo  Mo182  1  0.30206620  0.89923391  0.88374496  1
  Mo  Mo183  1  0.58998443  0.80235598  0.01160476  1
  Mo  Mo184  1  0.00175675  0.38866811  0.00245399  1
  Mo  Mo185  1  0.60197348  -0.00049980  0.51985020  1
  Mo  Mo186  1  0.80592433  0.40181806  0.23680083  1
  Mo  Mo187  1  0.29869465  0.10409311  0.38130081  1
  Mo  Mo188  1  0.19213288  0.00127653  0.26763913  1
  Mo  Mo189  1  0.79277888  0.79730890  0.76491233  1
  Mo  Mo190  1  0.60561583  0.19782336  0.26285678  1
  Mo  Mo191  1  0.00666139  -0.00345520  0.26451410  1
  Mo  Mo192  1  0.20267114  0.39922037  0.23424888  1
  Mo  Mo193  1  0.69794276  0.90227003  0.61540478  1
  Mo  Mo194  1  0.91069531  0.90587391  0.11488276  1
  Mo  Mo195  1  0.01220194  0.20144160  0.75942610  1
  Mo  Mo196  1  0.70135065  0.09775507  0.84765372  1
  Mo  Mo197  1  0.90181186  0.49217751  0.89445073  1
  Mo  Mo198  1  0.79832989  0.60033212  -0.00601719  1
  Mo  Mo199  1  0.60690560  0.39315241  -0.00085946  1
