# generated using pymatgen
data_HfZrTaTiMo
_symmetry_space_group_name_H-M   'P 1'
_cell_length_a   15.81991717
_cell_length_b   15.84030572
_cell_length_c   15.39346937
_cell_angle_alpha   90.00390370
_cell_angle_beta   90.02813486
_cell_angle_gamma   90.05746229
_symmetry_Int_Tables_number   1
_chemical_formula_structural   HfZrTaTiMo
_chemical_formula_sum   'Hf40 Zr40 Ta40 Ti40 Mo40'
_cell_volume   3857.48285765
_cell_formula_units_Z   40
loop_
 _symmetry_equiv_pos_site_id
 _symmetry_equiv_pos_as_xyz
  1  'x, y, z'
loop_
 _atom_site_type_symbol
 _atom_site_label
 _atom_site_symmetry_multiplicity
 _atom_site_fract_x
 _atom_site_fract_y
 _atom_site_fract_z
 _atom_site_occupancy
  Hf  Hf0  1  0.90311808  0.89358740  0.87036689  1
  Hf  Hf1  1  0.59586464  0.01454081  0.25283540  1
  Hf  Hf2  1  0.40407100  0.80170330  -0.01295156  1
  Hf  Hf3  1  0.51273248  0.69078999  0.64295619  1
  Hf  Hf4  1  0.30017001  0.10050532  0.11087528  1
  Hf  Hf5  1  0.29316982  0.29158690  0.38584756  1
  Hf  Hf6  1  0.69823109  0.48878996  0.11831771  1
  Hf  Hf7  1  0.48811356  0.30891377  0.36703788  1
  Hf  Hf8  1  0.20022668  0.21076935  -0.01513648  1
  Hf  Hf9  1  0.28720102  0.29939695  0.64171539  1
  Hf  Hf10  1  0.19855571  0.39737400  0.50385226  1
  Hf  Hf11  1  0.40844844  0.00208649  0.73785059  1
  Hf  Hf12  1  0.09994768  0.89055431  0.39403523  1
  Hf  Hf13  1  0.70277628  0.30776581  0.63778455  1
  Hf  Hf14  1  0.28633579  0.49504914  0.12370087  1
  Hf  Hf15  1  0.40623984  0.80421378  0.74600393  1
  Hf  Hf16  1  0.40362755  -0.00404213  -0.00943423  1
  Hf  Hf17  1  0.60003605  0.60868323  0.49396212  1
  Hf  Hf18  1  0.68699922  0.49716477  0.88046563  1
  Hf  Hf19  1  0.08840715  0.49215462  0.38489129  1
  Hf  Hf20  1  0.90226410  0.30234685  0.11924865  1
  Hf  Hf21  1  0.00076090  0.19969385  0.75652148  1
  Hf  Hf22  1  0.40041090  0.00737143  0.25771328  1
  Hf  Hf23  1  0.90207695  0.69695826  0.37692998  1
  Hf  Hf24  1  0.69613025  0.31681510  0.36368196  1
  Hf  Hf25  1  0.40180594  0.20398000  0.52035706  1
  Hf  Hf26  1  0.19297243  0.60169538  -0.01075795  1
  Hf  Hf27  1  0.49290357  0.49274598  0.12687206  1
  Hf  Hf28  1  0.60739205  0.61412642  0.23483374  1
  Hf  Hf29  1  0.70902807  0.70842891  0.63380348  1
  Hf  Hf30  1  0.41143119  0.80210774  0.51729974  1
  Hf  Hf31  1  0.00341168  0.59343175  0.24718572  1
  Hf  Hf32  1  0.28853207  0.90175765  0.85519394  1
  Hf  Hf33  1  0.40038865  0.20139006  0.75464523  1
  Hf  Hf34  1  0.79777433  0.78983870  0.00945100  1
  Hf  Hf35  1  0.20526662  0.00099437  0.26016155  1
  Hf  Hf36  1  0.89585933  0.49301438  0.61643508  1
  Hf  Hf37  1  0.69290242  0.29591431  0.87853194  1
  Hf  Hf38  1  0.70334708  0.50469070  0.36665332  1
  Hf  Hf39  1  0.30733551  0.89398871  0.39158850  1
  Zr  Zr40  1  0.58389460  0.40908486  0.51083380  1
  Zr  Zr41  1  0.60147682  0.61587326  0.00385906  1
  Zr  Zr42  1  0.18888335  0.38795147  0.25111020  1
  Zr  Zr43  1  0.10208589  0.09935100  0.12731777  1
  Zr  Zr44  1  0.50477506  0.49199621  0.34674990  1
  Zr  Zr45  1  0.20285059  0.57562502  0.75446840  1
  Zr  Zr46  1  0.71088192  0.90566668  0.86734004  1
  Zr  Zr47  1  0.78342122  0.18256362  0.00446829  1
  Zr  Zr48  1  0.91197053  0.89535983  0.14130888  1
  Zr  Zr49  1  0.69725143  0.10325272  0.37809444  1
  Zr  Zr50  1  0.39562788  0.20045709  0.24680793  1
  Zr  Zr51  1  0.10437192  0.10722137  0.38664292  1
  Zr  Zr52  1  0.90956464  0.09931671  0.13317829  1
  Zr  Zr53  1  0.00261127  0.78844444  0.00941212  1
  Zr  Zr54  1  0.40627182  0.58725819  0.49688336  1
  Zr  Zr55  1  0.89746282  0.89298008  0.37587335  1
  Zr  Zr56  1  0.70835638  0.71139665  0.37297577  1
  Zr  Zr57  1  0.79741214  -0.00307459  0.50259978  1
  Zr  Zr58  1  0.19807393  0.79999338  -0.00343062  1
  Zr  Zr59  1  0.10159508  0.69361184  0.62484327  1
  Zr  Zr60  1  0.30935331  0.48611351  0.36822357  1
  Zr  Zr61  1  -0.00020555  -0.00415767  0.72648734  1
  Zr  Zr62  1  0.69131396  0.50297987  0.63659188  1
  Zr  Zr63  1  0.69362690  0.89600129  0.13837990  1
  Zr  Zr64  1  0.30074403  0.69151182  0.62952121  1
  Zr  Zr65  1  0.00424557  0.20022858  -0.01327537  1
  Zr  Zr66  1  0.09934986  0.89265302  0.85187277  1
  Zr  Zr67  1  0.20691039  0.78100972  0.26859017  1
  Zr  Zr68  1  0.80781757  0.60405801  -0.00032145  1
  Zr  Zr69  1  0.89547078  0.30259670  0.63692027  1
  Zr  Zr70  1  0.89183979  0.08990204  0.87136361  1
  Zr  Zr71  1  0.81229401  0.21794913  0.48400542  1
  Zr  Zr72  1  0.61550509  0.01035940  -0.00145524  1
  Zr  Zr73  1  0.39742211  0.60229635  -0.00685078  1
  Zr  Zr74  1  0.80499844  0.60242639  0.76077220  1
  Zr  Zr75  1  0.49702119  0.71771136  0.36485570  1
  Zr  Zr76  1  0.50766164  0.11399140  0.10832273  1
  Zr  Zr77  1  0.38457437  0.61584390  0.24751751  1
  Zr  Zr78  1  0.29594331  0.09716383  0.86722731  1
  Zr  Zr79  1  0.59707811  0.20595134  0.50096675  1
  Ta  Ta80  1  0.49613361  0.89965426  0.13116648  1
  Ta  Ta81  1  0.09443958  0.48849276  0.61971031  1
  Ta  Ta82  1  0.00986244  -0.00845474  -0.00035618  1
  Ta  Ta83  1  0.50271806  0.30954309  0.87593349  1
  Ta  Ta84  1  0.30297157  0.10134461  0.39867798  1
  Ta  Ta85  1  0.80089510  0.20350188  0.24989941  1
  Ta  Ta86  1  0.80223609  -0.00016502  0.73158086  1
  Ta  Ta87  1  0.40992160  0.00202902  0.51476194  1
  Ta  Ta88  1  0.38744834  0.39424831  -0.00728460  1
  Ta  Ta89  1  0.80938365  0.59861409  0.23250489  1
  Ta  Ta90  1  0.68801371  0.29422315  0.11939894  1
  Ta  Ta91  1  0.09338204  0.49284529  0.11361812  1
  Ta  Ta92  1  0.50752790  0.69837687  0.86010722  1
  Ta  Ta93  1  0.09430221  0.69907629  0.85357830  1
  Ta  Ta94  1  0.80759315  -0.00615446  0.01705085  1
  Ta  Ta95  1  0.09440988  0.29861017  0.62940962  1
  Ta  Ta96  1  0.59980688  0.80209636  -0.00931323  1
  Ta  Ta97  1  0.30376021  0.89536797  0.13049068  1
  Ta  Ta98  1  0.38395040  0.41081548  0.76880872  1
  Ta  Ta99  1  0.10618661  0.89286184  0.61522305  1
  Ta  Ta100  1  0.29815366  0.69947446  0.85731592  1
  Ta  Ta101  1  0.29284714  0.89817931  0.62486323  1
  Ta  Ta102  1  0.60647584  0.81389429  0.50762528  1
  Ta  Ta103  1  -0.00067110  0.00339902  0.51046842  1
  Ta  Ta104  1  0.69778369  0.89694930  0.36797058  1
  Ta  Ta105  1  0.90493577  0.70542162  0.86061797  1
  Ta  Ta106  1  0.51278259  0.10149947  0.63006023  1
  Ta  Ta107  1  0.00023278  0.40559047  0.76259296  1
  Ta  Ta108  1  0.89826568  0.10904035  0.61998558  1
  Ta  Ta109  1  0.80613387  0.40073419  0.24150442  1
  Ta  Ta110  1  0.10641593  0.08862965  0.86359161  1
  Ta  Ta111  1  0.80531626  0.40436910  0.77249644  1
  Ta  Ta112  1  0.29862792  0.70591455  0.12044889  1
  Ta  Ta113  1  0.70414424  0.10915495  0.63206337  1
  Ta  Ta114  1  0.50628252  0.90749649  0.37465328  1
  Ta  Ta115  1  0.80138829  0.00720295  0.25148662  1
  Ta  Ta116  1  0.10833436  0.89657972  0.13909545  1
  Ta  Ta117  1  0.80401121  0.60427335  0.50622169  1
  Ta  Ta118  1  0.19944697  0.60048352  0.48866658  1
  Ta  Ta119  1  0.89226876  0.49338391  0.38085857  1
  Ti  Ti120  1  0.60911046  0.80610246  0.75614253  1
  Ti  Ti121  1  -0.00305620  0.39656006  0.25068965  1
  Ti  Ti122  1  0.80148476  0.78917197  0.23608746  1
  Ti  Ti123  1  0.19780711  0.39602774  -0.01943312  1
  Ti  Ti124  1  0.60182052  0.19988432  0.75204908  1
  Ti  Ti125  1  0.51078898  0.90701873  0.86623782  1
  Ti  Ti126  1  0.00610166  -0.00038677  0.26359011  1
  Ti  Ti127  1  0.30284424  0.49397159  0.62182551  1
  Ti  Ti128  1  -0.01183120  0.79413866  0.72656162  1
  Ti  Ti129  1  0.20218857  0.20149827  0.24366759  1
  Ti  Ti130  1  -0.00210811  0.60198931  -0.00416737  1
  Ti  Ti131  1  0.49790390  0.30391073  0.11247617  1
  Ti  Ti132  1  0.89535274  0.29744635  0.87557897  1
  Ti  Ti133  1  0.90848824  0.49451271  0.11329652  1
  Ti  Ti134  1  -0.00501114  0.59135051  0.74799644  1
  Ti  Ti135  1  0.51542106  0.10586624  0.87312693  1
  Ti  Ti136  1  0.09363903  0.49869474  0.87728419  1
  Ti  Ti137  1  0.49878275  0.49962867  0.87373681  1
  Ti  Ti138  1  0.00221543  0.39770680  -0.01707736  1
  Ti  Ti139  1  0.11041705  0.10878194  0.62538800  1
  Ti  Ti140  1  0.59684121  0.00080171  0.50471955  1
  Ti  Ti141  1  0.49778590  0.31471098  0.64672818  1
  Ti  Ti142  1  0.19565363  -0.00775815  0.00303021  1
  Ti  Ti143  1  0.80332016  0.39855099  -0.00683136  1
  Ti  Ti144  1  0.09127541  0.28850742  0.39150479  1
  Ti  Ti145  1  0.01092645  0.78619389  0.25299107  1
  Ti  Ti146  1  0.69676332  0.90495504  0.63103610  1
  Ti  Ti147  1  -0.01085250  0.79370870  0.51300292  1
  Ti  Ti148  1  -0.00126208  0.59907918  0.50251034  1
  Ti  Ti149  1  0.90969216  0.10717838  0.37682840  1
  Ti  Ti150  1  0.49730149  0.72116488  0.13167738  1
  Ti  Ti151  1  0.20487954  0.00469199  0.51337811  1
  Ti  Ti152  1  0.10168995  0.30541930  0.11734684  1
  Ti  Ti153  1  0.19201338  0.59933041  0.26644618  1
  Ti  Ti154  1  0.39789449  0.20948635  -0.01494690  1
  Ti  Ti155  1  -0.01590282  0.38208731  0.49472062  1
  Ti  Ti156  1  0.59666130  0.20481697  0.25259237  1
  Ti  Ti157  1  0.00386146  0.20967646  0.25359062  1
  Ti  Ti158  1  0.10586792  0.69059439  0.12772940  1
  Ti  Ti159  1  0.49290295  0.50227403  0.65542837  1
  Mo  Mo160  1  0.18890836  0.39939397  0.75354113  1
  Mo  Mo161  1  0.00151261  0.19870648  0.50921595  1
  Mo  Mo162  1  0.29791276  0.69781547  0.39260362  1
  Mo  Mo163  1  0.29648628  0.29964648  0.11435141  1
  Mo  Mo164  1  0.90252894  0.69336984  0.62438762  1
  Mo  Mo165  1  0.19658520  0.79417604  0.74143399  1
  Mo  Mo166  1  0.09271992  0.69434431  0.39296903  1
  Mo  Mo167  1  0.19738856  0.19753785  0.51358587  1
  Mo  Mo168  1  0.70057457  0.70979475  0.86120623  1
  Mo  Mo169  1  0.40024279  0.39892123  0.52569070  1
  Mo  Mo170  1  0.70407604  0.10574494  0.14168909  1
  Mo  Mo171  1  0.20177028  0.79481266  0.49976028  1
  Mo  Mo172  1  0.70080625  0.70294199  0.13025816  1
  Mo  Mo173  1  0.29915382  0.09781246  0.62310817  1
  Mo  Mo174  1  0.49430305  0.09982906  0.39691359  1
  Mo  Mo175  1  0.29765602  0.30300018  0.86363812  1
  Mo  Mo176  1  0.60231578  0.60142833  0.76536902  1
  Mo  Mo177  1  0.60436764  0.00550201  0.74602223  1
  Mo  Mo178  1  0.59308516  0.20346355  -0.01145145  1
  Mo  Mo179  1  0.09935404  0.30167186  0.85963680  1
  Mo  Mo180  1  0.79918193  0.80273252  0.51367786  1
  Mo  Mo181  1  0.60030433  0.39220658  0.22872073  1
  Mo  Mo182  1  0.39099676  0.38705618  0.22274708  1
  Mo  Mo183  1  0.59695213  0.80954632  0.25150003  1
  Mo  Mo184  1  0.29559859  0.50004803  0.89087609  1
  Mo  Mo185  1  0.51332579  0.90176724  0.63033089  1
  Mo  Mo186  1  0.80773988  0.80712412  0.73698177  1
  Mo  Mo187  1  0.58835845  0.39755678  0.00460013  1
  Mo  Mo188  1  0.79797635  0.40716854  0.48816201  1
  Mo  Mo189  1  0.90917907  0.69242638  0.13660941  1
  Mo  Mo190  1  0.59232486  0.39932028  0.75399750  1
  Mo  Mo191  1  0.90722304  0.30304853  0.35566626  1
  Mo  Mo192  1  0.79859107  0.19931671  0.75659347  1
  Mo  Mo193  1  0.69989501  0.09900264  0.85072414  1
  Mo  Mo194  1  0.40080736  0.59434789  0.76242945  1
  Mo  Mo195  1  0.89746931  0.89570339  0.61336562  1
  Mo  Mo196  1  0.20039288  0.00236969  0.72436780  1
  Mo  Mo197  1  0.39684721  0.81011078  0.24654586  1
  Mo  Mo198  1  0.19305435  0.19767407  0.75442381  1
  Mo  Mo199  1  0.90617064  0.49981851  0.88527709  1
