# generated using pymatgen
data_HfZrTaTiMo
_symmetry_space_group_name_H-M   'P 1'
_cell_length_a   15.83784395
_cell_length_b   15.84188527
_cell_length_c   15.40146551
_cell_angle_alpha   89.99320792
_cell_angle_beta   89.93486779
_cell_angle_gamma   89.96477760
_symmetry_Int_Tables_number   1
_chemical_formula_structural   HfZrTaTiMo
_chemical_formula_sum   'Hf40 Zr40 Ta40 Ti40 Mo40'
_cell_volume   3864.24456803
_cell_formula_units_Z   40
loop_
 _symmetry_equiv_pos_site_id
 _symmetry_equiv_pos_as_xyz
  1  'x, y, z'
loop_
 _atom_site_type_symbol
 _atom_site_label
 _atom_site_symmetry_multiplicity
 _atom_site_fract_x
 _atom_site_fract_y
 _atom_site_fract_z
 _atom_site_occupancy
  Hf  Hf0  1  0.38291629  0.81436154  0.25789381  1
  Hf  Hf1  1  0.50717870  0.69368633  0.63594785  1
  Hf  Hf2  1  0.10267092  0.69729946  0.38802277  1
  Hf  Hf3  1  0.21570028  0.00079152  0.50799647  1
  Hf  Hf4  1  0.69913385  0.10280136  0.61628096  1
  Hf  Hf5  1  0.80336795  -0.00064074  0.75907311  1
  Hf  Hf6  1  0.19760300  0.58086709  0.74656398  1
  Hf  Hf7  1  0.89681613  0.30007150  0.88053345  1
  Hf  Hf8  1  0.70035536  0.70430732  0.13521402  1
  Hf  Hf9  1  0.31064895  0.47913405  0.62709010  1
  Hf  Hf10  1  0.21035884  0.79809267  0.51123113  1
  Hf  Hf11  1  0.89348308  0.90378268  0.40067682  1
  Hf  Hf12  1  0.68956110  0.30238116  0.61948696  1
  Hf  Hf13  1  0.09033037  0.49878186  0.13439604  1
  Hf  Hf14  1  0.20408071  -0.01145815  0.24519804  1
  Hf  Hf15  1  0.59213330  0.20449850  0.76002306  1
  Hf  Hf16  1  0.89794976  0.49312928  0.87813976  1
  Hf  Hf17  1  0.30970294  0.48615735  0.87534228  1
  Hf  Hf18  1  0.18374530  0.00286773  0.01000088  1
  Hf  Hf19  1  0.50748252  0.09305296  0.35924124  1
  Hf  Hf20  1  0.59342177  0.40986205  0.01926945  1
  Hf  Hf21  1  0.69349719  0.90827406  0.12706207  1
  Hf  Hf22  1  0.60498409  0.80350411  0.75009360  1
  Hf  Hf23  1  0.20528043  0.18550707  0.47788965  1
  Hf  Hf24  1  0.00597272  0.19541484  0.49675059  1
  Hf  Hf25  1  0.09972774  0.29678627  0.87451239  1
  Hf  Hf26  1  0.28693482  0.49524772  0.37310454  1
  Hf  Hf27  1  0.09567728  0.49733475  0.38144641  1
  Hf  Hf28  1  -0.00047235  0.79825704  0.50955774  1
  Hf  Hf29  1  0.80343390  0.20754187  0.49562121  1
  Hf  Hf30  1  0.09252901  0.87822245  0.11101507  1
  Hf  Hf31  1  0.39705249  0.21754689  0.75679405  1
  Hf  Hf32  1  0.91852664  0.70161851  0.11086508  1
  Hf  Hf33  1  0.40108129  0.80842603  0.49860497  1
  Hf  Hf34  1  0.00256508  0.19340473  0.25717177  1
  Hf  Hf35  1  0.20022142  0.59360199  0.52036200  1
  Hf  Hf36  1  -0.00035658  0.79545421  0.26483346  1
  Hf  Hf37  1  0.40265828  0.60064996  0.49763465  1
  Hf  Hf38  1  0.01144595  0.59377818  -0.01209929  1
  Hf  Hf39  1  0.29313705  0.90617403  0.86945196  1
  Zr  Zr40  1  0.59972876  0.79867841  0.49901118  1
  Zr  Zr41  1  0.20022632  0.19275852  0.24813842  1
  Zr  Zr42  1  0.90186018  0.30610548  0.62680202  1
  Zr  Zr43  1  0.49094696  0.90009215  0.86750750  1
  Zr  Zr44  1  0.81420124  0.20716039  0.26080331  1
  Zr  Zr45  1  0.58525335  0.80232828  -0.00478253  1
  Zr  Zr46  1  0.69768797  0.30812218  0.88069572  1
  Zr  Zr47  1  0.56495578  0.41243125  0.74204109  1
  Zr  Zr48  1  0.29762950  0.50457926  0.12966304  1
  Zr  Zr49  1  0.40623251  0.60603853  -0.00239913  1
  Zr  Zr50  1  0.30295605  0.10435618  0.88863080  1
  Zr  Zr51  1  0.80534666  0.00882328  0.24727171  1
  Zr  Zr52  1  0.00287787  -0.01113989  0.75213453  1
  Zr  Zr53  1  0.81058500  0.80494955  0.24954474  1
  Zr  Zr54  1  0.29963917  0.28403383  0.61279718  1
  Zr  Zr55  1  0.69517364  0.49977321  0.86918106  1
  Zr  Zr56  1  0.59220107  0.60062207  0.01238009  1
  Zr  Zr57  1  0.09790775  0.69656929  0.85594185  1
  Zr  Zr58  1  0.10779504  0.30964405  0.38315924  1
  Zr  Zr59  1  0.60598824  0.60393427  0.48719453  1
  Zr  Zr60  1  0.69417633  0.69368718  0.86776404  1
  Zr  Zr61  1  0.39722485  0.39465654  0.25046571  1
  Zr  Zr62  1  0.71458041  0.30464607  0.12476755  1
  Zr  Zr63  1  0.09242406  0.69698174  0.63646561  1
  Zr  Zr64  1  0.69589787  0.50920438  0.62513858  1
  Zr  Zr65  1  0.49836250  0.11453464  0.60978405  1
  Zr  Zr66  1  0.10608248  0.30355078  0.62389982  1
  Zr  Zr67  1  0.31383580  0.09830160  0.12033506  1
  Zr  Zr68  1  0.40198978  0.01926091  0.74576713  1
  Zr  Zr69  1  0.81490924  0.00986975  -0.01619831  1
  Zr  Zr70  1  0.79908478  0.80037549  -0.00983063  1
  Zr  Zr71  1  -0.00071602  0.17585107  -0.00571403  1
  Zr  Zr72  1  0.69062239  0.91000876  0.37306029  1
  Zr  Zr73  1  0.89187548  0.49014549  0.11335715  1
  Zr  Zr74  1  0.70795547  0.90285419  0.61380938  1
  Zr  Zr75  1  0.81007773  0.60028841  0.26706671  1
  Zr  Zr76  1  -0.01862932  0.39216056  0.25911650  1
  Zr  Zr77  1  0.49186848  0.71098758  0.14504001  1
  Zr  Zr78  1  0.20331488  0.60226319  -0.00393219  1
  Zr  Zr79  1  0.00401960  -0.00348329  0.25147121  1
  Ta  Ta80  1  0.90902137  0.90137316  0.10256388  1
  Ta  Ta81  1  0.19183680  0.60989033  0.24621290  1
  Ta  Ta82  1  0.19611213  0.81036701  0.74887827  1
  Ta  Ta83  1  0.30012836  0.29747506  0.11092595  1
  Ta  Ta84  1  0.80647577  0.80488193  0.75369951  1
  Ta  Ta85  1  0.29957884  0.29890365  0.89839938  1
  Ta  Ta86  1  0.49901725  0.70731604  0.36100664  1
  Ta  Ta87  1  0.69498935  0.30306142  0.37608358  1
  Ta  Ta88  1  0.30784182  0.90487887  0.63916423  1
  Ta  Ta89  1  0.49974267  0.49959915  0.36652043  1
  Ta  Ta90  1  0.60308853  0.00987966  0.75726869  1
  Ta  Ta91  1  0.69878047  0.10791027  0.88379216  1
  Ta  Ta92  1  0.50007426  0.90704845  0.63202065  1
  Ta  Ta93  1  0.59320473  0.40267856  0.49093119  1
  Ta  Ta94  1  0.19475878  0.79923619  0.25666354  1
  Ta  Ta95  1  0.70097926  0.49979259  0.14283431  1
  Ta  Ta96  1  0.50826462  0.29440614  0.36356014  1
  Ta  Ta97  1  0.48712798  0.31133116  0.89603909  1
  Ta  Ta98  1  0.59718322  0.20380539  0.00489283  1
  Ta  Ta99  1  0.90105726  0.09767000  0.62578270  1
  Ta  Ta100  1  0.79920438  0.19714167  0.75267475  1
  Ta  Ta101  1  0.31018952  0.70381387  0.85283872  1
  Ta  Ta102  1  0.41858826  0.58169583  0.75305875  1
  Ta  Ta103  1  0.89915843  0.50168006  0.61884999  1
  Ta  Ta104  1  0.19824636  0.79331739  -0.01640407  1
  Ta  Ta105  1  0.18880217  0.40086543  0.00375174  1
  Ta  Ta106  1  0.50027014  0.29267940  0.13423040  1
  Ta  Ta107  1  0.88831007  0.70133866  0.62672901  1
  Ta  Ta108  1  0.51028489  0.09901743  0.12970542  1
  Ta  Ta109  1  -0.00922435  0.59548872  0.50209957  1
  Ta  Ta110  1  0.10720529  0.90413493  0.38947002  1
  Ta  Ta111  1  0.89880530  0.69528418  0.86708437  1
  Ta  Ta112  1  0.10949518  0.09422919  0.85803658  1
  Ta  Ta113  1  0.39931019  0.19304123  0.47414013  1
  Ta  Ta114  1  -0.00593556  0.60282561  0.26645285  1
  Ta  Ta115  1  0.59961989  0.59992881  0.25567260  1
  Ta  Ta116  1  0.39824704  0.39208669  0.47704612  1
  Ta  Ta117  1  0.70502234  0.10603447  0.11083690  1
  Ta  Ta118  1  0.19191311  0.19803780  0.00958843  1
  Ta  Ta119  1  0.69665673  0.10319732  0.38546301  1
  Ti  Ti120  1  0.11821961  0.10541237  0.64274686  1
  Ti  Ti121  1  0.58915578  0.00127374  0.50152209  1
  Ti  Ti122  1  0.01333186  0.00850071  0.50839270  1
  Ti  Ti123  1  0.39540311  0.19878503  0.25454204  1
  Ti  Ti124  1  0.19859355  0.39040703  0.23870289  1
  Ti  Ti125  1  0.39434643  0.79479627  -0.00518500  1
  Ti  Ti126  1  -0.00820713  0.80488628  0.75115351  1
  Ti  Ti127  1  0.20595956  0.38688170  0.75675353  1
  Ti  Ti128  1  0.61324449  0.19852595  0.24283258  1
  Ti  Ti129  1  -0.00120604  0.19640820  0.74891097  1
  Ti  Ti130  1  0.90312073  0.09972865  0.12142950  1
  Ti  Ti131  1  0.70120888  0.71348102  0.36459533  1
  Ti  Ti132  1  0.79998075  0.40086565  0.74347678  1
  Ti  Ti133  1  0.79798700  0.61123713  0.49424566  1
  Ti  Ti134  1  0.50158715  0.90777168  0.14041312  1
  Ti  Ti135  1  0.41044658  -0.00622792  0.00735541  1
  Ti  Ti136  1  0.49986835  0.10783526  0.89263650  1
  Ti  Ti137  1  0.79886638  0.60253681  0.74441765  1
  Ti  Ti138  1  0.28672763  0.70920196  0.12679238  1
  Ti  Ti139  1  -0.00567988  0.58805219  0.74386559  1
  Ti  Ti140  1  0.40527712  0.40858303  0.02146809  1
  Ti  Ti141  1  0.29986086  0.89321473  0.11027623  1
  Ti  Ti142  1  0.89580857  0.90481868  0.61251768  1
  Ti  Ti143  1  0.79434718  0.59734209  0.00128759  1
  Ti  Ti144  1  0.29759434  0.69853511  0.37433319  1
  Ti  Ti145  1  0.69727107  0.90579948  0.87782475  1
  Ti  Ti146  1  0.39321071  0.60259149  0.25348108  1
  Ti  Ti147  1  0.01017123  0.41052970  0.74911356  1
  Ti  Ti148  1  0.59897723  0.00345717  -0.00293843  1
  Ti  Ti149  1  0.49105162  0.30732259  0.60394510  1
  Ti  Ti150  1  0.09034346  0.29578253  0.11853787  1
  Ti  Ti151  1  0.90095239  0.29871265  0.09881826  1
  Ti  Ti152  1  0.10462028  0.90333737  0.62504697  1
  Ti  Ti153  1  0.80204676  0.39992801  0.27018420  1
  Ti  Ti154  1  0.49267765  0.91113180  0.36478068  1
  Ti  Ti155  1  0.31581659  0.07336744  0.36346142  1
  Ti  Ti156  1  0.30904701  0.70125961  0.64693676  1
  Ti  Ti157  1  0.80117793  0.40886865  0.49094082  1
  Ti  Ti158  1  0.69635570  0.49715592  0.36895378  1
  Ti  Ti159  1  0.90086516  0.09308519  0.39039027  1
  Mo  Mo160  1  0.60446002  0.00916868  0.24085422  1
  Mo  Mo161  1  0.59719220  0.20689772  0.48658170  1
  Mo  Mo162  1  0.89425583  0.50149130  0.39465897  1
  Mo  Mo163  1  0.09453989  0.09371213  0.13027143  1
  Mo  Mo164  1  0.89699221  0.70152428  0.39743427  1
  Mo  Mo165  1  0.49286836  0.69573313  0.85807891  1
  Mo  Mo166  1  0.79786440  0.79347712  0.50385518  1
  Mo  Mo167  1  0.90476873  0.89286037  0.88092446  1
  Mo  Mo168  1  0.40574156  -0.00257700  0.50540095  1
  Mo  Mo169  1  0.49352414  0.49573475  0.59846576  1
  Mo  Mo170  1  0.10039785  0.89639444  0.87826651  1
  Mo  Mo171  1  0.00493213  0.39284764  0.00084165  1
  Mo  Mo172  1  0.00317455  0.79494269  -0.02219077  1
  Mo  Mo173  1  0.39418187  0.39366862  0.75303874  1
  Mo  Mo174  1  0.30366020  0.29483334  0.37249463  1
  Mo  Mo175  1  0.89904756  0.30504095  0.39336678  1
  Mo  Mo176  1  0.20168957  0.00171358  0.73718959  1
  Mo  Mo177  1  0.49630622  0.49608655  0.88391717  1
  Mo  Mo178  1  0.00228339  -0.00760926  -0.01928746  1
  Mo  Mo179  1  0.39935958  0.79903044  0.74261889  1
  Mo  Mo180  1  0.79995682  0.19835725  -0.00786958  1
  Mo  Mo181  1  0.80476616  0.00915679  0.50208495  1
  Mo  Mo182  1  0.09991910  0.08657020  0.37219364  1
  Mo  Mo183  1  0.20306204  0.19944767  0.76286903  1
  Mo  Mo184  1  -0.00706383  0.40313223  0.50166705  1
  Mo  Mo185  1  0.90428410  0.10364082  0.85026937  1
  Mo  Mo186  1  0.40120478  -0.00183591  0.23281331  1
  Mo  Mo187  1  0.59565118  0.80528213  0.25867598  1
  Mo  Mo188  1  0.09349762  0.49017835  0.61863173  1
  Mo  Mo189  1  0.29841744  0.89729994  0.37927404  1
  Mo  Mo190  1  0.20186938  0.39675366  0.50088505  1
  Mo  Mo191  1  0.10143434  0.48786873  0.86909802  1
  Mo  Mo192  1  0.10229000  0.69729692  0.12997663  1
  Mo  Mo193  1  0.40775551  0.20485585  0.00719457  1
  Mo  Mo194  1  0.79568715  0.40609986  0.00087818  1
  Mo  Mo195  1  0.59780037  0.59939346  0.74692293  1
  Mo  Mo196  1  0.30206023  0.10320144  0.62297161  1
  Mo  Mo197  1  0.70965257  0.69986578  0.63663748  1
  Mo  Mo198  1  0.50238334  0.49966428  0.15429939  1
  Mo  Mo199  1  0.60358350  0.39969486  0.25057570  1
