# generated using pymatgen
data_HfZrTaTiMo
_symmetry_space_group_name_H-M   'P 1'
_cell_length_a   15.84751122
_cell_length_b   15.83334995
_cell_length_c   15.39980063
_cell_angle_alpha   89.96332465
_cell_angle_beta   90.04518353
_cell_angle_gamma   89.99887441
_symmetry_Int_Tables_number   1
_chemical_formula_structural   HfZrTaTiMo
_chemical_formula_sum   'Hf40 Zr40 Ta40 Ti40 Mo40'
_cell_volume   3864.10352155
_cell_formula_units_Z   40
loop_
 _symmetry_equiv_pos_site_id
 _symmetry_equiv_pos_as_xyz
  1  'x, y, z'
loop_
 _atom_site_type_symbol
 _atom_site_label
 _atom_site_symmetry_multiplicity
 _atom_site_fract_x
 _atom_site_fract_y
 _atom_site_fract_z
 _atom_site_occupancy
  Hf  Hf0  1  0.30540009  0.49880252  0.63827036  1
  Hf  Hf1  1  0.21004569  0.59136600  0.25822264  1
  Hf  Hf2  1  0.00029088  0.80567808  0.23749582  1
  Hf  Hf3  1  -0.00388013  0.19126637  0.22408554  1
  Hf  Hf4  1  0.19599571  0.38906610  0.75379060  1
  Hf  Hf5  1  0.70584389  0.30466711  0.38605900  1
  Hf  Hf6  1  0.90479412  0.30093487  0.39280442  1
  Hf  Hf7  1  0.60021760  0.80162762  0.24155316  1
  Hf  Hf8  1  0.10240952  0.70063455  0.11576590  1
  Hf  Hf9  1  0.20113187  -0.00329477  0.73101445  1
  Hf  Hf10  1  0.30706756  0.49871070  0.87908897  1
  Hf  Hf11  1  0.89984816  0.90023224  0.37112014  1
  Hf  Hf12  1  0.80307490  0.00763400  0.23352322  1
  Hf  Hf13  1  0.30238140  0.28660513  0.87413218  1
  Hf  Hf14  1  0.11104809  0.49557943  0.11133801  1
  Hf  Hf15  1  0.59802811  0.20691890  0.75770971  1
  Hf  Hf16  1  0.60412037  0.40423061  0.23815297  1
  Hf  Hf17  1  0.09664241  0.68669756  0.61082979  1
  Hf  Hf18  1  0.00124984  0.38646617  0.24265444  1
  Hf  Hf19  1  0.39985200  0.42036722  0.49205257  1
  Hf  Hf20  1  -0.02911735  0.79139116  0.51595353  1
  Hf  Hf21  1  0.90658636  0.50376720  0.11043768  1
  Hf  Hf22  1  0.10171023  0.08419756  0.39362038  1
  Hf  Hf23  1  0.80132316  0.40435705  0.77063301  1
  Hf  Hf24  1  0.79333264  0.60735187  0.23495755  1
  Hf  Hf25  1  0.60281610  0.59780890  0.75407022  1
  Hf  Hf26  1  0.80171165  0.20611198  0.22592210  1
  Hf  Hf27  1  0.19061971  0.19426500  0.25162476  1
  Hf  Hf28  1  0.29858159  0.29642111  0.37081538  1
  Hf  Hf29  1  0.09119233  0.49112127  0.61250593  1
  Hf  Hf30  1  0.90229552  0.30792718  0.62041286  1
  Hf  Hf31  1  0.29644440  0.30457514  0.12286157  1
  Hf  Hf32  1  0.49067930  0.10554102  0.87355611  1
  Hf  Hf33  1  0.10323216  0.30114936  0.10235100  1
  Hf  Hf34  1  0.69669228  0.09779305  0.63893867  1
  Hf  Hf35  1  0.50684453  0.30849020  0.37496877  1
  Hf  Hf36  1  0.59544408  -0.00042945  0.48920995  1
  Hf  Hf37  1  0.20830222  0.38901355  0.50138288  1
  Hf  Hf38  1  0.30075826  0.09229856  0.13510885  1
  Hf  Hf39  1  0.90832997  0.71188550  0.88599417  1
  Zr  Zr40  1  0.47170514  0.89900482  0.87738864  1
  Zr  Zr41  1  0.89933645  0.10012527  0.87674719  1
  Zr  Zr42  1  0.58672567  0.79995505  0.50231249  1
  Zr  Zr43  1  0.49541597  0.30593781  0.61791408  1
  Zr  Zr44  1  0.40339287  0.01683170  0.49512420  1
  Zr  Zr45  1  0.59395916  0.79708888  0.75719770  1
  Zr  Zr46  1  0.59612535  0.60699058  0.50687848  1
  Zr  Zr47  1  0.60260428  -0.00529690  0.76663643  1
  Zr  Zr48  1  0.50307991  0.29845620  0.11930557  1
  Zr  Zr49  1  0.09215291  0.48674438  0.38519029  1
  Zr  Zr50  1  0.89510319  0.49923670  0.38515783  1
  Zr  Zr51  1  0.01625089  0.00273303  0.01178755  1
  Zr  Zr52  1  0.69864313  0.31345943  0.61398271  1
  Zr  Zr53  1  0.39648722  0.41703138  0.24983072  1
  Zr  Zr54  1  0.80120311  0.59957705  0.75967523  1
  Zr  Zr55  1  0.19843399  0.80058639  0.74873039  1
  Zr  Zr56  1  0.69722022  0.90464303  0.11787209  1
  Zr  Zr57  1  0.79990547  0.18836404  0.50847524  1
  Zr  Zr58  1  0.79786112  0.81438774  0.76455255  1
  Zr  Zr59  1  0.89352196  0.08798989  0.64578319  1
  Zr  Zr60  1  0.30458543  0.08915559  0.86118942  1
  Zr  Zr61  1  0.08930819  0.70120359  0.38451668  1
  Zr  Zr62  1  0.19739301  0.60193182  0.76096019  1
  Zr  Zr63  1  0.21577245  0.17561874  0.51272704  1
  Zr  Zr64  1  0.69302924  0.50233833  0.38095655  1
  Zr  Zr65  1  0.80123306  0.39720993  0.22895223  1
  Zr  Zr66  1  0.90602472  0.10310956  0.37870050  1
  Zr  Zr67  1  -0.00267349  0.40129383  0.76314466  1
  Zr  Zr68  1  0.58804038  0.18723546  0.49737189  1
  Zr  Zr69  1  0.60326233  0.40398341  0.76476082  1
  Zr  Zr70  1  0.31182702  0.71315941  0.87396136  1
  Zr  Zr71  1  0.10342108  0.09617644  0.86471529  1
  Zr  Zr72  1  0.70400170  0.90661102  0.62583202  1
  Zr  Zr73  1  0.29912849  0.89915313  0.37703046  1
  Zr  Zr74  1  0.10149434  0.89520665  0.60329496  1
  Zr  Zr75  1  -0.00279332  0.60095914  0.24561607  1
  Zr  Zr76  1  0.00002659  0.59806536  0.76459655  1
  Zr  Zr77  1  0.21943867  0.59116275  0.48603427  1
  Zr  Zr78  1  0.00933966  -0.00121756  0.23358669  1
  Zr  Zr79  1  0.80577313  0.61788594  0.51064506  1
  Ta  Ta80  1  0.49422106  0.90614924  0.12743306  1
  Ta  Ta81  1  0.41005012  0.40144935  0.75934593  1
  Ta  Ta82  1  0.10029842  0.28932510  0.61566464  1
  Ta  Ta83  1  0.50031083  0.50666637  0.89187861  1
  Ta  Ta84  1  0.69289113  0.50623806  0.10680945  1
  Ta  Ta85  1  0.39833567  0.19259456  0.00983882  1
  Ta  Ta86  1  0.90325028  0.29054452  0.88855609  1
  Ta  Ta87  1  0.69889286  0.70741174  0.36675273  1
  Ta  Ta88  1  0.08972097  0.28306711  0.39547227  1
  Ta  Ta89  1  0.10180802  0.28892825  0.88631091  1
  Ta  Ta90  1  0.40544617  0.19530172  0.25389610  1
  Ta  Ta91  1  0.30724863  0.90152082  0.60530403  1
  Ta  Ta92  1  0.89887933  0.89674521  0.10563247  1
  Ta  Ta93  1  0.59874707  0.00584580  0.25368577  1
  Ta  Ta94  1  0.60662184  0.19891740  0.24703775  1
  Ta  Ta95  1  0.70042854  0.28841265  0.89826215  1
  Ta  Ta96  1  0.29833418  0.50176750  0.11085619  1
  Ta  Ta97  1  0.39977275  0.80267968  0.72533316  1
  Ta  Ta98  1  0.20455939  0.60759095  -0.01027043  1
  Ta  Ta99  1  0.40075344  0.60819750  0.00975558  1
  Ta  Ta100  1  0.20163402  0.80798051  -0.00183508  1
  Ta  Ta101  1  0.58876542  0.80340649  -0.00044388  1
  Ta  Ta102  1  0.40364713  0.00157311  0.25775237  1
  Ta  Ta103  1  0.19638187  0.79938325  0.25681854  1
  Ta  Ta104  1  0.59432456  0.00335268  -0.00787530  1
  Ta  Ta105  1  0.40205469  0.62424856  0.51270998  1
  Ta  Ta106  1  0.78959722  0.80479314  0.50109580  1
  Ta  Ta107  1  0.39183710  0.80434158  0.01781507  1
  Ta  Ta108  1  0.50346777  0.09725485  0.12546458  1
  Ta  Ta109  1  0.80138929  0.39678166  0.00176476  1
  Ta  Ta110  1  0.69433502  0.50185192  0.89912300  1
  Ta  Ta111  1  0.29846360  0.69989535  0.13270815  1
  Ta  Ta112  1  -0.00308502  0.79979758  0.74174029  1
  Ta  Ta113  1  0.80094328  0.60438618  -0.00328780  1
  Ta  Ta114  1  0.00743608  0.20140543  0.74389775  1
  Ta  Ta115  1  0.41154879  0.60534795  0.74354898  1
  Ta  Ta116  1  0.70387586  0.09896993  0.36703734  1
  Ta  Ta117  1  0.20131931  0.18362757  0.00487394  1
  Ta  Ta118  1  0.22366190  0.78361061  0.49573433  1
  Ta  Ta119  1  0.70259177  0.89942205  0.36650919  1
  Ti  Ti120  1  0.30717716  0.29078698  0.63752865  1
  Ti  Ti121  1  0.50108830  0.50900666  0.11197225  1
  Ti  Ti122  1  0.79730530  0.20441658  0.76026126  1
  Ti  Ti123  1  0.89020740  0.70403458  0.36691215  1
  Ti  Ti124  1  0.90311012  0.50574569  0.61230728  1
  Ti  Ti125  1  0.49668777  0.69864725  0.88276902  1
  Ti  Ti126  1  0.89891880  0.70750126  0.10831369  1
  Ti  Ti127  1  -0.00300295  0.39926684  -0.01106001  1
  Ti  Ti128  1  0.79136284  0.00542201  -0.00870354  1
  Ti  Ti129  1  0.49631671  0.30060002  0.88617956  1
  Ti  Ti130  1  0.40036353  0.39986666  -0.00036046  1
  Ti  Ti131  1  0.49441583  0.89194336  0.36426647  1
  Ti  Ti132  1  0.00599207  0.60364462  -0.01158565  1
  Ti  Ti133  1  0.70444496  0.49576291  0.61525610  1
  Ti  Ti134  1  0.59921747  0.39639457  0.00341496  1
  Ti  Ti135  1  0.50665016  0.50074493  0.62440755  1
  Ti  Ti136  1  0.90490739  0.90429098  0.88779357  1
  Ti  Ti137  1  0.49572234  0.70351141  0.12732184  1
  Ti  Ti138  1  0.29705122  0.89460766  0.14139465  1
  Ti  Ti139  1  -0.00999848  0.00016125  0.51650252  1
  Ti  Ti140  1  0.09667780  0.88960931  0.87721598  1
  Ti  Ti141  1  0.80019379  0.80112078  0.23899727  1
  Ti  Ti142  1  0.19627247  0.39828215  0.25978000  1
  Ti  Ti143  1  0.59737056  0.60237244  0.23955351  1
  Ti  Ti144  1  0.70200614  0.70486465  0.63369669  1
  Ti  Ti145  1  0.69388176  0.70053990  0.11120043  1
  Ti  Ti146  1  0.69229558  0.11069898  0.10645276  1
  Ti  Ti147  1  0.39144533  -0.00421534  0.01009299  1
  Ti  Ti148  1  -0.00146025  -0.01526158  0.74597078  1
  Ti  Ti149  1  0.10007459  0.89370058  0.39480399  1
  Ti  Ti150  1  0.79290742  0.80469887  -0.00552695  1
  Ti  Ti151  1  0.32355482  0.70063694  0.35469707  1
  Ti  Ti152  1  0.19322059  -0.00640321  0.25131211  1
  Ti  Ti153  1  0.20843596  -0.01081672  0.00053263  1
  Ti  Ti154  1  0.10627296  0.49342145  0.89132340  1
  Ti  Ti155  1  0.40108707  0.19589903  0.49183304  1
  Ti  Ti156  1  0.49353967  0.52115960  0.36985317  1
  Ti  Ti157  1  0.69113734  0.69948381  0.89005873  1
  Ti  Ti158  1  0.79978193  -0.00616247  0.49555682  1
  Ti  Ti159  1  0.49650367  0.70375334  0.35884555  1
  Mo  Mo160  1  0.89255659  0.70231958  0.64767747  1
  Mo  Mo161  1  0.59426497  0.19580942  -0.00380699  1
  Mo  Mo162  1  0.20287579  -0.00779197  0.50645545  1
  Mo  Mo163  1  0.49802653  0.90541346  0.62566154  1
  Mo  Mo164  1  0.90368775  0.29828794  0.09973638  1
  Mo  Mo165  1  0.69893860  0.10299601  0.88041833  1
  Mo  Mo166  1  0.30094626  0.70046446  0.63143392  1
  Mo  Mo167  1  0.89320598  0.90220968  0.63034078  1
  Mo  Mo168  1  0.79942793  0.19756760  0.00933684  1
  Mo  Mo169  1  0.79886198  0.00016345  0.78140353  1
  Mo  Mo170  1  0.11533579  0.89503626  0.12472140  1
  Mo  Mo171  1  0.50354954  0.69914256  0.63551209  1
  Mo  Mo172  1  0.59538666  0.60948608  0.00458015  1
  Mo  Mo173  1  0.89901305  0.49940007  0.89684094  1
  Mo  Mo174  1  0.09955278  0.70680832  0.89033012  1
  Mo  Mo175  1  0.00406581  0.18851650  0.52211414  1
  Mo  Mo176  1  0.40386073  0.20597890  0.74664047  1
  Mo  Mo177  1  0.30936303  0.10362999  0.64031960  1
  Mo  Mo178  1  0.49410657  0.10237457  0.64280947  1
  Mo  Mo179  1  0.79796078  0.40716820  0.50892083  1
  Mo  Mo180  1  0.20516325  0.39692839  -0.01606557  1
  Mo  Mo181  1  0.39966690  0.80296040  0.23511921  1
  Mo  Mo182  1  -0.00841979  0.60147274  0.50033321  1
  Mo  Mo183  1  0.40611747  0.79858764  0.50540450  1
  Mo  Mo184  1  0.00231193  0.80416474  0.00789046  1
  Mo  Mo185  1  0.69611513  0.89915547  0.89825683  1
  Mo  Mo186  1  0.30880159  0.50519372  0.36812016  1
  Mo  Mo187  1  0.19824133  0.19940443  0.73609408  1
  Mo  Mo188  1  0.89488324  0.09607325  0.10317193  1
  Mo  Mo189  1  0.30024986  0.09749652  0.35638887  1
  Mo  Mo190  1  0.11201802  0.09638396  0.11810464  1
  Mo  Mo191  1  0.00174687  0.19875304  0.00525480  1
  Mo  Mo192  1  0.59494683  0.41394031  0.49086643  1
  Mo  Mo193  1  0.40253902  -0.00328452  0.72815010  1
  Mo  Mo194  1  0.69637672  0.30060307  0.10683140  1
  Mo  Mo195  1  0.29632230  0.90240699  0.87618818  1
  Mo  Mo196  1  0.40923710  0.60313708  0.22858850  1
  Mo  Mo197  1  0.09601998  0.09597221  0.62957274  1
  Mo  Mo198  1  0.00064938  0.39416587  0.50573497  1
  Mo  Mo199  1  0.50402636  0.10366424  0.35657447  1
