# generated using pymatgen
data_HfZrTaTiMo
_symmetry_space_group_name_H-M   'P 1'
_cell_length_a   15.84044329
_cell_length_b   15.83101760
_cell_length_c   15.40267915
_cell_angle_alpha   89.99137902
_cell_angle_beta   89.93776108
_cell_angle_gamma   90.06803004
_symmetry_Int_Tables_number   1
_chemical_formula_structural   HfZrTaTiMo
_chemical_formula_sum   'Hf40 Zr40 Ta40 Ti40 Mo40'
_cell_volume   3862.52998732
_cell_formula_units_Z   40
loop_
 _symmetry_equiv_pos_site_id
 _symmetry_equiv_pos_as_xyz
  1  'x, y, z'
loop_
 _atom_site_type_symbol
 _atom_site_label
 _atom_site_symmetry_multiplicity
 _atom_site_fract_x
 _atom_site_fract_y
 _atom_site_fract_z
 _atom_site_occupancy
  Hf  Hf0  1  0.49396670  0.32293586  0.60728450  1
  Hf  Hf1  1  0.19502435  0.20836926  -0.00408897  1
  Hf  Hf2  1  0.00027957  0.60482893  0.02378376  1
  Hf  Hf3  1  0.79968999  0.59975203  0.48291102  1
  Hf  Hf4  1  0.68975058  0.50291247  0.14033980  1
  Hf  Hf5  1  0.80098755  0.19168467  0.25250358  1
  Hf  Hf6  1  0.09785003  0.10322788  0.12419796  1
  Hf  Hf7  1  0.19614285  0.59746702  0.24218648  1
  Hf  Hf8  1  0.49752237  0.29696273  0.12931952  1
  Hf  Hf9  1  0.70531522  0.30297378  0.60298135  1
  Hf  Hf10  1  0.70476630  0.29729219  0.87278018  1
  Hf  Hf11  1  0.50593069  0.89766777  0.10180807  1
  Hf  Hf12  1  0.90761765  0.69537270  0.87004957  1
  Hf  Hf13  1  0.19868111  0.40332156  0.00274091  1
  Hf  Hf14  1  0.40126294  0.60172673  0.23559700  1
  Hf  Hf15  1  -0.00089334  0.79987999  0.00645731  1
  Hf  Hf16  1  0.10343239  0.30485102  0.62525456  1
  Hf  Hf17  1  0.30632447  0.70230067  0.38177071  1
  Hf  Hf18  1  0.09372282  0.51394146  0.87732997  1
  Hf  Hf19  1  0.19795877  0.19531620  0.47502182  1
  Hf  Hf20  1  0.10063741  0.30650927  0.14388864  1
  Hf  Hf21  1  0.31521298  0.50247404  0.88230367  1
  Hf  Hf22  1  0.80162696  -0.00044095  0.74788312  1
  Hf  Hf23  1  0.60393294  0.80310671  0.75079704  1
  Hf  Hf24  1  0.40646382  0.80819910  0.23670031  1
  Hf  Hf25  1  0.89747414  0.10913298  0.87491608  1
  Hf  Hf26  1  0.60909655  0.20204715  0.00202744  1
  Hf  Hf27  1  0.71539292  0.70544861  0.63671787  1
  Hf  Hf28  1  0.48929047  0.69116528  0.86482458  1
  Hf  Hf29  1  -0.00580971  0.00701889  0.25792626  1
  Hf  Hf30  1  0.30528505  0.10910112  0.10563336  1
  Hf  Hf31  1  0.89234111  0.29868657  0.38868754  1
  Hf  Hf32  1  0.00423271  0.59437579  0.49936065  1
  Hf  Hf33  1  0.30616069  0.08993876  0.63350642  1
  Hf  Hf34  1  0.20634628  0.80602226  0.23882857  1
  Hf  Hf35  1  0.80593579  0.80366298  -0.00973620  1
  Hf  Hf36  1  0.30526274  0.89372942  0.87304017  1
  Hf  Hf37  1  0.00256271  0.19646374  0.50180671  1
  Hf  Hf38  1  -0.00437453  -0.00699740  0.74144783  1
  Hf  Hf39  1  0.09055545  0.31983246  0.36489653  1
  Zr  Zr40  1  0.00535880  -0.00064701  0.51494619  1
  Zr  Zr41  1  0.41725883  0.20216743  0.74139444  1
  Zr  Zr42  1  0.89520088  0.90321592  0.38468073  1
  Zr  Zr43  1  0.29995906  0.69650775  0.86864059  1
  Zr  Zr44  1  0.39953350  0.00065531  0.24535172  1
  Zr  Zr45  1  0.49982556  0.71550581  0.37593119  1
  Zr  Zr46  1  0.00077890  0.60223590  0.72793154  1
  Zr  Zr47  1  0.39070480  0.20245147  0.49168297  1
  Zr  Zr48  1  0.50030715  0.50567195  0.37041625  1
  Zr  Zr49  1  -0.00319333  0.79445186  0.52217138  1
  Zr  Zr50  1  0.80523541  0.58821016  0.74883331  1
  Zr  Zr51  1  0.79252835  0.60659924  0.00532772  1
  Zr  Zr52  1  0.30748882  0.09705087  0.87388557  1
  Zr  Zr53  1  0.11796770  0.10687940  0.64528931  1
  Zr  Zr54  1  -0.01974784  0.20060698  0.73339340  1
  Zr  Zr55  1  -0.00016948  0.79981839  0.74014506  1
  Zr  Zr56  1  -0.00622703  0.39867511  0.01531863  1
  Zr  Zr57  1  0.50081947  0.09634518  0.10857862  1
  Zr  Zr58  1  0.10651407  0.70283216  0.37681857  1
  Zr  Zr59  1  0.60366905  0.60861894  0.49983885  1
  Zr  Zr60  1  0.49390763  0.90484717  0.86944886  1
  Zr  Zr61  1  0.59700230  -0.00799903  0.26080006  1
  Zr  Zr62  1  0.70208217  0.89736221  0.12448050  1
  Zr  Zr63  1  0.20745143  0.00890633  0.26035454  1
  Zr  Zr64  1  0.29115281  0.29902172  0.63438214  1
  Zr  Zr65  1  0.90595098  0.70117839  0.36321030  1
  Zr  Zr66  1  -0.01249003  0.40579704  0.73990527  1
  Zr  Zr67  1  0.61406214  0.78254476  -0.01868406  1
  Zr  Zr68  1  0.30152233  0.69567783  0.63030990  1
  Zr  Zr69  1  0.11693055  0.49564351  0.61522836  1
  Zr  Zr70  1  0.09043413  0.29845197  0.86225748  1
  Zr  Zr71  1  0.31175989  0.30106505  0.87145611  1
  Zr  Zr72  1  0.10258462  0.89869694  0.38177922  1
  Zr  Zr73  1  0.59955242  0.58812784  0.75201105  1
  Zr  Zr74  1  0.60369413  0.19065625  0.26154260  1
  Zr  Zr75  1  0.50570009  0.31023282  0.37404857  1
  Zr  Zr76  1  0.50906513  0.31859099  0.88132286  1
  Zr  Zr77  1  0.69288546  0.48344618  0.88664462  1
  Zr  Zr78  1  0.31925492  0.90397134  0.39511262  1
  Zr  Zr79  1  0.09918205  0.90972372  0.11826060  1
  Ta  Ta80  1  0.09561990  0.89815383  0.87737092  1
  Ta  Ta81  1  0.39204231  0.19562793  0.26250020  1
  Ta  Ta82  1  0.59950120  0.80639878  0.51603731  1
  Ta  Ta83  1  0.39266604  0.39710446  0.24465051  1
  Ta  Ta84  1  -0.00819473  0.20220448  0.00953082  1
  Ta  Ta85  1  0.89449895  0.49116748  0.88512611  1
  Ta  Ta86  1  0.91528737  0.48812613  0.36822131  1
  Ta  Ta87  1  0.30372213  0.90685977  0.09629246  1
  Ta  Ta88  1  0.79602448  0.80631693  0.25800025  1
  Ta  Ta89  1  0.31389936  0.48638593  0.62023830  1
  Ta  Ta90  1  0.20596848  0.20259271  0.26025764  1
  Ta  Ta91  1  0.59606170  0.19763837  0.49796691  1
  Ta  Ta92  1  0.69034742  0.09635463  0.62218758  1
  Ta  Ta93  1  0.78850603  0.79340915  0.49021049  1
  Ta  Ta94  1  0.49117642  0.08691376  0.39325304  1
  Ta  Ta95  1  0.49764413  0.70279239  0.63265496  1
  Ta  Ta96  1  0.00763224  0.59263535  0.24296725  1
  Ta  Ta97  1  0.69884243  0.30139142  0.13358937  1
  Ta  Ta98  1  0.50419540  0.10427082  0.87752949  1
  Ta  Ta99  1  0.88873126  0.30300590  0.88200993  1
  Ta  Ta100  1  0.89258304  0.49554042  0.14409100  1
  Ta  Ta101  1  0.80312528  0.19993418  0.01363467  1
  Ta  Ta102  1  0.80174504  0.00202005  -0.01098900  1
  Ta  Ta103  1  0.19268336  0.79267312  -0.00252448  1
  Ta  Ta104  1  0.09540488  0.09955832  0.87238004  1
  Ta  Ta105  1  0.59122990  -0.00741098  0.50632237  1
  Ta  Ta106  1  0.69986399  0.10551964  0.86196206  1
  Ta  Ta107  1  0.40326584  0.59842885  0.01908637  1
  Ta  Ta108  1  0.79939442  0.39406177  0.74208709  1
  Ta  Ta109  1  0.59127403  0.59163709  -0.00061659  1
  Ta  Ta110  1  0.79651972  0.39147494  0.25804170  1
  Ta  Ta111  1  0.79611694  0.00270953  0.25761694  1
  Ta  Ta112  1  0.61250223  0.00027356  -0.01938954  1
  Ta  Ta113  1  0.20769473  0.40929735  0.76037390  1
  Ta  Ta114  1  0.69146489  0.89634426  0.38173831  1
  Ta  Ta115  1  0.88807403  0.48380181  0.59745246  1
  Ta  Ta116  1  0.29518893  0.49369322  0.12571392  1
  Ta  Ta117  1  0.69734599  0.49138499  0.60962978  1
  Ta  Ta118  1  0.70562653  0.09354841  0.39930812  1
  Ta  Ta119  1  0.19595734  0.60522562  0.01222251  1
  Ti  Ti120  1  0.70325086  0.09149300  0.12088248  1
  Ti  Ti121  1  0.20833964  0.80346653  0.50862957  1
  Ti  Ti122  1  0.29725837  0.49589436  0.36574060  1
  Ti  Ti123  1  0.20067001  0.59799746  0.75143289  1
  Ti  Ti124  1  0.70650729  0.90264333  0.86357920  1
  Ti  Ti125  1  0.19184469  0.79430300  0.75824413  1
  Ti  Ti126  1  0.79858825  0.39408209  0.01853246  1
  Ti  Ti127  1  0.68919990  0.70349372  0.35789990  1
  Ti  Ti128  1  0.40058060  0.59512967  0.50558098  1
  Ti  Ti129  1  0.79798776  0.20569152  0.73266556  1
  Ti  Ti130  1  0.00325995  0.79920514  0.23556953  1
  Ti  Ti131  1  0.88962059  0.70173005  0.14237981  1
  Ti  Ti132  1  0.69727757  0.70011159  0.14625256  1
  Ti  Ti133  1  0.20939726  0.39856416  0.48297315  1
  Ti  Ti134  1  0.11392611  0.69813452  0.61744788  1
  Ti  Ti135  1  0.59363637  0.40522608  0.73637281  1
  Ti  Ti136  1  0.69176502  0.48529887  0.36777909  1
  Ti  Ti137  1  0.19407158  -0.00069280  -0.01307162  1
  Ti  Ti138  1  0.60138207  0.20239331  0.73569791  1
  Ti  Ti139  1  0.69848886  0.90533257  0.62804288  1
  Ti  Ti140  1  0.29814861  0.70476450  0.11727969  1
  Ti  Ti141  1  0.12068100  0.90259251  0.62839284  1
  Ti  Ti142  1  0.89407488  0.90610618  0.13087058  1
  Ti  Ti143  1  0.79927815  0.59580297  0.26249369  1
  Ti  Ti144  1  0.87590453  0.88138162  0.62385840  1
  Ti  Ti145  1  0.87926006  0.09752140  0.60626813  1
  Ti  Ti146  1  0.40853989  0.57912269  0.73904427  1
  Ti  Ti147  1  0.41233759  0.81215061  0.52102985  1
  Ti  Ti148  1  0.20831300  0.59165401  0.49120434  1
  Ti  Ti149  1  0.51849858  0.69634132  0.13150782  1
  Ti  Ti150  1  0.19978590  -0.00488479  0.76369624  1
  Ti  Ti151  1  0.30578225  0.89823253  0.64285164  1
  Ti  Ti152  1  -0.00926285  -0.00046590  -0.00776745  1
  Ti  Ti153  1  0.89352532  0.09598978  0.39238673  1
  Ti  Ti154  1  -0.00645587  0.19841774  0.25399882  1
  Ti  Ti155  1  0.40179136  0.78902418  0.00404406  1
  Ti  Ti156  1  0.89742675  0.09496520  0.12165789  1
  Ti  Ti157  1  0.20492552  0.00609174  0.49484381  1
  Ti  Ti158  1  0.49897145  0.91614155  0.64548326  1
  Ti  Ti159  1  0.40435273  0.40157173  0.01982587  1
  Mo  Mo160  1  0.89423354  0.69550726  0.61563225  1
  Mo  Mo161  1  0.79511051  0.19467084  0.50136180  1
  Mo  Mo162  1  0.10469077  0.50192299  0.38196379  1
  Mo  Mo163  1  0.38806747  0.40977609  0.47911132  1
  Mo  Mo164  1  0.49960028  0.50487187  0.60549268  1
  Mo  Mo165  1  0.69687168  0.29774027  0.37848061  1
  Mo  Mo166  1  0.09879418  0.70569194  0.13335742  1
  Mo  Mo167  1  -0.00669283  0.40284772  0.24188443  1
  Mo  Mo168  1  0.80166719  0.80230714  0.76639314  1
  Mo  Mo169  1  0.78996975  -0.00948598  0.51260940  1
  Mo  Mo170  1  0.59796975  0.40566284  0.49822182  1
  Mo  Mo171  1  0.09336407  0.10612390  0.36261790  1
  Mo  Mo172  1  0.49838368  0.49887874  0.12860639  1
  Mo  Mo173  1  0.40375836  0.20520365  -0.00424160  1
  Mo  Mo174  1  0.10577707  0.70185349  0.87661932  1
  Mo  Mo175  1  0.40474010  0.00147692  0.74598511  1
  Mo  Mo176  1  0.40314622  -0.00382575  0.52388267  1
  Mo  Mo177  1  0.59921813  0.39924668  0.24194311  1
  Mo  Mo178  1  0.20093682  0.40636301  0.24941847  1
  Mo  Mo179  1  0.60192529  0.60348729  0.25560769  1
  Mo  Mo180  1  0.40372250  -0.00095845  -0.00937918  1
  Mo  Mo181  1  0.50501621  0.10246888  0.61505399  1
  Mo  Mo182  1  0.89385535  0.29449802  0.13327008  1
  Mo  Mo183  1  0.79190080  0.40342472  0.47438480  1
  Mo  Mo184  1  0.60124315  0.40196814  0.02049877  1
  Mo  Mo185  1  0.60193406  0.80012125  0.24942958  1
  Mo  Mo186  1  0.29753547  0.30741879  0.35841712  1
  Mo  Mo187  1  0.49522957  0.49885868  0.89292570  1
  Mo  Mo188  1  0.89293320  0.30153145  0.60404765  1
  Mo  Mo189  1  0.40918814  0.41185282  0.74904037  1
  Mo  Mo190  1  0.60284740  0.01153236  0.75523865  1
  Mo  Mo191  1  0.39986462  0.79868843  0.73656484  1
  Mo  Mo192  1  0.30114243  0.29909528  0.13620675  1
  Mo  Mo193  1  0.00028379  0.39820521  0.50598955  1
  Mo  Mo194  1  0.50387639  0.89888396  0.38816568  1
  Mo  Mo195  1  0.70322276  0.69778829  0.86287568  1
  Mo  Mo196  1  0.30236324  0.09859879  0.38275842  1
  Mo  Mo197  1  0.09878471  0.50210574  0.12149914  1
  Mo  Mo198  1  0.90206994  0.90417157  0.87437155  1
  Mo  Mo199  1  0.19883162  0.20228147  0.76922105  1
