# generated using pymatgen
data_HfZrTaTiMo
_symmetry_space_group_name_H-M   'P 1'
_cell_length_a   15.82661329
_cell_length_b   15.84026608
_cell_length_c   15.38368414
_cell_angle_alpha   89.98649603
_cell_angle_beta   89.96368957
_cell_angle_gamma   90.10776610
_symmetry_Int_Tables_number   1
_chemical_formula_structural   HfZrTaTiMo
_chemical_formula_sum   'Hf40 Zr40 Ta40 Ti40 Mo40'
_cell_volume   3856.64753664
_cell_formula_units_Z   40
loop_
 _symmetry_equiv_pos_site_id
 _symmetry_equiv_pos_as_xyz
  1  'x, y, z'
loop_
 _atom_site_type_symbol
 _atom_site_label
 _atom_site_symmetry_multiplicity
 _atom_site_fract_x
 _atom_site_fract_y
 _atom_site_fract_z
 _atom_site_occupancy
  Hf  Hf0  1  0.58872791  0.59674186  0.00840412  1
  Hf  Hf1  1  0.40968828  0.59977992  0.48092637  1
  Hf  Hf2  1  0.58827683  0.80014673  0.75514481  1
  Hf  Hf3  1  0.20301811  0.39363500  0.49306919  1
  Hf  Hf4  1  0.11518234  0.08318727  0.36037212  1
  Hf  Hf5  1  0.09206393  0.90066101  0.86037989  1
  Hf  Hf6  1  0.69283935  0.29676447  0.86803515  1
  Hf  Hf7  1  0.90384415  0.09281809  0.86902486  1
  Hf  Hf8  1  0.89376653  0.89433052  0.85724842  1
  Hf  Hf9  1  -0.00410289  -0.01206139  0.00955841  1
  Hf  Hf10  1  0.90937094  0.30590150  0.61893286  1
  Hf  Hf11  1  0.40959067  0.40204977  0.48962889  1
  Hf  Hf12  1  0.00013641  0.59927792  0.75034703  1
  Hf  Hf13  1  0.10914832  0.50477879  0.37375433  1
  Hf  Hf14  1  0.00035361  0.60747521  0.48982745  1
  Hf  Hf15  1  0.49349299  0.09948857  0.12566069  1
  Hf  Hf16  1  0.79188875  0.01047194  0.50111613  1
  Hf  Hf17  1  0.00126099  -0.00179142  0.49594891  1
  Hf  Hf18  1  0.88350971  0.69302672  0.12227661  1
  Hf  Hf19  1  0.30571471  0.89708304  0.14684547  1
  Hf  Hf20  1  0.29952750  0.89802980  0.61183915  1
  Hf  Hf21  1  0.60360247  0.40320747  0.23513130  1
  Hf  Hf22  1  0.60072263  0.39661083  0.74511636  1
  Hf  Hf23  1  0.31373305  0.29127973  0.61720760  1
  Hf  Hf24  1  0.21124473  0.39560557  0.73993584  1
  Hf  Hf25  1  0.91117259  0.10985035  0.62360497  1
  Hf  Hf26  1  0.68429318  0.88784556  0.61018459  1
  Hf  Hf27  1  0.78625967  -0.01382687  0.26262836  1
  Hf  Hf28  1  0.28663410  0.89317330  0.87039700  1
  Hf  Hf29  1  0.30881675  0.30483452  0.88999168  1
  Hf  Hf30  1  0.48790630  0.90532630  0.60925831  1
  Hf  Hf31  1  0.49562596  0.71008520  0.13596473  1
  Hf  Hf32  1  0.20480724  0.41293877  0.02687174  1
  Hf  Hf33  1  0.19176302  -0.01129001  0.01615016  1
  Hf  Hf34  1  0.59989093  0.60486657  0.25906658  1
  Hf  Hf35  1  0.51219287  0.28159976  0.61745364  1
  Hf  Hf36  1  0.31301377  0.50690762  0.87325839  1
  Hf  Hf37  1  0.51221435  0.29898717  0.37481285  1
  Hf  Hf38  1  0.88973489  0.08987400  0.11263969  1
  Hf  Hf39  1  0.01505523  0.38660176  0.25222772  1
  Zr  Zr40  1  0.39673328  -0.00879365  -0.00876739  1
  Zr  Zr41  1  0.69181725  0.08914396  0.11364279  1
  Zr  Zr42  1  0.09952455  0.28469369  0.61934385  1
  Zr  Zr43  1  0.01222786  0.59584530  0.00505070  1
  Zr  Zr44  1  0.80024164  0.19288568  0.24929921  1
  Zr  Zr45  1  0.71594185  0.51965803  0.12572606  1
  Zr  Zr46  1  0.78628597  0.00370561  0.73218462  1
  Zr  Zr47  1  0.89864144  0.89749280  0.62407947  1
  Zr  Zr48  1  0.50479514  0.11354406  0.89056308  1
  Zr  Zr49  1  -0.00090567  0.39706384  0.76659111  1
  Zr  Zr50  1  0.08879218  0.11067739  0.12530424  1
  Zr  Zr51  1  0.10882536  0.28954181  0.88202221  1
  Zr  Zr52  1  0.28600028  0.91613836  0.37240433  1
  Zr  Zr53  1  0.11912356  0.50533535  0.87347989  1
  Zr  Zr54  1  0.91618911  0.28516662  0.11167751  1
  Zr  Zr55  1  -0.00865521  0.19509864  0.27384542  1
  Zr  Zr56  1  0.70071219  0.69671100  0.88445709  1
  Zr  Zr57  1  0.72126232  0.71673460  0.37595223  1
  Zr  Zr58  1  0.50388280  0.90236299  0.14193584  1
  Zr  Zr59  1  0.09372979  0.49130955  0.61278803  1
  Zr  Zr60  1  -0.02098346  -0.01106286  0.25185075  1
  Zr  Zr61  1  0.89558560  0.49923861  0.36874016  1
  Zr  Zr62  1  0.79765156  0.39545010  -0.00123706  1
  Zr  Zr63  1  0.70013493  0.72231573  0.12309432  1
  Zr  Zr64  1  0.39672190  -0.00014733  0.76437171  1
  Zr  Zr65  1  -0.00192913  0.80391635  0.01397310  1
  Zr  Zr66  1  0.48915517  0.29875371  0.11871205  1
  Zr  Zr67  1  0.10549547  0.70421887  0.87519884  1
  Zr  Zr68  1  0.19379573  0.21874166  0.25296271  1
  Zr  Zr69  1  0.69908837  0.09615058  0.87399169  1
  Zr  Zr70  1  0.58819596  0.02155537  0.49327959  1
  Zr  Zr71  1  0.08913973  0.88312097  0.36789189  1
  Zr  Zr72  1  0.90828827  0.49787645  0.12768893  1
  Zr  Zr73  1  0.61202468  0.40698258  0.50335159  1
  Zr  Zr74  1  0.50501394  0.50728420  0.63080878  1
  Zr  Zr75  1  0.29429161  0.69219480  0.87770241  1
  Zr  Zr76  1  0.19693703  0.79751179  0.72690616  1
  Zr  Zr77  1  0.30097261  0.10091876  0.13649140  1
  Zr  Zr78  1  0.30794139  0.09814261  0.62088322  1
  Zr  Zr79  1  0.79892758  0.40597590  0.51002855  1
  Ta  Ta80  1  0.59838579  0.40807350  0.00769759  1
  Ta  Ta81  1  0.58956909  0.80977268  -0.01168555  1
  Ta  Ta82  1  0.40041342  0.79339785  0.74807227  1
  Ta  Ta83  1  0.60423395  0.20267236  0.24358302  1
  Ta  Ta84  1  0.50666238  0.70960065  0.60624374  1
  Ta  Ta85  1  0.39398257  0.79860476  0.48017323  1
  Ta  Ta86  1  0.00300370  0.60610526  0.25624267  1
  Ta  Ta87  1  0.61036801  0.60176303  0.49219069  1
  Ta  Ta88  1  0.48934392  0.69332171  0.88044971  1
  Ta  Ta89  1  0.01037985  0.39663767  -0.00138416  1
  Ta  Ta90  1  0.80490682  0.40366023  0.75291744  1
  Ta  Ta91  1  0.40362702  0.20566305  0.76576600  1
  Ta  Ta92  1  0.09943988  0.70222189  0.14317643  1
  Ta  Ta93  1  0.20750483  0.40383993  0.24407455  1
  Ta  Ta94  1  0.30198451  0.50271106  0.36961538  1
  Ta  Ta95  1  0.30540079  0.50218494  0.61225394  1
  Ta  Ta96  1  0.71173678  0.51757643  0.64197846  1
  Ta  Ta97  1  0.10366430  0.09287900  0.87765123  1
  Ta  Ta98  1  0.20047118  0.79641168  0.02485237  1
  Ta  Ta99  1  0.19119614  0.78597136  0.49300226  1
  Ta  Ta100  1  0.60162301  0.00717956  0.26624169  1
  Ta  Ta101  1  0.20909184  0.59872198  0.72646845  1
  Ta  Ta102  1  0.49665046  0.90656360  0.37712294  1
  Ta  Ta103  1  -0.00292896  0.79522781  0.73168547  1
  Ta  Ta104  1  0.39984275  0.20250370  0.26275345  1
  Ta  Ta105  1  0.40467102  0.60798403  0.73699448  1
  Ta  Ta106  1  0.70678768  0.30370537  0.36808494  1
  Ta  Ta107  1  0.20507851  0.19026304  0.48628136  1
  Ta  Ta108  1  0.80415062  0.39053042  0.24163043  1
  Ta  Ta109  1  0.87819204  0.87916807  0.39310362  1
  Ta  Ta110  1  0.79977550  0.20916912  0.74344147  1
  Ta  Ta111  1  0.39659259  0.79272225  0.27435845  1
  Ta  Ta112  1  0.89755633  0.70092916  0.87430366  1
  Ta  Ta113  1  0.39648788  0.79604842  -0.00131093  1
  Ta  Ta114  1  0.79861147  0.19727877  -0.00586085  1
  Ta  Ta115  1  0.69832624  0.50305314  0.86964301  1
  Ta  Ta116  1  0.21151542  0.60405256  0.03502831  1
  Ta  Ta117  1  0.50124187  0.50408139  0.86887938  1
  Ta  Ta118  1  0.30795308  0.69609398  0.60487698  1
  Ta  Ta119  1  0.79005928  0.78474125  0.73880462  1
  Ti  Ti120  1  0.88806332  0.68871595  0.62961591  1
  Ti  Ti121  1  0.49793371  0.30946553  0.88871398  1
  Ti  Ti122  1  0.80094429  0.60593433  0.49690559  1
  Ti  Ti123  1  0.58966950  0.00157940  0.75093872  1
  Ti  Ti124  1  0.49354658  0.10372434  0.63306281  1
  Ti  Ti125  1  0.60856536  0.21649471  0.01433338  1
  Ti  Ti126  1  0.70661725  0.50031402  0.36405722  1
  Ti  Ti127  1  0.00940253  0.19490822  0.48273774  1
  Ti  Ti128  1  0.60131437  0.61188137  0.74733691  1
  Ti  Ti129  1  0.39611140  0.60022941  0.02270236  1
  Ti  Ti130  1  0.51101787  0.70819342  0.37797912  1
  Ti  Ti131  1  0.69706950  0.89712957  0.86604263  1
  Ti  Ti132  1  0.90117857  0.50332554  0.62447095  1
  Ti  Ti133  1  0.40893452  0.18110312  0.47856710  1
  Ti  Ti134  1  0.40038890  0.60158021  0.25845946  1
  Ti  Ti135  1  0.20530275  0.19093353  0.74759655  1
  Ti  Ti136  1  0.19991625  0.79035207  0.25482290  1
  Ti  Ti137  1  0.20739797  0.60225519  0.24318641  1
  Ti  Ti138  1  0.30769683  0.29898447  0.12257809  1
  Ti  Ti139  1  0.89453322  0.50632819  0.88415752  1
  Ti  Ti140  1  0.40826319  0.42176262  0.01566554  1
  Ti  Ti141  1  0.19987028  0.20153073  0.01009579  1
  Ti  Ti142  1  0.59709210  -0.01400624  -0.00803742  1
  Ti  Ti143  1  0.18351445  0.00461161  0.73145530  1
  Ti  Ti144  1  0.30356000  0.29952494  0.37512733  1
  Ti  Ti145  1  0.78865272  0.20670003  0.51019833  1
  Ti  Ti146  1  0.19135527  0.00076263  0.51147885  1
  Ti  Ti147  1  0.10086483  0.69288205  0.61773315  1
  Ti  Ti148  1  -0.00473078  0.79094755  0.50610935  1
  Ti  Ti149  1  0.89605325  0.29878178  0.39066448  1
  Ti  Ti150  1  0.29137588  0.10566021  0.88293050  1
  Ti  Ti151  1  0.40458266  0.39962436  0.74594413  1
  Ti  Ti152  1  0.40259355  0.40624226  0.25425681  1
  Ti  Ti153  1  0.61545414  0.82026899  0.26573087  1
  Ti  Ti154  1  0.67821204  0.12513405  0.63216640  1
  Ti  Ti155  1  0.90299229  0.29127483  0.87881630  1
  Ti  Ti156  1  0.79281429  -0.02212313  -0.00042771  1
  Ti  Ti157  1  -0.01933224  0.79586737  0.24822071  1
  Ti  Ti158  1  0.69644904  0.11576480  0.37972093  1
  Ti  Ti159  1  0.01075523  0.18918844  0.75526950  1
  Mo  Mo160  1  0.49617826  0.89301706  0.87135007  1
  Mo  Mo161  1  0.89043906  0.10193642  0.39775802  1
  Mo  Mo162  1  0.80229149  0.60066555  -0.01785467  1
  Mo  Mo163  1  0.10417317  0.30241480  0.10919232  1
  Mo  Mo164  1  0.50581281  0.50334205  0.36113791  1
  Mo  Mo165  1  0.69343553  0.90271166  0.39566497  1
  Mo  Mo166  1  0.19201852  -0.00426650  0.23193250  1
  Mo  Mo167  1  0.10223537  0.30055652  0.39125648  1
  Mo  Mo168  1  0.80278300  0.80929744  0.24838245  1
  Mo  Mo169  1  0.30046781  0.10215106  0.36715934  1
  Mo  Mo170  1  0.90649967  0.70534230  0.37563092  1
  Mo  Mo171  1  0.49815755  0.50489910  0.13917077  1
  Mo  Mo172  1  0.31113038  0.50227773  0.15015137  1
  Mo  Mo173  1  0.50091504  0.10600681  0.35798777  1
  Mo  Mo174  1  0.70591683  0.30372759  0.64091102  1
  Mo  Mo175  1  0.39345661  0.20282088  -0.00918853  1
  Mo  Mo176  1  0.79561389  0.80609803  -0.01612092  1
  Mo  Mo177  1  0.69112206  0.90166567  0.11611872  1
  Mo  Mo178  1  0.69624805  0.69413668  0.61935239  1
  Mo  Mo179  1  0.40104923  0.00369280  0.26623863  1
  Mo  Mo180  1  0.70389026  0.30003539  0.12565581  1
  Mo  Mo181  1  -0.00076507  0.19405392  -0.02117555  1
  Mo  Mo182  1  -0.00023151  0.39688632  0.48369225  1
  Mo  Mo183  1  0.80445306  0.59588578  0.76003290  1
  Mo  Mo184  1  0.59469655  0.79942072  0.48819528  1
  Mo  Mo185  1  0.60943516  0.20539685  0.49019026  1
  Mo  Mo186  1  0.09812406  0.89325049  0.61401209  1
  Mo  Mo187  1  0.20490566  0.60036709  0.50388834  1
  Mo  Mo188  1  0.10275625  0.09925326  0.62137476  1
  Mo  Mo189  1  0.09758102  0.89169983  0.14732458  1
  Mo  Mo190  1  0.39315540  0.00490818  0.48316230  1
  Mo  Mo191  1  0.80616295  0.60201812  0.26369737  1
  Mo  Mo192  1  0.59327851  0.19804195  0.75600530  1
  Mo  Mo193  1  0.10393072  0.50420848  0.14494615  1
  Mo  Mo194  1  0.00847044  0.00134734  0.73809200  1
  Mo  Mo195  1  0.79975610  0.79013997  0.52361666  1
  Mo  Mo196  1  0.87934121  0.88766238  0.12396840  1
  Mo  Mo197  1  0.30486903  0.70383197  0.14130086  1
  Mo  Mo198  1  0.10139302  0.69840825  0.36065987  1
  Mo  Mo199  1  0.29370492  0.69404356  0.37582866  1
