# generated using pymatgen
data_HfZrTaTiMo
_symmetry_space_group_name_H-M   'P 1'
_cell_length_a   15.83826288
_cell_length_b   15.83244343
_cell_length_c   15.40165379
_cell_angle_alpha   90.01412775
_cell_angle_beta   90.07594559
_cell_angle_gamma   90.05493542
_symmetry_Int_Tables_number   1
_chemical_formula_structural   HfZrTaTiMo
_chemical_formula_sum   'Hf40 Zr40 Ta40 Ti40 Mo40'
_cell_volume   3862.08878924
_cell_formula_units_Z   40
loop_
 _symmetry_equiv_pos_site_id
 _symmetry_equiv_pos_as_xyz
  1  'x, y, z'
loop_
 _atom_site_type_symbol
 _atom_site_label
 _atom_site_symmetry_multiplicity
 _atom_site_fract_x
 _atom_site_fract_y
 _atom_site_fract_z
 _atom_site_occupancy
  Hf  Hf0  1  0.79866764  0.59629315  0.25180056  1
  Hf  Hf1  1  0.39046245  0.20175756  0.73230491  1
  Hf  Hf2  1  0.00700927  0.79692108  0.49962200  1
  Hf  Hf3  1  0.60616543  0.19930424  0.74749633  1
  Hf  Hf4  1  0.59652103  -0.00374452  0.00573522  1
  Hf  Hf5  1  0.80316390  -0.00096528  0.75680071  1
  Hf  Hf6  1  0.50722346  0.09638967  0.60306290  1
  Hf  Hf7  1  0.10515079  0.90446092  0.62386719  1
  Hf  Hf8  1  0.70241009  0.09552341  0.61363531  1
  Hf  Hf9  1  0.38744850  0.81858968  -0.00358623  1
  Hf  Hf10  1  0.39207764  -0.00712682  0.25300456  1
  Hf  Hf11  1  0.29547265  0.90419103  0.61343115  1
  Hf  Hf12  1  0.51253269  0.89468515  0.61606798  1
  Hf  Hf13  1  0.51625805  0.32097636  0.62983836  1
  Hf  Hf14  1  0.80604640  0.20250198  0.48376451  1
  Hf  Hf15  1  0.79607384  0.79878714  0.00847825  1
  Hf  Hf16  1  0.49169911  0.90785830  0.87233422  1
  Hf  Hf17  1  0.01175024  -0.00982585  0.01005258  1
  Hf  Hf18  1  0.10804897  0.90842525  0.37094003  1
  Hf  Hf19  1  -0.00417849  0.79342558  0.74434292  1
  Hf  Hf20  1  0.39975368  0.79806479  0.74472637  1
  Hf  Hf21  1  0.60547376  0.39994396  0.00589997  1
  Hf  Hf22  1  0.89500191  0.89569854  0.61719592  1
  Hf  Hf23  1  0.11224630  0.08951073  0.88024367  1
  Hf  Hf24  1  0.29683543  0.30442275  0.60323383  1
  Hf  Hf25  1  0.29186510  0.10292844  0.37497435  1
  Hf  Hf26  1  0.78367111  0.58797814  0.49237344  1
  Hf  Hf27  1  0.70318612  0.89914671  0.87938396  1
  Hf  Hf28  1  0.29079372  0.50170362  0.11542529  1
  Hf  Hf29  1  0.81293476  0.19884694  0.25757698  1
  Hf  Hf30  1  0.80177578  0.39959627  0.01672955  1
  Hf  Hf31  1  0.00948748  0.20472230  0.00592508  1
  Hf  Hf32  1  0.68181015  0.48791131  0.64297638  1
  Hf  Hf33  1  0.69270917  0.70182001  0.62341865  1
  Hf  Hf34  1  0.79512514  0.38908040  0.49865627  1
  Hf  Hf35  1  0.29115281  0.71095727  0.11923512  1
  Hf  Hf36  1  0.91129579  0.68280404  0.38686882  1
  Hf  Hf37  1  0.68837921  0.69709303  0.12960925  1
  Hf  Hf38  1  0.90280258  0.69862726  0.89091263  1
  Hf  Hf39  1  0.31030167  0.30791422  0.37487796  1
  Zr  Zr40  1  0.22353244  -0.00625323  0.02514295  1
  Zr  Zr41  1  0.00945283  0.18642398  0.73896474  1
  Zr  Zr42  1  0.89467973  0.29433222  0.86274732  1
  Zr  Zr43  1  0.49668355  0.10473837  0.88354722  1
  Zr  Zr44  1  0.19864044  0.39037106  -0.00712786  1
  Zr  Zr45  1  0.49860199  0.50570926  0.12600683  1
  Zr  Zr46  1  0.10841002  0.09942609  0.15116774  1
  Zr  Zr47  1  0.00382319  0.40648162  0.74165895  1
  Zr  Zr48  1  0.90746336  0.49790547  0.88679082  1
  Zr  Zr49  1  0.18523125  0.61079594  0.26501651  1
  Zr  Zr50  1  0.39584382  0.40306362  0.74883773  1
  Zr  Zr51  1  0.60795670  0.21500483  0.49072084  1
  Zr  Zr52  1  0.28183202  0.91400705  0.85070821  1
  Zr  Zr53  1  0.89848167  0.09828017  0.62503719  1
  Zr  Zr54  1  0.49854249  0.68917088  0.36697478  1
  Zr  Zr55  1  0.39964014  0.00977289  0.72817862  1
  Zr  Zr56  1  0.39642604  0.60632512  -0.00513174  1
  Zr  Zr57  1  0.20388846  0.42238595  0.26461151  1
  Zr  Zr58  1  0.80482281  0.20287372  0.01457912  1
  Zr  Zr59  1  0.30119759  0.11372575  0.88041943  1
  Zr  Zr60  1  0.59509998  0.21062386  0.00929690  1
  Zr  Zr61  1  0.29156398  0.69949214  0.61684911  1
  Zr  Zr62  1  0.80124673  0.60392008  0.75177131  1
  Zr  Zr63  1  0.80477261  0.79298933  0.25229821  1
  Zr  Zr64  1  0.59349472  0.19965921  0.25216640  1
  Zr  Zr65  1  0.11361473  0.28815734  0.86407525  1
  Zr  Zr66  1  0.80570295  0.41266320  0.25210506  1
  Zr  Zr67  1  0.80490444  -0.00770065  0.24453572  1
  Zr  Zr68  1  0.08107104  0.49265230  0.11245562  1
  Zr  Zr69  1  0.38100854  0.59785238  0.25509738  1
  Zr  Zr70  1  0.69573626  0.09426702  0.13391022  1
  Zr  Zr71  1  0.39415496  0.59947350  0.74440692  1
  Zr  Zr72  1  0.70074912  0.89881448  0.61556150  1
  Zr  Zr73  1  0.10516289  0.30133422  0.61725537  1
  Zr  Zr74  1  0.59945421  0.41111381  0.47955924  1
  Zr  Zr75  1  0.81069762  -0.00280431  0.01472195  1
  Zr  Zr76  1  0.10078002  0.29931012  0.36289100  1
  Zr  Zr77  1  -0.00749270  0.20461050  0.49063079  1
  Zr  Zr78  1  0.39801999  0.38015392  0.00010920  1
  Zr  Zr79  1  0.50256373  0.49751803  0.87331236  1
  Ta  Ta80  1  0.89760967  0.49952614  0.61862907  1
  Ta  Ta81  1  -0.01003240  0.59092901  0.24189569  1
  Ta  Ta82  1  0.69826959  0.09130828  0.37513965  1
  Ta  Ta83  1  0.60406215  0.00073687  0.75628395  1
  Ta  Ta84  1  0.10385533  0.10204811  0.37025310  1
  Ta  Ta85  1  0.90644298  0.09435957  0.87690271  1
  Ta  Ta86  1  0.90888252  0.89784343  0.87783257  1
  Ta  Ta87  1  0.70594185  0.49486734  0.86803257  1
  Ta  Ta88  1  0.28897004  0.70368349  0.87411027  1
  Ta  Ta89  1  0.49940027  0.09879120  0.37982048  1
  Ta  Ta90  1  0.09355869  0.70536796  0.11718931  1
  Ta  Ta91  1  0.00052544  0.00387165  0.49078376  1
  Ta  Ta92  1  0.90448848  0.89449125  0.37613166  1
  Ta  Ta93  1  0.69826582  0.89924980  0.37390894  1
  Ta  Ta94  1  0.49667568  0.70467213  0.87746179  1
  Ta  Ta95  1  0.70853563  0.10615198  0.87861755  1
  Ta  Ta96  1  0.10436321  0.30121152  0.14592345  1
  Ta  Ta97  1  0.40085345  -0.00665552  0.48735751  1
  Ta  Ta98  1  0.21232000  0.20307301  0.02430631  1
  Ta  Ta99  1  0.21011196  0.79791874  0.26839600  1
  Ta  Ta100  1  0.29003293  0.50276024  0.61296122  1
  Ta  Ta101  1  0.89466986  0.69589043  0.61467589  1
  Ta  Ta102  1  0.18790731  0.80579491  -0.00815349  1
  Ta  Ta103  1  0.10870736  0.88893999  0.14603401  1
  Ta  Ta104  1  0.60627792  0.60435375  -0.00832253  1
  Ta  Ta105  1  0.59344916  0.79581050  -0.00412771  1
  Ta  Ta106  1  0.90828743  0.69231501  0.11437168  1
  Ta  Ta107  1  0.59686093  0.40193936  0.24687068  1
  Ta  Ta108  1  0.79534044  0.79259301  0.48364498  1
  Ta  Ta109  1  0.49711262  0.70696636  0.12912362  1
  Ta  Ta110  1  0.00421185  0.60276136  0.73927562  1
  Ta  Ta111  1  -0.00992551  0.40184335  0.49480198  1
  Ta  Ta112  1  0.60322306  0.79504346  0.76294829  1
  Ta  Ta113  1  0.19477815  0.41271325  0.48517166  1
  Ta  Ta114  1  0.20729750  0.40430164  0.75313955  1
  Ta  Ta115  1  0.49637195  0.89089780  0.13383241  1
  Ta  Ta116  1  0.59978380  0.79310090  0.48133015  1
  Ta  Ta117  1  0.92468948  0.31429950  0.14123148  1
  Ta  Ta118  1  0.40371116  0.79820664  0.48889309  1
  Ta  Ta119  1  0.18994684  0.59428344  0.75856820  1
  Ti  Ti120  1  0.79764892  0.79477279  0.75777454  1
  Ti  Ti121  1  0.50534206  0.69491233  0.62115030  1
  Ti  Ti122  1  0.40929778  0.20709896  0.49434507  1
  Ti  Ti123  1  0.09644316  0.89708719  0.86666485  1
  Ti  Ti124  1  0.30039182  0.30167026  0.14861830  1
  Ti  Ti125  1  0.59075841  -0.00803002  0.25969992  1
  Ti  Ti126  1  0.59666450  0.60547838  0.76190662  1
  Ti  Ti127  1  0.92161045  0.88201979  0.13167541  1
  Ti  Ti128  1  0.19047057  0.78878776  0.75193717  1
  Ti  Ti129  1  0.01004313  0.78324223  0.26157757  1
  Ti  Ti130  1  0.40746515  0.41270556  0.50279152  1
  Ti  Ti131  1  0.40295933  0.20233891  0.24998559  1
  Ti  Ti132  1  0.39601491  0.19737143  0.02267697  1
  Ti  Ti133  1  0.19176989  0.60650505  -0.00986261  1
  Ti  Ti134  1  0.70101540  0.30247276  0.13995882  1
  Ti  Ti135  1  0.49328657  0.09418473  0.13063643  1
  Ti  Ti136  1  0.39443596  0.80112076  0.26700377  1
  Ti  Ti137  1  -0.00456876  -0.00097831  0.25929946  1
  Ti  Ti138  1  0.10392452  0.50401852  0.61629783  1
  Ti  Ti139  1  0.19948451  0.03821692  0.71939513  1
  Ti  Ti140  1  0.59671489  0.79832459  0.26293339  1
  Ti  Ti141  1  0.80572116  -0.00171798  0.48177739  1
  Ti  Ti142  1  0.48632282  0.48929646  0.35926806  1
  Ti  Ti143  1  0.29319515  0.50056065  0.87932536  1
  Ti  Ti144  1  0.09093051  0.69863971  0.88332433  1
  Ti  Ti145  1  0.60406585  0.59192522  0.25568352  1
  Ti  Ti146  1  0.68691149  0.89235682  0.13353129  1
  Ti  Ti147  1  0.69931049  0.30405494  0.35768095  1
  Ti  Ti148  1  0.20462234  0.79972136  0.48302220  1
  Ti  Ti149  1  0.91415641  0.10505701  0.13358574  1
  Ti  Ti150  1  0.07601839  0.51658040  0.38782463  1
  Ti  Ti151  1  0.79094513  0.59374399  0.00883253  1
  Ti  Ti152  1  0.19667486  0.60546363  0.48476082  1
  Ti  Ti153  1  0.00518636  -0.00175296  0.74697296  1
  Ti  Ti154  1  0.40357183  0.59633542  0.50204054  1
  Ti  Ti155  1  0.10237010  0.69352880  0.61802899  1
  Ti  Ti156  1  0.70429288  0.30414012  0.86219504  1
  Ti  Ti157  1  0.09432178  0.50109820  0.88213205  1
  Ti  Ti158  1  0.49520083  0.29491280  0.86713450  1
  Ti  Ti159  1  0.59251685  0.59461062  0.49228798  1
  Mo  Mo160  1  0.29899095  0.89207039  0.14133878  1
  Mo  Mo161  1  0.49361046  0.29923546  0.14143968  1
  Mo  Mo162  1  0.00227843  0.60079076  0.00550528  1
  Mo  Mo163  1  0.89214435  0.30522335  0.63683795  1
  Mo  Mo164  1  0.09670472  0.70128580  0.38022721  1
  Mo  Mo165  1  0.40626373  0.00351155  0.02590318  1
  Mo  Mo166  1  0.89782231  0.50254059  0.11083954  1
  Mo  Mo167  1  0.69381258  0.50464276  0.12581712  1
  Mo  Mo168  1  0.20871206  0.20289521  0.24720759  1
  Mo  Mo169  1  0.30055003  0.10882393  0.59006764  1
  Mo  Mo170  1  0.49816937  0.51260245  0.62823311  1
  Mo  Mo171  1  0.00023850  0.20038861  0.25763396  1
  Mo  Mo172  1  0.30130386  0.89944820  0.38685218  1
  Mo  Mo173  1  -0.00080961  0.39141369  -0.00660901  1
  Mo  Mo174  1  0.71224753  0.29683445  0.64194065  1
  Mo  Mo175  1  0.60175657  -0.00417672  0.47869162  1
  Mo  Mo176  1  0.90414179  0.09009296  0.36960860  1
  Mo  Mo177  1  0.40260282  0.39892288  0.24616604  1
  Mo  Mo178  1  0.00365332  0.80532694  0.00126373  1
  Mo  Mo179  1  0.19758805  0.00563434  0.50259975  1
  Mo  Mo180  1  0.90344090  0.30426966  0.35910968  1
  Mo  Mo181  1  0.30853035  0.10558047  0.14110757  1
  Mo  Mo182  1  0.10492783  0.10061795  0.59848773  1
  Mo  Mo183  1  -0.00235672  0.41131534  0.26966611  1
  Mo  Mo184  1  0.49423769  0.30240238  0.36363003  1
  Mo  Mo185  1  0.00183115  0.59656745  0.52344741  1
  Mo  Mo186  1  0.30548170  0.50511556  0.39902674  1
  Mo  Mo187  1  0.69491688  0.69803080  0.37134808  1
  Mo  Mo188  1  0.20863132  0.20387755  0.73161937  1
  Mo  Mo189  1  0.89887077  0.49834624  0.39369403  1
  Mo  Mo190  1  0.79957117  0.19491462  0.75571644  1
  Mo  Mo191  1  0.30408383  0.29496962  0.87201289  1
  Mo  Mo192  1  0.69775202  0.69703975  0.88092835  1
  Mo  Mo193  1  0.30055884  0.70066837  0.39168565  1
  Mo  Mo194  1  0.60238161  0.39920717  0.77039736  1
  Mo  Mo195  1  0.20366345  -0.00540309  0.24906968  1
  Mo  Mo196  1  0.50215489  0.89713466  0.36792830  1
  Mo  Mo197  1  0.69088733  0.50114937  0.36560543  1
  Mo  Mo198  1  0.80083676  0.39671345  0.73781297  1
  Mo  Mo199  1  0.20041173  0.20399848  0.48992228  1
