# generated using pymatgen
data_HfZrTaTiMo
_symmetry_space_group_name_H-M   'P 1'
_cell_length_a   15.84402596
_cell_length_b   15.82834094
_cell_length_c   15.41268797
_cell_angle_alpha   90.00240239
_cell_angle_beta   90.03360362
_cell_angle_gamma   89.98125111
_symmetry_Int_Tables_number   1
_chemical_formula_structural   HfZrTaTiMo
_chemical_formula_sum   'Hf40 Zr40 Ta40 Ti40 Mo40'
_cell_volume   3865.26460162
_cell_formula_units_Z   40
loop_
 _symmetry_equiv_pos_site_id
 _symmetry_equiv_pos_as_xyz
  1  'x, y, z'
loop_
 _atom_site_type_symbol
 _atom_site_label
 _atom_site_symmetry_multiplicity
 _atom_site_fract_x
 _atom_site_fract_y
 _atom_site_fract_z
 _atom_site_occupancy
  Hf  Hf0  1  0.40143870  0.39910284  0.49614639  1
  Hf  Hf1  1  0.19398798  0.40413209  0.72774877  1
  Hf  Hf2  1  0.50793974  0.88859500  0.62290513  1
  Hf  Hf3  1  -0.01966651  0.81594948  0.49775297  1
  Hf  Hf4  1  0.30401690  0.10404305  0.86833179  1
  Hf  Hf5  1  0.20191170  0.00123864  -0.00061248  1
  Hf  Hf6  1  0.89395682  0.10154740  0.14062871  1
  Hf  Hf7  1  0.69629272  0.28506168  0.12189306  1
  Hf  Hf8  1  0.30155336  0.29521335  0.36484453  1
  Hf  Hf9  1  0.80523550  0.18886352  -0.00808388  1
  Hf  Hf10  1  0.20298439  0.20658080  0.73338678  1
  Hf  Hf11  1  0.50146294  0.30289461  0.12696933  1
  Hf  Hf12  1  0.20404903  0.59305400  0.01049941  1
  Hf  Hf13  1  0.79817494  0.40145503  0.01015583  1
  Hf  Hf14  1  0.10613156  0.71965423  0.11457022  1
  Hf  Hf15  1  0.52283565  0.09604602  0.11146457  1
  Hf  Hf16  1  0.19730608  0.21079476  0.00745575  1
  Hf  Hf17  1  0.79748355  0.60850262  -0.01442081  1
  Hf  Hf18  1  0.89419737  0.51714499  0.12749047  1
  Hf  Hf19  1  0.60710915  0.38600378  0.73885652  1
  Hf  Hf20  1  0.19739385  0.79437217  0.74703585  1
  Hf  Hf21  1  -0.01543416  0.40095232  0.49046508  1
  Hf  Hf22  1  0.21136562  0.59816780  0.49411699  1
  Hf  Hf23  1  0.09278285  0.11403701  0.86889386  1
  Hf  Hf24  1  0.69639744  0.49928534  0.37648976  1
  Hf  Hf25  1  0.81326531  -0.00691181  0.50789952  1
  Hf  Hf26  1  0.21379822  0.62183927  0.25133831  1
  Hf  Hf27  1  0.09249349  0.11110379  0.12970815  1
  Hf  Hf28  1  0.08272049  0.29480512  0.61220235  1
  Hf  Hf29  1  0.00412853  0.60192522  0.75484621  1
  Hf  Hf30  1  0.31100267  0.88959660  0.61930826  1
  Hf  Hf31  1  0.90259176  0.69859096  0.63175407  1
  Hf  Hf32  1  0.88507281  0.51175735  0.37472061  1
  Hf  Hf33  1  0.58798418  0.59891462  0.24786741  1
  Hf  Hf34  1  0.91229663  0.29365455  0.12448916  1
  Hf  Hf35  1  0.29865472  0.89550577  0.37269582  1
  Hf  Hf36  1  0.60242388  0.80100914  0.24250516  1
  Hf  Hf37  1  -0.00612172  0.61949699  0.25133674  1
  Hf  Hf38  1  0.70670661  0.48521830  0.86758360  1
  Hf  Hf39  1  -0.01373025  0.01371864  -0.00990999  1
  Zr  Zr40  1  0.51121472  0.88933174  0.10550123  1
  Zr  Zr41  1  0.40488453  0.60547866  0.75952203  1
  Zr  Zr42  1  0.39446862  0.19922224  0.00818990  1
  Zr  Zr43  1  0.09472565  0.88716762  0.88481576  1
  Zr  Zr44  1  0.01437565  0.22172900  0.27147408  1
  Zr  Zr45  1  0.31257462  0.09594877  0.62789513  1
  Zr  Zr46  1  0.70519510  0.88131902  0.37647565  1
  Zr  Zr47  1  0.90081475  0.30693611  0.87699565  1
  Zr  Zr48  1  0.79623155  0.39342098  0.24591792  1
  Zr  Zr49  1  0.79153036  0.22995126  0.73912294  1
  Zr  Zr50  1  0.29852874  0.09584787  0.36653724  1
  Zr  Zr51  1  0.90070497  0.10646679  0.38127764  1
  Zr  Zr52  1  0.87614757  0.71140118  0.37796043  1
  Zr  Zr53  1  0.60165151  -0.00888872  0.76046845  1
  Zr  Zr54  1  0.41426015  0.00804246  0.49867273  1
  Zr  Zr55  1  0.59055269  0.19050429  0.51029657  1
  Zr  Zr56  1  0.18811499  0.39433271  0.25846135  1
  Zr  Zr57  1  0.39209746  0.40217979  0.00759051  1
  Zr  Zr58  1  0.41261390  -0.01215544  0.24199098  1
  Zr  Zr59  1  0.71413153  0.70702352  0.12182973  1
  Zr  Zr60  1  0.40226194  0.77538903  0.24602755  1
  Zr  Zr61  1  0.70880019  0.09823744  0.63374179  1
  Zr  Zr62  1  0.09063332  0.09512517  0.61440986  1
  Zr  Zr63  1  0.19688291  0.60281105  0.74217510  1
  Zr  Zr64  1  0.61311306  -0.01080095  0.50813391  1
  Zr  Zr65  1  0.28236493  0.87266475  0.13254695  1
  Zr  Zr66  1  0.29283222  0.70223845  0.88884193  1
  Zr  Zr67  1  0.29484308  0.49127653  0.86933802  1
  Zr  Zr68  1  0.79920957  -0.01586704  0.25580772  1
  Zr  Zr69  1  0.09541109  0.31148242  0.86839255  1
  Zr  Zr70  1  -0.00572160  0.81405934  0.25554496  1
  Zr  Zr71  1  0.09660098  0.50553926  0.13403847  1
  Zr  Zr72  1  0.39461470  -0.00670911  0.00094340  1
  Zr  Zr73  1  0.88972948  0.88922050  0.10790120  1
  Zr  Zr74  1  0.49731304  0.70076913  0.62003433  1
  Zr  Zr75  1  0.20485155  -0.00897892  0.75298170  1
  Zr  Zr76  1  0.08535798  0.51216560  0.60436524  1
  Zr  Zr77  1  0.40817548  0.59047743  0.48409570  1
  Zr  Zr78  1  0.41274823  0.19329824  0.24725915  1
  Zr  Zr79  1  0.09644398  0.51044628  0.37707965  1
  Ta  Ta80  1  0.70277256  0.09069479  0.12010671  1
  Ta  Ta81  1  0.00305663  0.00056489  0.26267716  1
  Ta  Ta82  1  0.40419559  0.80661757  0.77257536  1
  Ta  Ta83  1  0.20843831  0.39970309  0.49864383  1
  Ta  Ta84  1  0.78373472  0.80297630  0.52794245  1
  Ta  Ta85  1  0.50059377  0.29828896  0.87831659  1
  Ta  Ta86  1  0.30054379  0.30126323  0.86391744  1
  Ta  Ta87  1  0.09980786  0.71235065  0.38855704  1
  Ta  Ta88  1  0.69004232  0.50392317  0.12588332  1
  Ta  Ta89  1  0.60094422  0.59753447  0.76388185  1
  Ta  Ta90  1  0.00024814  0.00006252  0.75161708  1
  Ta  Ta91  1  0.50347413  0.88631689  0.38607013  1
  Ta  Ta92  1  0.09526452  0.70745546  0.60477802  1
  Ta  Ta93  1  0.69832782  0.90491320  0.09998357  1
  Ta  Ta94  1  0.40840307  0.20385256  0.74600606  1
  Ta  Ta95  1  0.90141948  0.90447962  0.64578519  1
  Ta  Ta96  1  0.20775393  0.20630110  0.50455394  1
  Ta  Ta97  1  0.59680933  0.79104118  0.77166545  1
  Ta  Ta98  1  0.50883382  0.30054414  0.37551607  1
  Ta  Ta99  1  0.70019090  0.29632082  0.38780017  1
  Ta  Ta100  1  0.79573128  0.79851024  0.75709946  1
  Ta  Ta101  1  0.89883402  0.10888343  0.85026337  1
  Ta  Ta102  1  0.09151846  0.90767988  0.11678539  1
  Ta  Ta103  1  0.59517999  0.39972475  0.25056797  1
  Ta  Ta104  1  0.29361833  0.29884953  0.14632681  1
  Ta  Ta105  1  0.00600354  0.40576882  0.00894267  1
  Ta  Ta106  1  -0.02214326  0.40313469  0.72992079  1
  Ta  Ta107  1  0.79264047  0.60173548  0.51737483  1
  Ta  Ta108  1  0.50562827  0.10613178  0.87758560  1
  Ta  Ta109  1  0.10583468  0.10476410  0.38736158  1
  Ta  Ta110  1  0.90832918  0.50144342  0.87840540  1
  Ta  Ta111  1  0.70609977  0.10555743  0.37693859  1
  Ta  Ta112  1  0.09501877  0.89847481  0.61818305  1
  Ta  Ta113  1  0.40285945  0.39269919  0.74062538  1
  Ta  Ta114  1  0.50269395  0.48927921  0.87073958  1
  Ta  Ta115  1  0.09941622  0.91218791  0.39347680  1
  Ta  Ta116  1  0.30989779  0.50136407  0.62713778  1
  Ta  Ta117  1  0.90901242  0.70839628  0.87372285  1
  Ta  Ta118  1  0.69230897  0.69659156  0.64185639  1
  Ta  Ta119  1  0.59808138  0.59478312  -0.01218332  1
  Ti  Ti120  1  0.49619970  0.29660286  0.62077935  1
  Ti  Ti121  1  0.18735856  -0.00578521  0.25029069  1
  Ti  Ti122  1  0.51090429  0.09511408  0.36903177  1
  Ti  Ti123  1  0.79461200  -0.00228348  -0.02362425  1
  Ti  Ti124  1  0.39654334  0.79350511  -0.00484066  1
  Ti  Ti125  1  0.09528643  0.49921115  0.87962841  1
  Ti  Ti126  1  0.87971033  0.29656041  0.38608605  1
  Ti  Ti127  1  0.59422819  0.40464929  0.00673588  1
  Ti  Ti128  1  0.90827916  0.11456730  0.62753159  1
  Ti  Ti129  1  0.60527916  -0.00448900  0.25383456  1
  Ti  Ti130  1  0.19982416  0.39804304  0.01357439  1
  Ti  Ti131  1  0.50408727  0.50146804  0.63416744  1
  Ti  Ti132  1  0.40564467  0.59139525  0.25989298  1
  Ti  Ti133  1  0.20534166  0.00141628  0.50579814  1
  Ti  Ti134  1  0.68868353  0.29643632  0.88783137  1
  Ti  Ti135  1  0.51172495  0.70327479  0.38874698  1
  Ti  Ti136  1  0.60448621  0.59662503  0.50522520  1
  Ti  Ti137  1  0.69679290  0.10574587  0.87089916  1
  Ti  Ti138  1  0.40094398  0.20067119  0.50237382  1
  Ti  Ti139  1  0.69902930  0.69330131  0.37379538  1
  Ti  Ti140  1  0.59823325  0.40248053  0.50598783  1
  Ti  Ti141  1  0.80424868  0.59255645  0.75024282  1
  Ti  Ti142  1  0.20300489  0.80220572  0.50151008  1
  Ti  Ti143  1  0.40638785  0.59069990  -0.00026941  1
  Ti  Ti144  1  0.90273222  0.89609847  0.86670112  1
  Ti  Ti145  1  -0.00455185  0.40384469  0.26010539  1
  Ti  Ti146  1  0.09314183  0.69853260  0.89198287  1
  Ti  Ti147  1  0.30932458  0.50065755  0.14004947  1
  Ti  Ti148  1  0.61075029  0.19608326  0.25757051  1
  Ti  Ti149  1  0.50015307  0.69031683  0.10552834  1
  Ti  Ti150  1  0.40916282  0.41161671  0.26070664  1
  Ti  Ti151  1  0.29175296  0.09876998  0.14127273  1
  Ti  Ti152  1  0.40860064  -0.00487604  0.75970408  1
  Ti  Ti153  1  0.70209632  0.49779662  0.62920651  1
  Ti  Ti154  1  0.59516520  0.19964423  0.74300354  1
  Ti  Ti155  1  0.61505598  0.78739432  -0.02266851  1
  Ti  Ti156  1  0.30528577  0.70832327  0.38466833  1
  Ti  Ti157  1  0.79967192  -0.00268499  0.75736307  1
  Ti  Ti158  1  0.50359862  0.89921179  0.89093659  1
  Ti  Ti159  1  0.30747932  0.70161404  0.61894501  1
  Mo  Mo160  1  0.79672471  0.20190398  0.51035775  1
  Mo  Mo161  1  0.20022190  0.19417861  0.24802938  1
  Mo  Mo162  1  0.90673374  0.70232115  0.10413111  1
  Mo  Mo163  1  0.89696949  0.90400367  0.37761462  1
  Mo  Mo164  1  0.30502043  0.30332383  0.62116367  1
  Mo  Mo165  1  0.00071099  0.60083385  -0.00986430  1
  Mo  Mo166  1  0.60343916  0.20045785  -0.01074560  1
  Mo  Mo167  1  -0.00709613  0.20416842  0.74100308  1
  Mo  Mo168  1  0.60980879  0.00133315  -0.01950799  1
  Mo  Mo169  1  -0.00237218  0.20284620  0.48791317  1
  Mo  Mo170  1  0.50129358  0.69693659  0.89071045  1
  Mo  Mo171  1  -0.00372893  0.20402351  -0.00139091  1
  Mo  Mo172  1  0.88998393  0.30061601  0.60584904  1
  Mo  Mo173  1  0.50062777  0.09723975  0.64890622  1
  Mo  Mo174  1  0.79808845  0.79313904  0.24290910  1
  Mo  Mo175  1  0.70426093  0.89816870  0.87637132  1
  Mo  Mo176  1  0.80191130  0.41096808  0.73184515  1
  Mo  Mo177  1  0.31214828  0.68675981  0.10884211  1
  Mo  Mo178  1  -0.00861240  0.61162431  0.48975474  1
  Mo  Mo179  1  0.50050283  0.50247983  0.12152125  1
  Mo  Mo180  1  -0.00515181  0.80158868  0.00295841  1
  Mo  Mo181  1  0.89064863  0.50495832  0.61662963  1
  Mo  Mo182  1  0.69254014  0.30522110  0.60347538  1
  Mo  Mo183  1  0.30566662  0.89926889  0.87491873  1
  Mo  Mo184  1  0.40188448  0.79686586  0.49028764  1
  Mo  Mo185  1  0.70424450  0.69109957  0.85885896  1
  Mo  Mo186  1  -0.00029911  0.00312708  0.50291713  1
  Mo  Mo187  1  0.10423443  0.29954641  0.39881330  1
  Mo  Mo188  1  0.80005028  0.80298375  -0.02883123  1
  Mo  Mo189  1  0.30498261  0.49945289  0.36001285  1
  Mo  Mo190  1  0.78913713  0.40261491  0.50877305  1
  Mo  Mo191  1  0.09996290  0.30640823  0.11590964  1
  Mo  Mo192  1  0.50905652  0.49439173  0.37915025  1
  Mo  Mo193  1  0.00226815  0.80072617  0.74030123  1
  Mo  Mo194  1  0.79094580  0.60487994  0.24165224  1
  Mo  Mo195  1  0.18820120  0.80666435  0.27398270  1
  Mo  Mo196  1  0.20105787  0.80188955  -0.00624551  1
  Mo  Mo197  1  0.60656205  0.78430001  0.50288630  1
  Mo  Mo198  1  0.70395951  0.89014584  0.64817118  1
  Mo  Mo199  1  0.79025894  0.19803900  0.25426597  1
