# generated using pymatgen
data_HfZrTaTiMo
_symmetry_space_group_name_H-M   'P 1'
_cell_length_a   15.83823631
_cell_length_b   15.84018586
_cell_length_c   15.40920247
_cell_angle_alpha   90.07647820
_cell_angle_beta   90.01373025
_cell_angle_gamma   90.10630043
_symmetry_Int_Tables_number   1
_chemical_formula_structural   HfZrTaTiMo
_chemical_formula_sum   'Hf40 Zr40 Ta40 Ti40 Mo40'
_cell_volume   3865.85985633
_cell_formula_units_Z   40
loop_
 _symmetry_equiv_pos_site_id
 _symmetry_equiv_pos_as_xyz
  1  'x, y, z'
loop_
 _atom_site_type_symbol
 _atom_site_label
 _atom_site_symmetry_multiplicity
 _atom_site_fract_x
 _atom_site_fract_y
 _atom_site_fract_z
 _atom_site_occupancy
  Hf  Hf0  1  0.69669602  0.48565736  0.37752803  1
  Hf  Hf1  1  0.50884909  0.90192227  0.90072434  1
  Hf  Hf2  1  0.61953841  0.21509670  0.25220715  1
  Hf  Hf3  1  0.80385172  0.19990974  0.51496351  1
  Hf  Hf4  1  0.80692384  0.39247620  -0.00897698  1
  Hf  Hf5  1  0.08439894  0.52063169  0.63083980  1
  Hf  Hf6  1  0.60174504  -0.00022421  0.47869586  1
  Hf  Hf7  1  0.92175202  0.89831813  0.12091606  1
  Hf  Hf8  1  0.10313342  0.11100885  0.84496880  1
  Hf  Hf9  1  0.41206779  -0.00390337  0.74817432  1
  Hf  Hf10  1  0.77711445  0.80396972  0.75678975  1
  Hf  Hf11  1  0.40206900  0.00621508  0.47519625  1
  Hf  Hf12  1  -0.00039609  0.79652326  0.50383349  1
  Hf  Hf13  1  0.88571705  0.50245832  0.36514257  1
  Hf  Hf14  1  0.49105194  0.51164113  0.62437471  1
  Hf  Hf15  1  0.31354248  0.90084125  0.61116264  1
  Hf  Hf16  1  0.48848539  0.49324736  0.36598458  1
  Hf  Hf17  1  0.60434580  -0.01600177  0.75454259  1
  Hf  Hf18  1  0.12533203  0.91954451  0.12629448  1
  Hf  Hf19  1  0.89965390  0.49151658  0.12798603  1
  Hf  Hf20  1  0.69043056  0.49904890  0.10979453  1
  Hf  Hf21  1  0.29948832  0.09020108  0.86021120  1
  Hf  Hf22  1  0.38878472  0.39384349  0.73669206  1
  Hf  Hf23  1  0.20172390  0.59384525  0.26936372  1
  Hf  Hf24  1  0.19316646  0.38472936  0.26089763  1
  Hf  Hf25  1  0.20868477  0.20964107  0.72460592  1
  Hf  Hf26  1  0.38886848  0.59949404  0.00165067  1
  Hf  Hf27  1  0.71006852  0.69597548  0.38057719  1
  Hf  Hf28  1  0.50085572  0.69890516  0.12721050  1
  Hf  Hf29  1  0.88372841  0.29398690  0.37091980  1
  Hf  Hf30  1  0.38849927  0.38853201  0.00690379  1
  Hf  Hf31  1  0.12607177  0.90980998  0.87603266  1
  Hf  Hf32  1  0.71459852  0.89606807  0.37911421  1
  Hf  Hf33  1  0.69652194  0.88940674  0.60552081  1
  Hf  Hf34  1  0.10452393  0.90586725  0.61697263  1
  Hf  Hf35  1  0.60334290  0.59614971  0.24798946  1
  Hf  Hf36  1  0.29290892  0.49942739  0.13012597  1
  Hf  Hf37  1  0.19318268  0.17817754  0.00523401  1
  Hf  Hf38  1  0.59473823  0.59849167  0.49260377  1
  Hf  Hf39  1  -0.01911612  0.40355105  0.50712906  1
  Zr  Zr40  1  0.91617573  0.11460539  0.13413414  1
  Zr  Zr41  1  0.80092441  0.00788545  -0.00193603  1
  Zr  Zr42  1  0.01946483  0.78432750  0.75376118  1
  Zr  Zr43  1  0.09175649  0.50068268  0.86141249  1
  Zr  Zr44  1  0.39862211  0.00940996  0.01685715  1
  Zr  Zr45  1  0.77525476  0.37998077  0.23665020  1
  Zr  Zr46  1  0.19413679  0.60768887  0.48976617  1
  Zr  Zr47  1  0.89952488  0.68750415  0.63606848  1
  Zr  Zr48  1  0.89710101  0.90323820  0.63346535  1
  Zr  Zr49  1  0.59485137  0.17879990  -0.00939189  1
  Zr  Zr50  1  0.59017747  0.39288678  0.74579141  1
  Zr  Zr51  1  0.49165113  0.28927129  0.12689212  1
  Zr  Zr52  1  0.59479368  0.62128352  0.74569968  1
  Zr  Zr53  1  0.59749739  0.18671194  0.75632709  1
  Zr  Zr54  1  0.17641926  0.38052635  0.00689816  1
  Zr  Zr55  1  0.90725152  0.89614924  0.88516985  1
  Zr  Zr56  1  0.69526604  0.50393377  0.87926333  1
  Zr  Zr57  1  0.09741132  0.49444705  0.12529608  1
  Zr  Zr58  1  0.49967411  0.70862884  0.89664684  1
  Zr  Zr59  1  0.70674131  0.08593711  0.62326745  1
  Zr  Zr60  1  0.49483218  0.49904100  0.87913375  1
  Zr  Zr61  1  0.00275868  0.59671902  -0.00309559  1
  Zr  Zr62  1  0.02394591  0.01356360  0.26153878  1
  Zr  Zr63  1  0.20230500  0.41269873  0.50457103  1
  Zr  Zr64  1  0.21387032  0.80348888  0.74130859  1
  Zr  Zr65  1  0.80466970  0.19783242  -0.02034020  1
  Zr  Zr66  1  0.59973422  0.20055791  0.49704634  1
  Zr  Zr67  1  0.00056995  0.59891358  0.25293064  1
  Zr  Zr68  1  0.20518812  0.20200069  0.50317261  1
  Zr  Zr69  1  0.81011896  -0.00418881  0.24679437  1
  Zr  Zr70  1  0.49469945  0.29961655  0.37336813  1
  Zr  Zr71  1  0.89716027  0.69887006  0.87981289  1
  Zr  Zr72  1  0.28194361  0.50249332  0.87385800  1
  Zr  Zr73  1  0.61220368  0.80323686  0.24418432  1
  Zr  Zr74  1  0.30027403  0.70461069  0.14130762  1
  Zr  Zr75  1  0.30624197  0.70065553  0.61354103  1
  Zr  Zr76  1  0.29566259  0.71020923  0.88069172  1
  Zr  Zr77  1  0.01764077  0.02244580  -0.00671864  1
  Zr  Zr78  1  0.68712874  0.70813450  0.90204144  1
  Zr  Zr79  1  0.28972937  0.29269124  0.87415065  1
  Ta  Ta80  1  0.59442196  0.38605384  0.00215463  1
  Ta  Ta81  1  0.80126110  0.60222019  0.00864148  1
  Ta  Ta82  1  0.49950350  0.09255343  0.61575277  1
  Ta  Ta83  1  0.08850446  0.29466604  0.39022173  1
  Ta  Ta84  1  0.80587356  0.79870022  0.23365541  1
  Ta  Ta85  1  0.90350442  0.29603005  0.13207103  1
  Ta  Ta86  1  0.40682607  0.20063438  0.73224868  1
  Ta  Ta87  1  0.79900170  0.00294816  0.77284100  1
  Ta  Ta88  1  0.10297550  0.71126664  0.13357046  1
  Ta  Ta89  1  0.70127156  0.50569352  0.62696028  1
  Ta  Ta90  1  0.69990651  0.30132124  0.63184259  1
  Ta  Ta91  1  0.70498623  0.10590861  0.13422608  1
  Ta  Ta92  1  0.39441558  0.39970786  0.51232122  1
  Ta  Ta93  1  0.71590487  0.10736278  0.36692762  1
  Ta  Ta94  1  0.50255218  0.71326920  0.60491309  1
  Ta  Ta95  1  0.38930229  0.59498990  0.48383295  1
  Ta  Ta96  1  0.09399751  0.71214025  0.36747443  1
  Ta  Ta97  1  0.09137324  0.30709793  0.84439157  1
  Ta  Ta98  1  0.09746233  0.09300272  0.62258652  1
  Ta  Ta99  1  0.42356113  0.80047020  0.74632951  1
  Ta  Ta100  1  0.39177204  0.60842783  0.74856194  1
  Ta  Ta101  1  0.59604602  0.39783759  0.51428654  1
  Ta  Ta102  1  0.90893977  0.70269520  0.12614546  1
  Ta  Ta103  1  0.20391429  0.00324976  0.48795749  1
  Ta  Ta104  1  -0.00748936  0.19673525  0.51213869  1
  Ta  Ta105  1  0.30362023  0.29725271  0.38256717  1
  Ta  Ta106  1  0.08787743  0.30463908  0.62381564  1
  Ta  Ta107  1  0.50235927  0.10246660  0.35308192  1
  Ta  Ta108  1  0.10029171  0.90302212  0.38387720  1
  Ta  Ta109  1  0.40706733  0.80141994  0.47447491  1
  Ta  Ta110  1  0.30575411  0.09410208  0.61948319  1
  Ta  Ta111  1  0.00442544  0.21926354  -0.01418537  1
  Ta  Ta112  1  0.80122930  0.19511402  0.75426101  1
  Ta  Ta113  1  0.69500175  0.70265735  0.60965027  1
  Ta  Ta114  1  0.49172744  0.49893474  0.12695434  1
  Ta  Ta115  1  0.48839037  0.28918914  0.88000730  1
  Ta  Ta116  1  0.20264910  0.81297077  0.26189247  1
  Ta  Ta117  1  -0.00202178  0.39124509  0.26066212  1
  Ta  Ta118  1  0.89916175  0.70665607  0.35931940  1
  Ta  Ta119  1  0.91049362  0.30508238  0.84951607  1
  Ti  Ti120  1  0.50246610  0.09676502  0.14641561  1
  Ti  Ti121  1  0.50059539  0.89883437  0.35514808  1
  Ti  Ti122  1  0.79221864  0.39896874  0.51481707  1
  Ti  Ti123  1  0.30808590  0.70438146  0.36345454  1
  Ti  Ti124  1  0.61118142  0.00183925  0.24724354  1
  Ti  Ti125  1  0.80559842  0.59407176  0.50519900  1
  Ti  Ti126  1  0.81986412  0.00057054  0.49153387  1
  Ti  Ti127  1  0.79776735  0.80082030  0.02130884  1
  Ti  Ti128  1  0.28120383  0.08053311  0.14730888  1
  Ti  Ti129  1  0.20033121  0.40842800  0.72533006  1
  Ti  Ti130  1  0.90134892  0.49581699  0.86349220  1
  Ti  Ti131  1  0.49756869  0.69929178  0.36340744  1
  Ti  Ti132  1  0.89158685  0.50082905  0.64386434  1
  Ti  Ti133  1  0.20667344  0.80252316  0.48560541  1
  Ti  Ti134  1  0.79177917  0.60327483  0.75736808  1
  Ti  Ti135  1  0.39511884  0.81341263  0.02191733  1
  Ti  Ti136  1  0.18782918  0.61873690  0.74264181  1
  Ti  Ti137  1  0.79514669  0.39807891  0.74958633  1
  Ti  Ti138  1  0.21082388  0.80733619  0.01151641  1
  Ti  Ti139  1  0.91196205  0.89336297  0.36847227  1
  Ti  Ti140  1  0.08647014  0.27956715  0.14113916  1
  Ti  Ti141  1  0.50872167  0.89366016  0.60586004  1
  Ti  Ti142  1  0.18695706  0.18476758  0.27187474  1
  Ti  Ti143  1  0.38849650  0.39328349  0.24414210  1
  Ti  Ti144  1  0.69551448  0.29857738  0.86935887  1
  Ti  Ti145  1  0.69212025  0.90137048  0.90325147  1
  Ti  Ti146  1  -0.00123383  -0.00261319  0.75720637  1
  Ti  Ti147  1  0.28509545  0.28240596  0.13295618  1
  Ti  Ti148  1  0.91005136  0.10363312  0.37509203  1
  Ti  Ti149  1  -0.00842630  0.60554344  0.48756383  1
  Ti  Ti150  1  0.09025185  0.49424677  0.38007647  1
  Ti  Ti151  1  0.02031944  0.79687076  -0.00371850  1
  Ti  Ti152  1  0.38391585  0.19127453  0.25107158  1
  Ti  Ti153  1  0.31193488  0.90098335  0.87425372  1
  Ti  Ti154  1  0.79421577  0.60652206  0.23219915  1
  Ti  Ti155  1  0.90666894  0.09330383  0.63668511  1
  Ti  Ti156  1  0.59299144  0.39621815  0.23500727  1
  Ti  Ti157  1  0.50027953  0.90607122  0.13769277  1
  Ti  Ti158  1  0.81138094  0.79179166  0.50004190  1
  Ti  Ti159  1  0.39261559  0.18972934  0.00631093  1
  Mo  Mo160  1  0.00645485  0.20635281  0.27050666  1
  Mo  Mo161  1  0.88996673  0.30265203  0.63767750  1
  Mo  Mo162  1  0.70099223  0.29338990  0.10370652  1
  Mo  Mo163  1  0.21015847  0.00654208  0.27988437  1
  Mo  Mo164  1  0.80456857  0.19594628  0.25147549  1
  Mo  Mo165  1  -0.00830364  0.40370550  0.72921156  1
  Mo  Mo166  1  0.60147812  0.80815047  0.03080438  1
  Mo  Mo167  1  0.11203857  0.70231091  0.89476631  1
  Mo  Mo168  1  -0.00208793  0.19930993  0.72704979  1
  Mo  Mo169  1  0.29687029  0.51049501  0.63662625  1
  Mo  Mo170  1  0.40488285  0.20015972  0.50686631  1
  Mo  Mo171  1  0.19069368  0.61801313  0.00842280  1
  Mo  Mo172  1  0.70600674  0.69968099  0.11764333  1
  Mo  Mo173  1  0.69847838  0.30185845  0.39860939  1
  Mo  Mo174  1  0.10042117  0.70260230  0.60302127  1
  Mo  Mo175  1  0.20608468  0.00210363  0.72674695  1
  Mo  Mo176  1  0.59211630  0.59379195  0.01321386  1
  Mo  Mo177  1  0.29976899  0.30156676  0.61035091  1
  Mo  Mo178  1  0.39993046  0.59553869  0.26029819  1
  Mo  Mo179  1  0.69815576  0.09119450  0.86931197  1
  Mo  Mo180  1  0.90766001  0.10757467  0.85701483  1
  Mo  Mo181  1  -0.00452371  0.00293437  0.49448379  1
  Mo  Mo182  1  0.49773607  0.29500911  0.61660295  1
  Mo  Mo183  1  -0.00410680  0.60209355  0.76249663  1
  Mo  Mo184  1  0.31023900  0.90203374  0.15148322  1
  Mo  Mo185  1  0.30315187  0.49042090  0.36321053  1
  Mo  Mo186  1  0.30415567  0.10775661  0.37253631  1
  Mo  Mo187  1  0.59603048  0.79818450  0.47590816  1
  Mo  Mo188  1  0.09765358  0.10289376  0.40429653  1
  Mo  Mo189  1  -0.00862735  0.38679919  -0.00414847  1
  Mo  Mo190  1  0.00521761  0.80749934  0.25128767  1
  Mo  Mo191  1  0.60158480  0.00090793  0.02504629  1
  Mo  Mo192  1  0.10827969  0.10946738  0.13190510  1
  Mo  Mo193  1  0.40573707  0.00333775  0.25246667  1
  Mo  Mo194  1  0.21351902  -0.00376949  -0.00111860  1
  Mo  Mo195  1  0.30298547  0.89904095  0.37083356  1
  Mo  Mo196  1  0.59437094  0.80550978  0.74434297  1
  Mo  Mo197  1  0.49350903  0.09955943  0.87315693  1
  Mo  Mo198  1  0.70475809  0.90700895  0.11968607  1
  Mo  Mo199  1  0.40437036  0.80280035  0.25895368  1
