# generated using pymatgen
data_HfZrTaTiMo
_symmetry_space_group_name_H-M   'P 1'
_cell_length_a   15.84514001
_cell_length_b   15.82871071
_cell_length_c   15.38318625
_cell_angle_alpha   89.97224896
_cell_angle_beta   90.02961933
_cell_angle_gamma   90.06537164
_symmetry_Int_Tables_number   1
_chemical_formula_structural   HfZrTaTiMo
_chemical_formula_sum   'Hf40 Zr40 Ta40 Ti40 Mo40'
_cell_volume   3858.22481252
_cell_formula_units_Z   40
loop_
 _symmetry_equiv_pos_site_id
 _symmetry_equiv_pos_as_xyz
  1  'x, y, z'
loop_
 _atom_site_type_symbol
 _atom_site_label
 _atom_site_symmetry_multiplicity
 _atom_site_fract_x
 _atom_site_fract_y
 _atom_site_fract_z
 _atom_site_occupancy
  Hf  Hf0  1  0.39081325  0.61357512  0.51006361  1
  Hf  Hf1  1  0.38668461  0.80062194  0.74722739  1
  Hf  Hf2  1  0.70032272  0.48987043  0.61985734  1
  Hf  Hf3  1  0.09540077  0.08691932  0.60875307  1
  Hf  Hf4  1  0.40303940  0.40348100  0.49595158  1
  Hf  Hf5  1  0.60564085  0.59214019  0.22753504  1
  Hf  Hf6  1  0.79466473  0.40102575  0.25535382  1
  Hf  Hf7  1  0.80637840  0.81470646  0.76642445  1
  Hf  Hf8  1  -0.00849268  0.79377050  0.01239585  1
  Hf  Hf9  1  0.58378879  0.00268515  0.25847085  1
  Hf  Hf10  1  0.19020443  0.79665296  0.01873601  1
  Hf  Hf11  1  0.59067713  0.60976399  0.51880208  1
  Hf  Hf12  1  0.09213710  0.10422446  0.13234985  1
  Hf  Hf13  1  0.69433113  0.69705489  0.36995133  1
  Hf  Hf14  1  -0.00494326  0.18738266  -0.00782668  1
  Hf  Hf15  1  0.28428795  0.68789964  0.87519084  1
  Hf  Hf16  1  0.60106264  0.20648487  0.24531883  1
  Hf  Hf17  1  0.27762483  0.90923986  0.87454163  1
  Hf  Hf18  1  0.49941091  0.90910303  0.11425600  1
  Hf  Hf19  1  0.89828773  0.29130219  0.63385730  1
  Hf  Hf20  1  0.19567987  0.80427946  0.24097061  1
  Hf  Hf21  1  0.60067602  0.79765345  0.74505031  1
  Hf  Hf22  1  0.49237526  0.30351611  0.12271347  1
  Hf  Hf23  1  0.29498230  0.89751251  0.38887936  1
  Hf  Hf24  1  0.39227578  0.80031377  -0.00742320  1
  Hf  Hf25  1  0.09598940  0.49382079  0.61818616  1
  Hf  Hf26  1  0.39616755  0.80889456  0.25075080  1
  Hf  Hf27  1  0.60654672  0.21219237  0.75257305  1
  Hf  Hf28  1  0.69315964  0.10397471  0.38303144  1
  Hf  Hf29  1  0.80264795  0.80847118  0.49187935  1
  Hf  Hf30  1  0.38261607  0.02242878  0.75402502  1
  Hf  Hf31  1  0.09820779  0.50202311  0.38099697  1
  Hf  Hf32  1  0.00679060  0.60297143  0.75340285  1
  Hf  Hf33  1  0.28747389  0.11220861  0.12798818  1
  Hf  Hf34  1  0.71016139  0.10285620  0.61386148  1
  Hf  Hf35  1  0.49933823  0.68955884  0.87830535  1
  Hf  Hf36  1  0.50619974  0.71425596  0.36292036  1
  Hf  Hf37  1  0.50053819  0.90838947  0.87311063  1
  Hf  Hf38  1  0.00789032  0.80595447  0.74160969  1
  Hf  Hf39  1  0.69592913  0.89835704  0.12759632  1
  Zr  Zr40  1  0.89535693  0.90789745  0.13203045  1
  Zr  Zr41  1  0.50807898  0.50836991  0.37493477  1
  Zr  Zr42  1  0.00291458  0.79167467  0.24682895  1
  Zr  Zr43  1  0.49304564  0.91680433  0.63674870  1
  Zr  Zr44  1  0.40360728  0.19702308  0.25859813  1
  Zr  Zr45  1  0.12453095  0.08706140  0.88606102  1
  Zr  Zr46  1  0.60935853  0.01638276  0.74717563  1
  Zr  Zr47  1  0.71043265  0.70045165  0.63085681  1
  Zr  Zr48  1  0.11193202  0.69634925  0.39073880  1
  Zr  Zr49  1  0.20023237  0.60043875  0.24557748  1
  Zr  Zr50  1  0.00683298  0.18618406  0.75450685  1
  Zr  Zr51  1  0.80458724  0.59854946  0.24401373  1
  Zr  Zr52  1  0.01191423  0.39699976  -0.00419401  1
  Zr  Zr53  1  0.38706839  0.01090457  -0.00838217  1
  Zr  Zr54  1  0.40239465  0.59501335  0.74085673  1
  Zr  Zr55  1  0.81039016  0.20625332  0.48525309  1
  Zr  Zr56  1  0.21959736  0.18426713  0.73608655  1
  Zr  Zr57  1  0.61015380  0.79383909  -0.00549164  1
  Zr  Zr58  1  0.90145994  0.48354293  0.63970158  1
  Zr  Zr59  1  0.30471058  0.67969969  0.11919392  1
  Zr  Zr60  1  0.11599333  0.29836663  0.87040069  1
  Zr  Zr61  1  0.39167562  0.21513812  -0.00584402  1
  Zr  Zr62  1  0.89741841  0.69397461  0.63025596  1
  Zr  Zr63  1  0.90936041  0.28769772  0.13056872  1
  Zr  Zr64  1  0.68590151  0.89065419  0.36571897  1
  Zr  Zr65  1  0.80917443  0.58998907  0.48546074  1
  Zr  Zr66  1  0.79744638  0.20230733  0.24883687  1
  Zr  Zr67  1  0.90478054  0.49003326  0.11915029  1
  Zr  Zr68  1  0.49593144  0.69852883  0.12455057  1
  Zr  Zr69  1  -0.00409588  0.80246242  0.50591432  1
  Zr  Zr70  1  0.09759252  0.30191824  0.62847177  1
  Zr  Zr71  1  0.70209871  0.49714911  0.88643396  1
  Zr  Zr72  1  0.80189597  0.61130191  0.01112434  1
  Zr  Zr73  1  0.40510199  0.80017952  0.50951890  1
  Zr  Zr74  1  0.00485796  -0.00404005  0.26086236  1
  Zr  Zr75  1  0.69463831  0.09649044  0.11420518  1
  Zr  Zr76  1  0.22841520  0.40726511  -0.00471503  1
  Zr  Zr77  1  0.78136814  0.38326611  0.75924075  1
  Zr  Zr78  1  0.80890557  0.00663144  -0.01804152  1
  Zr  Zr79  1  0.90114783  0.30268386  0.86701905  1
  Ta  Ta80  1  0.19782712  0.60707781  0.72945617  1
  Ta  Ta81  1  0.20005417  0.39688893  0.49318768  1
  Ta  Ta82  1  0.00995808  0.60195443  0.00594592  1
  Ta  Ta83  1  0.10626666  0.90093382  0.39439390  1
  Ta  Ta84  1  0.40069007  0.40739916  0.26281484  1
  Ta  Ta85  1  0.09540934  0.89359681  0.88562749  1
  Ta  Ta86  1  0.50416827  0.10990882  0.88218769  1
  Ta  Ta87  1  0.89725250  0.09315685  0.62893335  1
  Ta  Ta88  1  0.50870133  0.30542079  0.37942072  1
  Ta  Ta89  1  0.29530935  0.09760663  0.38252540  1
  Ta  Ta90  1  0.59672437  0.80698768  0.51845818  1
  Ta  Ta91  1  0.80204406  0.80081924  -0.00614983  1
  Ta  Ta92  1  0.30513020  0.30176445  0.61951269  1
  Ta  Ta93  1  0.59876079  0.59217089  0.01283004  1
  Ta  Ta94  1  0.11228302  0.29643848  0.13094918  1
  Ta  Ta95  1  0.28671620  0.90947003  0.61745619  1
  Ta  Ta96  1  0.00186660  0.20072130  0.48435752  1
  Ta  Ta97  1  0.40278949  0.39398729  0.75279473  1
  Ta  Ta98  1  0.79864636  0.20272516  -0.00683305  1
  Ta  Ta99  1  0.60046691  0.59258736  0.74679218  1
  Ta  Ta100  1  0.20080014  0.20388282  0.49480323  1
  Ta  Ta101  1  0.11217261  0.49337316  0.12482586  1
  Ta  Ta102  1  0.39413307  0.00248681  0.25847633  1
  Ta  Ta103  1  0.30157305  0.30227992  0.37545050  1
  Ta  Ta104  1  -0.00032001  -0.00448952  0.00007323  1
  Ta  Ta105  1  0.49789020  0.49358093  0.88058602  1
  Ta  Ta106  1  0.60383873  0.39982799  0.23229523  1
  Ta  Ta107  1  0.29704146  0.51098097  0.38179161  1
  Ta  Ta108  1  0.29559843  0.49432627  0.62181443  1
  Ta  Ta109  1  0.40049807  0.20312110  0.49798949  1
  Ta  Ta110  1  -0.01216380  -0.00022686  0.48615618  1
  Ta  Ta111  1  0.11434472  0.50982690  0.87338622  1
  Ta  Ta112  1  -0.00957682  0.39069522  0.48010155  1
  Ta  Ta113  1  0.59626246  0.39752198  0.00632738  1
  Ta  Ta114  1  0.29714816  0.31064269  0.14199384  1
  Ta  Ta115  1  0.80042367  0.00229298  0.26106616  1
  Ta  Ta116  1  0.90722661  0.49946685  0.87756308  1
  Ta  Ta117  1  0.59423723  -0.00181816  0.50292450  1
  Ta  Ta118  1  0.50386283  0.30389932  0.61880179  1
  Ta  Ta119  1  0.00729266  0.39488362  0.25939739  1
  Ti  Ti120  1  0.20013763  -0.00365882  0.25249509  1
  Ti  Ti121  1  0.20514703  0.78633239  0.51944258  1
  Ti  Ti122  1  0.19371743  0.20490792  0.26825434  1
  Ti  Ti123  1  0.79202627  0.18061962  0.77214942  1
  Ti  Ti124  1  0.50224873  0.49123124  0.62669788  1
  Ti  Ti125  1  0.69198364  0.49529607  0.38283957  1
  Ti  Ti126  1  0.20190452  0.40113680  0.26225058  1
  Ti  Ti127  1  0.90345262  0.69785040  0.87470222  1
  Ti  Ti128  1  0.59265887  0.39695633  0.76091027  1
  Ti  Ti129  1  0.00077543  0.59755091  0.23806884  1
  Ti  Ti130  1  -0.00460757  0.59501126  0.50190091  1
  Ti  Ti131  1  0.90553558  0.10518800  0.36241328  1
  Ti  Ti132  1  0.47816352  0.49778271  0.12093730  1
  Ti  Ti133  1  0.80645518  -0.00272756  0.48126366  1
  Ti  Ti134  1  0.30559594  0.29656835  0.86080537  1
  Ti  Ti135  1  0.49689028  0.10028582  0.11279944  1
  Ti  Ti136  1  0.60189429  0.20588934  -0.00673864  1
  Ti  Ti137  1  0.68846931  0.30851549  0.38618907  1
  Ti  Ti138  1  0.38032620  0.57273460  -0.01175023  1
  Ti  Ti139  1  0.90587068  0.69545771  0.37012902  1
  Ti  Ti140  1  0.18475765  -0.01128154  0.73517713  1
  Ti  Ti141  1  0.69874504  0.30374870  0.60695999  1
  Ti  Ti142  1  0.80933409  0.39917715  0.48240005  1
  Ti  Ti143  1  0.41263333  0.20332373  0.74444847  1
  Ti  Ti144  1  0.10167835  0.70066820  0.88124757  1
  Ti  Ti145  1  0.49643124  0.10198248  0.38711665  1
  Ti  Ti146  1  0.71133714  0.91116849  0.62423333  1
  Ti  Ti147  1  0.20568918  0.40434147  0.74783941  1
  Ti  Ti148  1  -0.00483454  -0.00768518  0.75989944  1
  Ti  Ti149  1  0.29594990  0.91216959  0.12208410  1
  Ti  Ti150  1  0.69802066  0.91194820  0.87733474  1
  Ti  Ti151  1  0.10546253  0.09751433  0.38069357  1
  Ti  Ti152  1  0.80242082  0.79442028  0.24618821  1
  Ti  Ti153  1  0.30339104  0.09768909  0.60096375  1
  Ti  Ti154  1  0.18805788  0.79889572  0.73297714  1
  Ti  Ti155  1  0.79956734  0.59533365  0.76038782  1
  Ti  Ti156  1  0.89653369  0.91543643  0.62737819  1
  Ti  Ti157  1  0.59177336  0.20069392  0.50651331  1
  Ti  Ti158  1  0.40484225  0.00291993  0.49529763  1
  Ti  Ti159  1  0.70020809  0.69454854  0.87088562  1
  Mo  Mo160  1  0.89900531  0.69947846  0.12934107  1
  Mo  Mo161  1  0.79723711  0.39339073  0.00081672  1
  Mo  Mo162  1  0.49611863  0.11189849  0.61252363  1
  Mo  Mo163  1  0.60298014  0.39798789  0.50336692  1
  Mo  Mo164  1  0.90834720  0.89432532  0.87805479  1
  Mo  Mo165  1  0.70143896  0.70454374  0.13178325  1
  Mo  Mo166  1  0.01022992  0.40593701  0.76796190  1
  Mo  Mo167  1  0.69567231  0.29749125  0.89269175  1
  Mo  Mo168  1  0.90403846  0.30012917  0.36228080  1
  Mo  Mo169  1  0.19328631  -0.00132469  0.01779436  1
  Mo  Mo170  1  0.19736281  0.00075371  0.49790297  1
  Mo  Mo171  1  0.20091764  0.20774121  0.00962277  1
  Mo  Mo172  1  0.40325413  0.40132165  -0.01468447  1
  Mo  Mo173  1  0.60032646  0.79984653  0.23385865  1
  Mo  Mo174  1  0.80667285  0.00131660  0.75840244  1
  Mo  Mo175  1  0.19479530  0.59327482  0.00579374  1
  Mo  Mo176  1  0.49592546  0.90875210  0.38132501  1
  Mo  Mo177  1  0.10182048  0.90548514  0.11733093  1
  Mo  Mo178  1  0.89780554  0.89974506  0.36626690  1
  Mo  Mo179  1  0.50403659  0.70148404  0.64178859  1
  Mo  Mo180  1  0.70057905  0.30356001  0.10698726  1
  Mo  Mo181  1  0.09994427  0.69582936  0.61320667  1
  Mo  Mo182  1  0.50245373  0.30353683  0.87311992  1
  Mo  Mo183  1  0.09654937  0.69043180  0.12277341  1
  Mo  Mo184  1  0.20247390  0.59872957  0.51486772  1
  Mo  Mo185  1  0.30698282  0.48928652  0.14118181  1
  Mo  Mo186  1  0.89888840  0.09988661  0.13865937  1
  Mo  Mo187  1  0.59790453  0.00775030  -0.01113388  1
  Mo  Mo188  1  0.10518843  0.29846721  0.37299603  1
  Mo  Mo189  1  0.90763228  0.50122056  0.36535772  1
  Mo  Mo190  1  0.29779845  0.49852260  0.84807890  1
  Mo  Mo191  1  0.69605487  0.10172893  0.88576840  1
  Mo  Mo192  1  0.90398747  0.09387336  0.86012480  1
  Mo  Mo193  1  0.29952890  0.11069777  0.87913325  1
  Mo  Mo194  1  0.30404218  0.69718926  0.36874570  1
  Mo  Mo195  1  0.69890146  0.49350165  0.11061696  1
  Mo  Mo196  1  0.09631109  0.90130815  0.61066584  1
  Mo  Mo197  1  0.39843776  0.59890233  0.26544434  1
  Mo  Mo198  1  0.29723069  0.70520869  0.63775472  1
  Mo  Mo199  1  0.00867082  0.20143590  0.26729064  1
