# generated using pymatgen
data_HfZrTaTiMo
_symmetry_space_group_name_H-M   'P 1'
_cell_length_a   15.82458869
_cell_length_b   15.83995909
_cell_length_c   15.40113462
_cell_angle_alpha   90.00635860
_cell_angle_beta   90.03185349
_cell_angle_gamma   89.87374058
_symmetry_Int_Tables_number   1
_chemical_formula_structural   HfZrTaTiMo
_chemical_formula_sum   'Hf40 Zr40 Ta40 Ti40 Mo40'
_cell_volume   3860.45130926
_cell_formula_units_Z   40
loop_
 _symmetry_equiv_pos_site_id
 _symmetry_equiv_pos_as_xyz
  1  'x, y, z'
loop_
 _atom_site_type_symbol
 _atom_site_label
 _atom_site_symmetry_multiplicity
 _atom_site_fract_x
 _atom_site_fract_y
 _atom_site_fract_z
 _atom_site_occupancy
  Hf  Hf0  1  0.69412592  0.28495236  0.62009706  1
  Hf  Hf1  1  0.70047582  0.69812974  0.62587232  1
  Hf  Hf2  1  0.88346377  0.11175836  0.88069364  1
  Hf  Hf3  1  0.90117230  0.30674228  0.36666936  1
  Hf  Hf4  1  0.81174767  0.38888494  0.74255529  1
  Hf  Hf5  1  0.59041197  -0.00508964  0.23317456  1
  Hf  Hf6  1  0.89535373  0.90506668  0.37026562  1
  Hf  Hf7  1  0.00362129  0.79772149  0.25735434  1
  Hf  Hf8  1  0.70688425  0.28193928  0.89104161  1
  Hf  Hf9  1  0.89114141  0.10117736  0.13641768  1
  Hf  Hf10  1  0.37762140  0.41128793  0.48022042  1
  Hf  Hf11  1  0.40799057  0.20900963  0.76377439  1
  Hf  Hf12  1  0.39633351  0.20145866  0.25090398  1
  Hf  Hf13  1  0.08911303  0.49824566  0.88450831  1
  Hf  Hf14  1  0.59054387  0.38933888  0.75909642  1
  Hf  Hf15  1  0.21566414  0.81006849  0.25810389  1
  Hf  Hf16  1  0.80429365  0.39604986  0.50020613  1
  Hf  Hf17  1  0.69540970  0.69954078  0.87390615  1
  Hf  Hf18  1  0.20489700  0.77623006  0.75817367  1
  Hf  Hf19  1  0.69368141  0.09178738  0.37504240  1
  Hf  Hf20  1  0.19169677  0.21879422  0.49461595  1
  Hf  Hf21  1  0.39414273  0.20420195  0.48928328  1
  Hf  Hf22  1  0.60487750  0.79427175  0.24504411  1
  Hf  Hf23  1  0.21043792  0.59011192  0.75838546  1
  Hf  Hf24  1  0.40620052  -0.00536512  0.50879224  1
  Hf  Hf25  1  -0.00103225  -0.00254920  0.00850609  1
  Hf  Hf26  1  0.61499445  0.38349449  0.24680320  1
  Hf  Hf27  1  0.70248305  0.50009543  0.37102905  1
  Hf  Hf28  1  0.50071587  0.29040879  0.11675191  1
  Hf  Hf29  1  0.71463040  0.48943827  0.12294060  1
  Hf  Hf30  1  0.29897293  0.10277159  0.11755789  1
  Hf  Hf31  1  0.11019718  0.68885393  0.37229202  1
  Hf  Hf32  1  0.89427170  0.70549084  0.12670183  1
  Hf  Hf33  1  0.09798073  0.88623787  0.64464585  1
  Hf  Hf34  1  0.40663709  -0.00239465  0.74162942  1
  Hf  Hf35  1  0.49782324  0.50315528  0.35399696  1
  Hf  Hf36  1  0.00502033  0.20571728  0.02032812  1
  Hf  Hf37  1  0.90007951  0.50279272  0.12833022  1
  Hf  Hf38  1  0.89396270  0.89981999  0.62278143  1
  Hf  Hf39  1  0.10716679  0.49838573  0.36558948  1
  Zr  Zr40  1  0.90609752  0.89228597  0.87157397  1
  Zr  Zr41  1  0.50189389  0.50584046  0.89355664  1
  Zr  Zr42  1  0.70564528  0.49459156  0.87898767  1
  Zr  Zr43  1  0.11727239  0.49531336  0.12971974  1
  Zr  Zr44  1  0.69099869  0.50332868  0.63033407  1
  Zr  Zr45  1  0.69420792  0.11902586  0.11769315  1
  Zr  Zr46  1  0.40279636  0.79635377  0.49188539  1
  Zr  Zr47  1  0.81289417  0.60274325  0.75890412  1
  Zr  Zr48  1  0.90743742  0.50296865  0.61592377  1
  Zr  Zr49  1  0.40627561  0.79898899  0.24897555  1
  Zr  Zr50  1  0.19736687  0.21619542  -0.00189032  1
  Zr  Zr51  1  0.09537477  0.10062456  0.36349797  1
  Zr  Zr52  1  0.79993183  0.80370171  0.75491265  1
  Zr  Zr53  1  0.10470208  0.09549462  0.62939768  1
  Zr  Zr54  1  0.38844044  -0.01461493  0.23852092  1
  Zr  Zr55  1  0.90853828  0.30984337  0.88416273  1
  Zr  Zr56  1  -0.01293230  0.00823557  0.74829763  1
  Zr  Zr57  1  0.01403081  0.80606640  0.48494625  1
  Zr  Zr58  1  0.49196210  0.30536160  0.61904401  1
  Zr  Zr59  1  0.59029683  0.40559402  0.49748490  1
  Zr  Zr60  1  0.38631661  0.41077578  0.77222150  1
  Zr  Zr61  1  0.29106923  0.09124297  0.37196607  1
  Zr  Zr62  1  0.29558745  0.10070413  0.62604030  1
  Zr  Zr63  1  0.49900306  0.90025897  0.88364687  1
  Zr  Zr64  1  0.49419937  0.48923281  0.12146413  1
  Zr  Zr65  1  0.60044333  0.80186936  0.50104530  1
  Zr  Zr66  1  0.19747195  -0.00450379  0.00333968  1
  Zr  Zr67  1  0.28798133  0.31863873  0.62651971  1
  Zr  Zr68  1  0.50930776  0.09749834  0.89026103  1
  Zr  Zr69  1  0.19892525  0.20695974  0.76287430  1
  Zr  Zr70  1  0.60616141  -0.00061953  0.73198187  1
  Zr  Zr71  1  0.01622165  0.61151205  0.74094926  1
  Zr  Zr72  1  0.09112140  0.10321869  0.87103559  1
  Zr  Zr73  1  0.90941512  0.70659163  0.60774564  1
  Zr  Zr74  1  0.87259034  0.30845216  0.12684584  1
  Zr  Zr75  1  0.79318628  -0.00737735  0.00201950  1
  Zr  Zr76  1  0.61065422  0.80345004  0.01098480  1
  Zr  Zr77  1  0.29265856  0.89534155  0.63216886  1
  Zr  Zr78  1  -0.00131276  0.00368388  0.49756458  1
  Zr  Zr79  1  -0.00640436  0.20861191  0.50538376  1
  Ta  Ta80  1  0.49642489  0.70166983  0.89047025  1
  Ta  Ta81  1  0.01872916  0.39749138  0.50921353  1
  Ta  Ta82  1  0.49746730  0.09282764  0.37537323  1
  Ta  Ta83  1  0.10324764  0.89927818  0.13738415  1
  Ta  Ta84  1  0.89155073  0.10452996  0.36299859  1
  Ta  Ta85  1  0.10190832  0.89491768  0.86297198  1
  Ta  Ta86  1  0.48282100  0.51148130  0.63219087  1
  Ta  Ta87  1  0.71232441  0.89074802  0.13418153  1
  Ta  Ta88  1  -0.00144164  0.20502399  0.24092369  1
  Ta  Ta89  1  0.79288924  -0.00156244  0.25071076  1
  Ta  Ta90  1  0.30629632  0.68502918  0.61686119  1
  Ta  Ta91  1  0.30081696  0.89806906  0.87524151  1
  Ta  Ta92  1  0.79960105  0.60557326  0.25928214  1
  Ta  Ta93  1  0.59584869  0.19726247  0.48400631  1
  Ta  Ta94  1  0.30585202  0.09193379  0.88071609  1
  Ta  Ta95  1  0.30118221  0.70061268  0.11334521  1
  Ta  Ta96  1  0.39251332  0.60922477  0.77031538  1
  Ta  Ta97  1  0.60780511  0.60642320  0.23330499  1
  Ta  Ta98  1  0.40484499  0.59735187  0.49103900  1
  Ta  Ta99  1  0.49513697  0.30187851  0.36831374  1
  Ta  Ta100  1  0.79032083  -0.00140980  0.50181113  1
  Ta  Ta101  1  0.10653738  0.70412126  0.12204267  1
  Ta  Ta102  1  0.88315509  0.10782726  0.62051269  1
  Ta  Ta103  1  0.39714723  0.60022336  0.23444428  1
  Ta  Ta104  1  0.20482898  0.79179858  0.49301741  1
  Ta  Ta105  1  -0.01124073  0.21968904  0.73553829  1
  Ta  Ta106  1  0.40297839  0.79003924  0.75270588  1
  Ta  Ta107  1  0.91079067  0.50382627  0.37441620  1
  Ta  Ta108  1  0.90300620  0.69085177  0.38134273  1
  Ta  Ta109  1  0.60782886  0.60259681  0.01456701  1
  Ta  Ta110  1  0.19049887  0.40367861  0.76648218  1
  Ta  Ta111  1  0.20509520  0.60204507  -0.00384863  1
  Ta  Ta112  1  0.59396940  0.19639696  0.25970814  1
  Ta  Ta113  1  0.49793057  0.69888830  0.11495911  1
  Ta  Ta114  1  0.01013583  0.39656004  0.01682906  1
  Ta  Ta115  1  0.00160986  0.60417976  0.01027553  1
  Ta  Ta116  1  0.09309007  0.70525388  0.89107098  1
  Ta  Ta117  1  0.89899674  0.89759242  0.13771670  1
  Ta  Ta118  1  0.10152500  0.30653611  0.35652180  1
  Ta  Ta119  1  0.59305661  0.80222551  0.74189133  1
  Ti  Ti120  1  0.29696435  0.32134886  0.13462171  1
  Ti  Ti121  1  0.19246646  -0.02006192  0.48588069  1
  Ti  Ti122  1  0.50301451  0.90628776  0.37573018  1
  Ti  Ti123  1  0.78494656  0.00705262  0.74068440  1
  Ti  Ti124  1  0.39557312  0.20810440  -0.01041116  1
  Ti  Ti125  1  0.69457149  0.89970529  0.37135398  1
  Ti  Ti126  1  0.19891460  0.80125910  -0.00154072  1
  Ti  Ti127  1  0.50719613  0.11179443  0.61860246  1
  Ti  Ti128  1  0.79274954  0.80017687  0.48881136  1
  Ti  Ti129  1  0.00331156  0.39820114  0.23862673  1
  Ti  Ti130  1  0.00128115  -0.00097748  0.24909426  1
  Ti  Ti131  1  0.59513110  0.60338205  0.49850471  1
  Ti  Ti132  1  0.20226781  0.39681734  -0.01194799  1
  Ti  Ti133  1  0.38810353  0.39642771  -0.00937339  1
  Ti  Ti134  1  0.60549131  0.39046426  0.00153978  1
  Ti  Ti135  1  0.21340834  0.58059546  0.50557447  1
  Ti  Ti136  1  0.69540784  0.90681898  0.87226651  1
  Ti  Ti137  1  0.79471856  0.79086849  0.26393090  1
  Ti  Ti138  1  0.39541633  0.80622841  0.00554498  1
  Ti  Ti139  1  0.90589694  0.50227606  0.88348995  1
  Ti  Ti140  1  0.79189347  0.19216543  0.74361983  1
  Ti  Ti141  1  0.19867235  0.20853781  0.24389804  1
  Ti  Ti142  1  0.21369494  0.60154375  0.23693720  1
  Ti  Ti143  1  0.79558271  0.60462042  0.48919598  1
  Ti  Ti144  1  0.00245543  0.80422380  0.00892463  1
  Ti  Ti145  1  0.30617045  0.68775879  0.37530852  1
  Ti  Ti146  1  0.10348457  0.09785180  0.13847907  1
  Ti  Ti147  1  0.77935300  0.21734391  0.26094095  1
  Ti  Ti148  1  0.60063786  -0.00477640  0.01473596  1
  Ti  Ti149  1  0.50743018  0.69284384  0.36523310  1
  Ti  Ti150  1  0.58629267  0.60421591  0.75529243  1
  Ti  Ti151  1  0.80470306  0.79673350  -0.00460787  1
  Ti  Ti152  1  0.60041000  -0.00485297  0.51591965  1
  Ti  Ti153  1  0.79519841  0.19727844  0.49145522  1
  Ti  Ti154  1  0.60467880  0.19076239  0.75961673  1
  Ti  Ti155  1  0.49223969  0.09885851  0.11127802  1
  Ti  Ti156  1  0.49614018  0.69609631  0.62820070  1
  Ti  Ti157  1  0.00201722  0.60343088  0.24249856  1
  Ti  Ti158  1  0.02019573  0.59674360  0.50772936  1
  Ti  Ti159  1  0.80431461  0.60453182  -0.00398749  1
  Mo  Mo160  1  0.50096662  0.89865320  0.11174076  1
  Mo  Mo161  1  0.00524482  0.40468187  0.73189565  1
  Mo  Mo162  1  0.30537975  0.50526456  0.62663242  1
  Mo  Mo163  1  0.11757989  0.69302709  0.60633893  1
  Mo  Mo164  1  0.80711060  0.40814888  -0.01302448  1
  Mo  Mo165  1  0.69639957  0.10214289  0.60709027  1
  Mo  Mo166  1  0.50227577  0.29922008  0.89363039  1
  Mo  Mo167  1  0.70912375  0.69509221  0.12287535  1
  Mo  Mo168  1  0.19609710  -0.00026149  0.23912293  1
  Mo  Mo169  1  0.29821291  0.30059436  0.87774836  1
  Mo  Mo170  1  0.90669598  0.69651635  0.89742190  1
  Mo  Mo171  1  0.69991575  0.69538531  0.37976565  1
  Mo  Mo172  1  0.09256514  0.30865036  0.86594191  1
  Mo  Mo173  1  0.30396289  0.70488350  0.89519130  1
  Mo  Mo174  1  0.21305516  0.40208062  0.25817511  1
  Mo  Mo175  1  0.10811820  0.90309218  0.35790813  1
  Mo  Mo176  1  0.49908312  0.88913449  0.62994677  1
  Mo  Mo177  1  0.69706003  0.29408566  0.38820321  1
  Mo  Mo178  1  0.80323504  0.40520474  0.26950283  1
  Mo  Mo179  1  0.39814008  -0.00413873  0.00882663  1
  Mo  Mo180  1  0.29547198  0.30329362  0.36004188  1
  Mo  Mo181  1  0.20494261  -0.00608975  0.77186821  1
  Mo  Mo182  1  0.70209498  0.89719760  0.61938227  1
  Mo  Mo183  1  0.29665526  0.50319783  0.89807558  1
  Mo  Mo184  1  0.59461328  0.19857110  -0.00354352  1
  Mo  Mo185  1  0.30214654  0.89799258  0.38999246  1
  Mo  Mo186  1  0.89405243  0.29745777  0.61771617  1
  Mo  Mo187  1  0.80115608  0.19891043  0.00373579  1
  Mo  Mo188  1  0.30379956  0.49976224  0.11487465  1
  Mo  Mo189  1  0.11875748  0.49232318  0.61801922  1
  Mo  Mo190  1  0.29932597  0.51141341  0.35689775  1
  Mo  Mo191  1  0.39984860  0.60419895  0.00666357  1
  Mo  Mo192  1  0.19536092  0.40347458  0.48312190  1
  Mo  Mo193  1  0.69880891  0.09140850  0.88355227  1
  Mo  Mo194  1  0.69603099  0.30277168  0.11349054  1
  Mo  Mo195  1  0.29479269  0.89376907  0.10485667  1
  Mo  Mo196  1  0.09711501  0.30809813  0.63778016  1
  Mo  Mo197  1  0.10636070  0.30233805  0.14265914  1
  Mo  Mo198  1  0.00668936  0.79189623  0.75386987  1
  Mo  Mo199  1  0.39924445  0.39967226  0.25344088  1
