# generated using pymatgen
data_HfZrTaTiMo
_symmetry_space_group_name_H-M   'P 1'
_cell_length_a   15.83675422
_cell_length_b   15.84626923
_cell_length_c   15.38390366
_cell_angle_alpha   89.99236575
_cell_angle_beta   89.97954974
_cell_angle_gamma   90.01525053
_symmetry_Int_Tables_number   1
_chemical_formula_structural   HfZrTaTiMo
_chemical_formula_sum   'Hf40 Zr40 Ta40 Ti40 Mo40'
_cell_volume   3860.64360467
_cell_formula_units_Z   40
loop_
 _symmetry_equiv_pos_site_id
 _symmetry_equiv_pos_as_xyz
  1  'x, y, z'
loop_
 _atom_site_type_symbol
 _atom_site_label
 _atom_site_symmetry_multiplicity
 _atom_site_fract_x
 _atom_site_fract_y
 _atom_site_fract_z
 _atom_site_occupancy
  Hf  Hf0  1  0.49562955  0.89236272  0.13374888  1
  Hf  Hf1  1  0.40175666  0.60818194  0.24618017  1
  Hf  Hf2  1  0.10849811  0.89656711  0.88119226  1
  Hf  Hf3  1  -0.00703611  0.79602084  0.77159374  1
  Hf  Hf4  1  0.00232715  0.00591538  0.24846270  1
  Hf  Hf5  1  0.29547022  0.49083467  0.36112056  1
  Hf  Hf6  1  0.20044217  0.60937489  -0.00860667  1
  Hf  Hf7  1  0.40464107  0.20017076  0.51512732  1
  Hf  Hf8  1  0.79171941  0.79181044  0.49045293  1
  Hf  Hf9  1  -0.00948365  -0.00562687  -0.00595540  1
  Hf  Hf10  1  -0.00751820  0.39208177  -0.00905943  1
  Hf  Hf11  1  0.59913400  0.78685673  0.76810412  1
  Hf  Hf12  1  0.29685191  0.49509332  0.11916665  1
  Hf  Hf13  1  0.49701591  0.70807087  0.62705062  1
  Hf  Hf14  1  0.79698220  0.59467713  0.51135677  1
  Hf  Hf15  1  -0.00436201  0.80037407  0.24022024  1
  Hf  Hf16  1  0.09775495  0.49485249  0.36387503  1
  Hf  Hf17  1  0.30136336  0.69490209  0.64681355  1
  Hf  Hf18  1  0.49515582  0.10267603  0.37209563  1
  Hf  Hf19  1  0.29795099  0.88304222  0.64050554  1
  Hf  Hf20  1  0.50043721  0.49229868  0.36822043  1
  Hf  Hf21  1  0.10213184  0.29785108  0.38403215  1
  Hf  Hf22  1  0.90468662  0.49807880  0.36930448  1
  Hf  Hf23  1  0.20696260  0.19845625  0.51365030  1
  Hf  Hf24  1  0.39632931  0.79995122  0.47861692  1
  Hf  Hf25  1  0.50271955  0.52013770  0.62594494  1
  Hf  Hf26  1  0.39781747  0.39736924  0.51047788  1
  Hf  Hf27  1  0.10290371  0.70628599  0.63012890  1
  Hf  Hf28  1  0.19939592  0.61429326  0.24055584  1
  Hf  Hf29  1  0.29809682  0.09964433  0.87777635  1
  Hf  Hf30  1  0.39305258  0.60838476  0.48083876  1
  Hf  Hf31  1  0.70873996  0.50307682  0.89760773  1
  Hf  Hf32  1  0.70802916  0.91181625  0.86185401  1
  Hf  Hf33  1  0.50154779  0.10476616  0.87785327  1
  Hf  Hf34  1  0.80120931  0.80480166  -0.01030568  1
  Hf  Hf35  1  -0.00757818  0.00153360  0.74469904  1
  Hf  Hf36  1  0.69662087  0.88782707  0.62691600  1
  Hf  Hf37  1  0.59364943  0.00384529  0.73760346  1
  Hf  Hf38  1  0.60075789  -0.00242152  0.49700896  1
  Hf  Hf39  1  0.39710117  0.00782759  0.73415877  1
  Zr  Zr40  1  0.48832194  0.90031340  0.87605974  1
  Zr  Zr41  1  0.10406617  0.49019479  0.11505127  1
  Zr  Zr42  1  0.09030664  0.70189832  0.36654306  1
  Zr  Zr43  1  0.90167452  0.30243896  0.39318441  1
  Zr  Zr44  1  0.61039288  0.41278952  0.74172796  1
  Zr  Zr45  1  0.19889090  0.19153936  0.24829381  1
  Zr  Zr46  1  0.10147315  0.90397090  0.37502041  1
  Zr  Zr47  1  0.51398892  0.49414474  0.12198668  1
  Zr  Zr48  1  -0.00406487  0.19677463  -0.00548838  1
  Zr  Zr49  1  0.40590031  0.40498009  0.75608058  1
  Zr  Zr50  1  -0.00990225  0.60050833  0.77217951  1
  Zr  Zr51  1  0.60737527  0.60304816  0.24468302  1
  Zr  Zr52  1  0.69851693  0.89735987  0.13328732  1
  Zr  Zr53  1  0.39147364  0.20137448  0.24354783  1
  Zr  Zr54  1  0.00135249  0.40158351  0.75382518  1
  Zr  Zr55  1  0.79872339  0.60658497  0.23665219  1
  Zr  Zr56  1  0.70990636  0.32675380  0.13741830  1
  Zr  Zr57  1  0.80211128  0.20413958  0.00508866  1
  Zr  Zr58  1  0.40482584  0.39876696  -0.00833043  1
  Zr  Zr59  1  0.71039233  0.09685887  0.13821374  1
  Zr  Zr60  1  0.40390226  0.60676759  -0.00886397  1
  Zr  Zr61  1  0.50637994  0.09273991  0.13913539  1
  Zr  Zr62  1  0.20500972  0.79617682  0.48931983  1
  Zr  Zr63  1  0.70312695  0.29817317  0.86420853  1
  Zr  Zr64  1  0.29819241  0.51045522  0.64310048  1
  Zr  Zr65  1  0.00073303  0.59886033  0.50744190  1
  Zr  Zr66  1  0.11165526  0.50799310  0.64188359  1
  Zr  Zr67  1  0.79416251  0.60140804  0.74945713  1
  Zr  Zr68  1  0.60198514  0.40013992  0.51367124  1
  Zr  Zr69  1  0.01008727  0.19164792  0.73905801  1
  Zr  Zr70  1  0.50477218  0.29272126  0.86577992  1
  Zr  Zr71  1  -0.00526752  0.38297754  0.23340013  1
  Zr  Zr72  1  0.70605188  0.49138032  0.37217988  1
  Zr  Zr73  1  0.49491009  0.90377709  0.36530658  1
  Zr  Zr74  1  0.60548623  0.20029861  0.50234259  1
  Zr  Zr75  1  0.60458364  0.00379922  -0.00042601  1
  Zr  Zr76  1  0.89130503  0.90038681  0.62179157  1
  Zr  Zr77  1  0.18960114  0.00636088  0.73802991  1
  Zr  Zr78  1  0.81703700  0.20188082  0.25545102  1
  Zr  Zr79  1  0.40295601  0.19684727  0.01608568  1
  Ta  Ta80  1  0.09998588  0.09890679  0.39090311  1
  Ta  Ta81  1  0.91147092  0.09756337  0.39012339  1
  Ta  Ta82  1  0.80396485  0.19487088  0.73305990  1
  Ta  Ta83  1  0.70451924  0.30245405  0.37267781  1
  Ta  Ta84  1  0.39173941  -0.00084922  0.50942777  1
  Ta  Ta85  1  0.40053981  0.38808830  0.23493077  1
  Ta  Ta86  1  0.88115782  0.48670227  0.11330171  1
  Ta  Ta87  1  0.90585232  0.89542005  0.38448938  1
  Ta  Ta88  1  0.20181884  0.40334524  0.50453078  1
  Ta  Ta89  1  -0.00905738  0.59907715  -0.00202141  1
  Ta  Ta90  1  0.20406331  -0.00218497  0.51122445  1
  Ta  Ta91  1  0.60357793  0.78850226  0.26234958  1
  Ta  Ta92  1  0.10473625  0.09721636  0.11310697  1
  Ta  Ta93  1  0.80661304  -0.00276566  0.27205752  1
  Ta  Ta94  1  0.69908677  0.10887360  0.86031229  1
  Ta  Ta95  1  0.79772935  0.79857496  0.25678860  1
  Ta  Ta96  1  0.90115047  0.70630154  0.62274367  1
  Ta  Ta97  1  0.50158665  0.70924808  0.11806653  1
  Ta  Ta98  1  0.00426392  0.40275610  0.51902885  1
  Ta  Ta99  1  0.39128220  -0.00413056  0.01452841  1
  Ta  Ta100  1  0.29764463  0.89372868  0.87606548  1
  Ta  Ta101  1  0.60093329  0.79571896  -0.00845324  1
  Ta  Ta102  1  0.29463840  0.29115867  0.87418866  1
  Ta  Ta103  1  0.20483678  0.59946350  0.48769295  1
  Ta  Ta104  1  0.71164260  0.08952915  0.62504612  1
  Ta  Ta105  1  0.88682716  0.09681341  0.86463835  1
  Ta  Ta106  1  0.37979386  0.00072391  0.24258347  1
  Ta  Ta107  1  0.59951786  0.61737342  0.48259817  1
  Ta  Ta108  1  0.00315251  0.19747462  0.51805051  1
  Ta  Ta109  1  0.28691551  0.29983252  0.10488011  1
  Ta  Ta110  1  0.89366524  0.29805357  0.85532168  1
  Ta  Ta111  1  0.89972625  0.30159818  0.62696683  1
  Ta  Ta112  1  0.89608123  0.70580740  0.11421944  1
  Ta  Ta113  1  0.89370608  0.90405988  0.13005774  1
  Ta  Ta114  1  0.09812194  0.70939202  0.11139110  1
  Ta  Ta115  1  0.60370741  0.20743040  0.01662395  1
  Ta  Ta116  1  0.60483090  0.20779652  0.25425385  1
  Ta  Ta117  1  0.49743091  0.88982988  0.62051838  1
  Ta  Ta118  1  -0.00529522  0.59914157  0.22387230  1
  Ta  Ta119  1  0.59734012  0.19839806  0.72202218  1
  Ti  Ti120  1  0.60178512  0.39598940  -0.00212217  1
  Ti  Ti121  1  0.19364844  0.61857243  0.78336130  1
  Ti  Ti122  1  0.90346684  0.09656363  0.12704133  1
  Ti  Ti123  1  0.69921216  0.89440058  0.37543777  1
  Ti  Ti124  1  0.80335073  0.40501780  0.51919383  1
  Ti  Ti125  1  0.20381084  0.19410173  0.73738495  1
  Ti  Ti126  1  0.10554959  0.29138213  0.10775245  1
  Ti  Ti127  1  0.09984251  0.89859665  0.11794849  1
  Ti  Ti128  1  0.40377747  0.19760018  0.72892773  1
  Ti  Ti129  1  0.80304425  0.78905124  0.76490157  1
  Ti  Ti130  1  0.00759675  0.19435244  0.24561416  1
  Ti  Ti131  1  0.30167160  0.71563799  0.11630532  1
  Ti  Ti132  1  0.61116982  0.00253279  0.26586494  1
  Ti  Ti133  1  -0.00523260  0.79969692  -0.00722215  1
  Ti  Ti134  1  0.11049653  0.29102037  0.87753964  1
  Ti  Ti135  1  0.10225221  0.49571548  0.88358554  1
  Ti  Ti136  1  0.20064364  0.39670364  0.76443641  1
  Ti  Ti137  1  0.19927146  -0.00211943  0.24452833  1
  Ti  Ti138  1  0.59901701  0.60213531  0.77498228  1
  Ti  Ti139  1  0.38390789  0.79860119  0.25980534  1
  Ti  Ti140  1  0.68888482  0.69663740  0.62408907  1
  Ti  Ti141  1  0.29440623  0.09116877  0.38217960  1
  Ti  Ti142  1  0.70749679  0.30087330  0.62747149  1
  Ti  Ti143  1  0.41198256  0.61151572  0.78101777  1
  Ti  Ti144  1  0.20221532  0.38392678  0.24480140  1
  Ti  Ti145  1  0.80287279  0.00354579  -0.00531404  1
  Ti  Ti146  1  0.09499679  0.88995503  0.62367942  1
  Ti  Ti147  1  0.50223698  0.30379981  0.36661888  1
  Ti  Ti148  1  0.90193589  0.69891782  0.37499337  1
  Ti  Ti149  1  0.30347262  0.30010404  0.37764839  1
  Ti  Ti150  1  0.29862370  0.49909689  0.87328772  1
  Ti  Ti151  1  0.10735719  0.30502336  0.62808740  1
  Ti  Ti152  1  0.29754143  0.30714067  0.63931228  1
  Ti  Ti153  1  0.79681685  0.00363471  0.48459853  1
  Ti  Ti154  1  0.10403600  0.10106753  0.88398642  1
  Ti  Ti155  1  0.00210895  -0.00080861  0.51160866  1
  Ti  Ti156  1  0.20303477  -0.00044795  0.00600110  1
  Ti  Ti157  1  0.80692443  0.41446747  0.73823199  1
  Ti  Ti158  1  0.29255750  0.89513605  0.12377762  1
  Ti  Ti159  1  0.80138391  0.19475106  0.50487755  1
  Mo  Mo160  1  0.59821325  0.39385529  0.25733506  1
  Mo  Mo161  1  0.90418218  0.29464385  0.12493447  1
  Mo  Mo162  1  0.59750375  0.79681020  0.48711203  1
  Mo  Mo163  1  0.89985083  0.49944272  0.62370629  1
  Mo  Mo164  1  0.89582377  0.49435086  0.89035154  1
  Mo  Mo165  1  0.20125619  0.80731070  0.01135319  1
  Mo  Mo166  1  0.70383105  0.70057313  0.37845830  1
  Mo  Mo167  1  0.50080414  0.70172274  0.89112604  1
  Mo  Mo168  1  0.09729368  0.70316216  0.89669159  1
  Mo  Mo169  1  0.49809043  0.30266558  0.63626251  1
  Mo  Mo170  1  0.89529626  0.09871691  0.60644509  1
  Mo  Mo171  1  0.19375976  0.79833020  0.75942484  1
  Mo  Mo172  1  0.19867537  0.80826942  0.23204718  1
  Mo  Mo173  1  0.80511616  0.39472224  -0.01164609  1
  Mo  Mo174  1  0.39656567  0.80619805  0.00241247  1
  Mo  Mo175  1  0.29089769  0.09228383  0.11549921  1
  Mo  Mo176  1  0.70694398  0.10201524  0.37220141  1
  Mo  Mo177  1  0.80309790  0.40441307  0.25764734  1
  Mo  Mo178  1  0.69537757  0.50971470  0.62028250  1
  Mo  Mo179  1  0.50349299  0.09457984  0.60977573  1
  Mo  Mo180  1  0.89417192  0.69551720  0.89521743  1
  Mo  Mo181  1  0.50619376  0.29953482  0.13159491  1
  Mo  Mo182  1  0.40089580  0.79824634  0.76402931  1
  Mo  Mo183  1  0.29986218  0.09992263  0.62702975  1
  Mo  Mo184  1  0.70049162  0.69871981  0.88759823  1
  Mo  Mo185  1  0.29215904  0.70176552  0.35728685  1
  Mo  Mo186  1  0.29874999  0.71547715  0.87122076  1
  Mo  Mo187  1  0.09958453  0.09444541  0.60943097  1
  Mo  Mo188  1  0.79912405  0.60350848  0.01419018  1
  Mo  Mo189  1  0.60451237  0.60647428  0.00549919  1
  Mo  Mo190  1  0.19730293  0.19522026  -0.00419921  1
  Mo  Mo191  1  0.79822473  0.00215859  0.74778220  1
  Mo  Mo192  1  0.69621732  0.70558573  0.11018357  1
  Mo  Mo193  1  0.49876619  0.70162162  0.36294945  1
  Mo  Mo194  1  0.89852280  0.90402480  0.86928421  1
  Mo  Mo195  1  0.50965056  0.50286949  0.88162088  1
  Mo  Mo196  1  0.70100976  0.50375775  0.11123944  1
  Mo  Mo197  1  -0.00607933  0.79971494  0.50258134  1
  Mo  Mo198  1  0.29410186  0.91037495  0.36241222  1
  Mo  Mo199  1  0.19869791  0.39604867  -0.02252817  1
