# generated using pymatgen
data_HfZrTaTiMo
_symmetry_space_group_name_H-M   'P 1'
_cell_length_a   15.83751513
_cell_length_b   15.83386060
_cell_length_c   15.40055481
_cell_angle_alpha   90.04405950
_cell_angle_beta   89.96693578
_cell_angle_gamma   90.04289883
_symmetry_Int_Tables_number   1
_chemical_formula_structural   HfZrTaTiMo
_chemical_formula_sum   'Hf40 Zr40 Ta40 Ti40 Mo40'
_cell_volume   3861.97896665
_cell_formula_units_Z   40
loop_
 _symmetry_equiv_pos_site_id
 _symmetry_equiv_pos_as_xyz
  1  'x, y, z'
loop_
 _atom_site_type_symbol
 _atom_site_label
 _atom_site_symmetry_multiplicity
 _atom_site_fract_x
 _atom_site_fract_y
 _atom_site_fract_z
 _atom_site_occupancy
  Hf  Hf0  1  0.00704726  0.20185388  -0.00224396  1
  Hf  Hf1  1  0.29447982  0.87722428  0.62580810  1
  Hf  Hf2  1  0.30248843  0.09291954  0.86002750  1
  Hf  Hf3  1  0.39449041  0.80184630  -0.01004082  1
  Hf  Hf4  1  -0.00038510  0.20046069  0.74093609  1
  Hf  Hf5  1  0.09762443  0.09717741  0.86105609  1
  Hf  Hf6  1  0.08492253  0.08428219  0.62008784  1
  Hf  Hf7  1  0.69794317  0.31186822  0.87894908  1
  Hf  Hf8  1  0.49750071  0.90468698  0.86767350  1
  Hf  Hf9  1  0.69946382  0.11133260  0.60815426  1
  Hf  Hf10  1  0.40206042  0.39257371  0.26206396  1
  Hf  Hf11  1  0.58869323  0.60874306  0.50430058  1
  Hf  Hf12  1  0.19793917  -0.01249260  0.74326735  1
  Hf  Hf13  1  0.19881010  0.59689850  -0.00120869  1
  Hf  Hf14  1  0.59973779  0.20490771  0.26227890  1
  Hf  Hf15  1  0.51634285  0.71024192  0.11258957  1
  Hf  Hf16  1  0.00549643  0.00103682  0.00743387  1
  Hf  Hf17  1  0.26903389  0.31159398  0.64748978  1
  Hf  Hf18  1  0.50325999  0.29959109  0.11218552  1
  Hf  Hf19  1  0.60201523  0.79928854  0.74458702  1
  Hf  Hf20  1  0.90011060  0.30345130  0.62078329  1
  Hf  Hf21  1  0.90661439  0.89780147  0.14284035  1
  Hf  Hf22  1  0.30811858  0.89779467  0.13266487  1
  Hf  Hf23  1  0.90176993  0.30994934  0.87016853  1
  Hf  Hf24  1  0.89942253  0.50978353  0.61881296  1
  Hf  Hf25  1  0.40511048  0.40017376  -0.02320253  1
  Hf  Hf26  1  -0.00190402  0.59900614  0.00834864  1
  Hf  Hf27  1  -0.00048532  0.20202619  0.49513270  1
  Hf  Hf28  1  0.89299531  0.69964412  0.87022729  1
  Hf  Hf29  1  0.59312203  0.00330156  -0.00175364  1
  Hf  Hf30  1  0.89853943  0.09901316  0.36507494  1
  Hf  Hf31  1  0.38963685  0.58468152  0.76926075  1
  Hf  Hf32  1  0.29266211  0.29762631  0.86425565  1
  Hf  Hf33  1  0.77501774  0.79269962  0.25059702  1
  Hf  Hf34  1  0.58638842  -0.00908685  0.51910990  1
  Hf  Hf35  1  0.49597642  0.50108157  0.38506946  1
  Hf  Hf36  1  0.60092558  -0.00011007  0.24843660  1
  Hf  Hf37  1  0.90056139  0.10534155  0.13920309  1
  Hf  Hf38  1  0.48852838  0.68844324  0.64092600  1
  Hf  Hf39  1  0.00878002  0.40065950  -0.00709816  1
  Zr  Zr40  1  0.70269805  0.50437350  0.38637209  1
  Zr  Zr41  1  0.10123490  0.69974335  0.35665422  1
  Zr  Zr42  1  0.49355979  0.10080332  0.12525614  1
  Zr  Zr43  1  0.60533670  0.00455774  0.74100781  1
  Zr  Zr44  1  0.39211589  -0.00655645  0.50782373  1
  Zr  Zr45  1  0.11517149  0.50223235  0.62723360  1
  Zr  Zr46  1  0.50521157  0.50541992  0.12319198  1
  Zr  Zr47  1  0.90235629  0.71110532  0.62613535  1
  Zr  Zr48  1  0.19384685  0.78732024  0.49258146  1
  Zr  Zr49  1  0.79981414  0.00155016  0.74900193  1
  Zr  Zr50  1  0.50128260  0.88990562  0.36550243  1
  Zr  Zr51  1  0.90198744  0.30302101  0.13421221  1
  Zr  Zr52  1  0.79996778  0.59375401  0.01248339  1
  Zr  Zr53  1  0.19592577  0.19589832  -0.00061773  1
  Zr  Zr54  1  0.78620182  -0.00076801  0.24488201  1
  Zr  Zr55  1  0.60225256  0.39947481  0.25372356  1
  Zr  Zr56  1  0.80575767  0.20039716  -0.00547773  1
  Zr  Zr57  1  0.79355563  0.19917180  0.74985772  1
  Zr  Zr58  1  0.40181231  0.40024491  0.52311771  1
  Zr  Zr59  1  0.89995525  0.50739852  0.37950879  1
  Zr  Zr60  1  0.30469274  0.49032418  0.11719313  1
  Zr  Zr61  1  0.91091003  0.91176504  0.62010892  1
  Zr  Zr62  1  0.40941954  0.00025596  0.72099290  1
  Zr  Zr63  1  0.19143147  -0.01149086  0.49833062  1
  Zr  Zr64  1  0.21533403  0.59996688  0.24224279  1
  Zr  Zr65  1  0.21124191  0.00492347  0.25351844  1
  Zr  Zr66  1  0.39939399  0.19853451  0.52424163  1
  Zr  Zr67  1  0.01149527  0.61173219  0.50050968  1
  Zr  Zr68  1  0.79425826  0.79771095  0.74716237  1
  Zr  Zr69  1  0.29932710  0.29675259  0.11712403  1
  Zr  Zr70  1  0.41811992  0.40209473  0.75103059  1
  Zr  Zr71  1  0.09602627  0.70242937  0.87234608  1
  Zr  Zr72  1  0.40080226  0.77846530  0.49550278  1
  Zr  Zr73  1  0.60685161  0.62346356  0.26126445  1
  Zr  Zr74  1  0.19881094  -0.01464581  -0.00251777  1
  Zr  Zr75  1  0.00621872  0.80750571  0.00666246  1
  Zr  Zr76  1  0.10275837  0.48792688  0.13357337  1
  Zr  Zr77  1  0.79557205  0.41106966  0.74046111  1
  Zr  Zr78  1  0.39769617  0.19666708  0.26589704  1
  Zr  Zr79  1  0.41191524  0.20030633  0.73887805  1
  Ta  Ta80  1  0.19421108  0.20044201  0.51424361  1
  Ta  Ta81  1  0.79535973  0.60002503  0.24203859  1
  Ta  Ta82  1  0.39181704  0.79380840  0.76161319  1
  Ta  Ta83  1  0.10094898  0.71073703  0.13437448  1
  Ta  Ta84  1  0.00575922  0.39786133  0.49236396  1
  Ta  Ta85  1  0.09165583  0.90118093  0.35098487  1
  Ta  Ta86  1  0.69809624  0.89571173  0.39116801  1
  Ta  Ta87  1  0.90587754  0.90115565  0.87360362  1
  Ta  Ta88  1  0.69485137  0.09684267  0.39029166  1
  Ta  Ta89  1  0.10471558  0.29815027  0.13928114  1
  Ta  Ta90  1  0.69853773  0.09763552  0.88484272  1
  Ta  Ta91  1  0.79925874  0.20626160  0.48946244  1
  Ta  Ta92  1  0.89939742  0.70163045  0.13864772  1
  Ta  Ta93  1  0.69635523  0.50639256  0.61837832  1
  Ta  Ta94  1  0.69668581  0.69704098  0.88685220  1
  Ta  Ta95  1  0.00097649  0.59657170  0.75207294  1
  Ta  Ta96  1  0.09957992  0.09877095  0.37434415  1
  Ta  Ta97  1  0.79451155  0.40083704  0.24842374  1
  Ta  Ta98  1  0.30242437  0.50178095  0.38563412  1
  Ta  Ta99  1  0.50215218  0.10218071  0.39045718  1
  Ta  Ta100  1  0.60586031  0.59056730  0.75221381  1
  Ta  Ta101  1  0.00348695  0.39792907  0.26479158  1
  Ta  Ta102  1  0.69722253  0.10917776  0.11320833  1
  Ta  Ta103  1  0.80273284  -0.00399478  0.00629694  1
  Ta  Ta104  1  0.19578681  0.39831995  0.49304787  1
  Ta  Ta105  1  0.89310436  0.70541807  0.36588720  1
  Ta  Ta106  1  0.70597883  0.89603360  0.88964337  1
  Ta  Ta107  1  0.29947701  0.29615208  0.39090419  1
  Ta  Ta108  1  0.79962771  0.39971064  0.50190590  1
  Ta  Ta109  1  -0.00345970  0.59752729  0.24387500  1
  Ta  Ta110  1  0.10555227  0.49975755  0.37264290  1
  Ta  Ta111  1  0.49812199  0.89770553  0.12815365  1
  Ta  Ta112  1  0.89355176  0.30382486  0.36967329  1
  Ta  Ta113  1  0.30412255  0.09985004  0.11903759  1
  Ta  Ta114  1  -0.00282721  0.81154877  0.48166957  1
  Ta  Ta115  1  0.70069910  0.30538146  0.11137429  1
  Ta  Ta116  1  0.20539508  0.39171829  0.26904506  1
  Ta  Ta117  1  0.40720911  0.19346024  -0.02179709  1
  Ta  Ta118  1  0.40386953  0.60382179  -0.00726681  1
  Ta  Ta119  1  0.68475314  0.88595654  0.10781177  1
  Ti  Ti120  1  0.21164667  0.43988117  0.77122016  1
  Ti  Ti121  1  0.59440831  0.20166249  -0.01487991  1
  Ti  Ti122  1  0.29953622  0.88806009  0.36985171  1
  Ti  Ti123  1  0.40253132  0.78339102  0.25015201  1
  Ti  Ti124  1  0.59540476  0.20547432  0.75609487  1
  Ti  Ti125  1  0.60252018  0.41181382  -0.00715054  1
  Ti  Ti126  1  0.00841693  0.40644770  0.74670174  1
  Ti  Ti127  1  0.78386142  0.20738853  0.25703441  1
  Ti  Ti128  1  0.29413529  0.69837898  0.87775952  1
  Ti  Ti129  1  0.10241282  0.09744659  0.14164371  1
  Ti  Ti130  1  0.40189010  0.60600889  0.24844209  1
  Ti  Ti131  1  0.39606504  0.00045021  -0.00813336  1
  Ti  Ti132  1  0.08637491  0.88497830  0.63453041  1
  Ti  Ti133  1  0.80275233  0.79849332  0.00798368  1
  Ti  Ti134  1  0.89873036  0.49197779  0.13405402  1
  Ti  Ti135  1  0.89700603  0.50242434  0.86961115  1
  Ti  Ti136  1  0.70403866  0.50516877  0.87413467  1
  Ti  Ti137  1  0.40025705  0.00384915  0.26081358  1
  Ti  Ti138  1  0.20589298  0.20011561  0.25480179  1
  Ti  Ti139  1  0.69360722  0.30565582  0.38952537  1
  Ti  Ti140  1  0.89694422  0.09821786  0.61273411  1
  Ti  Ti141  1  0.69359773  0.30495839  0.61741921  1
  Ti  Ti142  1  0.21077907  0.79534480  0.24426968  1
  Ti  Ti143  1  0.10109976  0.70406621  0.63908238  1
  Ti  Ti144  1  0.19804531  0.79747916  0.76259753  1
  Ti  Ti145  1  0.60028322  0.79272324  0.51231684  1
  Ti  Ti146  1  0.89924267  0.09400854  0.87427984  1
  Ti  Ti147  1  0.71256823  0.88878907  0.60721796  1
  Ti  Ti148  1  0.80620202  -0.00256465  0.49166011  1
  Ti  Ti149  1  0.00818088  0.20322995  0.25731797  1
  Ti  Ti150  1  0.28727618  0.68077469  0.64023387  1
  Ti  Ti151  1  0.69686183  0.50129134  0.12230671  1
  Ti  Ti152  1  0.20121079  0.80223796  0.00368567  1
  Ti  Ti153  1  0.10432769  0.29508631  0.37389229  1
  Ti  Ti154  1  0.50772981  0.69338152  0.87534366  1
  Ti  Ti155  1  0.11111881  0.30453898  0.84903961  1
  Ti  Ti156  1  0.21166907  0.60210170  0.49387424  1
  Ti  Ti157  1  0.79268613  0.62061559  0.50234496  1
  Ti  Ti158  1  0.89812829  0.90093405  0.36373880  1
  Ti  Ti159  1  0.29607330  0.10308137  0.38986281  1
  Mo  Mo160  1  0.60376849  0.40280526  0.74249107  1
  Mo  Mo161  1  0.79920199  0.40588632  0.01062954  1
  Mo  Mo162  1  0.60072189  0.59818726  -0.01232403  1
  Mo  Mo163  1  0.51471217  0.50497487  0.88104146  1
  Mo  Mo164  1  -0.00368811  -0.00379737  0.47375686  1
  Mo  Mo165  1  0.69948369  0.70963770  0.39354216  1
  Mo  Mo166  1  0.50168508  0.29892921  0.39425055  1
  Mo  Mo167  1  0.52609297  0.30330187  0.62338005  1
  Mo  Mo168  1  0.10665180  0.89471232  0.14468915  1
  Mo  Mo169  1  0.30821362  0.70239596  0.11721642  1
  Mo  Mo170  1  0.59703401  0.80207192  -0.02066487  1
  Mo  Mo171  1  0.09112237  0.49970134  0.86913945  1
  Mo  Mo172  1  0.29897928  0.50354963  0.89602197  1
  Mo  Mo173  1  0.59933021  0.80808159  0.25099543  1
  Mo  Mo174  1  0.09290282  0.30467957  0.62369433  1
  Mo  Mo175  1  0.49831009  0.69876345  0.37049329  1
  Mo  Mo176  1  -0.00611247  0.79758360  0.25505662  1
  Mo  Mo177  1  0.39003640  0.59697109  0.50657111  1
  Mo  Mo178  1  0.79430866  0.60079791  0.75096098  1
  Mo  Mo179  1  0.51288027  0.11071005  0.61313033  1
  Mo  Mo180  1  0.50460088  0.10177862  0.87475444  1
  Mo  Mo181  1  0.50472951  0.50043918  0.62676804  1
  Mo  Mo182  1  0.00433244  0.00458300  0.25108265  1
  Mo  Mo183  1  0.60175553  0.40275953  0.51179183  1
  Mo  Mo184  1  0.60034314  0.20718453  0.48829605  1
  Mo  Mo185  1  0.19620823  0.18702719  0.73230052  1
  Mo  Mo186  1  0.30797708  0.69268849  0.36453740  1
  Mo  Mo187  1  0.70162975  0.70207134  0.10536639  1
  Mo  Mo188  1  0.51116368  0.30023226  0.87831651  1
  Mo  Mo189  1  0.19924446  0.60796832  0.76270141  1
  Mo  Mo190  1  0.80276036  0.80440432  0.48891111  1
  Mo  Mo191  1  0.19351748  0.39505240  -0.02128380  1
  Mo  Mo192  1  0.69920797  0.69920180  0.61712236  1
  Mo  Mo193  1  0.29742808  0.89233231  0.86655487  1
  Mo  Mo194  1  0.28643584  0.09883679  0.62649766  1
  Mo  Mo195  1  -0.00383563  -0.00343776  0.76064051  1
  Mo  Mo196  1  0.29979204  0.50794818  0.61536664  1
  Mo  Mo197  1  0.49706536  0.88040248  0.63705378  1
  Mo  Mo198  1  0.09533605  0.89752007  0.86333411  1
  Mo  Mo199  1  0.00254605  0.80269504  0.75598268  1
