# generated using pymatgen
data_HfZrTaTiMo
_symmetry_space_group_name_H-M   'P 1'
_cell_length_a   15.83986389
_cell_length_b   15.83412908
_cell_length_c   15.40619232
_cell_angle_alpha   89.99090929
_cell_angle_beta   89.95676297
_cell_angle_gamma   89.94048077
_symmetry_Int_Tables_number   1
_chemical_formula_structural   HfZrTaTiMo
_chemical_formula_sum   'Hf40 Zr40 Ta40 Ti40 Mo40'
_cell_volume   3864.03078490
_cell_formula_units_Z   40
loop_
 _symmetry_equiv_pos_site_id
 _symmetry_equiv_pos_as_xyz
  1  'x, y, z'
loop_
 _atom_site_type_symbol
 _atom_site_label
 _atom_site_symmetry_multiplicity
 _atom_site_fract_x
 _atom_site_fract_y
 _atom_site_fract_z
 _atom_site_occupancy
  Hf  Hf0  1  0.50131813  0.51802771  0.87390800  1
  Hf  Hf1  1  0.80001887  0.80263840  0.50631725  1
  Hf  Hf2  1  -0.00412939  0.80832227  0.49468429  1
  Hf  Hf3  1  0.91142761  0.10140960  0.15019385  1
  Hf  Hf4  1  0.60274069  0.80189495  0.71551102  1
  Hf  Hf5  1  0.38505636  0.38561483  0.50895733  1
  Hf  Hf6  1  0.58904698  0.81305745  0.26396392  1
  Hf  Hf7  1  0.69808849  0.09376345  0.87236457  1
  Hf  Hf8  1  -0.00627119  0.60395309  0.74903901  1
  Hf  Hf9  1  0.50485679  0.09715576  0.10987119  1
  Hf  Hf10  1  0.60088132  0.39160381  0.74147305  1
  Hf  Hf11  1  0.10428479  0.11164748  0.36258469  1
  Hf  Hf12  1  0.19664575  0.59384808  0.75939323  1
  Hf  Hf13  1  0.70308913  0.51747529  0.85341979  1
  Hf  Hf14  1  0.69013442  0.69526874  0.38651188  1
  Hf  Hf15  1  0.88157743  0.71011988  0.86060286  1
  Hf  Hf16  1  0.50962199  0.49898129  0.12126843  1
  Hf  Hf17  1  0.09623302  0.70744952  0.36282422  1
  Hf  Hf18  1  -0.01355764  0.59813709  -0.01425256  1
  Hf  Hf19  1  0.41269525  -0.00834935  0.25518550  1
  Hf  Hf20  1  0.00063100  0.20332726  0.74379484  1
  Hf  Hf21  1  0.19154087  0.60239367  0.00056066  1
  Hf  Hf22  1  0.59058924  -0.00409612  0.72971214  1
  Hf  Hf23  1  0.49245325  0.08611816  0.88925343  1
  Hf  Hf24  1  0.89938737  0.69628512  0.36553736  1
  Hf  Hf25  1  0.31890122  0.91285207  0.89287437  1
  Hf  Hf26  1  0.70863356  0.09984013  0.13128324  1
  Hf  Hf27  1  -0.01030951  0.80452371  0.00508803  1
  Hf  Hf28  1  0.49932241  0.69488043  0.14456867  1
  Hf  Hf29  1  0.39701538  0.59296324  0.26426235  1
  Hf  Hf30  1  0.69982551  0.50360669  0.13370325  1
  Hf  Hf31  1  0.90595589  0.91829117  0.63380616  1
  Hf  Hf32  1  0.18753552  0.01155921  0.01511339  1
  Hf  Hf33  1  0.30154363  0.28375507  0.87151463  1
  Hf  Hf34  1  0.90613105  0.08334442  0.86240487  1
  Hf  Hf35  1  0.40084182  0.20137307  0.23711582  1
  Hf  Hf36  1  0.79253237  0.80571841  0.01357423  1
  Hf  Hf37  1  0.70174413  0.11139224  0.39282034  1
  Hf  Hf38  1  0.78375594  0.61196609  0.00055903  1
  Hf  Hf39  1  0.29949241  0.89916500  0.13289082  1
  Zr  Zr40  1  0.81137299  0.41450267  -0.01118959  1
  Zr  Zr41  1  0.60167907  0.21022490  0.24622701  1
  Zr  Zr42  1  0.49576946  0.70335603  0.59528327  1
  Zr  Zr43  1  0.51218775  0.88857386  0.88392188  1
  Zr  Zr44  1  0.10650453  0.49826506  0.61670693  1
  Zr  Zr45  1  0.50131990  0.29324988  0.39029921  1
  Zr  Zr46  1  0.01895910  -0.01603629  0.26039248  1
  Zr  Zr47  1  0.38656776  0.59275642  0.48650436  1
  Zr  Zr48  1  0.18787991  0.58603487  0.25120570  1
  Zr  Zr49  1  0.00278835  0.21123297  0.50774146  1
  Zr  Zr50  1  0.31203923  0.70068013  0.87321886  1
  Zr  Zr51  1  0.40215041  0.40443647  0.75643702  1
  Zr  Zr52  1  0.60775221  0.40790586  -0.01461963  1
  Zr  Zr53  1  0.79929127  0.19855057  0.73740839  1
  Zr  Zr54  1  0.30592524  0.89986903  0.60114252  1
  Zr  Zr55  1  0.20539506  0.80677506  0.75730179  1
  Zr  Zr56  1  0.20497915  0.20664160  0.50962264  1
  Zr  Zr57  1  0.90411194  0.30785165  0.13544225  1
  Zr  Zr58  1  0.80707220  0.19596996  0.00439854  1
  Zr  Zr59  1  0.90251179  0.31022590  0.38253995  1
  Zr  Zr60  1  0.28304958  0.47195587  0.37079087  1
  Zr  Zr61  1  0.69514675  0.50167261  0.61775667  1
  Zr  Zr62  1  0.49994565  0.27578793  0.87902216  1
  Zr  Zr63  1  0.08600700  0.91513257  0.86782774  1
  Zr  Zr64  1  0.09947476  0.09153317  0.62883936  1
  Zr  Zr65  1  0.01173674  0.19158385  0.00120072  1
  Zr  Zr66  1  0.61838705  -0.01621500  0.00930590  1
  Zr  Zr67  1  0.00234816  0.41344730  0.76731658  1
  Zr  Zr68  1  0.00448682  0.40270849  -0.00802354  1
  Zr  Zr69  1  0.71414788  0.89677734  0.86088763  1
  Zr  Zr70  1  0.69966906  0.29173000  0.87203161  1
  Zr  Zr71  1  0.29658366  0.70267649  0.62096719  1
  Zr  Zr72  1  0.89564638  0.69234814  0.14707318  1
  Zr  Zr73  1  0.19339876  0.80069577  0.00291442  1
  Zr  Zr74  1  0.30141654  0.50018158  0.12119104  1
  Zr  Zr75  1  0.22473087  0.01044351  0.74852477  1
  Zr  Zr76  1  0.30010053  0.10071993  0.36672144  1
  Zr  Zr77  1  0.70059708  0.30698926  0.39541639  1
  Zr  Zr78  1  0.40997949  0.39046435  0.24636193  1
  Zr  Zr79  1  0.19704848  0.60164141  0.48866173  1
  Ta  Ta80  1  0.50378595  0.10052418  0.38974391  1
  Ta  Ta81  1  0.40629022  0.79141459  0.01593942  1
  Ta  Ta82  1  0.29515562  0.70454845  0.14182215  1
  Ta  Ta83  1  0.90213762  0.29636269  0.87056494  1
  Ta  Ta84  1  0.60228580  0.00411247  0.26278447  1
  Ta  Ta85  1  0.08870130  0.70071004  0.14111725  1
  Ta  Ta86  1  0.49266229  0.50139166  0.61458322  1
  Ta  Ta87  1  0.39647431  0.16398397  0.73356268  1
  Ta  Ta88  1  0.19806211  0.39642090  -0.00065725  1
  Ta  Ta89  1  0.80802165  0.39986551  0.74028916  1
  Ta  Ta90  1  0.60732012  0.78141897  0.01511037  1
  Ta  Ta91  1  0.49385809  0.70275746  0.37942667  1
  Ta  Ta92  1  0.51178580  0.48953436  0.39088312  1
  Ta  Ta93  1  0.40228717  0.60629137  0.00611816  1
  Ta  Ta94  1  -0.00455511  0.60597578  0.50127430  1
  Ta  Ta95  1  0.39809025  0.18961876  0.51700050  1
  Ta  Ta96  1  0.81738935  -0.00832846  0.01072655  1
  Ta  Ta97  1  0.39743069  0.39888497  -0.00603880  1
  Ta  Ta98  1  0.79433943  0.79829130  0.71867580  1
  Ta  Ta99  1  0.59431129  0.18815955  0.72667647  1
  Ta  Ta100  1  0.70543858  0.09191435  0.60981825  1
  Ta  Ta101  1  0.41028925  0.81199512  0.74490570  1
  Ta  Ta102  1  0.79459904  0.80754973  0.26568333  1
  Ta  Ta103  1  0.69727032  0.90616037  0.38613631  1
  Ta  Ta104  1  0.11015142  0.31227047  0.64222959  1
  Ta  Ta105  1  0.90236205  0.10908863  0.37192078  1
  Ta  Ta106  1  0.50669823  0.29892692  0.10298117  1
  Ta  Ta107  1  0.89813496  0.89926604  0.14799703  1
  Ta  Ta108  1  0.09879861  0.70814001  0.62339382  1
  Ta  Ta109  1  0.09169904  0.70633414  0.86781211  1
  Ta  Ta110  1  0.29172378  0.89747061  0.36858313  1
  Ta  Ta111  1  0.68613913  0.70567276  0.85889391  1
  Ta  Ta112  1  0.80356079  0.60280285  0.50662363  1
  Ta  Ta113  1  0.11211034  0.29737906  0.86568679  1
  Ta  Ta114  1  0.90437345  0.49539529  0.61408369  1
  Ta  Ta115  1  0.10499440  0.89908654  0.61694112  1
  Ta  Ta116  1  0.29423592  0.29475683  0.64958448  1
  Ta  Ta117  1  0.80138239  0.20720154  0.25525466  1
  Ta  Ta118  1  0.19897777  0.20701853  0.01865323  1
  Ta  Ta119  1  0.69455318  0.69726747  0.15430476  1
  Ti  Ti120  1  0.79924486  0.60937690  0.72377242  1
  Ti  Ti121  1  0.30411383  0.09760315  0.12513392  1
  Ti  Ti122  1  0.08770448  0.48962407  0.38643086  1
  Ti  Ti123  1  0.89564051  0.90281940  0.85421432  1
  Ti  Ti124  1  0.69744159  0.30609686  0.12165210  1
  Ti  Ti125  1  0.40138142  0.60588820  0.74072103  1
  Ti  Ti126  1  0.00153095  0.00169723  0.48454902  1
  Ti  Ti127  1  0.08730507  0.50230424  0.12274095  1
  Ti  Ti128  1  0.17740462  0.82339190  0.24363498  1
  Ti  Ti129  1  0.29227892  0.28969089  0.36807441  1
  Ti  Ti130  1  0.78918103  0.40038715  0.25585301  1
  Ti  Ti131  1  0.59688947  -0.00301412  0.49984506  1
  Ti  Ti132  1  0.71121066  0.29189065  0.61021506  1
  Ti  Ti133  1  0.29152084  0.71553552  0.35708550  1
  Ti  Ti134  1  0.29960770  0.49958606  0.88151776  1
  Ti  Ti135  1  0.90038419  0.50531526  0.14311496  1
  Ti  Ti136  1  0.48892765  0.90080779  0.59350481  1
  Ti  Ti137  1  0.19529343  0.20491333  0.22543478  1
  Ti  Ti138  1  0.49288561  0.29074196  0.62954490  1
  Ti  Ti139  1  0.80019316  0.00186182  0.26849795  1
  Ti  Ti140  1  0.81244373  -0.00120780  0.49007532  1
  Ti  Ti141  1  0.70304379  0.90066689  0.14526059  1
  Ti  Ti142  1  0.59428874  0.39262090  0.51994806  1
  Ti  Ti143  1  0.19772842  0.00056851  0.49261602  1
  Ti  Ti144  1  0.00665815  0.40329403  0.25152063  1
  Ti  Ti145  1  0.50170888  0.89661249  0.12124742  1
  Ti  Ti146  1  0.30791955  0.10210147  0.89585486  1
  Ti  Ti147  1  0.10809573  0.31035338  0.37044190  1
  Ti  Ti148  1  -0.00086131  -0.00130680  0.01780648  1
  Ti  Ti149  1  0.59226789  0.60921232  0.72823964  1
  Ti  Ti150  1  -0.00131754  0.80132184  0.73971002  1
  Ti  Ti151  1  0.11236253  0.10798143  0.86326499  1
  Ti  Ti152  1  0.19644129  0.38642932  0.22412656  1
  Ti  Ti153  1  0.29238662  0.48843455  0.63196478  1
  Ti  Ti154  1  0.89853889  0.49531897  0.38906283  1
  Ti  Ti155  1  0.70064281  0.49114025  0.39509378  1
  Ti  Ti156  1  0.89817802  0.10272035  0.61801249  1
  Ti  Ti157  1  0.79419405  0.58789073  0.26928537  1
  Ti  Ti158  1  0.59899676  0.58455998  0.27196649  1
  Ti  Ti159  1  0.50401926  0.70283517  0.87312266  1
  Mo  Mo160  1  0.49961100  0.08884629  0.60579431  1
  Mo  Mo161  1  0.89649654  0.90586697  0.36874734  1
  Mo  Mo162  1  0.39149116  0.80023703  0.47062273  1
  Mo  Mo163  1  0.30381695  0.30036823  0.11302808  1
  Mo  Mo164  1  -0.00289205  0.79936939  0.25189629  1
  Mo  Mo165  1  0.40950861  -0.01075426  0.74370762  1
  Mo  Mo166  1  0.39396493  0.19878216  0.01327368  1
  Mo  Mo167  1  0.30195442  0.09137552  0.61018407  1
  Mo  Mo168  1  0.39712283  0.00064758  0.47673576  1
  Mo  Mo169  1  0.59755121  0.59429654  0.49214730  1
  Mo  Mo170  1  0.19841953  0.38919124  0.50296288  1
  Mo  Mo171  1  0.90454965  0.30915524  0.62374271  1
  Mo  Mo172  1  0.59700239  0.19772804  0.52222908  1
  Mo  Mo173  1  0.39883024  -0.00648377  0.01894438  1
  Mo  Mo174  1  0.09882147  0.30487065  0.12668756  1
  Mo  Mo175  1  0.10280351  0.10117175  0.14095867  1
  Mo  Mo176  1  0.10552520  0.50608331  0.88796292  1
  Mo  Mo177  1  0.59729550  0.80679537  0.49252621  1
  Mo  Mo178  1  0.60820124  0.40360028  0.25284871  1
  Mo  Mo179  1  0.80586929  0.40057125  0.51665204  1
  Mo  Mo180  1  0.10676967  0.90369694  0.39199257  1
  Mo  Mo181  1  0.00578174  0.21042895  0.26028153  1
  Mo  Mo182  1  0.79635529  0.00081285  0.73483122  1
  Mo  Mo183  1  0.00566898  0.00232235  0.74441740  1
  Mo  Mo184  1  0.20491348  0.19661298  0.74608978  1
  Mo  Mo185  1  0.90445040  0.70091063  0.62637751  1
  Mo  Mo186  1  0.60629208  0.19803292  0.00891726  1
  Mo  Mo187  1  0.19343233  0.80179654  0.49172970  1
  Mo  Mo188  1  0.59866816  0.61447672  -0.00049558  1
  Mo  Mo189  1  0.80744486  0.19579992  0.50903952  1
  Mo  Mo190  1  0.88757429  0.50653075  0.85746368  1
  Mo  Mo191  1  0.00731212  0.40268799  0.50004975  1
  Mo  Mo192  1  0.09237098  0.89625594  0.11420593  1
  Mo  Mo193  1  0.39462944  0.79762914  0.25406771  1
  Mo  Mo194  1  0.20460727  0.40296599  0.77252194  1
  Mo  Mo195  1  0.69817172  0.69807955  0.61058792  1
  Mo  Mo196  1  -0.00463450  0.58482874  0.26263380  1
  Mo  Mo197  1  0.70087082  0.90770450  0.60227294  1
  Mo  Mo198  1  0.49797707  0.90242413  0.38742036  1
  Mo  Mo199  1  0.20275688  0.00396209  0.23966144  1
