# generated using pymatgen
data_HfZrTaTiMo
_symmetry_space_group_name_H-M   'P 1'
_cell_length_a   15.84128278
_cell_length_b   15.83499349
_cell_length_c   15.40186659
_cell_angle_alpha   89.93985138
_cell_angle_beta   89.99224378
_cell_angle_gamma   89.92679250
_symmetry_Int_Tables_number   1
_chemical_formula_structural   HfZrTaTiMo
_chemical_formula_sum   'Hf40 Zr40 Ta40 Ti40 Mo40'
_cell_volume   3863.50069987
_cell_formula_units_Z   40
loop_
 _symmetry_equiv_pos_site_id
 _symmetry_equiv_pos_as_xyz
  1  'x, y, z'
loop_
 _atom_site_type_symbol
 _atom_site_label
 _atom_site_symmetry_multiplicity
 _atom_site_fract_x
 _atom_site_fract_y
 _atom_site_fract_z
 _atom_site_occupancy
  Hf  Hf0  1  0.49206900  0.71437951  0.62105051  1
  Hf  Hf1  1  0.70142579  0.29152569  0.62960069  1
  Hf  Hf2  1  0.31215133  0.08643315  0.38965930  1
  Hf  Hf3  1  0.37955034  0.82786893  0.48485144  1
  Hf  Hf4  1  -0.00398025  0.59755188  0.01570918  1
  Hf  Hf5  1  0.30436187  0.07822377  0.62573767  1
  Hf  Hf6  1  -0.01065201  0.57971190  0.26023824  1
  Hf  Hf7  1  0.09957139  0.69371992  0.13874692  1
  Hf  Hf8  1  0.01159931  0.00323066  0.25014471  1
  Hf  Hf9  1  -0.00523343  0.39691707  -0.01096832  1
  Hf  Hf10  1  0.41279297  0.19294287  0.51130448  1
  Hf  Hf11  1  0.60310258  0.40603151  0.73899373  1
  Hf  Hf12  1  0.38815494  0.20381690  0.74328172  1
  Hf  Hf13  1  0.89410740  0.50658427  0.86522949  1
  Hf  Hf14  1  0.60317596  0.59398111  0.02151590  1
  Hf  Hf15  1  0.09719414  0.89848806  0.62267474  1
  Hf  Hf16  1  0.19620699  0.19341439  0.25369951  1
  Hf  Hf17  1  0.89847533  0.70625084  0.87143313  1
  Hf  Hf18  1  0.29091609  0.30716096  0.88111740  1
  Hf  Hf19  1  0.17682761  0.39161031  0.27242815  1
  Hf  Hf20  1  0.19810882  0.60729532  0.49254083  1
  Hf  Hf21  1  0.60267460  0.38920088  0.48777683  1
  Hf  Hf22  1  0.71942315  0.28338222  0.36487818  1
  Hf  Hf23  1  -0.00902884  0.20954107  -0.00279920  1
  Hf  Hf24  1  0.51423288  0.09230135  0.64128016  1
  Hf  Hf25  1  0.48984694  0.07494800  0.10601724  1
  Hf  Hf26  1  0.50709596  0.50652602  0.60535437  1
  Hf  Hf27  1  0.50660465  0.29656974  0.86866306  1
  Hf  Hf28  1  0.71446952  0.09085771  0.64190281  1
  Hf  Hf29  1  0.49533074  0.69970682  0.88334310  1
  Hf  Hf30  1  0.40481046  0.39452962  0.48982896  1
  Hf  Hf31  1  0.27984413  0.10337367  0.87073396  1
  Hf  Hf32  1  0.70266634  0.50302383  0.87401405  1
  Hf  Hf33  1  0.50379989  0.50050131  0.88005400  1
  Hf  Hf34  1  0.11541430  0.49459938  0.87650561  1
  Hf  Hf35  1  0.88069865  0.90559525  0.60968464  1
  Hf  Hf36  1  0.60546195  0.60574010  0.73788169  1
  Hf  Hf37  1  0.80975809  0.59586245  0.03214670  1
  Hf  Hf38  1  0.39155574  0.19254454  0.00159207  1
  Hf  Hf39  1  0.59610656  0.80658980  0.76203692  1
  Zr  Zr40  1  0.60353003  0.20463017  0.00815355  1
  Zr  Zr41  1  0.39964008  0.60553039  0.02453326  1
  Zr  Zr42  1  0.70377834  0.10382029  0.87081675  1
  Zr  Zr43  1  0.70657597  0.71483759  0.60615503  1
  Zr  Zr44  1  0.20560695  0.59896299  0.73293896  1
  Zr  Zr45  1  0.39628472  0.60667631  0.73971069  1
  Zr  Zr46  1  0.70935402  0.50376217  0.37652675  1
  Zr  Zr47  1  0.57800181  0.81188665  0.48783055  1
  Zr  Zr48  1  0.10193904  0.70254924  0.88262613  1
  Zr  Zr49  1  0.69030231  0.90793071  0.61466521  1
  Zr  Zr50  1  0.28713415  0.49909732  0.13934642  1
  Zr  Zr51  1  0.40881731  0.40024103  0.01625853  1
  Zr  Zr52  1  0.30075488  0.50034828  0.88413970  1
  Zr  Zr53  1  0.89444676  0.11261644  0.36304062  1
  Zr  Zr54  1  0.29505298  0.70452897  0.88710409  1
  Zr  Zr55  1  0.70498941  0.69526214  0.88113951  1
  Zr  Zr56  1  0.79843265  0.80299990  0.01482316  1
  Zr  Zr57  1  0.10412568  0.10050402  0.39104719  1
  Zr  Zr58  1  0.71305701  0.29707432  0.86176124  1
  Zr  Zr59  1  0.29770411  0.28534157  0.38348291  1
  Zr  Zr60  1  0.80365865  0.39598368  0.00620873  1
  Zr  Zr61  1  0.60658554  0.18051886  0.23948018  1
  Zr  Zr62  1  0.40409200  0.61168207  0.48420850  1
  Zr  Zr63  1  0.40163248  0.18860337  0.24204256  1
  Zr  Zr64  1  0.00245629  0.80666445  0.47994213  1
  Zr  Zr65  1  0.27978992  0.29920926  0.11990448  1
  Zr  Zr66  1  0.29083136  0.70799063  0.35860836  1
  Zr  Zr67  1  0.69839530  0.70095117  0.14771762  1
  Zr  Zr68  1  0.59590381  0.39594793  0.26183187  1
  Zr  Zr69  1  0.20770672  -0.03304869  0.49318108  1
  Zr  Zr70  1  0.90286119  0.10382425  0.86831683  1
  Zr  Zr71  1  0.00596046  0.39478000  0.75144570  1
  Zr  Zr72  1  0.39690583  0.40409906  0.73176620  1
  Zr  Zr73  1  -0.00365065  0.80879767  0.01833332  1
  Zr  Zr74  1  0.69301684  0.91330152  0.38186702  1
  Zr  Zr75  1  0.09239105  0.90887561  0.87984365  1
  Zr  Zr76  1  0.09875943  0.11157997  0.11443611  1
  Zr  Zr77  1  0.90804903  0.50096499  0.61235621  1
  Zr  Zr78  1  0.00336197  0.60682633  0.74142691  1
  Zr  Zr79  1  0.11062057  0.28135394  0.86513268  1
  Ta  Ta80  1  0.70107116  0.70815644  0.36979914  1
  Ta  Ta81  1  0.40447738  0.59635416  0.25576495  1
  Ta  Ta82  1  0.31220582  0.91222550  0.12345259  1
  Ta  Ta83  1  0.91034602  0.30820123  0.14784401  1
  Ta  Ta84  1  0.00059736  0.60459120  0.48594505  1
  Ta  Ta85  1  0.80638170  -0.00465128  -0.00144660  1
  Ta  Ta86  1  0.20685732  0.38823816  0.71946318  1
  Ta  Ta87  1  0.71236993  0.30282315  0.14198312  1
  Ta  Ta88  1  0.59423525  0.59922784  0.26074564  1
  Ta  Ta89  1  0.60057021  -0.01074468  0.77401381  1
  Ta  Ta90  1  0.80752266  0.60918817  0.49269144  1
  Ta  Ta91  1  0.80321349  0.40562545  0.73426952  1
  Ta  Ta92  1  0.89873232  0.91143761  0.13691456  1
  Ta  Ta93  1  0.90433584  0.29429745  0.63051845  1
  Ta  Ta94  1  0.89942835  0.10582535  0.12736591  1
  Ta  Ta95  1  0.49568898  0.09668175  0.87360712  1
  Ta  Ta96  1  0.70702964  0.50314040  0.60347272  1
  Ta  Ta97  1  0.40155383  0.80623066  0.24358978  1
  Ta  Ta98  1  -0.00783842  0.80860404  0.74569926  1
  Ta  Ta99  1  0.80928799  0.19275322  0.51250044  1
  Ta  Ta100  1  0.59991461  -0.01449768  -0.01181399  1
  Ta  Ta101  1  0.59653847  0.80442098  0.00816398  1
  Ta  Ta102  1  0.39974914  0.39650890  0.26161173  1
  Ta  Ta103  1  0.78868802  0.00700767  0.23977305  1
  Ta  Ta104  1  0.89370247  0.91181123  0.36957992  1
  Ta  Ta105  1  0.80024899  0.60672436  0.72693878  1
  Ta  Ta106  1  0.51400136  0.08197370  0.38153028  1
  Ta  Ta107  1  0.79990666  0.80987648  0.25118813  1
  Ta  Ta108  1  0.20283997  0.80675190  0.02291521  1
  Ta  Ta109  1  0.10089124  0.49816203  0.60720722  1
  Ta  Ta110  1  0.19380307  0.81544371  0.23643556  1
  Ta  Ta111  1  0.19859249  0.39449657  0.49977874  1
  Ta  Ta112  1  0.20750853  0.00159278  0.24244174  1
  Ta  Ta113  1  0.19727928  0.80406780  0.74626089  1
  Ta  Ta114  1  0.29836413  0.49761021  0.37312379  1
  Ta  Ta115  1  0.09568225  0.70522943  0.61709204  1
  Ta  Ta116  1  -0.00828962  0.00128655  0.73624568  1
  Ta  Ta117  1  0.20004977  0.00037779  0.01270363  1
  Ta  Ta118  1  -0.00299802  0.80431746  0.25032199  1
  Ta  Ta119  1  0.81280792  0.38858062  0.49725039  1
  Ti  Ti120  1  0.48497547  0.91135521  0.63031793  1
  Ti  Ti121  1  0.09778012  0.29759689  0.61495405  1
  Ti  Ti122  1  0.70533981  0.09437488  0.10885165  1
  Ti  Ti123  1  0.59947462  -0.00815816  0.23166933  1
  Ti  Ti124  1  0.59633065  0.81308254  0.24468960  1
  Ti  Ti125  1  0.39800127  -0.01092746  0.77024968  1
  Ti  Ti126  1  0.29147563  0.90017592  0.88246326  1
  Ti  Ti127  1  0.60872950  0.19146504  0.50078093  1
  Ti  Ti128  1  0.09943975  0.70751727  0.36439759  1
  Ti  Ti129  1  0.29815640  0.70222405  0.13740297  1
  Ti  Ti130  1  0.70334805  0.09607725  0.38154100  1
  Ti  Ti131  1  0.40291914  0.81109366  0.01170299  1
  Ti  Ti132  1  0.29119987  0.72112909  0.61529904  1
  Ti  Ti133  1  0.19053925  0.59122768  0.26092981  1
  Ti  Ti134  1  0.19590797  0.59705627  0.01555674  1
  Ti  Ti135  1  0.50810531  0.29293443  0.63011242  1
  Ti  Ti136  1  0.49894934  0.70486647  0.13586625  1
  Ti  Ti137  1  0.50073178  0.70896812  0.36117954  1
  Ti  Ti138  1  -0.00446043  0.20449123  0.50456312  1
  Ti  Ti139  1  0.08775276  0.47679315  0.12996588  1
  Ti  Ti140  1  0.60159641  0.60770713  0.48328069  1
  Ti  Ti141  1  0.00958129  0.21746629  0.25881132  1
  Ti  Ti142  1  0.80580457  0.20873121  0.01039118  1
  Ti  Ti143  1  0.40545110  -0.00535814  0.25418350  1
  Ti  Ti144  1  0.09502114  0.09468231  0.88433617  1
  Ti  Ti145  1  0.89089545  0.70074072  0.36293664  1
  Ti  Ti146  1  0.90060613  0.71334621  0.61496519  1
  Ti  Ti147  1  0.60797002  0.39785760  0.01430073  1
  Ti  Ti148  1  0.50356486  0.29862457  0.13299140  1
  Ti  Ti149  1  0.01143481  0.18706939  0.73283165  1
  Ti  Ti150  1  0.50357044  0.49487159  0.14137511  1
  Ti  Ti151  1  0.18630515  0.00422680  0.74407408  1
  Ti  Ti152  1  0.20032406  0.19377535  0.52145305  1
  Ti  Ti153  1  0.39069156  0.80700412  0.75617012  1
  Ti  Ti154  1  0.50465835  0.27957843  0.36961895  1
  Ti  Ti155  1  0.70659097  0.49253948  0.14966294  1
  Ti  Ti156  1  0.30097792  0.50099163  0.60417956  1
  Ti  Ti157  1  -0.00798219  0.00964594  0.50194606  1
  Ti  Ti158  1  0.79768824  0.81216417  0.75826016  1
  Ti  Ti159  1  0.82355352  0.41057588  0.26447263  1
  Mo  Mo160  1  0.09682092  0.29071432  0.40345782  1
  Mo  Mo161  1  0.09154302  0.30602490  0.12231412  1
  Mo  Mo162  1  0.49859416  0.50302621  0.37452178  1
  Mo  Mo163  1  0.50001683  0.89510479  0.12262565  1
  Mo  Mo164  1  0.80244879  0.00933664  0.48729260  1
  Mo  Mo165  1  0.39349057  -0.00778237  -0.02246733  1
  Mo  Mo166  1  0.89846082  0.90347723  0.86967729  1
  Mo  Mo167  1  0.69921640  0.90754521  0.12245409  1
  Mo  Mo168  1  0.09824051  0.09534321  0.61196152  1
  Mo  Mo169  1  0.30103553  0.89690654  0.64712606  1
  Mo  Mo170  1  0.90166211  0.49828761  0.39634601  1
  Mo  Mo171  1  0.80080570  0.60084350  0.25798986  1
  Mo  Mo172  1  0.59642382  0.00897464  0.50738629  1
  Mo  Mo173  1  0.10166170  0.50064487  0.39355177  1
  Mo  Mo174  1  0.49127074  0.89486219  0.88300275  1
  Mo  Mo175  1  0.09982883  0.90504319  0.12504985  1
  Mo  Mo176  1  0.19456838  0.19860771  0.00321941  1
  Mo  Mo177  1  0.00286297  0.39413660  0.49209788  1
  Mo  Mo178  1  0.19484095  0.79525651  0.49824253  1
  Mo  Mo179  1  0.81224042  0.19887836  0.73660527  1
  Mo  Mo180  1  -0.00742599  0.00336495  0.01031844  1
  Mo  Mo181  1  0.09850976  0.89799197  0.36130795  1
  Mo  Mo182  1  0.49832433  0.90484967  0.35615083  1
  Mo  Mo183  1  0.80456739  0.80062888  0.47279236  1
  Mo  Mo184  1  0.90205288  0.49154003  0.13423965  1
  Mo  Mo185  1  0.59772507  0.19527000  0.75518596  1
  Mo  Mo186  1  0.29828532  0.90269530  0.34730746  1
  Mo  Mo187  1  0.90071177  0.29547316  0.84501157  1
  Mo  Mo188  1  0.29971269  0.29602111  0.61135059  1
  Mo  Mo189  1  0.30029795  0.09477517  0.11714429  1
  Mo  Mo190  1  0.18842119  0.40126447  0.00882374  1
  Mo  Mo191  1  0.00081402  0.39469306  0.27589618  1
  Mo  Mo192  1  0.80432079  -0.01124959  0.76827460  1
  Mo  Mo193  1  0.90019761  0.70273953  0.15362998  1
  Mo  Mo194  1  0.90352803  0.29740856  0.37188085  1
  Mo  Mo195  1  0.80270801  0.19673889  0.23138884  1
  Mo  Mo196  1  0.41236355  -0.00689325  0.49820127  1
  Mo  Mo197  1  0.19308970  0.19396069  0.72253191  1
  Mo  Mo198  1  0.70132966  0.89630530  0.88567824  1
  Mo  Mo199  1  0.90453759  0.09761834  0.62671732  1
