# generated using pymatgen
data_HfZrTaTiMo
_symmetry_space_group_name_H-M   'P 1'
_cell_length_a   15.84972209
_cell_length_b   15.82881377
_cell_length_c   15.38954262
_cell_angle_alpha   89.99170258
_cell_angle_beta   90.06251408
_cell_angle_gamma   89.98545280
_symmetry_Int_Tables_number   1
_chemical_formula_structural   HfZrTaTiMo
_chemical_formula_sum   'Hf40 Zr40 Ta40 Ti40 Mo40'
_cell_volume   3860.96137601
_cell_formula_units_Z   40
loop_
 _symmetry_equiv_pos_site_id
 _symmetry_equiv_pos_as_xyz
  1  'x, y, z'
loop_
 _atom_site_type_symbol
 _atom_site_label
 _atom_site_symmetry_multiplicity
 _atom_site_fract_x
 _atom_site_fract_y
 _atom_site_fract_z
 _atom_site_occupancy
  Hf  Hf0  1  0.89255668  0.28814377  0.64196259  1
  Hf  Hf1  1  0.28503613  0.10234075  0.64756053  1
  Hf  Hf2  1  0.29186663  0.68335788  0.64010262  1
  Hf  Hf3  1  0.20317166  0.60472600  0.48357338  1
  Hf  Hf4  1  0.79937988  0.60217576  0.27024562  1
  Hf  Hf5  1  0.21395169  0.59549062  0.26681932  1
  Hf  Hf6  1  0.40902585  0.80761593  0.72622592  1
  Hf  Hf7  1  -0.00103837  0.79095695  -0.00573174  1
  Hf  Hf8  1  0.10475171  0.51016902  0.62959114  1
  Hf  Hf9  1  0.90318072  0.30776522  0.13030548  1
  Hf  Hf10  1  0.49595332  0.30771064  0.38982693  1
  Hf  Hf11  1  0.28815852  0.89845107  0.12223130  1
  Hf  Hf12  1  0.60028599  0.60172867  0.27215114  1
  Hf  Hf13  1  0.09994644  0.09585627  0.10897933  1
  Hf  Hf14  1  0.70476904  0.50152934  0.12086611  1
  Hf  Hf15  1  0.78835791  0.39024343  0.49157590  1
  Hf  Hf16  1  0.00808984  0.40038394  0.75296870  1
  Hf  Hf17  1  0.30855016  0.90180148  0.36459777  1
  Hf  Hf18  1  0.19827593  0.20573168  -0.01611011  1
  Hf  Hf19  1  0.80220495  -0.01109834  0.74858756  1
  Hf  Hf20  1  0.50080293  0.10993145  0.62045004  1
  Hf  Hf21  1  0.60572898  0.40922531  0.74560807  1
  Hf  Hf22  1  -0.00867935  0.80612160  0.75195811  1
  Hf  Hf23  1  0.89020357  0.30448476  0.86848040  1
  Hf  Hf24  1  0.29475763  0.10315167  0.11999698  1
  Hf  Hf25  1  0.19716620  0.00408416  0.25640351  1
  Hf  Hf26  1  0.60785663  0.00520149  0.49431589  1
  Hf  Hf27  1  0.09926868  0.48392786  0.38036769  1
  Hf  Hf28  1  0.49936750  0.50678781  0.12130304  1
  Hf  Hf29  1  0.09718553  0.29666613  0.36596646  1
  Hf  Hf30  1  0.50605455  0.30343445  0.61140353  1
  Hf  Hf31  1  0.80316850  0.00416655  0.49553811  1
  Hf  Hf32  1  0.62288504  0.21033520  0.48113746  1
  Hf  Hf33  1  0.50193920  0.89353576  0.37534388  1
  Hf  Hf34  1  0.39705726  0.40801309  0.73611692  1
  Hf  Hf35  1  0.89733619  0.09908486  0.87437198  1
  Hf  Hf36  1  0.70385727  0.89059138  0.89370570  1
  Hf  Hf37  1  0.79921851  -0.00115822  0.24012423  1
  Hf  Hf38  1  0.19259144  0.78903941  0.25392500  1
  Hf  Hf39  1  0.91124038  0.09868722  0.36207328  1
  Zr  Zr40  1  0.00705046  0.60824084  0.26718945  1
  Zr  Zr41  1  0.48702228  0.09794986  0.37946781  1
  Zr  Zr42  1  0.71149642  0.11617661  0.63670535  1
  Zr  Zr43  1  0.10309613  0.49277986  0.13250808  1
  Zr  Zr44  1  0.59060543  0.00554978  0.01803161  1
  Zr  Zr45  1  0.20349958  0.80556742  0.49944220  1
  Zr  Zr46  1  0.39290967  0.60666015  0.00250460  1
  Zr  Zr47  1  0.69274612  0.10000892  0.88022365  1
  Zr  Zr48  1  0.79172116  0.79173619  0.73771708  1
  Zr  Zr49  1  0.59900405  0.40275514  0.26295504  1
  Zr  Zr50  1  0.39095398  -0.01113895  0.52274843  1
  Zr  Zr51  1  0.31166664  0.29774433  0.86404694  1
  Zr  Zr52  1  0.81718674  0.59556241  0.00046366  1
  Zr  Zr53  1  0.29132614  0.30612914  0.37051920  1
  Zr  Zr54  1  0.09266774  0.10001358  0.63734212  1
  Zr  Zr55  1  0.80571131  0.19496631  0.01626464  1
  Zr  Zr56  1  0.40661093  0.20339018  0.24063552  1
  Zr  Zr57  1  0.50004488  0.50854521  0.60729434  1
  Zr  Zr58  1  0.39854320  0.00309311  0.74968964  1
  Zr  Zr59  1  0.19891013  0.00493793  0.49147556  1
  Zr  Zr60  1  0.30324351  0.69999765  0.85706020  1
  Zr  Zr61  1  0.39750397  0.00626522  -0.00242702  1
  Zr  Zr62  1  0.09615719  0.69784863  0.63654730  1
  Zr  Zr63  1  0.39511674  0.41978684  0.25467538  1
  Zr  Zr64  1  0.50417918  0.89440258  0.87650771  1
  Zr  Zr65  1  0.59890200  -0.01001957  0.74126236  1
  Zr  Zr66  1  0.50314144  0.29795734  0.87047539  1
  Zr  Zr67  1  0.28746462  0.31329669  0.12813253  1
  Zr  Zr68  1  0.80857545  0.19729120  0.48637225  1
  Zr  Zr69  1  0.70326792  0.29987793  0.88157469  1
  Zr  Zr70  1  0.90416635  0.89688599  0.37198349  1
  Zr  Zr71  1  0.19966373  0.79028611  -0.00367432  1
  Zr  Zr72  1  0.70404040  0.70196536  0.12015971  1
  Zr  Zr73  1  0.91219356  0.30455787  0.36216847  1
  Zr  Zr74  1  0.40160773  0.79144391  0.51532610  1
  Zr  Zr75  1  -0.00107802  0.40686789  -0.01076361  1
  Zr  Zr76  1  0.60071576  -0.00196688  0.24393117  1
  Zr  Zr77  1  0.90053779  0.50189019  0.62182582  1
  Zr  Zr78  1  0.40307616  0.79848322  0.01204867  1
  Zr  Zr79  1  0.71156344  0.49769370  0.87851304  1
  Ta  Ta80  1  0.69966944  0.89077211  0.37758136  1
  Ta  Ta81  1  0.20110033  0.39333956  0.51904897  1
  Ta  Ta82  1  0.90229345  0.69420529  0.61384913  1
  Ta  Ta83  1  0.00622895  0.80365082  0.51014127  1
  Ta  Ta84  1  0.89523355  0.69611080  0.86732557  1
  Ta  Ta85  1  0.10232997  0.69069057  0.12159286  1
  Ta  Ta86  1  0.60696716  0.60680195  0.74722373  1
  Ta  Ta87  1  0.89537682  0.89311875  0.11683911  1
  Ta  Ta88  1  0.90780508  0.70108113  0.13074793  1
  Ta  Ta89  1  0.79967537  0.40806998  0.25811521  1
  Ta  Ta90  1  0.39869928  0.79229972  0.23621274  1
  Ta  Ta91  1  0.60350064  0.20007820  0.24845434  1
  Ta  Ta92  1  0.00454495  0.19133075  0.23169572  1
  Ta  Ta93  1  0.79942451  0.79678115  0.50217026  1
  Ta  Ta94  1  0.00359281  0.00050628  0.50440427  1
  Ta  Ta95  1  0.59729336  0.60382276  -0.01069362  1
  Ta  Ta96  1  0.19658675  0.20011704  0.49721587  1
  Ta  Ta97  1  0.69935619  0.50041209  0.61171605  1
  Ta  Ta98  1  0.09797478  0.68948397  0.85768556  1
  Ta  Ta99  1  0.60157217  0.60663431  0.48681186  1
  Ta  Ta100  1  0.00538433  0.38893930  0.51687743  1
  Ta  Ta101  1  0.50703130  0.69958151  0.86381134  1
  Ta  Ta102  1  0.40404185  -0.00332627  0.23205845  1
  Ta  Ta103  1  0.18843523  0.19604631  0.77583155  1
  Ta  Ta104  1  0.19656008  0.40570931  -0.02080792  1
  Ta  Ta105  1  0.60380960  0.79110326  0.73102437  1
  Ta  Ta106  1  0.79667201  0.60307159  0.48993927  1
  Ta  Ta107  1  0.00137445  -0.00456088  0.23251159  1
  Ta  Ta108  1  0.90924260  0.70654835  0.38742955  1
  Ta  Ta109  1  0.90620647  0.90349382  0.61904356  1
  Ta  Ta110  1  0.37906574  0.19817434  0.50527604  1
  Ta  Ta111  1  0.49926267  0.50215997  0.87830558  1
  Ta  Ta112  1  0.80028861  0.79638998  0.25508246  1
  Ta  Ta113  1  0.59629027  0.39958240  0.00578320  1
  Ta  Ta114  1  0.08809834  0.89673549  0.36757028  1
  Ta  Ta115  1  0.40759092  0.20474189  0.01220278  1
  Ta  Ta116  1  0.39931261  0.40106718  0.00320195  1
  Ta  Ta117  1  0.70057647  0.30530566  0.12995469  1
  Ta  Ta118  1  0.90664728  0.09922250  0.64097463  1
  Ta  Ta119  1  0.29326573  0.89998850  0.86289833  1
  Ti  Ti120  1  0.70138862  0.70110651  0.88160642  1
  Ti  Ti121  1  0.00433970  0.19765759  0.50422548  1
  Ti  Ti122  1  0.59374350  0.79318435  0.00854026  1
  Ti  Ti123  1  0.70123844  0.10258513  0.12566198  1
  Ti  Ti124  1  0.70270382  0.89738054  0.61137279  1
  Ti  Ti125  1  0.39857863  0.60470431  0.26589182  1
  Ti  Ti126  1  0.89971160  0.50435892  0.85781845  1
  Ti  Ti127  1  0.79461514  0.59943297  0.73885289  1
  Ti  Ti128  1  0.19544843  0.59613010  -0.01113866  1
  Ti  Ti129  1  0.29360560  0.29351177  0.63550484  1
  Ti  Ti130  1  0.00758226  0.59752542  -0.01107352  1
  Ti  Ti131  1  0.60374031  0.79853537  0.24647730  1
  Ti  Ti132  1  0.90798099  0.49772357  0.38888832  1
  Ti  Ti133  1  0.89024455  0.89697728  0.89225429  1
  Ti  Ti134  1  0.09299503  0.89231125  0.12186375  1
  Ti  Ti135  1  0.38757423  0.40536335  0.50497584  1
  Ti  Ti136  1  0.70505461  0.89194993  0.11417725  1
  Ti  Ti137  1  0.60188585  0.20715160  0.74600429  1
  Ti  Ti138  1  0.29239619  0.50741582  0.11814186  1
  Ti  Ti139  1  0.19828779  0.19544511  0.25303577  1
  Ti  Ti140  1  0.10085106  0.30509052  0.13215594  1
  Ti  Ti141  1  0.39640543  0.60187885  0.48766374  1
  Ti  Ti142  1  0.48937343  0.11494626  0.86517093  1
  Ti  Ti143  1  0.09610798  0.10010949  0.37342015  1
  Ti  Ti144  1  0.50303176  0.69560393  0.13318229  1
  Ti  Ti145  1  0.10670420  0.90618090  0.64014096  1
  Ti  Ti146  1  0.19693975  0.00213755  -0.02237322  1
  Ti  Ti147  1  0.10197498  0.28952015  0.63886096  1
  Ti  Ti148  1  0.79831247  0.19836672  0.24711121  1
  Ti  Ti149  1  0.60102324  0.79171300  0.51329800  1
  Ti  Ti150  1  0.00189223  -0.00067385  0.76219671  1
  Ti  Ti151  1  0.00461998  0.20396901  -0.00512189  1
  Ti  Ti152  1  0.49649328  0.70834498  0.37413346  1
  Ti  Ti153  1  0.58984864  0.20400145  0.01996231  1
  Ti  Ti154  1  0.20213951  0.40296643  0.75116818  1
  Ti  Ti155  1  0.09742411  0.89836817  0.87408607  1
  Ti  Ti156  1  0.40933766  0.59525253  0.74616342  1
  Ti  Ti157  1  -0.00870411  -0.00167478  0.00409016  1
  Ti  Ti158  1  0.90698610  0.50298920  0.13530205  1
  Ti  Ti159  1  0.30193904  0.50220423  0.87243964  1
  Mo  Mo160  1  0.09348194  0.70895891  0.38154881  1
  Mo  Mo161  1  0.90505115  0.09821367  0.12562344  1
  Mo  Mo162  1  0.79590561  0.40531154  0.73422034  1
  Mo  Mo163  1  0.50318489  0.88996278  0.13401591  1
  Mo  Mo164  1  0.50008400  0.10439537  0.13129475  1
  Mo  Mo165  1  0.51776552  0.90090855  0.61239917  1
  Mo  Mo166  1  0.08975294  0.09401252  0.88939901  1
  Mo  Mo167  1  0.30230504  0.10136927  0.87286885  1
  Mo  Mo168  1  0.19456831  0.80261108  0.75511128  1
  Mo  Mo169  1  0.09704917  0.30238877  0.86699153  1
  Mo  Mo170  1  0.79701163  0.19694070  0.75827380  1
  Mo  Mo171  1  0.60307735  0.40526452  0.48793867  1
  Mo  Mo172  1  0.00102203  0.19864420  0.76581131  1
  Mo  Mo173  1  0.19914689  0.40152790  0.24806049  1
  Mo  Mo174  1  0.40002647  0.20400309  0.73075505  1
  Mo  Mo175  1  0.18835466  0.00053350  0.77567296  1
  Mo  Mo176  1  0.70098933  0.30850709  0.63669583  1
  Mo  Mo177  1  0.50435945  0.69329572  0.62993074  1
  Mo  Mo178  1  0.70217941  0.49978787  0.38827643  1
  Mo  Mo179  1  0.70525586  0.09702646  0.35273992  1
  Mo  Mo180  1  0.29497762  0.10500899  0.36968339  1
  Mo  Mo181  1  0.10553703  0.50342617  0.86604870  1
  Mo  Mo182  1  -0.00278003  0.40124740  0.24572130  1
  Mo  Mo183  1  0.30988912  0.70436019  0.36754859  1
  Mo  Mo184  1  0.70176124  0.69107625  0.60958306  1
  Mo  Mo185  1  0.49496279  0.50534430  0.39186045  1
  Mo  Mo186  1  0.29749365  0.49734812  0.61507909  1
  Mo  Mo187  1  0.27505656  0.89838816  0.64926008  1
  Mo  Mo188  1  0.70556595  0.29856399  0.34748629  1
  Mo  Mo189  1  0.69991620  0.71050913  0.38282638  1
  Mo  Mo190  1  0.29699271  0.68956921  0.13606052  1
  Mo  Mo191  1  0.30180468  0.49698903  0.39549650  1
  Mo  Mo192  1  -0.00086852  0.80040429  0.23380206  1
  Mo  Mo193  1  0.80404684  0.79345271  0.00039683  1
  Mo  Mo194  1  0.50318403  0.30689215  0.11903605  1
  Mo  Mo195  1  -0.00098330  0.60024225  0.48749117  1
  Mo  Mo196  1  0.79993852  0.40204688  0.02151597  1
  Mo  Mo197  1  0.80092995  -0.00391176  0.01663677  1
  Mo  Mo198  1  0.20463120  0.58651869  0.76110544  1
  Mo  Mo199  1  -0.00911930  0.60196137  0.75864920  1
