# generated using pymatgen
data_HfZrTaTiMo
_symmetry_space_group_name_H-M   'P 1'
_cell_length_a   15.83158671
_cell_length_b   15.85146528
_cell_length_c   15.39341533
_cell_angle_alpha   89.91566560
_cell_angle_beta   89.98465257
_cell_angle_gamma   90.01157002
_symmetry_Int_Tables_number   1
_chemical_formula_structural   HfZrTaTiMo
_chemical_formula_sum   'Hf40 Zr40 Ta40 Ti40 Mo40'
_cell_volume   3863.03239552
_cell_formula_units_Z   40
loop_
 _symmetry_equiv_pos_site_id
 _symmetry_equiv_pos_as_xyz
  1  'x, y, z'
loop_
 _atom_site_type_symbol
 _atom_site_label
 _atom_site_symmetry_multiplicity
 _atom_site_fract_x
 _atom_site_fract_y
 _atom_site_fract_z
 _atom_site_occupancy
  Hf  Hf0  1  0.79933733  -0.00281143  0.26115555  1
  Hf  Hf1  1  0.00401295  0.00355692  0.00020045  1
  Hf  Hf2  1  0.50868906  0.69192599  0.60424367  1
  Hf  Hf3  1  0.79674805  0.80381213  0.01381435  1
  Hf  Hf4  1  0.10191861  0.10208085  0.14533954  1
  Hf  Hf5  1  0.50769820  0.09055917  0.62259585  1
  Hf  Hf6  1  0.08667497  0.69802501  0.37486184  1
  Hf  Hf7  1  0.38848509  0.39982507  -0.02070266  1
  Hf  Hf8  1  0.90596988  0.50710295  0.88831805  1
  Hf  Hf9  1  0.20121651  0.18942974  0.71705759  1
  Hf  Hf10  1  0.20464995  0.60763001  0.25213894  1
  Hf  Hf11  1  0.10890262  0.90260800  0.13301464  1
  Hf  Hf12  1  0.31225823  0.68428035  0.61049122  1
  Hf  Hf13  1  0.79264313  0.81029255  0.75171689  1
  Hf  Hf14  1  0.01285936  0.41100897  0.76281955  1
  Hf  Hf15  1  0.00840070  0.79404120  0.01587279  1
  Hf  Hf16  1  0.10955525  0.10768794  0.86182328  1
  Hf  Hf17  1  0.21562430  0.80150563  0.26603323  1
  Hf  Hf18  1  0.39658073  0.19364498  0.01142593  1
  Hf  Hf19  1  0.49957316  0.30759102  0.62098643  1
  Hf  Hf20  1  0.79644511  0.00065064  0.00186371  1
  Hf  Hf21  1  0.90625243  0.89945931  0.87478008  1
  Hf  Hf22  1  0.80091152  0.39776308  0.23074515  1
  Hf  Hf23  1  0.20202190  0.40476313  0.77163614  1
  Hf  Hf24  1  0.28932502  0.26994410  0.87368884  1
  Hf  Hf25  1  0.40021162  0.59427648  0.78054728  1
  Hf  Hf26  1  0.59245750  0.41076211  0.76717966  1
  Hf  Hf27  1  0.10652823  0.68762705  0.62799068  1
  Hf  Hf28  1  0.00779855  0.00221933  0.73575473  1
  Hf  Hf29  1  0.29471372  0.09327014  0.13866333  1
  Hf  Hf30  1  0.89986952  0.11070842  0.86352566  1
  Hf  Hf31  1  0.49725378  0.50100484  0.10996197  1
  Hf  Hf32  1  0.78879930  0.60134304  0.76168052  1
  Hf  Hf33  1  0.59767575  0.40610736  0.24878151  1
  Hf  Hf34  1  0.10299787  0.49466871  0.12469206  1
  Hf  Hf35  1  0.90447554  0.10231330  0.13478909  1
  Hf  Hf36  1  0.91177490  0.70114603  0.86784855  1
  Hf  Hf37  1  0.59969336  0.20341217  0.24611498  1
  Hf  Hf38  1  0.39044756  0.41448781  0.47954332  1
  Hf  Hf39  1  0.00161760  0.40788697  0.50588186  1
  Zr  Zr40  1  0.21008154  0.58264785  0.47111598  1
  Zr  Zr41  1  0.09353112  0.29453759  0.37249062  1
  Zr  Zr42  1  0.39775029  0.19505958  0.25031409  1
  Zr  Zr43  1  0.40591950  0.00044030  -0.00050883  1
  Zr  Zr44  1  0.80682726  0.00531563  0.48822892  1
  Zr  Zr45  1  0.79901027  0.60202086  0.22633916  1
  Zr  Zr46  1  0.20544840  0.79980085  0.49440600  1
  Zr  Zr47  1  0.17606812  0.38879975  -0.01943650  1
  Zr  Zr48  1  0.59860285  0.19481383  0.49112543  1
  Zr  Zr49  1  0.00981753  0.21229704  0.00497147  1
  Zr  Zr50  1  0.40760325  0.60497054  0.25515303  1
  Zr  Zr51  1  0.30103783  0.89648221  0.11894753  1
  Zr  Zr52  1  0.39498840  0.19441096  0.73026920  1
  Zr  Zr53  1  0.50112904  0.87891526  0.87686664  1
  Zr  Zr54  1  0.89512756  0.30720681  0.38280986  1
  Zr  Zr55  1  0.11246287  0.89684558  0.87087989  1
  Zr  Zr56  1  0.21429377  0.80198455  0.73796323  1
  Zr  Zr57  1  0.90990329  0.48555427  0.10668160  1
  Zr  Zr58  1  0.79222521  0.61406248  0.00384642  1
  Zr  Zr59  1  0.89751760  0.69544851  0.36577591  1
  Zr  Zr60  1  0.89609286  0.30220059  0.88043948  1
  Zr  Zr61  1  0.39593644  0.39932753  0.76642306  1
  Zr  Zr62  1  0.29905689  0.49776045  0.12023322  1
  Zr  Zr63  1  0.71191015  0.50388334  0.37723686  1
  Zr  Zr64  1  0.78944873  0.40749234  0.76143936  1
  Zr  Zr65  1  0.79930946  0.80408799  0.49575244  1
  Zr  Zr66  1  0.69769434  0.30495527  0.62271934  1
  Zr  Zr67  1  0.49080257  0.87892458  0.37432000  1
  Zr  Zr68  1  0.49994085  0.10707785  0.85996819  1
  Zr  Zr69  1  0.49784848  0.50907300  0.61925031  1
  Zr  Zr70  1  0.60334082  -0.00304224  0.00011635  1
  Zr  Zr71  1  0.49402278  0.30230602  0.36864221  1
  Zr  Zr72  1  0.89565786  0.30011526  0.63581135  1
  Zr  Zr73  1  0.70481172  0.10448451  0.63702913  1
  Zr  Zr74  1  0.29509589  0.49829063  0.62456148  1
  Zr  Zr75  1  0.79910031  0.20947151  0.24059287  1
  Zr  Zr76  1  0.00164493  0.18621353  0.51355345  1
  Zr  Zr77  1  0.69563298  0.69987507  0.62543924  1
  Zr  Zr78  1  0.60601144  -0.01738933  0.76087648  1
  Zr  Zr79  1  0.40805551  0.79117244  0.74280370  1
  Ta  Ta80  1  0.90600556  0.50238974  0.37224926  1
  Ta  Ta81  1  -0.00309786  0.59956732  0.50847513  1
  Ta  Ta82  1  0.39368289  0.19949422  0.50317093  1
  Ta  Ta83  1  0.69963549  0.10387030  0.36712494  1
  Ta  Ta84  1  0.59348003  0.60619687  0.77460609  1
  Ta  Ta85  1  0.79454803  0.79967333  0.24122200  1
  Ta  Ta86  1  0.70083372  0.11107677  0.86908024  1
  Ta  Ta87  1  0.19662917  0.00426327  0.50006421  1
  Ta  Ta88  1  -0.00600091  0.79872232  0.51255398  1
  Ta  Ta89  1  0.69407936  0.50546908  0.61513932  1
  Ta  Ta90  1  0.60055140  0.79931747  0.02165986  1
  Ta  Ta91  1  0.69356397  0.09626905  0.13582379  1
  Ta  Ta92  1  0.28822330  0.30348501  0.13456901  1
  Ta  Ta93  1  0.89721211  0.50569047  0.63163109  1
  Ta  Ta94  1  0.00495718  -0.00105495  0.26751921  1
  Ta  Ta95  1  0.00179866  0.80154087  0.73248233  1
  Ta  Ta96  1  0.29201311  0.29990220  0.37521474  1
  Ta  Ta97  1  0.20090495  -0.00358002  0.28145217  1
  Ta  Ta98  1  0.69360306  0.29239971  0.88662195  1
  Ta  Ta99  1  0.30019136  0.10134899  0.38562473  1
  Ta  Ta100  1  0.90462761  0.90333169  0.13831265  1
  Ta  Ta101  1  0.29993923  0.71269410  0.89673828  1
  Ta  Ta102  1  0.39293688  -0.01092766  0.26726727  1
  Ta  Ta103  1  0.80629394  0.59927038  0.50498291  1
  Ta  Ta104  1  0.10114897  0.70140446  0.86529410  1
  Ta  Ta105  1  0.59770505  0.41055656  0.48759758  1
  Ta  Ta106  1  0.39111347  -0.01284177  0.73383443  1
  Ta  Ta107  1  0.90720315  0.89077552  0.36779765  1
  Ta  Ta108  1  0.49091328  0.30742338  0.12133142  1
  Ta  Ta109  1  0.60031559  0.60441417  0.24385072  1
  Ta  Ta110  1  0.21202003  -0.00363314  0.72300418  1
  Ta  Ta111  1  0.10459478  0.30838789  0.62510824  1
  Ta  Ta112  1  0.79391861  0.19816350  0.01297177  1
  Ta  Ta113  1  0.70431351  0.30541089  0.38575556  1
  Ta  Ta114  1  0.09986154  0.89949477  0.61330523  1
  Ta  Ta115  1  0.60816315  -0.00874823  0.48250950  1
  Ta  Ta116  1  0.08803288  0.30640203  0.14799485  1
  Ta  Ta117  1  0.50940827  0.89213595  0.61466026  1
  Ta  Ta118  1  0.69554848  0.90302436  0.62009589  1
  Ta  Ta119  1  0.20026332  0.00605904  -0.00338303  1
  Ti  Ti120  1  0.59437910  0.78700708  0.24371971  1
  Ti  Ti121  1  0.59780126  -0.00627199  0.26691215  1
  Ti  Ti122  1  0.19352631  0.61373702  0.00317161  1
  Ti  Ti123  1  -0.00034060  -0.00061703  0.49471707  1
  Ti  Ti124  1  0.09361535  0.89592053  0.38480406  1
  Ti  Ti125  1  0.10768486  0.50025055  0.62278429  1
  Ti  Ti126  1  0.29913897  0.08465444  0.86864887  1
  Ti  Ti127  1  0.19631671  0.19581254  0.01149688  1
  Ti  Ti128  1  0.49591367  0.09418809  0.37831165  1
  Ti  Ti129  1  0.89601868  0.90547839  0.62177638  1
  Ti  Ti130  1  0.29260084  0.31186682  0.60647232  1
  Ti  Ti131  1  0.50158973  0.08772448  0.13958422  1
  Ti  Ti132  1  0.80038832  0.19833766  0.49667080  1
  Ti  Ti133  1  0.59483081  0.19274220  0.01273747  1
  Ti  Ti134  1  0.19717175  0.19755477  0.26223903  1
  Ti  Ti135  1  0.19775411  0.19666754  0.50295062  1
  Ti  Ti136  1  0.49534552  0.89442244  0.13925385  1
  Ti  Ti137  1  0.00253331  0.79544043  0.23897109  1
  Ti  Ti138  1  0.68250968  0.72359656  0.87517914  1
  Ti  Ti139  1  0.09132322  0.49631923  0.36375692  1
  Ti  Ti140  1  0.00162344  0.60201090  0.23350401  1
  Ti  Ti141  1  0.79929497  -0.00160413  0.75639787  1
  Ti  Ti142  1  0.69278306  0.90342063  0.14235944  1
  Ti  Ti143  1  0.59370358  0.61123145  -0.00226784  1
  Ti  Ti144  1  0.69073584  0.49720724  0.10566162  1
  Ti  Ti145  1  0.69179898  0.49199713  0.90343027  1
  Ti  Ti146  1  0.39968429  -0.00646478  0.49961258  1
  Ti  Ti147  1  0.69796845  0.70146378  0.36950604  1
  Ti  Ti148  1  0.00821956  0.61257539  0.01674986  1
  Ti  Ti149  1  0.50586439  0.29184700  0.88262349  1
  Ti  Ti150  1  0.30184748  0.89785030  0.88625127  1
  Ti  Ti151  1  0.69017232  0.30800833  0.10416389  1
  Ti  Ti152  1  0.20098059  0.59417623  0.76911540  1
  Ti  Ti153  1  0.90910255  0.10914004  0.36605792  1
  Ti  Ti154  1  0.30688489  0.70529617  0.11267372  1
  Ti  Ti155  1  0.89473382  0.10272421  0.63760972  1
  Ti  Ti156  1  0.20181474  0.40216088  0.26136352  1
  Ti  Ti157  1  0.60763046  0.80069901  0.48629686  1
  Ti  Ti158  1  0.90003753  0.69555801  0.63498828  1
  Ti  Ti159  1  0.33256314  0.71449230  0.38435952  1
  Mo  Mo160  1  0.50605685  0.50526362  0.36870492  1
  Mo  Mo161  1  0.50440851  0.50372687  0.89497002  1
  Mo  Mo162  1  0.69142840  0.70138979  0.12974193  1
  Mo  Mo163  1  0.00160917  0.20354457  0.73475212  1
  Mo  Mo164  1  0.70344526  0.90089443  0.87994516  1
  Mo  Mo165  1  0.00640572  0.40128388  -0.01718718  1
  Mo  Mo166  1  0.49658954  0.70008673  0.11383434  1
  Mo  Mo167  1  0.30287959  0.49340298  0.35269386  1
  Mo  Mo168  1  0.09872779  0.09447103  0.61702919  1
  Mo  Mo169  1  0.30712475  0.89900507  0.60524993  1
  Mo  Mo170  1  0.79473772  0.19953429  0.75752544  1
  Mo  Mo171  1  0.40723286  0.79995423  0.51457475  1
  Mo  Mo172  1  0.00311080  0.60278880  0.73493594  1
  Mo  Mo173  1  0.30540739  0.09389489  0.59910232  1
  Mo  Mo174  1  0.39291443  0.39770822  0.24956979  1
  Mo  Mo175  1  0.39536559  0.60330501  -0.00568584  1
  Mo  Mo176  1  0.09196202  0.52864709  0.89043778  1
  Mo  Mo177  1  -0.00234892  0.20217006  0.24869857  1
  Mo  Mo178  1  0.51333940  0.69624765  0.38268877  1
  Mo  Mo179  1  0.09566641  0.28078405  0.84793513  1
  Mo  Mo180  1  0.60926737  0.60051294  0.47893946  1
  Mo  Mo181  1  0.30347575  0.90142444  0.38991552  1
  Mo  Mo182  1  0.19776246  0.79879331  -0.00000950  1
  Mo  Mo183  1  0.40960259  0.59866201  0.47344582  1
  Mo  Mo184  1  0.90212990  0.30122089  0.10965992  1
  Mo  Mo185  1  -0.00211996  0.40551552  0.25750179  1
  Mo  Mo186  1  0.10984170  0.70074651  0.14006722  1
  Mo  Mo187  1  0.59162094  0.39310122  -0.00512116  1
  Mo  Mo188  1  0.19357920  0.39516314  0.48622507  1
  Mo  Mo189  1  0.28873668  0.51654702  0.89498387  1
  Mo  Mo190  1  0.80116899  0.41004302  0.50951024  1
  Mo  Mo191  1  0.40464663  0.79504990  0.23609079  1
  Mo  Mo192  1  0.79399125  0.39459326  0.00367989  1
  Mo  Mo193  1  0.40482574  0.79934238  0.01378108  1
  Mo  Mo194  1  0.69821029  0.89475617  0.36046748  1
  Mo  Mo195  1  0.59870803  0.20879483  0.75625566  1
  Mo  Mo196  1  0.90443006  0.70450300  0.13370407  1
  Mo  Mo197  1  0.09986245  0.09735959  0.37726398  1
  Mo  Mo198  1  0.49995183  0.70155074  0.89658071  1
  Mo  Mo199  1  0.60173321  0.79124923  0.74328679  1
