# generated using pymatgen
data_HfZrTaTiMo
_symmetry_space_group_name_H-M   'P 1'
_cell_length_a   15.84185884
_cell_length_b   15.82999599
_cell_length_c   15.41223744
_cell_angle_alpha   90.10539162
_cell_angle_beta   90.03667555
_cell_angle_gamma   90.03679606
_symmetry_Int_Tables_number   1
_chemical_formula_structural   HfZrTaTiMo
_chemical_formula_sum   'Hf40 Zr40 Ta40 Ti40 Mo40'
_cell_volume   3865.01978506
_cell_formula_units_Z   40
loop_
 _symmetry_equiv_pos_site_id
 _symmetry_equiv_pos_as_xyz
  1  'x, y, z'
loop_
 _atom_site_type_symbol
 _atom_site_label
 _atom_site_symmetry_multiplicity
 _atom_site_fract_x
 _atom_site_fract_y
 _atom_site_fract_z
 _atom_site_occupancy
  Hf  Hf0  1  0.79953948  0.59903221  0.73874619  1
  Hf  Hf1  1  0.20213168  0.19841216  0.48561153  1
  Hf  Hf2  1  0.79493778  0.40594587  0.51574300  1
  Hf  Hf3  1  0.80405177  0.39425268  -0.00247158  1
  Hf  Hf4  1  0.48748949  0.70758509  0.88494683  1
  Hf  Hf5  1  0.01390609  0.80113111  -0.00267720  1
  Hf  Hf6  1  0.80155740  0.80370208  0.24560474  1
  Hf  Hf7  1  0.20470651  -0.00506551  -0.00211569  1
  Hf  Hf8  1  0.59930908  0.78827446  0.51352605  1
  Hf  Hf9  1  0.20769300  0.80510733  0.00317329  1
  Hf  Hf10  1  0.11100226  0.69417133  0.85473594  1
  Hf  Hf11  1  0.00189059  0.58292363  0.71934422  1
  Hf  Hf12  1  0.70365097  0.29975647  0.87129852  1
  Hf  Hf13  1  0.91586149  0.90562001  0.13952403  1
  Hf  Hf14  1  0.69318450  0.70138396  0.11566236  1
  Hf  Hf15  1  0.69965921  0.70001175  0.88043342  1
  Hf  Hf16  1  0.10153935  0.50873304  0.12886759  1
  Hf  Hf17  1  0.38774452  0.59626747  0.76387808  1
  Hf  Hf18  1  0.49692589  0.10629670  0.62139226  1
  Hf  Hf19  1  0.10848868  0.10249626  0.85663727  1
  Hf  Hf20  1  0.80355116  0.40476086  0.74100988  1
  Hf  Hf21  1  0.00271510  0.39771007  0.00135806  1
  Hf  Hf22  1  0.80242153  0.59757588  0.24688159  1
  Hf  Hf23  1  0.90194167  0.29351361  0.13008598  1
  Hf  Hf24  1  0.60763521  0.00257632  0.76374793  1
  Hf  Hf25  1  0.49575431  0.50012890  0.37410573  1
  Hf  Hf26  1  0.80302209  0.20565040  0.51299923  1
  Hf  Hf27  1  0.69159487  0.49033213  0.11900415  1
  Hf  Hf28  1  0.49104108  0.69466680  0.63641056  1
  Hf  Hf29  1  0.19661853  0.39439085  0.50117858  1
  Hf  Hf30  1  0.38811445  0.60608819  0.49526732  1
  Hf  Hf31  1  0.20640654  -0.00398628  0.49454630  1
  Hf  Hf32  1  0.59768299  0.82547924  0.00155746  1
  Hf  Hf33  1  0.18763642  0.40951525  0.74583590  1
  Hf  Hf34  1  0.77865428  -0.00136111  -0.00724939  1
  Hf  Hf35  1  0.49165948  0.90483205  0.63708099  1
  Hf  Hf36  1  0.91419017  0.68787809  0.87820951  1
  Hf  Hf37  1  0.09832936  0.09308862  0.12846741  1
  Hf  Hf38  1  0.90038138  0.50676328  0.38568861  1
  Hf  Hf39  1  0.30113809  0.69220379  0.12938222  1
  Zr  Zr40  1  0.70197181  0.90000149  0.37577242  1
  Zr  Zr41  1  0.90224280  0.30614306  0.38659489  1
  Zr  Zr42  1  0.00119918  0.78686751  0.71816776  1
  Zr  Zr43  1  0.00298258  0.19869808  0.27339920  1
  Zr  Zr44  1  0.78553418  0.60119712  0.51455291  1
  Zr  Zr45  1  0.09927341  0.50078075  0.38354402  1
  Zr  Zr46  1  0.30559729  0.89972325  0.14795383  1
  Zr  Zr47  1  0.61129704  0.18514103  0.26028958  1
  Zr  Zr48  1  0.50056978  0.89632992  0.36568334  1
  Zr  Zr49  1  0.20466821  0.40433384  -0.00885916  1
  Zr  Zr50  1  0.80321307  0.80998865  0.00443651  1
  Zr  Zr51  1  0.58290408  0.38083944  0.24163073  1
  Zr  Zr52  1  0.79828981  0.79538242  0.51035959  1
  Zr  Zr53  1  0.50419428  0.31050259  0.89861036  1
  Zr  Zr54  1  0.10259071  0.70020565  0.38426238  1
  Zr  Zr55  1  0.79673225  0.01461231  0.25952166  1
  Zr  Zr56  1  0.89595208  0.90418174  0.85418001  1
  Zr  Zr57  1  0.19862493  0.20043258  0.25836835  1
  Zr  Zr58  1  0.52549032  0.09053612  0.10758350  1
  Zr  Zr59  1  0.39029686  0.80311645  0.49877120  1
  Zr  Zr60  1  0.49403612  0.30125485  0.62578937  1
  Zr  Zr61  1  -0.00117501  0.00108735  -0.01140291  1
  Zr  Zr62  1  0.80086659  0.79444816  0.73582932  1
  Zr  Zr63  1  0.80791902  0.18853130  -0.01532647  1
  Zr  Zr64  1  0.91624953  0.69786436  0.12587950  1
  Zr  Zr65  1  0.79471435  0.39234557  0.24859289  1
  Zr  Zr66  1  0.48672161  0.90168441  0.86676978  1
  Zr  Zr67  1  0.59480418  0.40296117  0.50192988  1
  Zr  Zr68  1  0.30591247  0.09678410  0.13431712  1
  Zr  Zr69  1  0.29645802  0.29121644  0.63513584  1
  Zr  Zr70  1  0.41913934  0.21118591  0.24487936  1
  Zr  Zr71  1  0.59874488  -0.00149841  0.50063227  1
  Zr  Zr72  1  0.20305631  0.20053639  -0.00058497  1
  Zr  Zr73  1  0.90255912  0.10068163  0.12937794  1
  Zr  Zr74  1  0.59652080  0.20046334  0.76231883  1
  Zr  Zr75  1  0.10847098  0.89837317  0.84857965  1
  Zr  Zr76  1  0.80549944  0.59074977  -0.00174474  1
  Zr  Zr77  1  0.39575113  0.40519787  0.77056055  1
  Zr  Zr78  1  0.69021193  0.69550289  0.36265645  1
  Zr  Zr79  1  0.58123084  0.59697279  0.23111594  1
  Ta  Ta80  1  0.58865348  0.59340945  -0.00598389  1
  Ta  Ta81  1  0.30364390  0.09800990  0.63645439  1
  Ta  Ta82  1  0.49434328  0.69529686  0.37001645  1
  Ta  Ta83  1  0.90459736  0.90650713  0.60807456  1
  Ta  Ta84  1  0.70268735  0.90625766  0.63269410  1
  Ta  Ta85  1  0.10224217  0.70554978  0.13888110  1
  Ta  Ta86  1  0.60248994  0.79571058  0.75154345  1
  Ta  Ta87  1  0.47935723  0.48875182  0.10351228  1
  Ta  Ta88  1  0.00267907  0.00361270  0.72671379  1
  Ta  Ta89  1  0.19415493  0.60605895  -0.00169487  1
  Ta  Ta90  1  0.39314711  0.00440168  0.49526904  1
  Ta  Ta91  1  0.00435078  0.40224232  0.24983017  1
  Ta  Ta92  1  0.29991400  0.90363562  0.64130108  1
  Ta  Ta93  1  0.10195063  0.30060413  0.13160655  1
  Ta  Ta94  1  0.48582638  0.70019152  0.10413676  1
  Ta  Ta95  1  0.70277063  0.10054353  0.62625435  1
  Ta  Ta96  1  0.39202846  0.40074030  0.49450119  1
  Ta  Ta97  1  0.29631511  0.50480900  0.62295321  1
  Ta  Ta98  1  0.10415994  0.89830840  0.15006138  1
  Ta  Ta99  1  0.90842911  0.89992433  0.38716535  1
  Ta  Ta100  1  0.30779917  0.31365889  0.12820413  1
  Ta  Ta101  1  0.49737828  0.09964835  0.89352821  1
  Ta  Ta102  1  0.30873798  0.09457397  0.36183233  1
  Ta  Ta103  1  0.11264365  0.10716059  0.62644018  1
  Ta  Ta104  1  0.09055527  0.50772951  0.87494746  1
  Ta  Ta105  1  0.68439344  0.48920561  0.87500762  1
  Ta  Ta106  1  0.49026026  0.50014132  0.62645331  1
  Ta  Ta107  1  0.68972548  0.27872672  0.10881076  1
  Ta  Ta108  1  0.90586860  0.70660732  0.38313283  1
  Ta  Ta109  1  0.58947185  0.59309510  0.76529326  1
  Ta  Ta110  1  0.69145862  0.29645962  0.63198838  1
  Ta  Ta111  1  0.30054884  0.90090010  0.35938608  1
  Ta  Ta112  1  0.00529010  0.20311950  -0.01331335  1
  Ta  Ta113  1  0.69370249  0.49567126  0.36728430  1
  Ta  Ta114  1  0.90269420  0.09391986  0.40188035  1
  Ta  Ta115  1  0.69160703  0.29667687  0.38986184  1
  Ta  Ta116  1  0.00505138  0.20171645  0.73873713  1
  Ta  Ta117  1  0.30234554  0.89908037  0.85099808  1
  Ta  Ta118  1  0.90932993  0.29938520  0.85828017  1
  Ta  Ta119  1  0.30572428  0.30674269  0.36480343  1
  Ti  Ti120  1  0.29488328  0.71273056  0.86676144  1
  Ti  Ti121  1  0.20735990  0.60121818  0.25698481  1
  Ti  Ti122  1  0.39709134  0.40715936  0.25134931  1
  Ti  Ti123  1  0.40394207  0.78583888  0.25000290  1
  Ti  Ti124  1  0.90377189  0.09942552  0.85485959  1
  Ti  Ti125  1  0.01443505  0.20916022  0.50508287  1
  Ti  Ti126  1  0.29447718  0.29348881  0.87294901  1
  Ti  Ti127  1  0.00506801  0.40107570  0.52150474  1
  Ti  Ti128  1  0.20636457  0.79507976  0.49940597  1
  Ti  Ti129  1  0.40051316  0.19679980  0.76566399  1
  Ti  Ti130  1  0.39774417  0.20383323  0.00699394  1
  Ti  Ti131  1  0.39701792  0.20343760  0.48942822  1
  Ti  Ti132  1  0.28824774  0.70224104  0.63761660  1
  Ti  Ti133  1  0.38176508  0.59073479  -0.01738537  1
  Ti  Ti134  1  0.79879124  0.19955104  0.26445841  1
  Ti  Ti135  1  0.00118497  0.60663984  0.51514005  1
  Ti  Ti136  1  0.58938272  0.80263164  0.23304272  1
  Ti  Ti137  1  0.10070504  0.89698553  0.37405491  1
  Ti  Ti138  1  0.30619815  0.08952991  0.86492105  1
  Ti  Ti139  1  0.29641212  0.50650667  0.37430859  1
  Ti  Ti140  1  0.29891860  0.50155211  0.12804820  1
  Ti  Ti141  1  0.10992850  0.89619685  0.62085559  1
  Ti  Ti142  1  0.80499468  0.19518640  0.74135957  1
  Ti  Ti143  1  0.70455848  0.10145832  0.40007683  1
  Ti  Ti144  1  0.90645535  0.49423388  0.87132899  1
  Ti  Ti145  1  0.90591790  0.09927770  0.61593103  1
  Ti  Ti146  1  0.67746160  0.92856827  0.14116767  1
  Ti  Ti147  1  0.90828193  0.50095782  0.12591323  1
  Ti  Ti148  1  0.40383978  -0.01880462  0.00812722  1
  Ti  Ti149  1  0.00183742  0.60399863  0.25781648  1
  Ti  Ti150  1  0.67875061  0.49978124  0.64089430  1
  Ti  Ti151  1  0.09612009  0.30195788  0.86175764  1
  Ti  Ti152  1  0.42154828  0.00583738  0.25085063  1
  Ti  Ti153  1  0.90890958  0.30236098  0.63344590  1
  Ti  Ti154  1  0.00911112  0.00420290  0.27491538  1
  Ti  Ti155  1  0.50372433  0.10683700  0.38803288  1
  Ti  Ti156  1  0.19803396  0.40095268  0.25498021  1
  Ti  Ti157  1  0.19960095  0.79536059  0.26002337  1
  Ti  Ti158  1  0.59533180  0.59919335  0.50508725  1
  Ti  Ti159  1  0.01320761  0.00158606  0.50509652  1
  Mo  Mo160  1  0.80827033  0.00651122  0.73001555  1
  Mo  Mo161  1  0.28000550  0.51432120  0.87222810  1
  Mo  Mo162  1  0.20119215  0.79949412  0.73482519  1
  Mo  Mo163  1  0.09774102  0.29551718  0.63301124  1
  Mo  Mo164  1  0.39122596  0.80172581  0.00559285  1
  Mo  Mo165  1  0.59563261  0.40627242  0.74557991  1
  Mo  Mo166  1  0.20169116  0.00288540  0.73680671  1
  Mo  Mo167  1  0.20658511  0.20222683  0.75979280  1
  Mo  Mo168  1  0.60457790  0.00033932  -0.01904585  1
  Mo  Mo169  1  0.49241451  0.29812847  0.38817821  1
  Mo  Mo170  1  0.20522807  0.60232955  0.50820701  1
  Mo  Mo171  1  0.39694535  0.79697471  0.74213699  1
  Mo  Mo172  1  0.19610440  0.60083623  0.73577655  1
  Mo  Mo173  1  0.60063082  0.00370146  0.27082704  1
  Mo  Mo174  1  0.00747880  0.80701822  0.49952981  1
  Mo  Mo175  1  -0.00093909  0.39772091  0.74283856  1
  Mo  Mo176  1  0.70194697  0.89725595  0.85542963  1
  Mo  Mo177  1  0.40242030  0.01244967  0.75123958  1
  Mo  Mo178  1  0.10867993  0.69988502  0.60595566  1
  Mo  Mo179  1  0.60106661  0.20072552  0.49895817  1
  Mo  Mo180  1  0.59955598  0.39681305  0.01230017  1
  Mo  Mo181  1  0.30045006  0.70244065  0.36079652  1
  Mo  Mo182  1  0.90134522  0.69919038  0.60488208  1
  Mo  Mo183  1  0.10174321  0.30592744  0.36710215  1
  Mo  Mo184  1  0.01146756  0.59665398  0.00036531  1
  Mo  Mo185  1  0.38661245  0.40138569  -0.00642419  1
  Mo  Mo186  1  0.70768695  0.10224917  0.12791184  1
  Mo  Mo187  1  0.71387685  0.09888628  0.85164193  1
  Mo  Mo188  1  0.19445400  -0.00200650  0.27025390  1
  Mo  Mo189  1  0.68611699  0.69349918  0.64264072  1
  Mo  Mo190  1  0.00282358  0.80363721  0.26746282  1
  Mo  Mo191  1  0.80565815  0.00327096  0.51127031  1
  Mo  Mo192  1  0.49686962  0.29706964  0.10543572  1
  Mo  Mo193  1  0.09938790  0.09510327  0.39693975  1
  Mo  Mo194  1  0.39387961  0.59598311  0.25143589  1
  Mo  Mo195  1  0.49336624  0.50278478  0.89219324  1
  Mo  Mo196  1  0.61259203  0.19003716  -0.01476845  1
  Mo  Mo197  1  0.10650190  0.49966776  0.60698093  1
  Mo  Mo198  1  0.90034910  0.49604345  0.61187961  1
  Mo  Mo199  1  0.49907398  0.89829361  0.13455891  1
