# generated using pymatgen
data_HfZrTaTiMo
_symmetry_space_group_name_H-M   'P 1'
_cell_length_a   15.83220670
_cell_length_b   15.84271303
_cell_length_c   15.42569421
_cell_angle_alpha   90.05124924
_cell_angle_beta   90.04793857
_cell_angle_gamma   89.90990460
_symmetry_Int_Tables_number   1
_chemical_formula_structural   HfZrTaTiMo
_chemical_formula_sum   'Hf40 Zr40 Ta40 Ti40 Mo40'
_cell_volume   3869.14372479
_cell_formula_units_Z   40
loop_
 _symmetry_equiv_pos_site_id
 _symmetry_equiv_pos_as_xyz
  1  'x, y, z'
loop_
 _atom_site_type_symbol
 _atom_site_label
 _atom_site_symmetry_multiplicity
 _atom_site_fract_x
 _atom_site_fract_y
 _atom_site_fract_z
 _atom_site_occupancy
  Hf  Hf0  1  0.09748891  0.29202138  0.35336224  1
  Hf  Hf1  1  0.10795926  0.90145046  0.38324500  1
  Hf  Hf2  1  0.40990152  -0.01216480  -0.01072679  1
  Hf  Hf3  1  0.00652443  0.60910584  0.25993596  1
  Hf  Hf4  1  0.40076287  0.80562042  0.27517501  1
  Hf  Hf5  1  0.60649045  0.79858251  0.73891469  1
  Hf  Hf6  1  0.39423392  0.20266528  0.49426709  1
  Hf  Hf7  1  0.70008181  0.29453258  0.87648070  1
  Hf  Hf8  1  -0.00260013  0.19055181  0.49516631  1
  Hf  Hf9  1  0.20665758  0.79278559  -0.00659289  1
  Hf  Hf10  1  -0.01411751  0.21582311  -0.00524094  1
  Hf  Hf11  1  0.81264494  0.38965390  0.00290754  1
  Hf  Hf12  1  0.49830251  0.30232361  0.13821458  1
  Hf  Hf13  1  0.20524926  0.39841612  0.23705388  1
  Hf  Hf14  1  0.11025637  0.70436777  0.60807950  1
  Hf  Hf15  1  0.18709915  0.39569063  0.76194039  1
  Hf  Hf16  1  0.59286395  0.60299691  0.00517769  1
  Hf  Hf17  1  0.38637883  0.41339989  0.25521075  1
  Hf  Hf18  1  0.50038965  0.31454850  0.37607817  1
  Hf  Hf19  1  0.11120692  0.10159732  0.88495826  1
  Hf  Hf20  1  0.38954860  0.19718521  0.26116685  1
  Hf  Hf21  1  0.49105403  0.31259428  0.62276020  1
  Hf  Hf22  1  0.00300738  0.59161543  0.49277175  1
  Hf  Hf23  1  0.91655645  0.69125484  0.89033024  1
  Hf  Hf24  1  0.50049527  0.50199042  0.85759614  1
  Hf  Hf25  1  0.10167820  0.10004651  0.64139297  1
  Hf  Hf26  1  0.90637215  0.30263685  0.14735641  1
  Hf  Hf27  1  0.70445728  0.70098289  0.12471548  1
  Hf  Hf28  1  0.69832462  0.49745394  0.13538819  1
  Hf  Hf29  1  0.69043633  0.70482456  0.38069023  1
  Hf  Hf30  1  -0.00237049  0.39296040  0.48193917  1
  Hf  Hf31  1  0.60197681  0.19282844  0.24800560  1
  Hf  Hf32  1  0.59732063  0.39667832  -0.00003787  1
  Hf  Hf33  1  0.00413773  0.21139910  0.76210937  1
  Hf  Hf34  1  0.38283110  0.60026334  -0.01811792  1
  Hf  Hf35  1  0.81219018  0.79742755  0.75004053  1
  Hf  Hf36  1  0.19847099  0.19075052  0.23213190  1
  Hf  Hf37  1  0.49561755  0.70245361  0.86108057  1
  Hf  Hf38  1  0.11398665  0.90610091  0.62788405  1
  Hf  Hf39  1  0.79642530  0.20430538  0.73873612  1
  Zr  Zr40  1  0.88947702  0.28576646  0.36270987  1
  Zr  Zr41  1  0.69482295  0.30673572  0.37671137  1
  Zr  Zr42  1  0.28569982  0.30284443  0.61749202  1
  Zr  Zr43  1  0.58938018  0.00023518  0.24477255  1
  Zr  Zr44  1  0.27813652  0.09465346  0.38567149  1
  Zr  Zr45  1  0.38320447  0.40346094  0.76181739  1
  Zr  Zr46  1  0.20570653  0.59072160  0.74860178  1
  Zr  Zr47  1  0.09450690  0.50598458  0.12673335  1
  Zr  Zr48  1  0.48669162  0.51155866  0.13380514  1
  Zr  Zr49  1  0.29075576  0.09521198  0.62634563  1
  Zr  Zr50  1  0.88610628  0.10474941  0.88012933  1
  Zr  Zr51  1  0.91283327  0.90424643  0.61967612  1
  Zr  Zr52  1  0.59914541  -0.00549837  0.50060697  1
  Zr  Zr53  1  0.90827574  0.70993935  0.38935677  1
  Zr  Zr54  1  0.70480952  0.69671147  0.61294718  1
  Zr  Zr55  1  0.20520175  0.40600292  0.00949891  1
  Zr  Zr56  1  0.40525431  0.00894498  0.75261575  1
  Zr  Zr57  1  0.40217010  0.39747448  -0.00716063  1
  Zr  Zr58  1  0.69080322  0.10071207  0.87475638  1
  Zr  Zr59  1  -0.00680397  -0.02179800  -0.01658653  1
  Zr  Zr60  1  0.01271929  0.79211568  0.75752942  1
  Zr  Zr61  1  0.59854800  0.20254101  0.50868024  1
  Zr  Zr62  1  0.80627994  0.01427711  0.24514046  1
  Zr  Zr63  1  0.70436321  0.50461715  0.88088710  1
  Zr  Zr64  1  0.48279373  0.71685266  0.12321580  1
  Zr  Zr65  1  0.70142790  0.89832437  0.12784115  1
  Zr  Zr66  1  0.09532842  0.09133143  0.10764580  1
  Zr  Zr67  1  0.79889888  0.81187429  0.50437742  1
  Zr  Zr68  1  0.41738716  0.78724464  0.49799545  1
  Zr  Zr69  1  0.58564486  0.81569521  -0.00033503  1
  Zr  Zr70  1  0.39014406  -0.01899497  0.49389585  1
  Zr  Zr71  1  0.90558043  0.30381003  0.62383902  1
  Zr  Zr72  1  0.70258386  0.90556434  0.87279520  1
  Zr  Zr73  1  0.00669417  0.59186187  0.73969862  1
  Zr  Zr74  1  0.70104268  0.90359312  0.37294039  1
  Zr  Zr75  1  0.70676548  0.69961217  0.88310578  1
  Zr  Zr76  1  0.81381956  0.79875760  0.24678570  1
  Zr  Zr77  1  0.19699706  0.79104992  0.25223095  1
  Zr  Zr78  1  0.31149831  0.89290673  0.11932963  1
  Zr  Zr79  1  0.89100135  0.49245030  0.61899502  1
  Ta  Ta80  1  0.29782062  0.09833348  0.88831268  1
  Ta  Ta81  1  0.48192624  0.10353471  0.12105905  1
  Ta  Ta82  1  0.30025284  0.89487010  0.86289589  1
  Ta  Ta83  1  0.29409318  0.28666681  0.89060168  1
  Ta  Ta84  1  0.22293649  0.80807132  0.49638387  1
  Ta  Ta85  1  0.49873880  0.09788662  0.37912065  1
  Ta  Ta86  1  0.79335441  0.58106096  0.48636645  1
  Ta  Ta87  1  0.58866926  0.60620838  0.50560132  1
  Ta  Ta88  1  0.80506894  0.59751178  0.74622838  1
  Ta  Ta89  1  0.89392975  0.10241941  0.11280014  1
  Ta  Ta90  1  0.49241789  0.50462252  0.62858782  1
  Ta  Ta91  1  0.80174813  0.40360528  0.75994154  1
  Ta  Ta92  1  0.59185517  0.61010389  0.25232002  1
  Ta  Ta93  1  0.90549228  0.69657847  0.61076185  1
  Ta  Ta94  1  0.70396627  0.31618189  0.61857746  1
  Ta  Ta95  1  0.11233877  0.49508294  0.37403269  1
  Ta  Ta96  1  0.82163942  0.80941803  0.00180119  1
  Ta  Ta97  1  0.80002396  0.40677633  0.25820007  1
  Ta  Ta98  1  -0.00069928  -0.00374888  0.76728638  1
  Ta  Ta99  1  0.80302360  0.60078257  0.25938482  1
  Ta  Ta100  1  0.40262977  0.20295929  0.76452321  1
  Ta  Ta101  1  0.08990983  0.50882007  0.89248373  1
  Ta  Ta102  1  0.50187603  0.89625307  0.63063842  1
  Ta  Ta103  1  0.58967116  0.20114991  0.00499642  1
  Ta  Ta104  1  0.70996717  0.10880236  0.38170165  1
  Ta  Ta105  1  0.60623445  0.59597694  0.73371293  1
  Ta  Ta106  1  0.70287969  0.29761696  0.13446813  1
  Ta  Ta107  1  0.80089175  0.19847137  0.51170667  1
  Ta  Ta108  1  0.20065067  -0.00469694  0.24377413  1
  Ta  Ta109  1  0.90319260  0.50098620  0.13607275  1
  Ta  Ta110  1  0.59091920  0.20245602  0.74070967  1
  Ta  Ta111  1  0.59403914  0.00873106  0.01083985  1
  Ta  Ta112  1  0.68660722  0.50198118  0.36431406  1
  Ta  Ta113  1  0.29937503  0.68818035  0.13159725  1
  Ta  Ta114  1  0.91175750  0.90757448  0.37952501  1
  Ta  Ta115  1  0.70250213  0.09887036  0.62671356  1
  Ta  Ta116  1  0.90521174  0.49882730  0.88360167  1
  Ta  Ta117  1  0.10740635  0.47905393  0.60907533  1
  Ta  Ta118  1  0.79491566  -0.00164426  0.00726267  1
  Ta  Ta119  1  0.00884522  0.00881393  0.49278323  1
  Ti  Ti120  1  0.20376657  0.20494777  0.75754091  1
  Ti  Ti121  1  0.09074186  0.30163545  0.12588145  1
  Ti  Ti122  1  0.20878079  0.59247535  0.49846018  1
  Ti  Ti123  1  0.91155178  0.69945424  0.12022616  1
  Ti  Ti124  1  0.11210782  0.89088016  0.86864984  1
  Ti  Ti125  1  0.00822645  0.80410418  0.24785661  1
  Ti  Ti126  1  0.49539804  0.09971659  0.61769113  1
  Ti  Ti127  1  0.29549882  0.70256727  0.85510880  1
  Ti  Ti128  1  0.40388051  0.59552907  0.49735402  1
  Ti  Ti129  1  0.60526503  0.39886729  0.74541623  1
  Ti  Ti130  1  0.19870455  0.60275431  -0.00672117  1
  Ti  Ti131  1  0.70205221  0.90899401  0.62590486  1
  Ti  Ti132  1  0.60346500  0.42143741  0.50990496  1
  Ti  Ti133  1  0.49765710  0.50756228  0.37294887  1
  Ti  Ti134  1  0.30316702  0.49088002  0.60692182  1
  Ti  Ti135  1  0.30882112  0.28179872  0.10721692  1
  Ti  Ti136  1  0.09958622  0.30683186  0.89579048  1
  Ti  Ti137  1  0.58941776  0.80428910  0.25073288  1
  Ti  Ti138  1  -0.00825993  0.17410159  0.25173727  1
  Ti  Ti139  1  0.09752979  0.70262217  0.11341398  1
  Ti  Ti140  1  0.29466237  0.09298759  0.09918499  1
  Ti  Ti141  1  0.10449137  0.89714091  0.11648675  1
  Ti  Ti142  1  0.21467194  0.59094383  0.25563308  1
  Ti  Ti143  1  0.80992260  0.01231780  0.49809309  1
  Ti  Ti144  1  0.90400524  0.09478233  0.63368404  1
  Ti  Ti145  1  0.30257409  0.68805074  0.37802838  1
  Ti  Ti146  1  0.39557495  -0.00026716  0.25758062  1
  Ti  Ti147  1  0.40048360  0.79463510  0.73850877  1
  Ti  Ti148  1  0.29560370  0.89738699  0.64436278  1
  Ti  Ti149  1  0.30740155  0.69336750  0.62711455  1
  Ti  Ti150  1  0.00574014  -0.00219747  0.25383979  1
  Ti  Ti151  1  0.00094787  0.39939361  0.75971545  1
  Ti  Ti152  1  0.10979229  0.70200529  0.39117724  1
  Ti  Ti153  1  0.80451547  -0.00259437  0.75050103  1
  Ti  Ti154  1  0.50159280  0.90054576  0.85697115  1
  Ti  Ti155  1  0.18028008  0.20299348  0.49931625  1
  Ti  Ti156  1  0.59734198  0.00921618  0.74208586  1
  Ti  Ti157  1  0.80891382  0.59705474  0.01301616  1
  Ti  Ti158  1  0.29020642  0.31364346  0.38810142  1
  Ti  Ti159  1  0.91362370  0.89987376  0.12773270  1
  Mo  Mo160  1  0.00086124  0.40892358  0.26376264  1
  Mo  Mo161  1  0.40076224  0.41080855  0.49148310  1
  Mo  Mo162  1  0.50448045  0.29663764  0.86165504  1
  Mo  Mo163  1  0.59707847  0.40685805  0.24617815  1
  Mo  Mo164  1  0.00896382  0.79548410  0.00306872  1
  Mo  Mo165  1  0.69356630  0.10585712  0.11050061  1
  Mo  Mo166  1  0.39652923  0.60053285  0.74066574  1
  Mo  Mo167  1  0.50285381  0.90108104  0.37460455  1
  Mo  Mo168  1  0.69811613  0.49758296  0.62518235  1
  Mo  Mo169  1  0.79557754  0.19694680  0.23743849  1
  Mo  Mo170  1  0.09886468  0.29941120  0.62823876  1
  Mo  Mo171  1  0.09366881  0.09481261  0.36180173  1
  Mo  Mo172  1  0.89890310  0.49961798  0.36291471  1
  Mo  Mo173  1  0.19996288  -0.00088889  0.76985439  1
  Mo  Mo174  1  0.19532985  0.00056049  0.50265698  1
  Mo  Mo175  1  0.01104612  0.80226511  0.50287563  1
  Mo  Mo176  1  0.19805882  0.20134243  0.01287379  1
  Mo  Mo177  1  0.89599004  0.09275549  0.37654460  1
  Mo  Mo178  1  0.50341851  0.10396128  0.87850131  1
  Mo  Mo179  1  0.29902631  0.50152118  0.39083419  1
  Mo  Mo180  1  0.89736606  0.30872059  0.86587833  1
  Mo  Mo181  1  -0.00229907  0.59873829  0.01564366  1
  Mo  Mo182  1  0.29744984  0.51436374  0.12420057  1
  Mo  Mo183  1  0.29090838  0.49918447  0.87556464  1
  Mo  Mo184  1  0.10747003  0.69465590  0.88566399  1
  Mo  Mo185  1  -0.00136991  0.40222801  -0.00266968  1
  Mo  Mo186  1  0.20458740  -0.00934408  -0.00973291  1
  Mo  Mo187  1  0.49569524  0.69305156  0.63807043  1
  Mo  Mo188  1  0.19429621  0.39457390  0.49172236  1
  Mo  Mo189  1  0.39548145  0.79633379  -0.02236867  1
  Mo  Mo190  1  0.39510048  0.60676946  0.26772654  1
  Mo  Mo191  1  0.79141257  0.40232771  0.48137234  1
  Mo  Mo192  1  0.89853410  0.89562880  0.86928462  1
  Mo  Mo193  1  0.40639848  0.19385525  -0.01249795  1
  Mo  Mo194  1  0.50677639  0.69382839  0.37364472  1
  Mo  Mo195  1  0.20858624  0.79533508  0.74717187  1
  Mo  Mo196  1  0.49299296  0.90852145  0.13419515  1
  Mo  Mo197  1  0.59715453  0.80277467  0.51685065  1
  Mo  Mo198  1  0.29548634  0.89910037  0.36958330  1
  Mo  Mo199  1  0.79114327  0.20153820  0.01648402  1
