# generated using pymatgen
data_HfZrTaTiMo
_symmetry_space_group_name_H-M   'P 1'
_cell_length_a   15.82072558
_cell_length_b   15.84192665
_cell_length_c   15.38387322
_cell_angle_alpha   89.94392440
_cell_angle_beta   90.05243537
_cell_angle_gamma   89.99815044
_symmetry_Int_Tables_number   1
_chemical_formula_structural   HfZrTaTiMo
_chemical_formula_sum   'Hf40 Zr40 Ta40 Ti40 Mo40'
_cell_volume   3855.66858985
_cell_formula_units_Z   40
loop_
 _symmetry_equiv_pos_site_id
 _symmetry_equiv_pos_as_xyz
  1  'x, y, z'
loop_
 _atom_site_type_symbol
 _atom_site_label
 _atom_site_symmetry_multiplicity
 _atom_site_fract_x
 _atom_site_fract_y
 _atom_site_fract_z
 _atom_site_occupancy
  Hf  Hf0  1  0.49734237  0.29514579  0.39678981  1
  Hf  Hf1  1  0.48618585  0.50493287  0.88557122  1
  Hf  Hf2  1  0.38621811  0.80275958  0.50753308  1
  Hf  Hf3  1  0.89744443  0.89580987  0.62769798  1
  Hf  Hf4  1  0.90655201  0.50071468  0.63656739  1
  Hf  Hf5  1  0.80223568  0.41088521  0.24694911  1
  Hf  Hf6  1  0.80134750  0.20105311  0.49001432  1
  Hf  Hf7  1  0.10584758  0.10496982  0.64557841  1
  Hf  Hf8  1  0.08317425  0.08631240  0.11398531  1
  Hf  Hf9  1  0.10545911  0.09005801  0.36924476  1
  Hf  Hf10  1  0.10717564  0.31419966  0.64808207  1
  Hf  Hf11  1  0.80092845  0.79634094  0.48526332  1
  Hf  Hf12  1  0.30778394  0.09919943  0.85790146  1
  Hf  Hf13  1  0.39793648  0.19313112  0.00075231  1
  Hf  Hf14  1  0.10079297  0.29898434  0.88079846  1
  Hf  Hf15  1  0.79503588  -0.00018290  0.48387753  1
  Hf  Hf16  1  0.59806600  0.60307478  0.74114276  1
  Hf  Hf17  1  0.68811389  0.29718424  0.87626571  1
  Hf  Hf18  1  0.00775712  -0.00364269  0.50527852  1
  Hf  Hf19  1  0.49715007  0.90112676  0.86119328  1
  Hf  Hf20  1  0.20531870  0.80009379  0.23160602  1
  Hf  Hf21  1  0.30125093  0.49540043  0.12627959  1
  Hf  Hf22  1  0.89937652  0.29673983  0.11067417  1
  Hf  Hf23  1  0.11201930  0.87422370  0.62658428  1
  Hf  Hf24  1  0.80857201  0.60061081  0.77792859  1
  Hf  Hf25  1  0.30476614  0.69639705  0.86503770  1
  Hf  Hf26  1  0.49264229  0.50405854  0.39627793  1
  Hf  Hf27  1  0.49603716  0.70173983  0.87537817  1
  Hf  Hf28  1  0.49153775  0.30954450  0.87948971  1
  Hf  Hf29  1  0.00457979  0.20367104  0.50387948  1
  Hf  Hf30  1  0.09277506  0.89804666  0.11122971  1
  Hf  Hf31  1  0.68559975  0.50148980  0.89505607  1
  Hf  Hf32  1  0.21650614  -0.00588364  -0.00404761  1
  Hf  Hf33  1  0.69411419  0.70357074  0.88642532  1
  Hf  Hf34  1  0.20410280  0.19767024  0.00150943  1
  Hf  Hf35  1  0.59352466  0.40511628  0.25779595  1
  Hf  Hf36  1  0.01478739  0.40664018  0.50480775  1
  Hf  Hf37  1  0.19345594  0.20461583  0.23168198  1
  Hf  Hf38  1  0.50878171  0.89984431  0.13307133  1
  Hf  Hf39  1  -0.00211111  0.19220303  0.23910963  1
  Zr  Zr40  1  0.60247664  0.00031969  0.73829371  1
  Zr  Zr41  1  0.89875240  0.69605073  0.63170898  1
  Zr  Zr42  1  0.80275009  0.81364440  0.24475285  1
  Zr  Zr43  1  0.61396708  0.60492172  0.50710977  1
  Zr  Zr44  1  0.30950531  0.08677280  0.13574288  1
  Zr  Zr45  1  0.89454985  0.09994912  0.63173296  1
  Zr  Zr46  1  0.01111669  0.59846525  0.78475306  1
  Zr  Zr47  1  0.49568918  0.31767067  0.11400338  1
  Zr  Zr48  1  0.30335018  0.09853615  0.37512361  1
  Zr  Zr49  1  0.41253129  0.20013533  0.24440801  1
  Zr  Zr50  1  0.80810148  0.41201823  0.48490375  1
  Zr  Zr51  1  0.10173307  0.69614112  0.35039645  1
  Zr  Zr52  1  0.69274623  0.70845344  0.36073641  1
  Zr  Zr53  1  0.29822787  0.30451519  0.64441731  1
  Zr  Zr54  1  0.29694645  0.30132960  0.37203429  1
  Zr  Zr55  1  0.79970638  0.19854249  0.26119708  1
  Zr  Zr56  1  0.39941957  0.60112707  0.26024372  1
  Zr  Zr57  1  -0.00000046  0.79320982  0.76660939  1
  Zr  Zr58  1  0.20518243  0.19909769  0.50947877  1
  Zr  Zr59  1  0.00383945  0.78953770  0.49007665  1
  Zr  Zr60  1  0.26681203  0.50326030  0.64176697  1
  Zr  Zr61  1  0.09297136  0.49426627  0.34478905  1
  Zr  Zr62  1  0.71333591  0.50387475  0.63111100  1
  Zr  Zr63  1  0.20513059  0.79716458  -0.00139595  1
  Zr  Zr64  1  -0.00301628  0.40548318  0.77251569  1
  Zr  Zr65  1  0.59005361  0.39976746  0.74028237  1
  Zr  Zr66  1  0.70581758  0.09520487  0.13403145  1
  Zr  Zr67  1  0.37192107  0.60574813  0.50640483  1
  Zr  Zr68  1  0.70344232  0.29591002  0.62856932  1
  Zr  Zr69  1  0.50844319  0.09724696  0.39561683  1
  Zr  Zr70  1  0.59572116  0.18960547  0.00366989  1
  Zr  Zr71  1  0.41497146  0.20032259  0.73903461  1
  Zr  Zr72  1  0.69056552  0.70907891  0.12786082  1
  Zr  Zr73  1  0.20734016  -0.01304481  0.74545678  1
  Zr  Zr74  1  0.58589321  0.60482452  0.24408170  1
  Zr  Zr75  1  0.69603944  0.30334719  0.12008173  1
  Zr  Zr76  1  0.91618764  0.31229808  0.36581270  1
  Zr  Zr77  1  0.30723614  0.69211323  0.12381328  1
  Zr  Zr78  1  0.29050986  0.89775252  0.38174000  1
  Zr  Zr79  1  -0.00940321  0.59654093  0.48493083  1
  Ta  Ta80  1  0.70039309  0.90916579  0.12167523  1
  Ta  Ta81  1  0.59977758  -0.00002321  -0.00849507  1
  Ta  Ta82  1  0.41071781  -0.00378525  -0.00070896  1
  Ta  Ta83  1  0.80002422  0.80941361  0.00456867  1
  Ta  Ta84  1  0.27905945  0.49477897  0.36475733  1
  Ta  Ta85  1  0.69916738  0.90089975  0.87811088  1
  Ta  Ta86  1  0.60546339  0.40389370  0.50078421  1
  Ta  Ta87  1  0.19626498  0.59664956  -0.00607702  1
  Ta  Ta88  1  0.50730888  0.90218674  0.60861570  1
  Ta  Ta89  1  0.80543968  0.39881063  0.77381703  1
  Ta  Ta90  1  0.10656975  0.67859964  0.63347832  1
  Ta  Ta91  1  0.80336850  0.20281405  0.76329232  1
  Ta  Ta92  1  0.51075528  0.10628540  0.60572251  1
  Ta  Ta93  1  0.09836532  0.89699513  0.88225059  1
  Ta  Ta94  1  0.90429728  0.92097972  0.11554936  1
  Ta  Ta95  1  0.49897788  0.71058989  0.39524973  1
  Ta  Ta96  1  0.11039951  0.30456418  0.36803087  1
  Ta  Ta97  1  0.89986868  0.30265591  0.63529250  1
  Ta  Ta98  1  0.48824012  0.49777880  0.61577462  1
  Ta  Ta99  1  0.79674618  0.80240586  0.76512323  1
  Ta  Ta100  1  0.60320736  0.80093987  0.73661469  1
  Ta  Ta101  1  0.69805110  0.09756284  0.86276307  1
  Ta  Ta102  1  0.20240720  0.39800079  -0.00024915  1
  Ta  Ta103  1  0.59476613  0.80895273  -0.00085401  1
  Ta  Ta104  1  0.79869470  0.00497541  -0.00891345  1
  Ta  Ta105  1  0.10177317  0.09560409  0.87129648  1
  Ta  Ta106  1  0.80168006  0.19245012  -0.01364644  1
  Ta  Ta107  1  0.41120098  0.79774744  0.25642746  1
  Ta  Ta108  1  -0.00688155  0.20072236  0.76439927  1
  Ta  Ta109  1  0.61259825  -0.00715815  0.27305810  1
  Ta  Ta110  1  -0.00091227  -0.00569381  0.75822732  1
  Ta  Ta111  1  0.49868302  0.70255183  0.61877148  1
  Ta  Ta112  1  0.40022639  0.40446233  0.25902739  1
  Ta  Ta113  1  0.40050203  0.80833217  0.00786736  1
  Ta  Ta114  1  -0.00872124  0.60136900  0.21805410  1
  Ta  Ta115  1  0.80143310  0.60670477  0.01239606  1
  Ta  Ta116  1  0.69105735  0.50248056  0.11335947  1
  Ta  Ta117  1  0.41113828  -0.01413808  0.26249319  1
  Ta  Ta118  1  -0.00608011  0.19326685  -0.00954874  1
  Ta  Ta119  1  0.38157021  0.40144952  0.50639605  1
  Ti  Ti120  1  0.00934193  0.39288240  0.22234141  1
  Ti  Ti121  1  0.89657556  0.49928768  0.11311426  1
  Ti  Ti122  1  0.39738813  0.59683630  0.73549491  1
  Ti  Ti123  1  0.39309961  0.00428758  0.51380179  1
  Ti  Ti124  1  0.39909990  0.80544678  0.72837571  1
  Ti  Ti125  1  0.89419790  0.68787659  0.34445226  1
  Ti  Ti126  1  0.70667409  0.51258949  0.36401826  1
  Ti  Ti127  1  0.89996510  0.89984330  0.88590531  1
  Ti  Ti128  1  0.90016225  0.09393459  0.87176353  1
  Ti  Ti129  1  0.91175569  0.09481587  0.37535518  1
  Ti  Ti130  1  0.50913393  0.08892143  0.13636981  1
  Ti  Ti131  1  0.80938287  0.00347170  0.25853975  1
  Ti  Ti132  1  0.79674463  0.39671590  -0.00457654  1
  Ti  Ti133  1  0.80754301  0.60202140  0.48719593  1
  Ti  Ti134  1  0.70361191  0.89838298  0.61804403  1
  Ti  Ti135  1  0.30972144  0.89383783  0.86155019  1
  Ti  Ti136  1  -0.00219366  0.80091349  0.23235979  1
  Ti  Ti137  1  0.30211101  0.30758804  0.12648818  1
  Ti  Ti138  1  0.80086495  -0.00556709  0.75650220  1
  Ti  Ti139  1  0.70071323  0.10227457  0.62733144  1
  Ti  Ti140  1  0.90441516  0.70539814  0.90456394  1
  Ti  Ti141  1  0.18116304  0.59083629  0.49442511  1
  Ti  Ti142  1  0.27815989  0.70922295  0.64287883  1
  Ti  Ti143  1  0.30239598  0.30788255  0.86247761  1
  Ti  Ti144  1  0.50214201  0.30025854  0.60777154  1
  Ti  Ti145  1  0.51411974  0.89406745  0.39507193  1
  Ti  Ti146  1  0.40200821  -0.00220645  0.72282487  1
  Ti  Ti147  1  0.19849127  -0.00916673  0.24096414  1
  Ti  Ti148  1  0.20711574  -0.00806837  0.51837109  1
  Ti  Ti149  1  0.28825394  0.69641823  0.36829659  1
  Ti  Ti150  1  0.90630893  0.49755072  0.90976336  1
  Ti  Ti151  1  0.49128533  0.51005693  0.10161140  1
  Ti  Ti152  1  0.30062575  0.49619342  0.87046977  1
  Ti  Ti153  1  0.69395626  0.30170249  0.37836325  1
  Ti  Ti154  1  0.60196538  0.19765433  0.25792184  1
  Ti  Ti155  1  0.10311027  0.89462936  0.37281276  1
  Ti  Ti156  1  0.50619455  0.10021410  0.86305132  1
  Ti  Ti157  1  0.71001667  0.70714712  0.62927713  1
  Ti  Ti158  1  0.91324155  0.90096826  0.36656504  1
  Ti  Ti159  1  0.10130221  0.49835920  0.11503894  1
  Mo  Mo160  1  0.70369238  0.10472625  0.36682279  1
  Mo  Mo161  1  0.19721109  0.39430230  0.22647536  1
  Mo  Mo162  1  0.39986700  0.20114207  0.51776359  1
  Mo  Mo163  1  0.89450924  0.29776679  0.88739871  1
  Mo  Mo164  1  0.19663119  0.40595712  0.49492213  1
  Mo  Mo165  1  0.09650705  0.69501911  0.11704687  1
  Mo  Mo166  1  0.59245669  0.60907264  0.01209233  1
  Mo  Mo167  1  -0.00358567  0.00069716  -0.02493894  1
  Mo  Mo168  1  0.59525392  0.40521742  0.00259510  1
  Mo  Mo169  1  -0.00562783  0.80258945  0.00295284  1
  Mo  Mo170  1  0.38694342  0.40018556  -0.00293807  1
  Mo  Mo171  1  -0.00274752  -0.00999481  0.25715535  1
  Mo  Mo172  1  0.60488274  0.80163434  0.51633028  1
  Mo  Mo173  1  0.00056449  0.39874480  0.00820294  1
  Mo  Mo174  1  0.19269778  0.59689645  0.23442562  1
  Mo  Mo175  1  0.30139607  0.89345181  0.62293398  1
  Mo  Mo176  1  0.89672510  0.09448625  0.11328073  1
  Mo  Mo177  1  -0.00035792  0.60219140  0.01273843  1
  Mo  Mo178  1  0.60365829  0.19692611  0.73843355  1
  Mo  Mo179  1  0.09882763  0.70096066  0.89998623  1
  Mo  Mo180  1  0.09637594  0.50527869  0.63268816  1
  Mo  Mo181  1  0.19930601  0.77573356  0.49691503  1
  Mo  Mo182  1  0.61180473  0.20269138  0.50416818  1
  Mo  Mo183  1  0.19951283  0.19932688  0.76538607  1
  Mo  Mo184  1  0.89936083  0.71174328  0.11642201  1
  Mo  Mo185  1  0.19287309  0.60144567  0.77706786  1
  Mo  Mo186  1  0.70234235  0.90245080  0.37761871  1
  Mo  Mo187  1  0.49662259  0.70376764  0.11060508  1
  Mo  Mo188  1  0.10063757  0.49731402  0.90475394  1
  Mo  Mo189  1  0.39906653  0.40923361  0.73773528  1
  Mo  Mo190  1  0.19887665  0.79300245  0.76712679  1
  Mo  Mo191  1  0.19572301  0.40739274  0.78131190  1
  Mo  Mo192  1  0.39171660  0.60340442  -0.00328790  1
  Mo  Mo193  1  0.09776057  0.29789217  0.10413821  1
  Mo  Mo194  1  0.61044479  -0.00036050  0.50000796  1
  Mo  Mo195  1  0.30692882  0.09691835  0.62952759  1
  Mo  Mo196  1  0.31206396  0.90063093  0.13577414  1
  Mo  Mo197  1  0.80110824  0.59853671  0.22689238  1
  Mo  Mo198  1  0.89746517  0.51120826  0.34485682  1
  Mo  Mo199  1  0.58999166  0.80964180  0.25675342  1
