# generated using pymatgen
data_HfZrTaTiMo
_symmetry_space_group_name_H-M   'P 1'
_cell_length_a   15.84198861
_cell_length_b   15.82594094
_cell_length_c   15.40636083
_cell_angle_alpha   90.02606923
_cell_angle_beta   89.97914431
_cell_angle_gamma   90.12962283
_symmetry_Int_Tables_number   1
_chemical_formula_structural   HfZrTaTiMo
_chemical_formula_sum   'Hf40 Zr40 Ta40 Ti40 Mo40'
_cell_volume   3862.58560451
_cell_formula_units_Z   40
loop_
 _symmetry_equiv_pos_site_id
 _symmetry_equiv_pos_as_xyz
  1  'x, y, z'
loop_
 _atom_site_type_symbol
 _atom_site_label
 _atom_site_symmetry_multiplicity
 _atom_site_fract_x
 _atom_site_fract_y
 _atom_site_fract_z
 _atom_site_occupancy
  Hf  Hf0  1  0.49601309  0.30344992  0.62822139  1
  Hf  Hf1  1  0.40347833  0.20273384  0.49249974  1
  Hf  Hf2  1  0.09649803  0.71152394  0.87647138  1
  Hf  Hf3  1  0.70237978  0.68769577  0.64590592  1
  Hf  Hf4  1  0.49925780  0.52352950  0.35253422  1
  Hf  Hf5  1  0.67523365  0.69439298  0.36237294  1
  Hf  Hf6  1  -0.00459077  0.60027425  0.75950195  1
  Hf  Hf7  1  0.10657417  0.70092145  0.36406471  1
  Hf  Hf8  1  0.58926235  0.78832033  0.51588702  1
  Hf  Hf9  1  0.20492637  0.60996673  -0.00296994  1
  Hf  Hf10  1  0.20377570  -0.00692593  0.01296714  1
  Hf  Hf11  1  0.60001946  0.01333668  0.24942125  1
  Hf  Hf12  1  0.39766692  0.60613816  -0.00924587  1
  Hf  Hf13  1  0.67819618  0.49409594  0.11455692  1
  Hf  Hf14  1  0.70234358  0.69543961  0.86795387  1
  Hf  Hf15  1  0.90260059  0.89845232  0.62809324  1
  Hf  Hf16  1  0.68474293  0.90057266  0.39121601  1
  Hf  Hf17  1  0.20583536  0.80087892  0.50437275  1
  Hf  Hf18  1  0.40897277  0.60588389  0.50003265  1
  Hf  Hf19  1  0.49455903  0.69671060  0.13858229  1
  Hf  Hf20  1  0.80067896  0.39067105  0.77024967  1
  Hf  Hf21  1  0.90923753  0.31115300  0.36082646  1
  Hf  Hf22  1  0.90195598  0.89486427  0.87048665  1
  Hf  Hf23  1  0.29822981  0.31042780  0.36944109  1
  Hf  Hf24  1  0.11153576  0.10270665  0.86912725  1
  Hf  Hf25  1  0.90911925  0.09605312  0.13569530  1
  Hf  Hf26  1  0.00859560  0.80298677  0.01155509  1
  Hf  Hf27  1  0.79606497  0.39944500  0.49816487  1
  Hf  Hf28  1  0.09722998  0.09611553  0.62203670  1
  Hf  Hf29  1  0.20071235  0.59804358  0.76438527  1
  Hf  Hf30  1  0.79431455  0.39306838  0.00022049  1
  Hf  Hf31  1  0.00580746  0.00330598  -0.00667135  1
  Hf  Hf32  1  0.31594264  0.70222148  0.35448086  1
  Hf  Hf33  1  0.09632114  0.49221646  0.37993128  1
  Hf  Hf34  1  0.39073104  0.39180951  0.75582645  1
  Hf  Hf35  1  0.39617634  -0.00781176  0.51305254  1
  Hf  Hf36  1  0.29454143  0.90735950  0.86738174  1
  Hf  Hf37  1  0.30911518  0.09958480  0.86227191  1
  Hf  Hf38  1  0.91669453  0.29158022  0.12323512  1
  Hf  Hf39  1  0.30035025  0.69328385  0.63374659  1
  Zr  Zr40  1  0.29812752  0.48739456  0.62198671  1
  Zr  Zr41  1  0.09921881  0.50838578  0.61639568  1
  Zr  Zr42  1  0.90228812  0.89578251  0.37471594  1
  Zr  Zr43  1  0.90076729  0.69923936  0.35624999  1
  Zr  Zr44  1  0.21071370  0.21837371  0.73395152  1
  Zr  Zr45  1  0.58576904  0.80188037  -0.00827406  1
  Zr  Zr46  1  0.39134695  0.80362845  -0.00572174  1
  Zr  Zr47  1  0.68649033  0.48827434  0.35916437  1
  Zr  Zr48  1  0.32210230  0.09418551  0.13282492  1
  Zr  Zr49  1  0.20538845  0.19642548  0.48829386  1
  Zr  Zr50  1  0.00216051  0.40014352  0.75697456  1
  Zr  Zr51  1  0.30664412  0.90451415  0.36334874  1
  Zr  Zr52  1  0.80080023  0.78803498  0.50363146  1
  Zr  Zr53  1  0.79216517  0.19248780  0.25839964  1
  Zr  Zr54  1  0.59884913  0.00045600  0.75500614  1
  Zr  Zr55  1  -0.00016395  0.20390379  0.75246150  1
  Zr  Zr56  1  0.69536770  0.92349325  0.10242983  1
  Zr  Zr57  1  0.79983500  0.60038157  0.00368617  1
  Zr  Zr58  1  0.70192750  0.29718805  0.62709162  1
  Zr  Zr59  1  0.42287276  0.19827840  0.26457305  1
  Zr  Zr60  1  0.18253770  0.39542349  0.24335791  1
  Zr  Zr61  1  0.90256419  0.90587417  0.13096056  1
  Zr  Zr62  1  0.79970057  0.18785438  -0.00003942  1
  Zr  Zr63  1  0.03714201  0.19975096  0.27067203  1
  Zr  Zr64  1  -0.01143520  0.60524980  0.49943989  1
  Zr  Zr65  1  0.91053186  0.69300769  0.13000276  1
  Zr  Zr66  1  0.60197363  0.20608828  0.48708922  1
  Zr  Zr67  1  0.29832169  0.29520819  0.88591701  1
  Zr  Zr68  1  -0.00295754  0.19948871  0.49117706  1
  Zr  Zr69  1  0.11048874  0.31825959  0.60673437  1
  Zr  Zr70  1  0.79167317  0.59415069  0.49436822  1
  Zr  Zr71  1  0.79260885  0.00264112  0.26523077  1
  Zr  Zr72  1  0.70840731  0.90520081  0.87784088  1
  Zr  Zr73  1  0.40133430  0.79972104  0.76347799  1
  Zr  Zr74  1  0.79088025  0.59923777  0.23317001  1
  Zr  Zr75  1  0.78579219  0.38663806  0.23213982  1
  Zr  Zr76  1  0.89004987  0.09614394  0.63043137  1
  Zr  Zr77  1  0.29909406  0.28989916  0.13286617  1
  Zr  Zr78  1  0.60619664  0.21135864  0.27505420  1
  Zr  Zr79  1  0.18654662  0.01170799  0.24664947  1
  Ta  Ta80  1  0.90826105  0.29273110  0.89227839  1
  Ta  Ta81  1  0.69867169  0.09682531  0.61966112  1
  Ta  Ta82  1  0.40339351  0.79539686  0.51001471  1
  Ta  Ta83  1  0.50084270  0.69026599  0.64773333  1
  Ta  Ta84  1  0.50348805  0.10148281  0.62753498  1
  Ta  Ta85  1  0.20247663  -0.00304284  0.50576473  1
  Ta  Ta86  1  0.70518185  0.90393769  0.62959825  1
  Ta  Ta87  1  0.29753059  0.69968499  0.13871173  1
  Ta  Ta88  1  0.19726219  0.80792575  0.23885861  1
  Ta  Ta89  1  0.41881343  0.20333839  -0.00141506  1
  Ta  Ta90  1  0.90018891  0.49520122  0.35390958  1
  Ta  Ta91  1  0.60244491  0.20185722  0.76363258  1
  Ta  Ta92  1  0.09986569  0.30126710  0.89856089  1
  Ta  Ta93  1  0.79955847  0.79652762  0.01134014  1
  Ta  Ta94  1  0.79281618  0.19394705  0.76772538  1
  Ta  Ta95  1  0.10121957  0.90123321  0.37706728  1
  Ta  Ta96  1  0.69278074  0.49977307  0.87487282  1
  Ta  Ta97  1  0.09464701  0.49665377  0.89706496  1
  Ta  Ta98  1  0.59686660  0.79996154  0.75676027  1
  Ta  Ta99  1  0.88536531  0.50075917  0.63910015  1
  Ta  Ta100  1  0.39960187  0.39972814  0.00634515  1
  Ta  Ta101  1  0.20463081  0.40376284  0.00991340  1
  Ta  Ta102  1  0.60016898  0.80892275  0.23531134  1
  Ta  Ta103  1  0.19446099  0.80275295  0.74408821  1
  Ta  Ta104  1  0.78401035  0.80109856  0.23454550  1
  Ta  Ta105  1  0.69477358  0.49891245  0.64893308  1
  Ta  Ta106  1  0.59698613  0.39343116  0.76483824  1
  Ta  Ta107  1  0.20650654  0.60364385  0.49189115  1
  Ta  Ta108  1  0.89524546  0.29936135  0.62671289  1
  Ta  Ta109  1  0.80167470  0.19762752  0.48123178  1
  Ta  Ta110  1  0.09600800  0.70466142  0.62927381  1
  Ta  Ta111  1  0.10480438  0.69533725  0.13107321  1
  Ta  Ta112  1  0.49567997  0.88524088  0.37003146  1
  Ta  Ta113  1  0.67150376  0.28242680  0.10650418  1
  Ta  Ta114  1  0.00312589  -0.00445549  0.75357144  1
  Ta  Ta115  1  0.49517353  0.49743550  0.12052559  1
  Ta  Ta116  1  0.50607905  0.07005123  0.39523858  1
  Ta  Ta117  1  0.49832379  0.49664916  0.87788556  1
  Ta  Ta118  1  0.09280475  0.50402381  0.11015017  1
  Ta  Ta119  1  0.40738366  0.39999838  0.24340227  1
  Ti  Ti120  1  0.00103475  0.00057519  0.48912449  1
  Ti  Ti121  1  0.58510263  0.38243452  -0.01741655  1
  Ti  Ti122  1  0.10196481  0.90030724  0.86486050  1
  Ti  Ti123  1  0.89674266  0.09170671  0.87034037  1
  Ti  Ti124  1  0.00288283  0.79700573  0.50077585  1
  Ti  Ti125  1  0.00959189  0.58696613  0.24741344  1
  Ti  Ti126  1  0.31015739  0.10530755  0.63403086  1
  Ti  Ti127  1  0.29785676  0.50755086  0.36167841  1
  Ti  Ti128  1  -0.01333207  0.40627357  0.50559831  1
  Ti  Ti129  1  0.90919331  0.49275895  0.12217390  1
  Ti  Ti130  1  0.59263971  0.60519132  -0.00502080  1
  Ti  Ti131  1  0.20810277  0.19195409  0.00487413  1
  Ti  Ti132  1  0.20055859  0.80630965  0.01389790  1
  Ti  Ti133  1  0.49232119  0.10000845  0.86077781  1
  Ti  Ti134  1  0.30449116  0.09480883  0.36351303  1
  Ti  Ti135  1  0.30987297  0.90142452  0.13659485  1
  Ti  Ti136  1  0.89955483  0.70249482  0.87712246  1
  Ti  Ti137  1  0.30176822  0.89936901  0.63618145  1
  Ti  Ti138  1  0.09460171  0.89730642  0.62306984  1
  Ti  Ti139  1  0.59620190  0.59600356  0.51233844  1
  Ti  Ti140  1  0.52595976  0.11258284  0.11143787  1
  Ti  Ti141  1  0.00869062  0.81187909  0.24214585  1
  Ti  Ti142  1  0.10036283  0.11034923  0.11926068  1
  Ti  Ti143  1  0.90264034  0.50107969  0.88841884  1
  Ti  Ti144  1  0.19342429  0.40209994  0.76340436  1
  Ti  Ti145  1  0.90142318  0.69681109  0.63821154  1
  Ti  Ti146  1  0.49942764  0.89841373  0.63442265  1
  Ti  Ti147  1  0.50335477  0.50343067  0.64446837  1
  Ti  Ti148  1  0.39875205  0.59731915  0.76910559  1
  Ti  Ti149  1  0.41151286  0.00283985  -0.00554175  1
  Ti  Ti150  1  0.80084675  0.00525781  0.49266008  1
  Ti  Ti151  1  0.09891777  0.29669821  0.10586024  1
  Ti  Ti152  1  0.59624238  0.41112818  0.50500538  1
  Ti  Ti153  1  0.29674084  0.49532431  0.88220407  1
  Ti  Ti154  1  0.40381738  0.40954369  0.49244803  1
  Ti  Ti155  1  0.19887881  -0.00145901  0.73440580  1
  Ti  Ti156  1  0.29730908  0.50697694  0.13467255  1
  Ti  Ti157  1  0.80374883  0.79908802  0.74861754  1
  Ti  Ti158  1  0.69792903  0.09239201  0.88843553  1
  Ti  Ti159  1  0.49438553  0.91578690  0.12724052  1
  Mo  Mo160  1  0.59876919  0.60115992  0.22836017  1
  Mo  Mo161  1  0.58525262  0.00775290  -0.01577190  1
  Mo  Mo162  1  0.90652552  0.09694666  0.37190677  1
  Mo  Mo163  1  0.59419404  0.59236948  0.76010095  1
  Mo  Mo164  1  0.41561802  0.00310954  0.24890360  1
  Mo  Mo165  1  0.00126275  0.00368065  0.26787598  1
  Mo  Mo166  1  0.79973429  0.00584072  0.74865676  1
  Mo  Mo167  1  -0.00075923  0.60193868  -0.00785360  1
  Mo  Mo168  1  0.00705639  0.19176072  -0.00888542  1
  Mo  Mo169  1  0.40277628  0.80804397  0.23499190  1
  Mo  Mo170  1  0.69811311  0.29571995  0.88346990  1
  Mo  Mo171  1  0.10128756  0.90320298  0.13377543  1
  Mo  Mo172  1  0.39865984  0.00169033  0.73418450  1
  Mo  Mo173  1  0.49455201  0.29658524  0.86537702  1
  Mo  Mo174  1  0.69800103  0.10277588  0.10910969  1
  Mo  Mo175  1  0.59515886  0.19636410  -0.02594216  1
  Mo  Mo176  1  0.49999070  0.30023704  0.11816247  1
  Mo  Mo177  1  0.29234266  0.70249285  0.86665252  1
  Mo  Mo178  1  0.49588450  0.91152269  0.87064017  1
  Mo  Mo179  1  0.80483873  0.59269248  0.76529288  1
  Mo  Mo180  1  0.10996287  0.08701530  0.39531993  1
  Mo  Mo181  1  0.70146146  0.30658736  0.38768355  1
  Mo  Mo182  1  0.50125183  0.69333559  0.86339015  1
  Mo  Mo183  1  0.69170797  0.70614807  0.11671478  1
  Mo  Mo184  1  -0.00200001  0.39927755  0.00603357  1
  Mo  Mo185  1  0.30844326  0.30383350  0.60347068  1
  Mo  Mo186  1  0.00079471  0.80124767  0.74377992  1
  Mo  Mo187  1  0.40679554  0.19898697  0.73689761  1
  Mo  Mo188  1  0.50510768  0.33329739  0.38685242  1
  Mo  Mo189  1  0.69796708  0.09243634  0.40076019  1
  Mo  Mo190  1  0.39399923  0.59545472  0.23868864  1
  Mo  Mo191  1  0.80652382  -0.00052354  -0.00395932  1
  Mo  Mo192  1  0.59683542  -0.00986858  0.52217662  1
  Mo  Mo193  1  0.20930045  0.40942063  0.48171137  1
  Mo  Mo194  1  0.58668366  0.39233213  0.23901690  1
  Mo  Mo195  1  0.20704001  0.19818629  0.25704632  1
  Mo  Mo196  1  0.10101301  0.31226744  0.39147564  1
  Mo  Mo197  1  0.00001405  0.40218653  0.22896104  1
  Mo  Mo198  1  0.50000699  0.71146003  0.35994440  1
  Mo  Mo199  1  0.19631632  0.59956197  0.24435998  1
