# generated using pymatgen
data_HfZrTaTiMo
_symmetry_space_group_name_H-M   'P 1'
_cell_length_a   15.83952856
_cell_length_b   15.83790340
_cell_length_c   15.40502676
_cell_angle_alpha   90.02429001
_cell_angle_beta   89.98034969
_cell_angle_gamma   89.92950388
_symmetry_Int_Tables_number   1
_chemical_formula_structural   HfZrTaTiMo
_chemical_formula_sum   'Hf40 Zr40 Ta40 Ti40 Mo40'
_cell_volume   3864.57735625
_cell_formula_units_Z   40
loop_
 _symmetry_equiv_pos_site_id
 _symmetry_equiv_pos_as_xyz
  1  'x, y, z'
loop_
 _atom_site_type_symbol
 _atom_site_label
 _atom_site_symmetry_multiplicity
 _atom_site_fract_x
 _atom_site_fract_y
 _atom_site_fract_z
 _atom_site_occupancy
  Hf  Hf0  1  0.89911564  0.30411175  0.11623141  1
  Hf  Hf1  1  0.29980862  0.10295943  0.13228022  1
  Hf  Hf2  1  0.60800719  0.19092447  0.01239806  1
  Hf  Hf3  1  -0.00149571  0.19925977  0.24927650  1
  Hf  Hf4  1  0.19586491  0.80150576  0.25597496  1
  Hf  Hf5  1  0.00188638  0.79685701  0.24826631  1
  Hf  Hf6  1  0.39975642  -0.00264375  0.26244806  1
  Hf  Hf7  1  0.50194454  0.50917601  0.87871225  1
  Hf  Hf8  1  0.89617700  0.50868023  0.36264793  1
  Hf  Hf9  1  0.49672644  0.69728902  0.12312542  1
  Hf  Hf10  1  0.10865591  0.30378057  0.12435028  1
  Hf  Hf11  1  0.10984789  0.69139045  0.37933416  1
  Hf  Hf12  1  0.89644282  0.48796160  0.62242912  1
  Hf  Hf13  1  0.69405356  0.89916431  0.86305374  1
  Hf  Hf14  1  0.50806322  0.08922859  0.39339733  1
  Hf  Hf15  1  0.29767441  0.49735139  0.13472606  1
  Hf  Hf16  1  0.79004755  0.19992775  0.23388963  1
  Hf  Hf17  1  0.20932242  -0.00287945  -0.00363426  1
  Hf  Hf18  1  0.79281516  0.00405572  0.52055157  1
  Hf  Hf19  1  0.49255727  0.50514486  0.11684504  1
  Hf  Hf20  1  0.00977869  0.58348557  0.49607172  1
  Hf  Hf21  1  0.10573702  0.48598347  0.64565943  1
  Hf  Hf22  1  0.61112229  0.19871001  0.74304819  1
  Hf  Hf23  1  0.90671658  0.69601540  0.61341677  1
  Hf  Hf24  1  0.69428311  0.50343182  0.12408470  1
  Hf  Hf25  1  0.00548826  0.20044021  -0.00740746  1
  Hf  Hf26  1  0.39426097  0.40362761  0.75859849  1
  Hf  Hf27  1  0.48829258  0.89255963  0.63152868  1
  Hf  Hf28  1  0.79093152  0.61234668  0.24280479  1
  Hf  Hf29  1  0.49003841  0.30043200  0.61261827  1
  Hf  Hf30  1  0.70381932  0.09606526  0.37151232  1
  Hf  Hf31  1  0.61814938  0.18540945  0.51949709  1
  Hf  Hf32  1  0.48996600  0.49761122  0.60719049  1
  Hf  Hf33  1  0.18999025  0.40858070  0.48703837  1
  Hf  Hf34  1  0.71644477  0.30875252  0.62334737  1
  Hf  Hf35  1  0.38487044  0.60784868  -0.00794528  1
  Hf  Hf36  1  0.69781508  0.70091103  0.85838866  1
  Hf  Hf37  1  0.78849126  0.79870384  0.00781895  1
  Hf  Hf38  1  0.21023574  0.60017129  0.51484887  1
  Hf  Hf39  1  0.80263314  0.40131104  0.48413835  1
  Zr  Zr40  1  0.38971098  0.80424577  -0.01605963  1
  Zr  Zr41  1  0.59782410  0.19928576  0.23642177  1
  Zr  Zr42  1  -0.00072660  0.60122916  0.75510084  1
  Zr  Zr43  1  0.40339572  -0.00319642  -0.01027062  1
  Zr  Zr44  1  -0.00683741  0.80574350  0.76166329  1
  Zr  Zr45  1  0.49845521  0.30128970  0.39707495  1
  Zr  Zr46  1  0.59611708  0.40090410  0.25501507  1
  Zr  Zr47  1  0.60434003  0.40170033  0.74392866  1
  Zr  Zr48  1  0.08738362  0.09029129  0.37112939  1
  Zr  Zr49  1  0.48577918  0.30684597  0.12021237  1
  Zr  Zr50  1  0.81691720  0.81715628  0.50958364  1
  Zr  Zr51  1  0.79767477  0.60274233  0.00270203  1
  Zr  Zr52  1  0.49818725  0.70167926  0.61913752  1
  Zr  Zr53  1  0.17574997  0.20015885  0.49718680  1
  Zr  Zr54  1  0.70538852  0.69308193  0.61591335  1
  Zr  Zr55  1  0.90502414  0.50154849  0.88673718  1
  Zr  Zr56  1  0.69719226  0.90493378  0.37034500  1
  Zr  Zr57  1  0.60891615  0.78942480  0.25518476  1
  Zr  Zr58  1  0.61464854  0.00385388  0.72708188  1
  Zr  Zr59  1  0.51803239  0.69070139  0.40527312  1
  Zr  Zr60  1  0.90577459  0.09545871  0.11336604  1
  Zr  Zr61  1  0.39148385  0.19474170  0.75876563  1
  Zr  Zr62  1  0.48319782  0.08935584  0.62073842  1
  Zr  Zr63  1  0.82255026  0.00450307  0.74252768  1
  Zr  Zr64  1  0.40033722  0.20048079  0.25746737  1
  Zr  Zr65  1  -0.00878503  0.19330411  0.77376735  1
  Zr  Zr66  1  0.09362264  0.91640843  0.63462190  1
  Zr  Zr67  1  0.49329646  0.89258328  0.13024511  1
  Zr  Zr68  1  0.19122915  -0.00088683  0.50662790  1
  Zr  Zr69  1  0.37419174  0.18972835  0.49919374  1
  Zr  Zr70  1  0.39664850  0.19758589  -0.00537728  1
  Zr  Zr71  1  0.50321805  0.71048452  0.85534523  1
  Zr  Zr72  1  0.08860467  0.28875127  0.63832070  1
  Zr  Zr73  1  0.39836546  0.79482280  0.27802657  1
  Zr  Zr74  1  0.94897369  0.09912572  0.60077863  1
  Zr  Zr75  1  0.10689836  0.71348233  0.62452360  1
  Zr  Zr76  1  0.28663270  0.31477753  0.62806979  1
  Zr  Zr77  1  0.50608511  0.29702690  0.87742606  1
  Zr  Zr78  1  0.28217238  0.51348536  0.86308367  1
  Zr  Zr79  1  0.90922678  0.69990855  0.12003785  1
  Ta  Ta80  1  0.51145280  0.08664905  0.86886622  1
  Ta  Ta81  1  0.59904777  0.00695446  0.23012616  1
  Ta  Ta82  1  0.40330781  0.60028817  0.26756752  1
  Ta  Ta83  1  0.11031288  0.09904623  0.87802630  1
  Ta  Ta84  1  0.80553034  0.39427854  0.76564787  1
  Ta  Ta85  1  0.79705344  0.39835080  0.00219125  1
  Ta  Ta86  1  0.10655195  0.89342680  0.88269772  1
  Ta  Ta87  1  0.90124242  0.70245591  0.37915447  1
  Ta  Ta88  1  0.79971252  -0.00352426  0.22914639  1
  Ta  Ta89  1  0.79277067  0.39899911  0.24502198  1
  Ta  Ta90  1  0.71256900  0.69556684  0.39732250  1
  Ta  Ta91  1  0.10004505  0.89691850  0.11227799  1
  Ta  Ta92  1  0.29323200  0.89942236  0.13732286  1
  Ta  Ta93  1  0.60167773  0.40086195  0.00054176  1
  Ta  Ta94  1  0.69207919  0.50954378  0.37878159  1
  Ta  Ta95  1  0.81043379  0.20277393  0.76254998  1
  Ta  Ta96  1  0.79847534  0.59023809  0.74894508  1
  Ta  Ta97  1  0.39773451  0.40611561  0.26639354  1
  Ta  Ta98  1  0.19819961  0.20207436  0.25133319  1
  Ta  Ta99  1  0.89496678  0.90322921  0.35881680  1
  Ta  Ta100  1  0.29031747  0.30539659  0.37069323  1
  Ta  Ta101  1  0.30434147  0.71340045  0.63640820  1
  Ta  Ta102  1  0.90570092  0.49858077  0.12831433  1
  Ta  Ta103  1  -0.00055787  0.40251171  0.25380692  1
  Ta  Ta104  1  0.00295219  0.38715094  0.47778008  1
  Ta  Ta105  1  0.00353308  -0.01080722  0.24415179  1
  Ta  Ta106  1  0.70631403  0.29757697  0.88429023  1
  Ta  Ta107  1  0.20935124  0.20685211  -0.00767511  1
  Ta  Ta108  1  0.90346512  0.29548579  0.61880535  1
  Ta  Ta109  1  0.38152696  -0.01699575  0.49077174  1
  Ta  Ta110  1  0.89708409  0.89881159  0.89245616  1
  Ta  Ta111  1  0.79226175  -0.00051361  0.00551917  1
  Ta  Ta112  1  0.20296096  0.40229548  -0.00114031  1
  Ta  Ta113  1  0.10535415  0.30824829  0.87629922  1
  Ta  Ta114  1  0.38535607  0.39785916  -0.01076925  1
  Ta  Ta115  1  0.60071463  -0.00416762  0.00636474  1
  Ta  Ta116  1  0.60412192  0.59151678  0.73330767  1
  Ta  Ta117  1  0.69780752  0.49954135  0.87621802  1
  Ta  Ta118  1  0.09887260  0.50451350  0.12986902  1
  Ta  Ta119  1  0.28668770  0.51141871  0.36232402  1
  Ti  Ti120  1  0.00422316  -0.00283857  -0.00727655  1
  Ti  Ti121  1  0.21151391  0.81138809  0.48740065  1
  Ti  Ti122  1  0.00687709  0.40596469  0.00058067  1
  Ti  Ti123  1  0.70860926  0.09876380  0.87939827  1
  Ti  Ti124  1  0.89399676  0.09233721  0.36978430  1
  Ti  Ti125  1  -0.00981590  0.39081860  0.76630260  1
  Ti  Ti126  1  0.80622092  0.80295863  0.74096102  1
  Ti  Ti127  1  0.81176830  0.20070576  0.49599232  1
  Ti  Ti128  1  0.90473978  0.89823579  0.11576989  1
  Ti  Ti129  1  0.61576766  0.82017086  0.51503160  1
  Ti  Ti130  1  0.39594141  0.60127087  0.74066062  1
  Ti  Ti131  1  0.11099434  0.69622581  0.86925353  1
  Ti  Ti132  1  0.29703472  0.69982759  0.13750026  1
  Ti  Ti133  1  0.69513998  0.89572832  0.12734225  1
  Ti  Ti134  1  0.50794179  0.90302578  0.39097527  1
  Ti  Ti135  1  0.20971891  -0.00227573  0.77125027  1
  Ti  Ti136  1  0.10244305  0.50342967  0.87148094  1
  Ti  Ti137  1  0.60563106  0.40634221  0.49965586  1
  Ti  Ti138  1  0.10630095  0.09365358  0.12338228  1
  Ti  Ti139  1  0.00322948  0.00154784  0.77452485  1
  Ti  Ti140  1  0.00983361  0.81183106  0.48762896  1
  Ti  Ti141  1  0.89611054  0.70229284  0.87848540  1
  Ti  Ti142  1  0.28860326  0.70851461  0.84979243  1
  Ti  Ti143  1  0.29865065  0.89799978  0.64654174  1
  Ti  Ti144  1  0.69805565  0.29705269  0.37841573  1
  Ti  Ti145  1  0.59482330  0.60021482  0.25627328  1
  Ti  Ti146  1  0.01156733  0.60315948  0.24726839  1
  Ti  Ti147  1  0.19383585  0.40246601  0.25514175  1
  Ti  Ti148  1  0.28754955  0.09156248  0.64203679  1
  Ti  Ti149  1  0.00809311  0.79389561  -0.00480692  1
  Ti  Ti150  1  0.60375109  0.61157553  -0.00209942  1
  Ti  Ti151  1  0.38549096  0.79898712  0.48744359  1
  Ti  Ti152  1  0.01183334  0.60356083  0.00132382  1
  Ti  Ti153  1  0.19303757  0.60607157  0.01181696  1
  Ti  Ti154  1  0.79989632  0.79869341  0.24220122  1
  Ti  Ti155  1  0.59380890  0.80576216  -0.00317781  1
  Ti  Ti156  1  0.38976056  0.59560572  0.49166837  1
  Ti  Ti157  1  0.89330629  0.29617855  0.36205994  1
  Ti  Ti158  1  0.28455537  0.09212890  0.36666307  1
  Ti  Ti159  1  0.20404818  0.79254760  0.00098905  1
  Mo  Mo160  1  0.89891583  0.09163199  0.89444236  1
  Mo  Mo161  1  0.39671114  0.80369682  0.75887335  1
  Mo  Mo162  1  0.29315474  0.30426498  0.86965771  1
  Mo  Mo163  1  0.70655089  0.89544803  0.64139973  1
  Mo  Mo164  1  0.49874866  0.09287067  0.11812392  1
  Mo  Mo165  1  0.60548001  0.79834567  0.73453195  1
  Mo  Mo166  1  0.30124977  0.09936364  0.87274220  1
  Mo  Mo167  1  0.89968978  0.30242577  0.89387771  1
  Mo  Mo168  1  0.50693219  0.90390510  0.85850032  1
  Mo  Mo169  1  0.70233196  0.30504027  0.11013195  1
  Mo  Mo170  1  0.12108205  0.09950082  0.67011733  1
  Mo  Mo171  1  0.39786272  -0.00444819  0.76700590  1
  Mo  Mo172  1  0.09868163  0.50180078  0.35498303  1
  Mo  Mo173  1  0.29756792  0.89417962  0.86535994  1
  Mo  Mo174  1  0.70231557  0.09448408  0.11772358  1
  Mo  Mo175  1  0.49459187  0.49923203  0.38949625  1
  Mo  Mo176  1  0.19685697  0.80639022  0.75618537  1
  Mo  Mo177  1  0.20036631  0.60447152  0.23652156  1
  Mo  Mo178  1  0.29997456  0.69856447  0.38061933  1
  Mo  Mo179  1  0.29153374  0.90499343  0.36892725  1
  Mo  Mo180  1  0.09518130  0.89746155  0.37283033  1
  Mo  Mo181  1  -0.01504820  -0.02096850  0.47557125  1
  Mo  Mo182  1  0.10664472  0.70078982  0.11521894  1
  Mo  Mo183  1  0.91262429  0.89855063  0.63011267  1
  Mo  Mo184  1  0.59881108  -0.00575374  0.51682881  1
  Mo  Mo185  1  0.09806752  0.30185507  0.35561390  1
  Mo  Mo186  1  0.70583973  0.49629940  0.62417749  1
  Mo  Mo187  1  0.38533309  0.41102416  0.48044161  1
  Mo  Mo188  1  0.19279948  0.40049402  0.76424246  1
  Mo  Mo189  1  0.19213394  -0.00069661  0.23600923  1
  Mo  Mo190  1  0.20048074  0.60598196  0.73422016  1
  Mo  Mo191  1  0.29440949  0.30817122  0.14188226  1
  Mo  Mo192  1  0.20180593  0.20103271  0.77068589  1
  Mo  Mo193  1  0.72857706  0.11448621  0.63010019  1
  Mo  Mo194  1  -0.01371325  0.21327248  0.47043721  1
  Mo  Mo195  1  0.29925884  0.50902364  0.63502600  1
  Mo  Mo196  1  0.80132411  0.19741500  -0.01155637  1
  Mo  Mo197  1  0.68590751  0.70575986  0.12407523  1
  Mo  Mo198  1  0.60883264  0.58884051  0.51232395  1
  Mo  Mo199  1  0.80744799  0.59668045  0.49289459  1
