# generated using pymatgen
data_HfZrTaTiMo
_symmetry_space_group_name_H-M   'P 1'
_cell_length_a   15.83761901
_cell_length_b   15.82897415
_cell_length_c   15.41275075
_cell_angle_alpha   90.02080818
_cell_angle_beta   89.98660785
_cell_angle_gamma   89.94137547
_symmetry_Int_Tables_number   1
_chemical_formula_structural   HfZrTaTiMo
_chemical_formula_sum   'Hf40 Zr40 Ta40 Ti40 Mo40'
_cell_volume   3863.87037727
_cell_formula_units_Z   40
loop_
 _symmetry_equiv_pos_site_id
 _symmetry_equiv_pos_as_xyz
  1  'x, y, z'
loop_
 _atom_site_type_symbol
 _atom_site_label
 _atom_site_symmetry_multiplicity
 _atom_site_fract_x
 _atom_site_fract_y
 _atom_site_fract_z
 _atom_site_occupancy
  Hf  Hf0  1  0.19150352  0.59260322  0.49028226  1
  Hf  Hf1  1  0.19247035  0.00464438  0.49798300  1
  Hf  Hf2  1  0.70087510  0.50425236  0.86881137  1
  Hf  Hf3  1  0.39035916  0.19732327  0.01541067  1
  Hf  Hf4  1  0.70254350  0.10662337  0.13439384  1
  Hf  Hf5  1  0.07971477  0.71217164  0.35018153  1
  Hf  Hf6  1  0.29901990  0.69659432  0.62737132  1
  Hf  Hf7  1  0.70116374  0.90118326  0.11941000  1
  Hf  Hf8  1  0.40715707  0.38658316  0.00620303  1
  Hf  Hf9  1  0.19569428  0.80502590  0.76085408  1
  Hf  Hf10  1  0.39194038  0.40345778  0.25987059  1
  Hf  Hf11  1  0.29994531  0.90044084  0.61813360  1
  Hf  Hf12  1  0.18593728  0.00713193  0.74048061  1
  Hf  Hf13  1  0.29842576  0.90944011  0.88296432  1
  Hf  Hf14  1  0.49703774  0.90585133  0.61781661  1
  Hf  Hf15  1  0.40763187  0.59536879  0.00158475  1
  Hf  Hf16  1  0.69957757  0.29448462  0.60864113  1
  Hf  Hf17  1  0.10712463  0.28420271  0.88330364  1
  Hf  Hf18  1  0.81054527  -0.01189202  0.25681978  1
  Hf  Hf19  1  0.79953114  0.18934772  0.73527399  1
  Hf  Hf20  1  0.48798696  0.29710305  0.60432507  1
  Hf  Hf21  1  0.09634929  0.09884551  0.14164756  1
  Hf  Hf22  1  0.28589925  0.49376929  0.62033800  1
  Hf  Hf23  1  0.60091092  0.60210477  0.51602928  1
  Hf  Hf24  1  0.89781114  0.29077769  0.12762220  1
  Hf  Hf25  1  0.70092014  0.90704481  0.86243763  1
  Hf  Hf26  1  0.71285561  0.90727565  0.63039272  1
  Hf  Hf27  1  0.80887985  0.00161548  -0.00039940  1
  Hf  Hf28  1  0.39945750  0.01147223  0.00315411  1
  Hf  Hf29  1  0.67565076  0.30352821  0.86514072  1
  Hf  Hf30  1  0.29930498  0.89917227  0.38032426  1
  Hf  Hf31  1  0.70545152  0.70347085  0.85980281  1
  Hf  Hf32  1  0.60015184  -0.00468232  0.25767640  1
  Hf  Hf33  1  0.50579839  0.70301325  0.12169555  1
  Hf  Hf34  1  0.51189257  0.48230930  0.87662557  1
  Hf  Hf35  1  0.39455602  0.00331325  0.25565269  1
  Hf  Hf36  1  0.60036292  0.01549287  0.73626154  1
  Hf  Hf37  1  0.18132349  0.80030946  0.49309292  1
  Hf  Hf38  1  0.09663319  0.29187355  0.12491482  1
  Hf  Hf39  1  0.19817816  0.39254252  0.75416426  1
  Zr  Zr40  1  0.39452538  0.59053807  0.75584762  1
  Zr  Zr41  1  0.01098402  0.19159533  0.73514370  1
  Zr  Zr42  1  0.29250376  0.10919068  0.85969420  1
  Zr  Zr43  1  0.20266712  0.39694621  0.26198375  1
  Zr  Zr44  1  0.79564579  0.39357300  -0.01193682  1
  Zr  Zr45  1  0.20322103  0.60207291  0.00475800  1
  Zr  Zr46  1  0.69946141  0.09656493  0.39038328  1
  Zr  Zr47  1  0.80863225  0.78746762  0.23359438  1
  Zr  Zr48  1  0.80362877  0.39650042  0.74388982  1
  Zr  Zr49  1  0.60507523  0.79508623  0.51191291  1
  Zr  Zr50  1  0.09566508  0.69406287  0.64218786  1
  Zr  Zr51  1  0.59839748  0.41866075  0.27229622  1
  Zr  Zr52  1  0.70612731  0.50925191  0.11424968  1
  Zr  Zr53  1  0.49458120  0.29826484  0.38054817  1
  Zr  Zr54  1  0.68490195  0.30387863  0.12505493  1
  Zr  Zr55  1  0.09594199  0.50135193  0.12130137  1
  Zr  Zr56  1  0.69461298  0.10633917  0.86811456  1
  Zr  Zr57  1  0.29454958  0.90282959  0.11948818  1
  Zr  Zr58  1  0.49458751  0.89869952  0.11780836  1
  Zr  Zr59  1  0.30386417  0.70774687  0.88598583  1
  Zr  Zr60  1  -0.00707187  0.40247722  0.25832595  1
  Zr  Zr61  1  0.79645989  0.19492596  -0.00618996  1
  Zr  Zr62  1  0.71165754  0.71029128  0.64566897  1
  Zr  Zr63  1  0.90972630  0.50055028  0.10224989  1
  Zr  Zr64  1  0.70916330  0.89034340  0.38836463  1
  Zr  Zr65  1  0.79254054  0.40148578  0.26159513  1
  Zr  Zr66  1  0.50542002  0.69736265  0.37199495  1
  Zr  Zr67  1  0.60360942  0.40617464  0.49369204  1
  Zr  Zr68  1  0.50929463  0.70269545  0.86423003  1
  Zr  Zr69  1  0.50312896  0.11155293  0.14278615  1
  Zr  Zr70  1  0.09869146  0.49104387  0.88997824  1
  Zr  Zr71  1  0.90023555  0.29433911  0.38846095  1
  Zr  Zr72  1  0.71446686  0.69164715  0.37843753  1
  Zr  Zr73  1  0.00821255  -0.00306551  0.49765969  1
  Zr  Zr74  1  0.29939113  0.69070961  0.36962422  1
  Zr  Zr75  1  0.40496658  0.59230048  0.23587516  1
  Zr  Zr76  1  0.39625372  0.38143614  0.74676037  1
  Zr  Zr77  1  0.60466424  0.80389116  -0.00418232  1
  Zr  Zr78  1  0.01158727  0.41056466  0.49258890  1
  Zr  Zr79  1  0.82730504  0.60112176  0.75004499  1
  Ta  Ta80  1  0.49310322  0.11633609  0.86640507  1
  Ta  Ta81  1  0.39990409  0.79243141  0.49760969  1
  Ta  Ta82  1  0.80649603  0.79797758  -0.00547113  1
  Ta  Ta83  1  0.30414296  0.28824732  0.87796738  1
  Ta  Ta84  1  -0.00849686  -0.01278129  0.75361017  1
  Ta  Ta85  1  0.90697369  0.30085615  0.61144793  1
  Ta  Ta86  1  0.09208897  0.70372777  0.12809412  1
  Ta  Ta87  1  0.49737485  0.30241196  0.14760971  1
  Ta  Ta88  1  0.40318714  0.80316680  0.25867603  1
  Ta  Ta89  1  0.19563111  0.01845220  0.00969911  1
  Ta  Ta90  1  -0.00101084  0.39829374  0.75047819  1
  Ta  Ta91  1  0.59751660  0.01620244  -0.00499699  1
  Ta  Ta92  1  -0.00425353  0.18359703  0.00017661  1
  Ta  Ta93  1  0.40304582  0.81047973  0.75254124  1
  Ta  Ta94  1  0.90861964  0.09688238  0.37187620  1
  Ta  Ta95  1  0.90906481  0.49963597  0.88579204  1
  Ta  Ta96  1  0.91789908  0.87510190  0.38154150  1
  Ta  Ta97  1  0.90593971  0.69273246  0.10255154  1
  Ta  Ta98  1  0.09465247  0.90770725  0.89408439  1
  Ta  Ta99  1  0.49576788  0.09576899  0.38879612  1
  Ta  Ta100  1  0.80696960  0.19158703  0.50534410  1
  Ta  Ta101  1  0.37582898  0.40433678  0.48642169  1
  Ta  Ta102  1  0.59464806  0.40252853  0.72608122  1
  Ta  Ta103  1  0.09331190  0.50401381  0.63760004  1
  Ta  Ta104  1  -0.00108439  0.79481324  0.77874341  1
  Ta  Ta105  1  0.18789545  0.19996498  0.50123708  1
  Ta  Ta106  1  -0.00171899  0.61217178  0.49324652  1
  Ta  Ta107  1  0.48578661  0.50156948  0.61466575  1
  Ta  Ta108  1  0.60411059  0.79812668  0.24877795  1
  Ta  Ta109  1  0.09504387  0.51550729  0.35630984  1
  Ta  Ta110  1  0.90400359  0.88860479  0.62013876  1
  Ta  Ta111  1  0.60588981  0.20945820  0.27542058  1
  Ta  Ta112  1  0.38463120  0.19862455  0.49372880  1
  Ta  Ta113  1  0.49985437  0.91135384  0.86994780  1
  Ta  Ta114  1  0.50189066  0.90290694  0.39016260  1
  Ta  Ta115  1  0.90866083  0.29255436  0.87155905  1
  Ta  Ta116  1  0.90677196  0.09587316  0.14498218  1
  Ta  Ta117  1  0.19878177  0.80378565  0.24145524  1
  Ta  Ta118  1  0.30416252  0.09999070  0.61787945  1
  Ta  Ta119  1  0.30480815  0.71136899  0.12142038  1
  Ti  Ti120  1  0.49382670  0.70296339  0.63632310  1
  Ti  Ti121  1  0.58088945  0.21258713  -0.00057527  1
  Ti  Ti122  1  0.19586284  -0.00213223  0.25599242  1
  Ti  Ti123  1  0.29993173  0.49448018  0.11916611  1
  Ti  Ti124  1  0.91151947  0.50194590  0.62142943  1
  Ti  Ti125  1  0.29082362  0.28551088  0.13689893  1
  Ti  Ti126  1  0.91485569  0.90117750  0.11374708  1
  Ti  Ti127  1  0.79712092  0.20114499  0.26726014  1
  Ti  Ti128  1  0.71181159  0.49872722  0.62110771  1
  Ti  Ti129  1  0.19189543  0.80348086  0.00556733  1
  Ti  Ti130  1  0.09721707  0.28794715  0.37439789  1
  Ti  Ti131  1  0.40181482  0.01014675  0.74472238  1
  Ti  Ti132  1  0.21001322  0.20701051  0.72320476  1
  Ti  Ti133  1  0.59899953  0.59186474  0.73396439  1
  Ti  Ti134  1  0.82434301  0.81591791  0.76820169  1
  Ti  Ti135  1  0.20917536  0.38358884  0.00533388  1
  Ti  Ti136  1  0.50214400  0.10083118  0.59830710  1
  Ti  Ti137  1  0.08847649  0.89277442  0.63248651  1
  Ti  Ti138  1  0.71607276  0.50449466  0.39294677  1
  Ti  Ti139  1  0.51505132  0.49164527  0.11754739  1
  Ti  Ti140  1  0.09184153  0.10401491  0.36135520  1
  Ti  Ti141  1  0.81042915  0.59757338  0.24499995  1
  Ti  Ti142  1  0.09719378  0.09701733  0.88043312  1
  Ti  Ti143  1  0.81101690  0.60729657  0.51366538  1
  Ti  Ti144  1  0.38748895  0.20203295  0.26330847  1
  Ti  Ti145  1  0.89817923  0.51459203  0.38275569  1
  Ti  Ti146  1  0.91305717  0.70826236  0.62955901  1
  Ti  Ti147  1  0.30089153  0.48766357  0.88302159  1
  Ti  Ti148  1  0.90239386  0.08836195  0.61999065  1
  Ti  Ti149  1  0.61438012  0.60518791  0.24441528  1
  Ti  Ti150  1  0.19350674  0.59710473  0.77002026  1
  Ti  Ti151  1  0.61122608  0.60391592  0.00007925  1
  Ti  Ti152  1  0.09164229  0.90494795  0.12393188  1
  Ti  Ti153  1  0.58392328  0.20479094  0.73266217  1
  Ti  Ti154  1  0.20460054  0.60176038  0.23952234  1
  Ti  Ti155  1  0.81008574  -0.00570121  0.49732455  1
  Ti  Ti156  1  0.29075234  0.10420951  0.37582125  1
  Ti  Ti157  1  0.48051862  0.51612057  0.39504469  1
  Ti  Ti158  1  0.10223226  0.30796070  0.61358156  1
  Ti  Ti159  1  0.90340021  0.09234900  0.86478213  1
  Mo  Mo160  1  0.59829582  0.19753796  0.49227570  1
  Mo  Mo161  1  -0.01551305  0.60625664  0.25066445  1
  Mo  Mo162  1  0.29076885  0.10536838  0.14632789  1
  Mo  Mo163  1  -0.00218385  0.38001164  -0.01060747  1
  Mo  Mo164  1  0.70670508  0.29966125  0.39356739  1
  Mo  Mo165  1  0.80825518  0.40854078  0.50710415  1
  Mo  Mo166  1  0.80074632  0.60736457  -0.01542022  1
  Mo  Mo167  1  0.40024225  0.80521487  -0.01587481  1
  Mo  Mo168  1  0.28747584  0.29458311  0.38352104  1
  Mo  Mo169  1  -0.00429465  0.80411237  0.22360643  1
  Mo  Mo170  1  0.70699721  0.69827907  0.12385597  1
  Mo  Mo171  1  0.39680399  0.60305321  0.51291801  1
  Mo  Mo172  1  0.89809168  0.69456350  0.37657928  1
  Mo  Mo173  1  0.81167202  0.00143876  0.74233630  1
  Mo  Mo174  1  0.18935892  0.40090512  0.48398581  1
  Mo  Mo175  1  0.00595602  0.61172837  -0.01711120  1
  Mo  Mo176  1  0.09968231  0.09858038  0.62554974  1
  Mo  Mo177  1  0.00328441  0.19415402  0.51034855  1
  Mo  Mo178  1  -0.00066024  -0.00903821  0.26321737  1
  Mo  Mo179  1  0.90447037  0.70198540  0.89019211  1
  Mo  Mo180  1  0.09988123  0.90162857  0.35574097  1
  Mo  Mo181  1  0.59200832  0.39591980  0.00406332  1
  Mo  Mo182  1  0.90329466  0.90517829  0.88742863  1
  Mo  Mo183  1  0.70180020  0.09727315  0.60815214  1
  Mo  Mo184  1  0.10203413  0.70498561  0.88207011  1
  Mo  Mo185  1  0.49351589  0.29008748  0.86412598  1
  Mo  Mo186  1  -0.00500024  0.19691520  0.25269241  1
  Mo  Mo187  1  0.19921919  0.19591109  0.26759330  1
  Mo  Mo188  1  0.00300537  0.79555591  0.50469519  1
  Mo  Mo189  1  0.81640241  0.79228137  0.50692987  1
  Mo  Mo190  1  0.00052755  0.00717106  -0.00479189  1
  Mo  Mo191  1  0.20128700  0.19491320  0.00695455  1
  Mo  Mo192  1  0.29157024  0.50438617  0.37713786  1
  Mo  Mo193  1  0.28857547  0.29818329  0.60443700  1
  Mo  Mo194  1  0.60140748  0.00069629  0.50914276  1
  Mo  Mo195  1  0.40057329  0.19211959  0.72417276  1
  Mo  Mo196  1  0.59108489  0.80822814  0.74762711  1
  Mo  Mo197  1  0.39548747  0.00201012  0.49076098  1
  Mo  Mo198  1  0.00504953  0.80617769  0.00355158  1
  Mo  Mo199  1  0.00577277  0.59647956  0.76560301  1
