# generated using pymatgen
data_HfZrTaTiMo
_symmetry_space_group_name_H-M   'P 1'
_cell_length_a   15.82744774
_cell_length_b   15.82620800
_cell_length_c   15.40245955
_cell_angle_alpha   90.06393209
_cell_angle_beta   89.97105226
_cell_angle_gamma   89.98068181
_symmetry_Int_Tables_number   1
_chemical_formula_structural   HfZrTaTiMo
_chemical_formula_sum   'Hf40 Zr40 Ta40 Ti40 Mo40'
_cell_volume   3858.13556623
_cell_formula_units_Z   40
loop_
 _symmetry_equiv_pos_site_id
 _symmetry_equiv_pos_as_xyz
  1  'x, y, z'
loop_
 _atom_site_type_symbol
 _atom_site_label
 _atom_site_symmetry_multiplicity
 _atom_site_fract_x
 _atom_site_fract_y
 _atom_site_fract_z
 _atom_site_occupancy
  Hf  Hf0  1  0.89847606  0.70651235  0.37583497  1
  Hf  Hf1  1  0.39955806  0.39582641  0.50713613  1
  Hf  Hf2  1  0.00148519  0.00719737  0.24673321  1
  Hf  Hf3  1  0.90944890  0.50105953  0.38797885  1
  Hf  Hf4  1  0.39652089  0.40713109  0.00771083  1
  Hf  Hf5  1  0.81177998  0.79677344  0.75192747  1
  Hf  Hf6  1  0.40776073  0.39655622  0.23828491  1
  Hf  Hf7  1  0.60209113  0.80718749  0.74693577  1
  Hf  Hf8  1  0.48877723  0.10632174  0.60930156  1
  Hf  Hf9  1  0.29599333  0.48919896  0.37608794  1
  Hf  Hf10  1  0.50312913  0.89369537  0.13771804  1
  Hf  Hf11  1  0.68995247  0.29233705  0.87026827  1
  Hf  Hf12  1  0.80314480  -0.00051378  0.48311560  1
  Hf  Hf13  1  -0.00100069  0.81351494  0.01067086  1
  Hf  Hf14  1  0.49734650  0.50801011  0.61787034  1
  Hf  Hf15  1  0.49618307  0.10214568  0.89127287  1
  Hf  Hf16  1  0.70670877  0.89514067  0.35325918  1
  Hf  Hf17  1  -0.00000232  0.40121896  -0.00016714  1
  Hf  Hf18  1  0.59774880  0.59298674  0.00956637  1
  Hf  Hf19  1  0.81228436  0.59379263  0.24476321  1
  Hf  Hf20  1  0.59280955  0.39550368  0.73935024  1
  Hf  Hf21  1  0.39178366  0.39041959  0.73568765  1
  Hf  Hf22  1  0.48671332  0.29070678  0.87842831  1
  Hf  Hf23  1  0.79328010  0.81051319  0.00454524  1
  Hf  Hf24  1  0.09361354  0.49355297  0.63648245  1
  Hf  Hf25  1  0.80661290  0.00229994  -0.01042148  1
  Hf  Hf26  1  0.58885635  0.39314345  0.01642514  1
  Hf  Hf27  1  0.19623409  -0.00586750  0.76621502  1
  Hf  Hf28  1  0.29746967  0.71745559  0.61219833  1
  Hf  Hf29  1  0.70175257  0.29312837  0.62786538  1
  Hf  Hf30  1  0.49452295  0.29517752  0.37683167  1
  Hf  Hf31  1  0.30469470  0.69852373  0.11109258  1
  Hf  Hf32  1  0.89738369  0.09529733  0.62552896  1
  Hf  Hf33  1  0.29868432  0.07951090  0.61290195  1
  Hf  Hf34  1  0.59596403  0.59589131  0.25772020  1
  Hf  Hf35  1  0.30088951  0.90691546  0.89740747  1
  Hf  Hf36  1  0.79983266  0.60462043  0.51044988  1
  Hf  Hf37  1  0.90040891  0.50874996  0.86976941  1
  Hf  Hf38  1  0.51165438  0.90710716  0.88209905  1
  Hf  Hf39  1  0.11792371  0.89891022  0.62341090  1
  Zr  Zr40  1  0.68434644  0.08551847  0.85826277  1
  Zr  Zr41  1  0.79981969  0.39588098  -0.01076803  1
  Zr  Zr42  1  0.60090191  0.60598118  0.73929085  1
  Zr  Zr43  1  0.30405418  0.10934839  0.90191012  1
  Zr  Zr44  1  0.20437405  0.39799672  -0.00711089  1
  Zr  Zr45  1  0.90916692  0.30326015  0.62557259  1
  Zr  Zr46  1  0.71151637  0.08746985  0.14803182  1
  Zr  Zr47  1  0.10229622  0.70242337  0.37958273  1
  Zr  Zr48  1  0.20462400  0.61159322  0.75296906  1
  Zr  Zr49  1  0.20526106  0.39209142  0.52085110  1
  Zr  Zr50  1  0.61509575  -0.01361341  0.01508233  1
  Zr  Zr51  1  -0.01156630  0.61864872  0.73720137  1
  Zr  Zr52  1  0.80439926  0.19385910  0.75938660  1
  Zr  Zr53  1  0.71041520  0.28902631  0.13622812  1
  Zr  Zr54  1  0.11906705  0.11336113  0.35961066  1
  Zr  Zr55  1  -0.00397835  0.81002138  0.50163558  1
  Zr  Zr56  1  0.09679323  0.29802596  0.86450061  1
  Zr  Zr57  1  0.10591421  0.69929680  0.12487602  1
  Zr  Zr58  1  0.60276860  0.80328029  0.49093573  1
  Zr  Zr59  1  0.70410069  0.90907860  0.62705964  1
  Zr  Zr60  1  0.50354102  0.10383557  0.13889056  1
  Zr  Zr61  1  0.28926657  0.28267024  0.36293158  1
  Zr  Zr62  1  -0.01198354  0.40408005  0.24278478  1
  Zr  Zr63  1  0.38959520  0.80080276  0.75768036  1
  Zr  Zr64  1  0.09708277  0.09883010  0.62344509  1
  Zr  Zr65  1  0.39879072  0.00567729  0.75557981  1
  Zr  Zr66  1  0.69384555  0.50423351  0.87153666  1
  Zr  Zr67  1  0.00174061  0.00585684  0.48139076  1
  Zr  Zr68  1  0.20253588  0.59844446  -0.02456712  1
  Zr  Zr69  1  0.71054337  0.49124883  0.13408563  1
  Zr  Zr70  1  0.50168066  0.69642749  0.88286334  1
  Zr  Zr71  1  0.09827212  0.29487971  0.63731205  1
  Zr  Zr72  1  0.20763140  0.60610838  0.26163164  1
  Zr  Zr73  1  0.79841361  0.19728826  0.48517447  1
  Zr  Zr74  1  0.60746307  0.40084791  0.49413055  1
  Zr  Zr75  1  0.39611544  0.78445682  0.25750315  1
  Zr  Zr76  1  0.21898797  0.19912517  0.75766549  1
  Zr  Zr77  1  0.59251263  0.00079358  0.48219821  1
  Zr  Zr78  1  0.29974323  0.50894454  0.12962214  1
  Zr  Zr79  1  0.19492914  0.20369857  0.01350137  1
  Ta  Ta80  1  0.00159690  0.20768379  0.48133219  1
  Ta  Ta81  1  0.79818396  0.60717878  0.73640750  1
  Ta  Ta82  1  0.39892213  0.80923699  0.48524349  1
  Ta  Ta83  1  0.39461486  -0.00392916  0.25135828  1
  Ta  Ta84  1  0.48491524  0.90433823  0.61951313  1
  Ta  Ta85  1  0.39627933  0.00022501  0.02716224  1
  Ta  Ta86  1  0.70090403  0.70193984  0.12967717  1
  Ta  Ta87  1  0.59923061  0.79034557  0.25060955  1
  Ta  Ta88  1  0.10320403  0.71014306  0.61977790  1
  Ta  Ta89  1  0.60003102  0.19841284  0.49105743  1
  Ta  Ta90  1  0.60438345  0.19765375  0.01301712  1
  Ta  Ta91  1  0.88532023  0.91097833  0.13996688  1
  Ta  Ta92  1  0.40314125  0.80094706  0.00414889  1
  Ta  Ta93  1  0.39188956  0.59964875  0.75187467  1
  Ta  Ta94  1  0.29054591  0.89436170  0.13035987  1
  Ta  Ta95  1  0.20331478  -0.00860911  0.48101274  1
  Ta  Ta96  1  0.89843106  0.70271654  0.88765306  1
  Ta  Ta97  1  0.59941880  0.40089488  0.25612674  1
  Ta  Ta98  1  0.19302079  0.80622210  -0.00708617  1
  Ta  Ta99  1  0.81448473  0.21039938  0.27091760  1
  Ta  Ta100  1  0.80355955  0.60371715  0.00962387  1
  Ta  Ta101  1  0.70601089  0.70249467  0.88176849  1
  Ta  Ta102  1  0.80317527  0.39556094  0.49068546  1
  Ta  Ta103  1  0.20229485  0.59744563  0.50778823  1
  Ta  Ta104  1  0.00275609  0.60194036  0.51535475  1
  Ta  Ta105  1  0.00070007  0.20919102  0.25241286  1
  Ta  Ta106  1  0.09982925  0.49750871  0.38417735  1
  Ta  Ta107  1  -0.00023679  0.80235186  0.23811879  1
  Ta  Ta108  1  0.69313488  0.09644562  0.62952396  1
  Ta  Ta109  1  0.29077741  0.89293373  0.36005122  1
  Ta  Ta110  1  0.08785563  0.09441285  0.89363892  1
  Ta  Ta111  1  0.80281869  0.40362214  0.75210855  1
  Ta  Ta112  1  0.60221403  0.60092594  0.49214187  1
  Ta  Ta113  1  0.39827947  0.60189265  0.49112460  1
  Ta  Ta114  1  0.29420037  0.10364595  0.14175885  1
  Ta  Ta115  1  0.90054932  0.11413362  0.12934882  1
  Ta  Ta116  1  0.49576231  0.70686305  0.61280467  1
  Ta  Ta117  1  0.09438292  0.49918002  0.85774875  1
  Ta  Ta118  1  0.09833129  0.50219007  0.12459483  1
  Ta  Ta119  1  0.40915204  0.59435219  0.27092186  1
  Ti  Ti120  1  0.60518535  0.79634470  0.01055584  1
  Ti  Ti121  1  0.58019664  0.19614970  0.73761141  1
  Ti  Ti122  1  0.50240178  0.70022906  0.38554197  1
  Ti  Ti123  1  0.89447730  0.30195287  0.12056473  1
  Ti  Ti124  1  0.10175820  0.89386603  0.35938024  1
  Ti  Ti125  1  0.69558091  0.10116470  0.35869628  1
  Ti  Ti126  1  0.90144723  0.90169234  0.62531307  1
  Ti  Ti127  1  0.49518473  0.68748424  0.12154360  1
  Ti  Ti128  1  0.70130028  0.70868533  0.61682152  1
  Ti  Ti129  1  0.00569436  0.80924080  0.75013483  1
  Ti  Ti130  1  0.09096304  0.29634144  0.12509343  1
  Ti  Ti131  1  0.49168668  0.49732424  0.86828017  1
  Ti  Ti132  1  -0.00076065  0.59900094  0.00308405  1
  Ti  Ti133  1  0.39865992  0.21649207  0.03272765  1
  Ti  Ti134  1  0.89975599  0.49324163  0.62464640  1
  Ti  Ti135  1  -0.00108646  0.00484643  0.01627821  1
  Ti  Ti136  1  0.08734496  0.70639005  0.87687200  1
  Ti  Ti137  1  0.21382616  0.40497323  0.75127595  1
  Ti  Ti138  1  0.19708717  0.80295114  0.77094386  1
  Ti  Ti139  1  0.71084789  0.70261821  0.37054482  1
  Ti  Ti140  1  0.09922952  0.31267138  0.37559136  1
  Ti  Ti141  1  -0.00329582  0.18530167  0.76289985  1
  Ti  Ti142  1  0.39402548  -0.00418458  0.47156588  1
  Ti  Ti143  1  0.18586391  -0.00353722  0.01894735  1
  Ti  Ti144  1  0.80374925  0.19197522  -0.01173188  1
  Ti  Ti145  1  0.19118816  0.39602202  0.23911231  1
  Ti  Ti146  1  0.89632121  0.89471486  0.35798006  1
  Ti  Ti147  1  0.49230816  0.10081097  0.36103104  1
  Ti  Ti148  1  0.90417822  0.29494489  0.87395445  1
  Ti  Ti149  1  -0.00045953  -0.00303029  0.75878952  1
  Ti  Ti150  1  0.19401513  -0.00301852  0.23832501  1
  Ti  Ti151  1  0.80531852  -0.00563260  0.76219207  1
  Ti  Ti152  1  0.32598798  0.26524323  0.61331109  1
  Ti  Ti153  1  0.91122006  0.90259116  0.87590262  1
  Ti  Ti154  1  0.70527924  0.49675771  0.62414271  1
  Ti  Ti155  1  0.00415547  0.59836654  0.24473520  1
  Ti  Ti156  1  0.70709076  0.49835976  0.37174632  1
  Ti  Ti157  1  0.59819739  0.20710507  0.25520303  1
  Ti  Ti158  1  0.20339068  0.19243223  0.50067226  1
  Ti  Ti159  1  0.90142081  0.69950572  0.12229288  1
  Mo  Mo160  1  0.59261781  0.00127197  0.73524912  1
  Mo  Mo161  1  0.90714696  0.09455944  0.88177839  1
  Mo  Mo162  1  0.30075205  0.51295670  0.62755856  1
  Mo  Mo163  1  0.29560638  0.30002299  0.14117849  1
  Mo  Mo164  1  0.70141202  0.89200637  0.14513070  1
  Mo  Mo165  1  0.29960777  0.09137928  0.35697216  1
  Mo  Mo166  1  0.20046315  0.80421042  0.48548106  1
  Mo  Mo167  1  0.39715599  0.19656543  0.24986245  1
  Mo  Mo168  1  -0.01126415  0.20025577  0.00714788  1
  Mo  Mo169  1  0.30128506  0.69818641  0.39111493  1
  Mo  Mo170  1  0.80071486  0.39766184  0.26996204  1
  Mo  Mo171  1  0.80297947  0.80422987  0.50440646  1
  Mo  Mo172  1  0.40314577  0.59880207  -0.01770299  1
  Mo  Mo173  1  0.19687621  0.80329433  0.24968623  1
  Mo  Mo174  1  0.80785351  0.00705852  0.26483373  1
  Mo  Mo175  1  0.70459506  0.89141047  0.86082143  1
  Mo  Mo176  1  0.09314526  0.10255513  0.12197726  1
  Mo  Mo177  1  0.50314265  0.29125963  0.60741734  1
  Mo  Mo178  1  0.30179060  0.70531966  0.88754123  1
  Mo  Mo179  1  0.50186984  0.50041726  0.38409036  1
  Mo  Mo180  1  0.89699276  0.71196633  0.61309041  1
  Mo  Mo181  1  0.50566904  0.29917437  0.13310906  1
  Mo  Mo182  1  -0.00931195  0.40119527  0.76377344  1
  Mo  Mo183  1  0.50059158  0.50665873  0.13243498  1
  Mo  Mo184  1  0.00439496  0.40308251  0.49905023  1
  Mo  Mo185  1  0.59569306  -0.00325942  0.26137933  1
  Mo  Mo186  1  0.69951183  0.30119438  0.36558118  1
  Mo  Mo187  1  0.19062431  0.20662394  0.23033754  1
  Mo  Mo188  1  0.90695513  0.10426862  0.36382621  1
  Mo  Mo189  1  0.90857220  0.30657211  0.38563010  1
  Mo  Mo190  1  0.09474579  0.90364259  0.88190668  1
  Mo  Mo191  1  0.40225750  0.19940070  0.75078195  1
  Mo  Mo192  1  0.90709454  0.50518651  0.11654892  1
  Mo  Mo193  1  0.30535879  0.30193479  0.87377890  1
  Mo  Mo194  1  0.09765163  0.90349973  0.13282038  1
  Mo  Mo195  1  0.80431056  0.79368732  0.23448805  1
  Mo  Mo196  1  0.30450991  0.49747718  0.86081608  1
  Mo  Mo197  1  0.30305665  0.90201994  0.60647021  1
  Mo  Mo198  1  0.49719209  0.89947887  0.35750875  1
  Mo  Mo199  1  0.39656845  0.18433541  0.47303379  1
