# generated using pymatgen
data_HfZrTaTiMo
_symmetry_space_group_name_H-M   'P 1'
_cell_length_a   15.85298281
_cell_length_b   15.82924870
_cell_length_c   15.42221441
_cell_angle_alpha   89.97130026
_cell_angle_beta   90.02632448
_cell_angle_gamma   90.04811542
_symmetry_Int_Tables_number   1
_chemical_formula_structural   HfZrTaTiMo
_chemical_formula_sum   'Hf40 Zr40 Ta40 Ti40 Mo40'
_cell_volume   3870.06067913
_cell_formula_units_Z   40
loop_
 _symmetry_equiv_pos_site_id
 _symmetry_equiv_pos_as_xyz
  1  'x, y, z'
loop_
 _atom_site_type_symbol
 _atom_site_label
 _atom_site_symmetry_multiplicity
 _atom_site_fract_x
 _atom_site_fract_y
 _atom_site_fract_z
 _atom_site_occupancy
  Hf  Hf0  1  0.78352734  0.41429154  0.00119458  1
  Hf  Hf1  1  0.60929264  0.59493535  0.01232066  1
  Hf  Hf2  1  0.49858754  0.90182179  0.38289227  1
  Hf  Hf3  1  0.58989579  0.00271176  0.74812869  1
  Hf  Hf4  1  0.70902161  0.50820472  0.36485615  1
  Hf  Hf5  1  0.86821104  0.88243962  0.63058979  1
  Hf  Hf6  1  0.21241917  0.39351085  0.50714243  1
  Hf  Hf7  1  0.01081508  0.60718493  0.23335108  1
  Hf  Hf8  1  0.19822811  0.19591111  0.01650607  1
  Hf  Hf9  1  0.30480492  0.30033963  0.36736390  1
  Hf  Hf10  1  0.68193911  0.91570631  0.12615899  1
  Hf  Hf11  1  0.10393036  0.50393316  0.38263318  1
  Hf  Hf12  1  0.69412132  0.10740105  0.88161376  1
  Hf  Hf13  1  0.00383243  0.00335101  -0.00417752  1
  Hf  Hf14  1  0.10359477  0.10013864  0.61398906  1
  Hf  Hf15  1  0.01371774  0.39483017  0.01857715  1
  Hf  Hf16  1  0.11727659  0.70869999  0.10365680  1
  Hf  Hf17  1  0.21304518  0.59676083  0.51190164  1
  Hf  Hf18  1  0.69591141  0.30550594  0.87081539  1
  Hf  Hf19  1  0.80001646  0.40626041  0.49955336  1
  Hf  Hf20  1  0.61583455  0.80881851  0.51454263  1
  Hf  Hf21  1  0.32564766  0.49184025  0.63029356  1
  Hf  Hf22  1  0.89176119  0.09154156  0.37602671  1
  Hf  Hf23  1  0.39023216  0.79534318  0.25480955  1
  Hf  Hf24  1  0.69562429  0.10488235  0.62513892  1
  Hf  Hf25  1  0.39518276  0.20005626  -0.00231025  1
  Hf  Hf26  1  0.10387091  0.09506857  0.39023396  1
  Hf  Hf27  1  0.30023421  0.07420618  0.61591549  1
  Hf  Hf28  1  0.68726023  0.30568953  0.12238823  1
  Hf  Hf29  1  0.88969271  0.09927345  0.62331055  1
  Hf  Hf30  1  0.79031482  0.79819680  0.00282631  1
  Hf  Hf31  1  0.60599375  0.39906788  0.50008201  1
  Hf  Hf32  1  0.90744984  0.50524627  0.63352393  1
  Hf  Hf33  1  0.59088480  0.20712144  0.74656490  1
  Hf  Hf34  1  -0.01988284  0.78120873  0.51337953  1
  Hf  Hf35  1  0.81510209  0.61860739  0.50531934  1
  Hf  Hf36  1  -0.00063131  0.19871855  0.75176482  1
  Hf  Hf37  1  0.01198223  0.40581973  0.23533937  1
  Hf  Hf38  1  0.49326805  0.69878605  0.13042520  1
  Hf  Hf39  1  0.48934618  0.31013754  0.61625079  1
  Zr  Zr40  1  0.29081389  0.29718126  0.86892202  1
  Zr  Zr41  1  0.11081448  0.90175779  0.12490159  1
  Zr  Zr42  1  0.80277901  0.80104602  0.22726867  1
  Zr  Zr43  1  0.50683073  0.69478429  0.85984500  1
  Zr  Zr44  1  -0.00753464  -0.00796275  0.23896968  1
  Zr  Zr45  1  0.79628583  -0.00371632  -0.00466215  1
  Zr  Zr46  1  0.20685958  0.60550633  0.24937684  1
  Zr  Zr47  1  0.48095911  0.90782810  0.62369717  1
  Zr  Zr48  1  0.79396757  -0.00171578  0.76277846  1
  Zr  Zr49  1  0.50255534  0.48193693  0.14126033  1
  Zr  Zr50  1  0.30818014  0.07442719  0.12640367  1
  Zr  Zr51  1  0.90319397  0.29968434  0.87858312  1
  Zr  Zr52  1  -0.00248167  0.79446897  0.75329854  1
  Zr  Zr53  1  0.10899190  0.49671147  0.87357731  1
  Zr  Zr54  1  0.61201298  0.60383488  0.50761235  1
  Zr  Zr55  1  0.59239143  0.79951748  0.00205793  1
  Zr  Zr56  1  0.40748593  0.59041119  -0.00389738  1
  Zr  Zr57  1  0.00893324  0.19343444  0.23276711  1
  Zr  Zr58  1  0.91150118  0.69387174  0.89630838  1
  Zr  Zr59  1  0.20968466  -0.01867586  -0.02439218  1
  Zr  Zr60  1  0.89547119  0.51330253  0.11897993  1
  Zr  Zr61  1  -0.00222801  0.40297409  0.49887512  1
  Zr  Zr62  1  0.21049365  0.39949493  0.01481545  1
  Zr  Zr63  1  0.29375670  0.90096074  0.39013529  1
  Zr  Zr64  1  0.78051823  0.20924261  0.48606893  1
  Zr  Zr65  1  -0.00019898  -0.00135207  0.76144704  1
  Zr  Zr66  1  0.50806652  0.70058970  0.38240881  1
  Zr  Zr67  1  0.09223016  0.89342272  0.38545011  1
  Zr  Zr68  1  0.41223227  0.18986458  0.25325715  1
  Zr  Zr69  1  0.88779826  0.88748236  0.37808027  1
  Zr  Zr70  1  0.37827633  0.79927827  -0.00389244  1
  Zr  Zr71  1  0.77493978  0.19964032  0.25696701  1
  Zr  Zr72  1  0.11134622  0.29388645  0.37195244  1
  Zr  Zr73  1  -0.00949046  0.20614639  0.49968471  1
  Zr  Zr74  1  0.79710531  0.40908179  0.75506337  1
  Zr  Zr75  1  0.90915731  0.50116940  0.88557191  1
  Zr  Zr76  1  0.48693718  0.91626241  0.12924067  1
  Zr  Zr77  1  0.10308358  0.90623056  0.62345801  1
  Zr  Zr78  1  0.88364434  0.09690889  0.12285769  1
  Zr  Zr79  1  0.89534087  0.31080963  0.35576762  1
  Ta  Ta80  1  0.59749123  0.00905356  0.49705560  1
  Ta  Ta81  1  0.49987850  0.69017496  0.63526813  1
  Ta  Ta82  1  0.60987149  0.60355137  0.24380827  1
  Ta  Ta83  1  0.10878785  0.10687291  0.87553238  1
  Ta  Ta84  1  0.40489873  0.39208110  0.75753732  1
  Ta  Ta85  1  0.77984503  -0.01231284  0.49656084  1
  Ta  Ta86  1  0.00710717  0.20025583  0.01134933  1
  Ta  Ta87  1  0.30551108  0.50138860  0.86052325  1
  Ta  Ta88  1  0.30636655  0.69638094  0.85098421  1
  Ta  Ta89  1  0.58838990  0.20768720  -0.00357111  1
  Ta  Ta90  1  0.48898560  0.89689963  0.86184787  1
  Ta  Ta91  1  0.10303054  0.49540284  0.63038940  1
  Ta  Ta92  1  0.20247847  0.19079413  0.74245080  1
  Ta  Ta93  1  0.49169893  0.10510941  0.61251933  1
  Ta  Ta94  1  0.29193019  0.10302174  0.38851291  1
  Ta  Ta95  1  0.90410116  0.51411656  0.36398641  1
  Ta  Ta96  1  0.89275336  0.30130793  0.12474532  1
  Ta  Ta97  1  0.09767856  0.69099012  0.62180161  1
  Ta  Ta98  1  0.39588621  0.20319465  0.49687567  1
  Ta  Ta99  1  0.00862484  0.59915986  0.75100489  1
  Ta  Ta100  1  0.50443727  0.49445609  0.36951193  1
  Ta  Ta101  1  0.10034903  0.30109010  0.63257065  1
  Ta  Ta102  1  0.40289833  0.59962764  0.26070355  1
  Ta  Ta103  1  0.71871309  0.71621324  0.64203818  1
  Ta  Ta104  1  0.80557976  0.61236127  0.76018768  1
  Ta  Ta105  1  0.39655947  0.19097766  0.74850418  1
  Ta  Ta106  1  0.09690287  0.69821914  0.39204139  1
  Ta  Ta107  1  0.00293697  0.79540619  0.23960426  1
  Ta  Ta108  1  0.67996669  0.10375580  0.11264012  1
  Ta  Ta109  1  0.22154420  0.60367667  0.00105719  1
  Ta  Ta110  1  0.30083918  0.69700855  0.38966492  1
  Ta  Ta111  1  0.89465145  0.30058711  0.64001327  1
  Ta  Ta112  1  0.58885615  0.40533331  -0.00948859  1
  Ta  Ta113  1  0.20448831  0.79374768  0.51890157  1
  Ta  Ta114  1  0.31211990  0.49969403  0.13882851  1
  Ta  Ta115  1  0.20402006  0.79960126  0.74262258  1
  Ta  Ta116  1  0.60375143  0.80348194  0.74291132  1
  Ta  Ta117  1  0.20656081  0.60097513  0.73755287  1
  Ta  Ta118  1  0.20411059  0.19055221  0.23302613  1
  Ta  Ta119  1  0.11342996  0.69795390  0.87956578  1
  Ti  Ti120  1  0.78527165  0.00300992  0.25110601  1
  Ti  Ti121  1  0.68336781  0.89824041  0.87846299  1
  Ti  Ti122  1  0.90379600  0.69472641  0.36037460  1
  Ti  Ti123  1  0.70305776  0.51099031  0.63402158  1
  Ti  Ti124  1  0.31092498  0.49561570  0.37246873  1
  Ti  Ti125  1  0.69238809  0.90174518  0.36404749  1
  Ti  Ti126  1  0.79677732  0.20756783  0.00498680  1
  Ti  Ti127  1  0.59302385  0.02833451  0.26861614  1
  Ti  Ti128  1  0.68786449  0.51724358  0.86146008  1
  Ti  Ti129  1  0.70290776  0.30127358  0.63511082  1
  Ti  Ti130  1  0.50236316  0.50125874  0.85662791  1
  Ti  Ti131  1  0.89682243  0.11087020  0.87992576  1
  Ti  Ti132  1  0.41167904  0.59115256  0.49911624  1
  Ti  Ti133  1  -0.01455054  -0.00823888  0.50621614  1
  Ti  Ti134  1  0.10068567  0.29929594  0.86534308  1
  Ti  Ti135  1  0.78507470  0.60799517  0.00335884  1
  Ti  Ti136  1  0.29041997  0.88455245  0.13301319  1
  Ti  Ti137  1  0.19688715  0.00253497  0.25536843  1
  Ti  Ti138  1  0.30052051  0.28912158  0.62640484  1
  Ti  Ti139  1  0.20285827  0.40259924  0.24007277  1
  Ti  Ti140  1  0.39727573  -0.00400386  -0.02293005  1
  Ti  Ti141  1  0.49444303  0.09900747  0.87595914  1
  Ti  Ti142  1  0.71230006  0.70906113  0.36330604  1
  Ti  Ti143  1  0.91009179  0.70485612  0.10781939  1
  Ti  Ti144  1  0.89830880  0.89471568  0.87944367  1
  Ti  Ti145  1  0.01335380  0.81243414  -0.00715911  1
  Ti  Ti146  1  0.19487064  0.79235065  0.26312895  1
  Ti  Ti147  1  0.59816582  0.79990577  0.24558701  1
  Ti  Ti148  1  0.31381715  0.30678321  0.13963410  1
  Ti  Ti149  1  0.79554238  0.40927759  0.24070924  1
  Ti  Ti150  1  0.50429968  0.09608666  0.11215782  1
  Ti  Ti151  1  0.49774520  0.30196813  0.87191697  1
  Ti  Ti152  1  0.20319544  0.39622990  0.74112572  1
  Ti  Ti153  1  0.50927919  0.29272960  0.38104130  1
  Ti  Ti154  1  0.49826264  0.29697558  0.12830361  1
  Ti  Ti155  1  0.59501534  0.40957215  0.74020429  1
  Ti  Ti156  1  0.39855201  0.00368166  0.27047442  1
  Ti  Ti157  1  0.40308458  0.39951793  -0.00947361  1
  Ti  Ti158  1  0.39330651  0.78938046  0.51696054  1
  Ti  Ti159  1  0.60347603  0.38934383  0.26148929  1
  Mo  Mo160  1  0.69675365  0.49938489  0.14049119  1
  Mo  Mo161  1  0.50851474  0.49988600  0.62837401  1
  Mo  Mo162  1  0.20478649  0.20216351  0.51754983  1
  Mo  Mo163  1  0.79955918  0.20221735  0.75149867  1
  Mo  Mo164  1  0.60876456  0.59860410  0.73478629  1
  Mo  Mo165  1  0.10673347  0.29759411  0.13833345  1
  Mo  Mo166  1  0.69974450  0.70061361  0.86387761  1
  Mo  Mo167  1  0.69149759  0.30523013  0.36605451  1
  Mo  Mo168  1  0.80575864  0.60717158  0.24496904  1
  Mo  Mo169  1  0.69898010  0.70001079  0.13512120  1
  Mo  Mo170  1  0.59456659  0.20590074  0.51320161  1
  Mo  Mo171  1  0.30138084  0.09966080  0.86619077  1
  Mo  Mo172  1  0.40647425  0.59236004  0.75099206  1
  Mo  Mo173  1  0.40432595  0.39779520  0.26558851  1
  Mo  Mo174  1  0.39615191  0.00537718  0.76147679  1
  Mo  Mo175  1  0.20026459  -0.00015021  0.76295019  1
  Mo  Mo176  1  0.11541686  0.50536242  0.11439329  1
  Mo  Mo177  1  0.29722184  0.89541769  0.62803542  1
  Mo  Mo178  1  0.90368662  0.89257735  0.11156973  1
  Mo  Mo179  1  0.58388585  0.00535388  -0.01567291  1
  Mo  Mo180  1  0.30236370  0.69858977  0.13404380  1
  Mo  Mo181  1  0.68809152  0.09778243  0.38342314  1
  Mo  Mo182  1  0.10600517  0.09422048  0.11418868  1
  Mo  Mo183  1  0.40020566  0.00183723  0.48590746  1
  Mo  Mo184  1  0.78971047  0.79545139  0.48829544  1
  Mo  Mo185  1  0.20870705  0.79605128  -0.02639888  1
  Mo  Mo186  1  0.69226163  0.90429477  0.63249984  1
  Mo  Mo187  1  0.00850266  0.39864895  0.74552528  1
  Mo  Mo188  1  0.30792996  0.69628973  0.62911878  1
  Mo  Mo189  1  0.79351376  0.80195735  0.78159161  1
  Mo  Mo190  1  0.10169187  0.89697502  0.85998031  1
  Mo  Mo191  1  0.49608130  0.10646282  0.39422877  1
  Mo  Mo192  1  0.39952016  0.79638012  0.73643173  1
  Mo  Mo193  1  0.89988617  0.69750255  0.64388687  1
  Mo  Mo194  1  0.59068549  0.19994099  0.24059972  1
  Mo  Mo195  1  0.30440198  0.89530210  0.84427048  1
  Mo  Mo196  1  0.00460358  0.59821904  0.50477061  1
  Mo  Mo197  1  0.02155766  0.60026972  0.00936245  1
  Mo  Mo198  1  0.40579435  0.40360396  0.48208595  1
  Mo  Mo199  1  0.19539887  -0.00522048  0.49320709  1
