# generated using pymatgen
data_HfZrTaTiMo
_symmetry_space_group_name_H-M   'P 1'
_cell_length_a   15.84715093
_cell_length_b   15.83110316
_cell_length_c   15.38958869
_cell_angle_alpha   89.97155442
_cell_angle_beta   89.99618244
_cell_angle_gamma   89.99915965
_symmetry_Int_Tables_number   1
_chemical_formula_structural   HfZrTaTiMo
_chemical_formula_sum   'Hf40 Zr40 Ta40 Ti40 Mo40'
_cell_volume   3860.90691868
_cell_formula_units_Z   40
loop_
 _symmetry_equiv_pos_site_id
 _symmetry_equiv_pos_as_xyz
  1  'x, y, z'
loop_
 _atom_site_type_symbol
 _atom_site_label
 _atom_site_symmetry_multiplicity
 _atom_site_fract_x
 _atom_site_fract_y
 _atom_site_fract_z
 _atom_site_occupancy
  Hf  Hf0  1  0.49849614  0.29486019  0.13770142  1
  Hf  Hf1  1  0.08818541  0.10971562  0.61879789  1
  Hf  Hf2  1  0.29930845  0.30470107  0.13953794  1
  Hf  Hf3  1  0.80454627  -0.00069331  0.50291273  1
  Hf  Hf4  1  0.00306050  0.19695345  0.00739489  1
  Hf  Hf5  1  0.30658560  0.29927469  0.87293198  1
  Hf  Hf6  1  0.11106239  0.87857611  0.37350340  1
  Hf  Hf7  1  0.20101455  0.20125075  0.00075133  1
  Hf  Hf8  1  0.18859587  0.80008677  0.01824564  1
  Hf  Hf9  1  0.90225502  0.69959758  0.63598292  1
  Hf  Hf10  1  0.40270851  -0.00010195  0.00546670  1
  Hf  Hf11  1  0.12567731  0.51513783  0.13626286  1
  Hf  Hf12  1  0.01563026  0.60975764  0.00749786  1
  Hf  Hf13  1  0.59637144  0.59472177  0.74234960  1
  Hf  Hf14  1  0.48336087  0.90432411  0.37260106  1
  Hf  Hf15  1  0.49303807  0.69486186  0.88028355  1
  Hf  Hf16  1  0.59820656  0.78867829  0.74398069  1
  Hf  Hf17  1  0.59523921  0.80819555  0.51466806  1
  Hf  Hf18  1  0.50745447  0.10164131  0.14011709  1
  Hf  Hf19  1  0.79655481  0.40891325  0.25043395  1
  Hf  Hf20  1  0.02098600  0.39445975  0.47304044  1
  Hf  Hf21  1  0.40365498  0.39810245  0.00030251  1
  Hf  Hf22  1  -0.00458175  0.19669829  0.46432234  1
  Hf  Hf23  1  0.19993249  0.41173807  0.75603643  1
  Hf  Hf24  1  0.00660565  0.19356676  0.25499874  1
  Hf  Hf25  1  0.40158523  0.40404671  0.27413340  1
  Hf  Hf26  1  0.00488645  0.40185636  0.25089702  1
  Hf  Hf27  1  0.69851316  0.30027021  0.87719741  1
  Hf  Hf28  1  0.20574753  -0.01945186  0.23887127  1
  Hf  Hf29  1  0.60087503  0.40696102  0.26915293  1
  Hf  Hf30  1  0.10199165  0.71184636  0.85898416  1
  Hf  Hf31  1  0.80076856  0.19223204  0.00738341  1
  Hf  Hf32  1  0.00834221  0.40171530  0.01454917  1
  Hf  Hf33  1  0.50242226  0.09962666  0.85887149  1
  Hf  Hf34  1  0.40464655  0.40441303  0.74301278  1
  Hf  Hf35  1  0.59914588  0.19712488  -0.00582401  1
  Hf  Hf36  1  0.39991304  0.19988413  0.73742546  1
  Hf  Hf37  1  0.90666653  0.88974545  0.37125399  1
  Hf  Hf38  1  0.20919677  0.41800984  -0.00598012  1
  Hf  Hf39  1  0.69407301  0.29389328  0.14143925  1
  Zr  Zr40  1  0.89965110  0.29749461  0.87280045  1
  Zr  Zr41  1  0.69787852  0.09773307  0.14421919  1
  Zr  Zr42  1  0.30475962  0.08525866  0.38170039  1
  Zr  Zr43  1  0.89434772  0.90664952  0.86478397  1
  Zr  Zr44  1  0.59503835  0.00601534  0.50414200  1
  Zr  Zr45  1  0.19000183  0.20115182  0.48568237  1
  Zr  Zr46  1  0.79377096  0.39999754  0.73919340  1
  Zr  Zr47  1  0.29954556  0.70241594  0.87600131  1
  Zr  Zr48  1  0.91189411  0.28997888  0.62587298  1
  Zr  Zr49  1  0.79474870  0.79171932  0.51183512  1
  Zr  Zr50  1  0.28538358  0.73069584  0.39038787  1
  Zr  Zr51  1  0.90318363  0.71072895  0.86670076  1
  Zr  Zr52  1  0.20565290  0.00736656  0.75391296  1
  Zr  Zr53  1  0.49275502  0.49886882  0.59349998  1
  Zr  Zr54  1  0.88945094  0.70048430  0.36672492  1
  Zr  Zr55  1  0.90162600  0.49531654  0.88118270  1
  Zr  Zr56  1  0.77859897  0.81094298  0.74398931  1
  Zr  Zr57  1  0.29728613  0.89576945  0.87382660  1
  Zr  Zr58  1  0.49096321  0.69615029  0.12883214  1
  Zr  Zr59  1  0.60687591  -0.00464657  -0.00968511  1
  Zr  Zr60  1  0.19353675  0.19940894  0.75174833  1
  Zr  Zr61  1  0.30015825  0.30655755  0.60768392  1
  Zr  Zr62  1  0.80344325  -0.00620363  0.25163639  1
  Zr  Zr63  1  0.60604395  0.59870978  0.26208151  1
  Zr  Zr64  1  0.90677180  0.48945523  0.61151625  1
  Zr  Zr65  1  0.80129552  0.60766082  0.00295429  1
  Zr  Zr66  1  0.80343506  0.19541911  0.49460039  1
  Zr  Zr67  1  0.18404934  0.60077167  0.49315794  1
  Zr  Zr68  1  0.59918257  0.80140973  0.25051887  1
  Zr  Zr69  1  0.09928340  0.90604933  0.63092625  1
  Zr  Zr70  1  0.28521245  0.67649532  0.12315864  1
  Zr  Zr71  1  0.49231160  0.50099211  0.13061095  1
  Zr  Zr72  1  0.01049433  0.58098846  0.75029852  1
  Zr  Zr73  1  0.79514371  0.40297600  0.02092436  1
  Zr  Zr74  1  0.00164302  0.60148534  0.49225449  1
  Zr  Zr75  1  0.48589869  0.70690686  0.38155010  1
  Zr  Zr76  1  0.39692445  -0.00052243  0.23850264  1
  Zr  Zr77  1  0.61278669  -0.01641735  0.74167461  1
  Zr  Zr78  1  0.60111837  0.39706779  0.73525506  1
  Zr  Zr79  1  0.78462460  0.60230316  0.75187519  1
  Ta  Ta80  1  0.20792636  0.59363485  0.75042813  1
  Ta  Ta81  1  0.70137263  0.29672798  0.38063321  1
  Ta  Ta82  1  0.09919549  0.31077302  0.62564452  1
  Ta  Ta83  1  0.50294339  0.10167535  0.62979422  1
  Ta  Ta84  1  0.09520395  0.89753948  0.87264447  1
  Ta  Ta85  1  0.90057763  0.29434400  0.13815579  1
  Ta  Ta86  1  0.39781114  0.59629542  0.74176436  1
  Ta  Ta87  1  0.90644183  0.90868231  0.63427828  1
  Ta  Ta88  1  0.70385869  0.49916976  0.59888973  1
  Ta  Ta89  1  0.80364418  -0.00023389  0.00349006  1
  Ta  Ta90  1  0.40294664  0.19865369  0.00090468  1
  Ta  Ta91  1  0.89892840  0.10429561  0.86564153  1
  Ta  Ta92  1  0.69774916  0.70126976  0.11655809  1
  Ta  Ta93  1  0.60749907  0.61156399  0.49030979  1
  Ta  Ta94  1  0.79379895  0.80802342  0.00280417  1
  Ta  Ta95  1  0.38698653  0.59672346  0.27247929  1
  Ta  Ta96  1  0.30505807  0.10004701  0.88104169  1
  Ta  Ta97  1  0.00817968  -0.00340030  0.25222584  1
  Ta  Ta98  1  0.69811685  0.89478415  0.37696331  1
  Ta  Ta99  1  0.41031030  0.18897017  0.49830871  1
  Ta  Ta100  1  0.59786679  0.59740952  0.00124975  1
  Ta  Ta101  1  0.00002388  0.00164155  -0.00360089  1
  Ta  Ta102  1  0.71384058  0.09496689  0.85647380  1
  Ta  Ta103  1  0.09740053  0.30161803  0.87541763  1
  Ta  Ta104  1  0.00727130  0.01415360  0.76545272  1
  Ta  Ta105  1  0.69065102  0.49874011  0.88606335  1
  Ta  Ta106  1  0.29878949  0.69810371  0.61746591  1
  Ta  Ta107  1  0.49411035  0.89175343  0.86690412  1
  Ta  Ta108  1  -0.00476416  0.80615553  0.01382167  1
  Ta  Ta109  1  0.00519197  0.79705328  0.51086656  1
  Ta  Ta110  1  -0.00002582  0.60403363  0.25201037  1
  Ta  Ta111  1  0.29595263  0.50230209  0.60554683  1
  Ta  Ta112  1  0.10479163  0.70188088  0.64130177  1
  Ta  Ta113  1  0.89713859  0.50292162  0.37327093  1
  Ta  Ta114  1  0.40033134  0.80322391  0.01386301  1
  Ta  Ta115  1  0.29780108  0.89521594  0.61666593  1
  Ta  Ta116  1  0.70127479  0.10774687  0.62903150  1
  Ta  Ta117  1  0.59917579  0.80004260  -0.00452293  1
  Ta  Ta118  1  0.37181006  0.80903239  0.23365716  1
  Ta  Ta119  1  0.69362548  0.09586793  0.37168958  1
  Ti  Ti120  1  0.90366353  0.09596512  0.13239428  1
  Ti  Ti121  1  0.39939380  0.79789638  0.73560339  1
  Ti  Ti122  1  0.89972053  0.70550296  0.13246401  1
  Ti  Ti123  1  0.50412759  0.30023041  0.87215627  1
  Ti  Ti124  1  0.01023830  0.39707333  0.75524947  1
  Ti  Ti125  1  0.38384649  0.58450710  -0.00352721  1
  Ti  Ti126  1  0.60606294  0.20760541  0.73887338  1
  Ti  Ti127  1  0.29775355  0.09647957  0.61444071  1
  Ti  Ti128  1  0.90459785  0.09808297  0.63983005  1
  Ti  Ti129  1  0.90159758  0.90083339  0.12795447  1
  Ti  Ti130  1  0.90243139  0.50788966  0.13121927  1
  Ti  Ti131  1  0.19587612  -0.00574968  0.49381812  1
  Ti  Ti132  1  0.69602089  0.90040679  0.12680186  1
  Ti  Ti133  1  0.79226585  0.79547498  0.24203264  1
  Ti  Ti134  1  0.49943630  0.49696975  0.87748364  1
  Ti  Ti135  1  0.71201639  0.50932436  0.39180569  1
  Ti  Ti136  1  0.20687076  0.41028802  0.27149027  1
  Ti  Ti137  1  0.19750168  0.61168990  0.27621759  1
  Ti  Ti138  1  0.39968987  -0.00330828  0.74075456  1
  Ti  Ti139  1  0.50482938  0.89997418  0.12981599  1
  Ti  Ti140  1  0.59264452  0.19850048  0.27697089  1
  Ti  Ti141  1  0.80961909  0.19870767  0.26777979  1
  Ti  Ti142  1  0.79761148  0.20396530  0.73940803  1
  Ti  Ti143  1  0.59845341  0.40216917  0.00798217  1
  Ti  Ti144  1  0.40390070  -0.00636551  0.51371017  1
  Ti  Ti145  1  0.20181210  0.18970535  0.26028821  1
  Ti  Ti146  1  0.11128404  0.29972034  0.13659984  1
  Ti  Ti147  1  0.00100522  0.00371177  0.48279964  1
  Ti  Ti148  1  0.50007735  0.29654228  0.39216764  1
  Ti  Ti149  1  0.79139456  0.60074633  0.24153349  1
  Ti  Ti150  1  0.81007071  0.39075122  0.48786114  1
  Ti  Ti151  1  0.48883800  0.69559002  0.61287014  1
  Ti  Ti152  1  0.10381284  0.09370560  0.12584636  1
  Ti  Ti153  1  0.29978627  0.29944372  0.38514525  1
  Ti  Ti154  1  0.30028088  0.10545557  0.12240095  1
  Ti  Ti155  1  0.30422074  0.50090548  0.40017380  1
  Ti  Ti156  1  0.60598518  0.39821335  0.48846927  1
  Ti  Ti157  1  0.51007875  0.29495195  0.60373231  1
  Ti  Ti158  1  0.39881962  0.19818843  0.26897949  1
  Ti  Ti159  1  0.19516892  0.00133804  -0.00027791  1
  Mo  Mo160  1  0.31317489  0.50652980  0.86544057  1
  Mo  Mo161  1  0.70284768  0.90367881  0.60975977  1
  Mo  Mo162  1  0.49938351  0.10147841  0.37379420  1
  Mo  Mo163  1  0.60128423  -0.00476568  0.26333407  1
  Mo  Mo164  1  0.49864505  0.50379054  0.38813187  1
  Mo  Mo165  1  0.70174807  0.70221687  0.37358668  1
  Mo  Mo166  1  0.10276922  0.08398164  0.36645062  1
  Mo  Mo167  1  0.19955605  0.40083921  0.48574186  1
  Mo  Mo168  1  0.19461325  0.79913267  0.23120694  1
  Mo  Mo169  1  0.69251533  0.70046982  0.89537777  1
  Mo  Mo170  1  0.89671031  0.30359026  0.35740745  1
  Mo  Mo171  1  0.30314534  0.50032283  0.14484819  1
  Mo  Mo172  1  0.10575488  0.50291164  0.88460409  1
  Mo  Mo173  1  -0.00444703  0.80386062  0.22983606  1
  Mo  Mo174  1  0.19901331  0.60029351  -0.01777173  1
  Mo  Mo175  1  0.09079050  0.90741236  0.11529468  1
  Mo  Mo176  1  0.69672458  0.50437259  0.11639085  1
  Mo  Mo177  1  0.69822144  0.29991983  0.60105579  1
  Mo  Mo178  1  0.40242504  0.39311747  0.48934440  1
  Mo  Mo179  1  0.10946294  0.49144309  0.62386037  1
  Mo  Mo180  1  0.11456110  0.29683855  0.34998452  1
  Mo  Mo181  1  0.29778460  0.90223784  0.10399282  1
  Mo  Mo182  1  0.60144872  0.20035759  0.49904812  1
  Mo  Mo183  1  0.18958493  0.79980239  0.52003858  1
  Mo  Mo184  1  0.49187590  0.90028093  0.64003657  1
  Mo  Mo185  1  0.30081866  0.89952243  0.39513462  1
  Mo  Mo186  1  0.69271421  0.69032421  0.61528894  1
  Mo  Mo187  1  0.08767001  0.70860777  0.36012564  1
  Mo  Mo188  1  0.80003042  0.59549616  0.50110187  1
  Mo  Mo189  1  0.20690745  0.79823514  0.73679923  1
  Mo  Mo190  1  0.10203142  0.50512569  0.35615496  1
  Mo  Mo191  1  0.80361608  0.00821608  0.73566331  1
  Mo  Mo192  1  0.39609996  0.60457554  0.49202012  1
  Mo  Mo193  1  0.10080609  0.09844256  0.88970564  1
  Mo  Mo194  1  0.09309269  0.70341462  0.14254768  1
  Mo  Mo195  1  0.00323668  0.20230253  0.75929367  1
  Mo  Mo196  1  0.00153689  0.81001090  0.73894605  1
  Mo  Mo197  1  0.69977447  0.90026286  0.88651737  1
  Mo  Mo198  1  0.89881618  0.08991393  0.36265514  1
  Mo  Mo199  1  0.40014996  0.80615334  0.52032130  1
