# generated using pymatgen
data_HfZrTaTiMo
_symmetry_space_group_name_H-M   'P 1'
_cell_length_a   15.82692685
_cell_length_b   15.85055720
_cell_length_c   15.39039715
_cell_angle_alpha   90.02263256
_cell_angle_beta   90.00936031
_cell_angle_gamma   89.91604345
_symmetry_Int_Tables_number   1
_chemical_formula_structural   HfZrTaTiMo
_chemical_formula_sum   'Hf40 Zr40 Ta40 Ti40 Mo40'
_cell_volume   3860.91686260
_cell_formula_units_Z   40
loop_
 _symmetry_equiv_pos_site_id
 _symmetry_equiv_pos_as_xyz
  1  'x, y, z'
loop_
 _atom_site_type_symbol
 _atom_site_label
 _atom_site_symmetry_multiplicity
 _atom_site_fract_x
 _atom_site_fract_y
 _atom_site_fract_z
 _atom_site_occupancy
  Hf  Hf0  1  0.40770510  0.20319606  0.49983248  1
  Hf  Hf1  1  0.90477319  0.69852704  0.62396498  1
  Hf  Hf2  1  0.59397513  0.20247360  0.76067887  1
  Hf  Hf3  1  0.61730906  0.59226305  0.22955192  1
  Hf  Hf4  1  -0.00576632  0.00006719  0.00574576  1
  Hf  Hf5  1  0.79957643  0.19590216  0.49040286  1
  Hf  Hf6  1  0.80402432  0.00981223  0.47875014  1
  Hf  Hf7  1  0.09758694  0.09068101  0.85740993  1
  Hf  Hf8  1  0.09198850  0.90086846  0.87176076  1
  Hf  Hf9  1  0.20484047  0.19804558  -0.00155647  1
  Hf  Hf10  1  0.48516600  0.11211474  0.12477178  1
  Hf  Hf11  1  0.49405127  0.09258634  0.89491579  1
  Hf  Hf12  1  0.10140325  0.29774870  0.86812827  1
  Hf  Hf13  1  0.91046628  0.71710292  0.87399962  1
  Hf  Hf14  1  0.18841965  0.20187644  0.51684648  1
  Hf  Hf15  1  0.28895179  0.70394578  0.36569041  1
  Hf  Hf16  1  0.20308843  0.59495508  -0.01325157  1
  Hf  Hf17  1  0.38284345  0.00547463  0.24292390  1
  Hf  Hf18  1  0.30179314  0.90802078  0.88539034  1
  Hf  Hf19  1  0.09636527  0.50007788  0.86455845  1
  Hf  Hf20  1  0.79712601  0.81212655  0.74950508  1
  Hf  Hf21  1  0.90964041  0.31049184  0.38219211  1
  Hf  Hf22  1  0.11838868  0.31426500  0.12387119  1
  Hf  Hf23  1  0.30397147  0.09503042  0.62673428  1
  Hf  Hf24  1  0.09779273  0.69816944  0.11414480  1
  Hf  Hf25  1  0.60592835  0.00707992  0.48980441  1
  Hf  Hf26  1  -0.00879051  0.59394855  0.24307324  1
  Hf  Hf27  1  0.59191411  0.80715796  0.49852935  1
  Hf  Hf28  1  0.09576969  0.89804644  0.13546126  1
  Hf  Hf29  1  0.79262057  0.60332470  0.76028288  1
  Hf  Hf30  1  0.50111734  0.70481285  0.13028838  1
  Hf  Hf31  1  0.59900846  0.59461997  0.77802670  1
  Hf  Hf32  1  0.80413183  0.20293325  -0.00136307  1
  Hf  Hf33  1  0.21394455  0.40303261  0.75298247  1
  Hf  Hf34  1  0.29112487  0.09726307  0.38402822  1
  Hf  Hf35  1  0.40021457  0.58967104  0.00295055  1
  Hf  Hf36  1  0.79675671  0.81500767  0.00233338  1
  Hf  Hf37  1  0.00609497  0.19824366  0.00790061  1
  Hf  Hf38  1  0.29478215  0.48875922  0.37835201  1
  Hf  Hf39  1  0.69318428  0.69887283  0.62076604  1
  Zr  Zr40  1  0.59773920  0.80280933  0.75807405  1
  Zr  Zr41  1  0.90575576  0.89181168  0.36563532  1
  Zr  Zr42  1  0.20503116  0.80482216  0.75079486  1
  Zr  Zr43  1  -0.00048760  0.19009345  0.51023864  1
  Zr  Zr44  1  0.09206337  0.70147781  0.38050093  1
  Zr  Zr45  1  0.40634545  -0.00755964  0.74457074  1
  Zr  Zr46  1  0.31611156  0.50882683  0.63267151  1
  Zr  Zr47  1  0.52057094  0.49018802  0.37664576  1
  Zr  Zr48  1  0.00127233  -0.01019166  0.51079263  1
  Zr  Zr49  1  0.69355442  0.30470054  0.62492394  1
  Zr  Zr50  1  0.70259045  0.10023199  0.63379970  1
  Zr  Zr51  1  0.39785763  0.38828537  0.23978278  1
  Zr  Zr52  1  0.40623313  0.59845845  0.48531891  1
  Zr  Zr53  1  0.41077765  -0.00638585  0.49127722  1
  Zr  Zr54  1  0.79440949  0.60700355  -0.01915566  1
  Zr  Zr55  1  0.21437345  0.19941963  0.24569696  1
  Zr  Zr56  1  0.68281992  0.30898342  0.38300769  1
  Zr  Zr57  1  0.59772517  0.21283079  0.00628186  1
  Zr  Zr58  1  0.78809121  0.78920005  0.23473869  1
  Zr  Zr59  1  0.40463351  0.79443377  0.75667637  1
  Zr  Zr60  1  0.20103272  0.39886166  0.52048294  1
  Zr  Zr61  1  0.79773814  0.41128789  0.25260298  1
  Zr  Zr62  1  0.00181086  0.40885966  0.23931777  1
  Zr  Zr63  1  -0.00901366  0.78854080  0.23936697  1
  Zr  Zr64  1  0.49808294  0.67889348  0.62662245  1
  Zr  Zr65  1  0.29906423  0.09655109  0.87319689  1
  Zr  Zr66  1  0.00329948  0.39670756  0.52333606  1
  Zr  Zr67  1  0.90197519  0.10231445  0.13719710  1
  Zr  Zr68  1  0.39949570  0.58402290  0.23972059  1
  Zr  Zr69  1  0.29043436  0.69954492  0.13257649  1
  Zr  Zr70  1  0.79738730  0.20510510  0.26268250  1
  Zr  Zr71  1  0.70585893  0.09479733  0.88070654  1
  Zr  Zr72  1  0.50318180  0.70788825  0.35498052  1
  Zr  Zr73  1  0.80123934  0.81239667  0.50592298  1
  Zr  Zr74  1  0.60079801  0.60008402  -0.00403321  1
  Zr  Zr75  1  0.51117718  0.11172531  0.35350695  1
  Zr  Zr76  1  0.69803256  0.69405023  0.37957829  1
  Zr  Zr77  1  0.70570656  0.09419778  0.13167387  1
  Zr  Zr78  1  0.90268232  0.29731653  0.86725323  1
  Zr  Zr79  1  0.29940223  0.70006195  0.61906826  1
  Ta  Ta80  1  0.29923463  0.89703096  0.60898034  1
  Ta  Ta81  1  0.00561514  0.20692310  0.25075444  1
  Ta  Ta82  1  0.09916718  0.69594700  0.63221366  1
  Ta  Ta83  1  0.00146121  0.40132628  -0.00177813  1
  Ta  Ta84  1  0.89957434  0.50688272  0.38881003  1
  Ta  Ta85  1  0.28786433  0.89666806  0.37465527  1
  Ta  Ta86  1  0.80751429  0.59701810  0.23987006  1
  Ta  Ta87  1  0.59706474  0.39863732  -0.00120537  1
  Ta  Ta88  1  0.58727957  0.40540753  0.76056713  1
  Ta  Ta89  1  0.79062981  0.40687898  0.74978021  1
  Ta  Ta90  1  0.89594749  0.31037543  0.11904226  1
  Ta  Ta91  1  0.09828722  0.51339572  0.64619318  1
  Ta  Ta92  1  0.60663714  0.80164223  0.01228356  1
  Ta  Ta93  1  0.88603434  0.91359962  0.13165268  1
  Ta  Ta94  1  0.19647107  0.00170691  0.01437044  1
  Ta  Ta95  1  -0.00020144  0.60016245  -0.01200606  1
  Ta  Ta96  1  0.09672892  0.70487973  0.86900004  1
  Ta  Ta97  1  -0.00088120  0.81113474  0.73169251  1
  Ta  Ta98  1  0.60187276  0.39546351  0.21881251  1
  Ta  Ta99  1  0.39635851  0.80321996  0.00953667  1
  Ta  Ta100  1  0.10688749  0.90004910  0.36419201  1
  Ta  Ta101  1  0.20187707  0.20059206  0.74132942  1
  Ta  Ta102  1  0.90238601  0.49616918  0.86833228  1
  Ta  Ta103  1  0.18954153  0.58273412  0.24807610  1
  Ta  Ta104  1  0.50170519  0.90297637  0.90062165  1
  Ta  Ta105  1  0.41599884  0.39192146  0.51169869  1
  Ta  Ta106  1  0.68589678  0.50458623  0.62013048  1
  Ta  Ta107  1  0.80178350  0.59434195  0.51072692  1
  Ta  Ta108  1  0.19183274  0.59743590  0.50106996  1
  Ta  Ta109  1  0.89745137  0.69176238  0.38970366  1
  Ta  Ta110  1  0.00139867  0.19626475  0.72984167  1
  Ta  Ta111  1  0.69188852  0.90135915  0.35468040  1
  Ta  Ta112  1  0.19539462  0.80276206  -0.00611174  1
  Ta  Ta113  1  0.59741449  -0.00468534  0.75447007  1
  Ta  Ta114  1  0.71344839  0.49035010  0.10274445  1
  Ta  Ta115  1  0.10912313  0.30455822  0.36899267  1
  Ta  Ta116  1  0.09562027  0.49469537  0.37978328  1
  Ta  Ta117  1  0.28503613  0.47502887  0.11313800  1
  Ta  Ta118  1  0.31248622  0.29805883  0.63482824  1
  Ta  Ta119  1  0.19011501  -0.00201880  0.50841280  1
  Ti  Ti120  1  0.40016896  0.80075172  0.49034296  1
  Ti  Ti121  1  0.10235306  0.49933387  0.10838887  1
  Ti  Ti122  1  0.89876302  0.50490570  0.63883954  1
  Ti  Ti123  1  -0.00332304  0.39703700  0.73961638  1
  Ti  Ti124  1  0.60808477  -0.00692949  0.01492616  1
  Ti  Ti125  1  0.50500317  0.10013456  0.62850606  1
  Ti  Ti126  1  0.30087698  0.30001205  0.38204744  1
  Ti  Ti127  1  0.70343653  0.50106122  0.39118104  1
  Ti  Ti128  1  0.50185732  0.30022735  0.36102879  1
  Ti  Ti129  1  0.39172961  0.80850234  0.24246567  1
  Ti  Ti130  1  0.90272779  0.09448088  0.86139585  1
  Ti  Ti131  1  0.31080210  0.30240946  0.87318347  1
  Ti  Ti132  1  0.30417190  0.70267939  0.88185235  1
  Ti  Ti133  1  0.69734685  0.90706260  0.87986697  1
  Ti  Ti134  1  0.80070349  0.40567670  0.51347180  1
  Ti  Ti135  1  -0.00293579  0.00679797  0.25763829  1
  Ti  Ti136  1  0.79996633  0.20198302  0.75346060  1
  Ti  Ti137  1  0.70285901  0.91464015  0.62826313  1
  Ti  Ti138  1  0.70119952  0.30877807  0.87456579  1
  Ti  Ti139  1  0.18544515  0.80339705  0.50582152  1
  Ti  Ti140  1  0.31785531  0.28253790  0.11348690  1
  Ti  Ti141  1  0.28785807  0.90015340  0.12786324  1
  Ti  Ti142  1  0.00213775  0.59499782  0.50713973  1
  Ti  Ti143  1  0.09890911  0.09850459  0.36756287  1
  Ti  Ti144  1  0.40522663  0.20475395  0.75492771  1
  Ti  Ti145  1  0.89973731  0.50176984  0.10046493  1
  Ti  Ti146  1  0.40689727  0.38999434  -0.00266852  1
  Ti  Ti147  1  0.49877062  0.89919328  0.35601215  1
  Ti  Ti148  1  0.59315027  0.20696428  0.50631025  1
  Ti  Ti149  1  0.40702511  0.57839815  0.78098219  1
  Ti  Ti150  1  0.89150707  0.29781221  0.63099610  1
  Ti  Ti151  1  0.10810437  0.09658753  0.14009679  1
  Ti  Ti152  1  0.50007093  0.89923535  0.62223075  1
  Ti  Ti153  1  0.49705674  0.70859117  0.89103010  1
  Ti  Ti154  1  0.21124651  0.60438385  0.76236595  1
  Ti  Ti155  1  0.89920039  0.69978494  0.10343851  1
  Ti  Ti156  1  0.90023295  0.91423077  0.86875108  1
  Ti  Ti157  1  0.49615898  0.90500875  0.12309169  1
  Ti  Ti158  1  0.89207662  0.08479462  0.64306688  1
  Ti  Ti159  1  0.60174192  -0.00172790  0.24067266  1
  Mo  Mo160  1  0.49777532  0.29827621  0.12717844  1
  Mo  Mo161  1  0.39792402  0.20436245  -0.01435161  1
  Mo  Mo162  1  0.39467443  -0.00584386  0.02076147  1
  Mo  Mo163  1  0.80395334  0.00128401  -0.01186793  1
  Mo  Mo164  1  0.10233011  0.30393884  0.64710235  1
  Mo  Mo165  1  0.69534969  0.71979129  0.87615818  1
  Mo  Mo166  1  0.49755678  0.29610713  0.64010165  1
  Mo  Mo167  1  0.69728081  0.10006448  0.35910999  1
  Mo  Mo168  1  0.20178597  0.40180036  0.25508550  1
  Mo  Mo169  1  0.10283169  0.89603459  0.62860638  1
  Mo  Mo170  1  0.79973020  -0.00001987  0.26814224  1
  Mo  Mo171  1  0.00638761  0.79574730  0.51502827  1
  Mo  Mo172  1  -0.00062915  0.60523774  0.75860972  1
  Mo  Mo173  1  0.60502631  0.59864514  0.49386671  1
  Mo  Mo174  1  0.20048033  0.79761711  0.25253094  1
  Mo  Mo175  1  0.59601869  0.39856306  0.51237580  1
  Mo  Mo176  1  0.39780867  0.20237623  0.26368106  1
  Mo  Mo177  1  0.19498384  -0.00126253  0.24717906  1
  Mo  Mo178  1  0.79752176  -0.00098008  0.76212702  1
  Mo  Mo179  1  0.70668880  0.30436430  0.11816696  1
  Mo  Mo180  1  -0.00511450  -0.00369987  0.73782227  1
  Mo  Mo181  1  0.19903879  -0.00311940  0.72877133  1
  Mo  Mo182  1  0.91168052  0.10494786  0.36210910  1
  Mo  Mo183  1  0.30321290  0.49334511  0.88137757  1
  Mo  Mo184  1  -0.00209491  0.80323966  0.00696964  1
  Mo  Mo185  1  0.40864417  0.39541949  0.75149509  1
  Mo  Mo186  1  0.59510560  0.80844097  0.23132005  1
  Mo  Mo187  1  0.80307695  0.39899202  -0.01442462  1
  Mo  Mo188  1  0.29689244  0.09752781  0.11420479  1
  Mo  Mo189  1  0.49745288  0.49021029  0.89315087  1
  Mo  Mo190  1  0.59976319  0.21295479  0.23189669  1
  Mo  Mo191  1  0.89465541  0.90507643  0.62804665  1
  Mo  Mo192  1  0.49989962  0.49271654  0.11057827  1
  Mo  Mo193  1  0.20703242  0.39715178  -0.01861953  1
  Mo  Mo194  1  0.10165163  0.09449524  0.63904992  1
  Mo  Mo195  1  0.69580532  0.90438960  0.13242267  1
  Mo  Mo196  1  0.50796987  0.49313796  0.62386470  1
  Mo  Mo197  1  0.70483495  0.69526779  0.11872843  1
  Mo  Mo198  1  0.49593800  0.29872029  0.86768503  1
  Mo  Mo199  1  0.70279184  0.48728510  0.88097617  1
