# generated using pymatgen
data_HfZrTaTiMo
_symmetry_space_group_name_H-M   'P 1'
_cell_length_a   15.83897688
_cell_length_b   15.84933704
_cell_length_c   15.37209131
_cell_angle_alpha   90.01954612
_cell_angle_beta   89.87758032
_cell_angle_gamma   89.76431771
_symmetry_Int_Tables_number   1
_chemical_formula_structural   HfZrTaTiMo
_chemical_formula_sum   'Hf40 Zr40 Ta40 Ti40 Mo40'
_cell_volume   3858.92634388
_cell_formula_units_Z   40
loop_
 _symmetry_equiv_pos_site_id
 _symmetry_equiv_pos_as_xyz
  1  'x, y, z'
loop_
 _atom_site_type_symbol
 _atom_site_label
 _atom_site_symmetry_multiplicity
 _atom_site_fract_x
 _atom_site_fract_y
 _atom_site_fract_z
 _atom_site_occupancy
  Hf  Hf0  1  0.89173966  0.90520273  0.10792741  1
  Hf  Hf1  1  0.18832314  0.60508553  -0.01255710  1
  Hf  Hf2  1  0.20417297  0.20085675  0.75420033  1
  Hf  Hf3  1  0.80452581  -0.00036618  0.76780208  1
  Hf  Hf4  1  0.19913373  0.21120219  0.49901941  1
  Hf  Hf5  1  0.49247882  0.29697246  0.88839913  1
  Hf  Hf6  1  0.18929777  0.58604345  0.49541898  1
  Hf  Hf7  1  0.49573578  0.49435806  0.36109032  1
  Hf  Hf8  1  0.29663131  0.90641562  0.63632500  1
  Hf  Hf9  1  0.49861107  0.71233776  0.37836157  1
  Hf  Hf10  1  0.39476953  0.00555654  0.23989940  1
  Hf  Hf11  1  0.49803022  0.69242063  0.62853904  1
  Hf  Hf12  1  0.29675759  0.50170510  0.85414215  1
  Hf  Hf13  1  0.91176263  0.29946946  0.89465596  1
  Hf  Hf14  1  0.07953957  0.71751060  0.40055503  1
  Hf  Hf15  1  0.10981735  0.90322159  0.37593037  1
  Hf  Hf16  1  0.50093105  0.10370547  0.11903418  1
  Hf  Hf17  1  0.59186206  0.39469247  0.49460862  1
  Hf  Hf18  1  0.19766780  0.39822866  -0.00937279  1
  Hf  Hf19  1  -0.00111818  0.01586290  0.23602042  1
  Hf  Hf20  1  0.60421064  -0.00257380  -0.01346015  1
  Hf  Hf21  1  0.60175028  0.00369714  0.50517104  1
  Hf  Hf22  1  -0.01883601  0.59716369  0.75925980  1
  Hf  Hf23  1  0.49264882  0.91089822  0.38038576  1
  Hf  Hf24  1  0.80458943  0.40250418  0.75378088  1
  Hf  Hf25  1  0.60924133  0.20078407  0.76561889  1
  Hf  Hf26  1  0.12811288  0.10315392  0.10885908  1
  Hf  Hf27  1  0.71458334  0.88301534  0.88357002  1
  Hf  Hf28  1  0.39322695  0.59490640  0.49314314  1
  Hf  Hf29  1  0.29178791  0.49588836  0.63665900  1
  Hf  Hf30  1  0.28386968  0.72637031  0.39842495  1
  Hf  Hf31  1  0.69766200  0.50470339  0.61841049  1
  Hf  Hf32  1  0.80492595  -0.00364007  0.49965018  1
  Hf  Hf33  1  0.60713179  0.19958329  0.50411864  1
  Hf  Hf34  1  0.61066053  0.79692453  0.51011617  1
  Hf  Hf35  1  0.38674718  0.61167741  0.25734298  1
  Hf  Hf36  1  0.88981086  0.49371443  0.89231362  1
  Hf  Hf37  1  0.29324663  0.70419247  0.62710961  1
  Hf  Hf38  1  0.29689317  0.91375413  0.10066792  1
  Hf  Hf39  1  0.50562078  0.90994693  0.64211560  1
  Zr  Zr40  1  0.60169495  0.39329546  0.75355665  1
  Zr  Zr41  1  0.49636084  0.29600090  0.12232731  1
  Zr  Zr42  1  0.39133012  0.60492353  0.00246129  1
  Zr  Zr43  1  0.70361018  0.09562927  0.63647967  1
  Zr  Zr44  1  0.01117963  0.79206275  0.74835409  1
  Zr  Zr45  1  0.80791132  0.20284206  0.76666046  1
  Zr  Zr46  1  0.29692278  0.28571876  0.11973178  1
  Zr  Zr47  1  -0.00612131  0.60667497  0.25297490  1
  Zr  Zr48  1  0.69666543  0.90279054  0.35976503  1
  Zr  Zr49  1  0.90868052  0.69469085  0.60513605  1
  Zr  Zr50  1  0.01041686  0.79407649  -0.00569157  1
  Zr  Zr51  1  0.10261851  0.49872983  0.13804723  1
  Zr  Zr52  1  0.31046463  0.09348261  0.39553092  1
  Zr  Zr53  1  0.09297302  0.10720457  0.37152959  1
  Zr  Zr54  1  0.38315058  0.81290644  0.24876049  1
  Zr  Zr55  1  0.51716613  0.10467133  0.35630262  1
  Zr  Zr56  1  0.09242132  0.30460440  0.62951550  1
  Zr  Zr57  1  0.91903324  0.28180449  0.34631742  1
  Zr  Zr58  1  0.00089743  0.80100996  0.23845551  1
  Zr  Zr59  1  0.90398594  0.48486023  0.61907006  1
  Zr  Zr60  1  0.29827990  0.70552584  0.85756485  1
  Zr  Zr61  1  0.19529760  0.61711767  0.26861135  1
  Zr  Zr62  1  0.38692853  0.39439987  0.48896926  1
  Zr  Zr63  1  0.11795733  0.89628034  0.12827406  1
  Zr  Zr64  1  0.61241253  0.79022324  0.75905158  1
  Zr  Zr65  1  0.90657807  0.89671604  0.37057231  1
  Zr  Zr66  1  0.70284831  0.28447456  0.35397191  1
  Zr  Zr67  1  0.41523859  0.20640946  0.50936004  1
  Zr  Zr68  1  0.79210895  0.59821443  0.48665115  1
  Zr  Zr69  1  0.70920286  0.09350662  0.12568914  1
  Zr  Zr70  1  0.61040937  0.41049079  0.00959710  1
  Zr  Zr71  1  0.71093569  0.29943370  0.61985114  1
  Zr  Zr72  1  0.48961436  0.49912391  0.13143567  1
  Zr  Zr73  1  0.29482654  0.49626691  0.13780334  1
  Zr  Zr74  1  0.17271389  0.61740949  0.74419119  1
  Zr  Zr75  1  0.60148660  0.60754512  0.24341065  1
  Zr  Zr76  1  0.80856269  0.38806389  0.48286868  1
  Zr  Zr77  1  0.49215117  0.50308721  0.87047563  1
  Zr  Zr78  1  0.91687730  0.09219192  0.63548869  1
  Zr  Zr79  1  0.60564829  0.59950258  0.75552882  1
  Ta  Ta80  1  0.59752965  0.59696314  0.49084188  1
  Ta  Ta81  1  0.29623302  0.90903471  0.40661585  1
  Ta  Ta82  1  0.79782119  0.79252526  0.23889052  1
  Ta  Ta83  1  0.59326769  0.79665848  -0.00178699  1
  Ta  Ta84  1  0.50209003  0.10198481  0.64814859  1
  Ta  Ta85  1  0.90651662  0.89646602  0.87979427  1
  Ta  Ta86  1  0.40133680  0.80775368  -0.01337829  1
  Ta  Ta87  1  0.89096875  0.70308279  0.38039587  1
  Ta  Ta88  1  0.30274055  0.10738990  0.88428668  1
  Ta  Ta89  1  0.30411051  0.10232315  0.62706705  1
  Ta  Ta90  1  0.01229354  -0.00398618  -0.00414830  1
  Ta  Ta91  1  0.60337982  0.39566924  0.24039478  1
  Ta  Ta92  1  0.89803323  0.49398254  0.35444252  1
  Ta  Ta93  1  0.18859449  0.00976823  0.52178704  1
  Ta  Ta94  1  0.88038580  0.70197282  0.89159859  1
  Ta  Ta95  1  0.70097761  0.49642112  0.35798488  1
  Ta  Ta96  1  0.69603650  0.70444546  0.12022677  1
  Ta  Ta97  1  0.90921204  0.10017931  0.89393397  1
  Ta  Ta98  1  0.49299734  0.49467470  0.62702112  1
  Ta  Ta99  1  0.81377766  0.18719155  0.49015247  1
  Ta  Ta100  1  0.08991310  0.49154776  0.63034297  1
  Ta  Ta101  1  0.10248372  0.29636774  0.13774605  1
  Ta  Ta102  1  0.78760078  0.59013369  0.01510852  1
  Ta  Ta103  1  -0.00378875  0.59550654  0.00015638  1
  Ta  Ta104  1  0.70727869  0.89949578  0.64213642  1
  Ta  Ta105  1  0.29805230  0.90795814  0.86406072  1
  Ta  Ta106  1  0.59280118  0.80647505  0.23592238  1
  Ta  Ta107  1  0.79948348  0.80436264  0.51037492  1
  Ta  Ta108  1  0.28572799  0.71894500  0.11631743  1
  Ta  Ta109  1  0.89560626  0.49836470  0.13003703  1
  Ta  Ta110  1  0.59725712  0.60591239  0.00436585  1
  Ta  Ta111  1  0.00093944  0.39670863  0.02031169  1
  Ta  Ta112  1  0.08420586  0.48832914  0.86798970  1
  Ta  Ta113  1  0.70672027  0.29146342  0.12586244  1
  Ta  Ta114  1  0.50056420  0.09870845  0.86962330  1
  Ta  Ta115  1  0.48888007  0.71083486  0.11934207  1
  Ta  Ta116  1  0.69801704  0.89928754  0.12097667  1
  Ta  Ta117  1  0.10260176  0.10282108  0.88498508  1
  Ta  Ta118  1  0.80274495  0.39480832  0.23606633  1
  Ta  Ta119  1  0.89395898  0.69487286  0.11624220  1
  Ti  Ti120  1  0.40351629  0.00506304  -0.01045709  1
  Ti  Ti121  1  0.07852685  0.92445067  0.64522941  1
  Ti  Ti122  1  0.19703064  0.80593478  -0.02876587  1
  Ti  Ti123  1  0.79079087  0.60967740  0.75253429  1
  Ti  Ti124  1  0.71486398  0.30723460  0.89935733  1
  Ti  Ti125  1  0.00125800  0.19576535  0.50202488  1
  Ti  Ti126  1  0.00746053  0.19472654  0.75580011  1
  Ti  Ti127  1  0.09222130  0.48365543  0.35868799  1
  Ti  Ti128  1  0.70300181  0.50402374  0.88082958  1
  Ti  Ti129  1  0.39979296  0.20639705  0.75145522  1
  Ti  Ti130  1  0.80924132  0.78932283  0.73798256  1
  Ti  Ti131  1  0.80969443  0.19625408  0.01004390  1
  Ti  Ti132  1  0.60849229  0.19618645  -0.00729726  1
  Ti  Ti133  1  0.38984997  0.19965375  0.25255516  1
  Ti  Ti134  1  0.09608622  0.29417672  0.88337747  1
  Ti  Ti135  1  -0.00077756  0.00241496  0.49937370  1
  Ti  Ti136  1  0.50004330  0.90318656  0.11745716  1
  Ti  Ti137  1  0.38808955  0.40006849  -0.00599865  1
  Ti  Ti138  1  0.00835006  0.38850716  0.48203821  1
  Ti  Ti139  1  0.19561362  0.39776140  0.48127844  1
  Ti  Ti140  1  0.70955351  0.09969809  0.35261837  1
  Ti  Ti141  1  0.19046202  0.39192780  0.75907026  1
  Ti  Ti142  1  0.40103194  0.38953402  0.74620456  1
  Ti  Ti143  1  0.40504369  0.81210160  0.51474056  1
  Ti  Ti144  1  0.39651695  0.01011628  0.75634073  1
  Ti  Ti145  1  0.40145249  0.80062317  0.75264194  1
  Ti  Ti146  1  0.50049609  0.29631419  0.35245061  1
  Ti  Ti147  1  -0.00215890  0.57817738  0.48690705  1
  Ti  Ti148  1  0.10548709  0.70170776  0.12306777  1
  Ti  Ti149  1  0.17057923  0.81323007  0.53799607  1
  Ti  Ti150  1  0.21010968  0.38823449  0.26759125  1
  Ti  Ti151  1  0.19107730  0.00919428  0.75198345  1
  Ti  Ti152  1  0.49996206  0.90267827  0.86364840  1
  Ti  Ti153  1  0.81021427  0.00198600  0.24814554  1
  Ti  Ti154  1  0.21363930  0.00078210  0.25590047  1
  Ti  Ti155  1  0.20527006  0.19366744  0.26021268  1
  Ti  Ti156  1  0.90729946  0.29470181  0.62621895  1
  Ti  Ti157  1  0.30008027  0.30358039  0.62962782  1
  Ti  Ti158  1  0.49579934  0.69826302  0.87273259  1
  Ti  Ti159  1  0.70102715  0.70373997  0.36561114  1
  Mo  Mo160  1  0.60139043  -0.00105228  0.76975966  1
  Mo  Mo161  1  0.00220448  0.00415525  0.77502460  1
  Mo  Mo162  1  0.39967106  0.59839932  0.73637243  1
  Mo  Mo163  1  0.20435684  0.20800444  -0.01851250  1
  Mo  Mo164  1  0.40143999  0.00281016  0.52433602  1
  Mo  Mo165  1  0.60054701  -0.00672333  0.23486928  1
  Mo  Mo166  1  0.60480712  0.19910438  0.23798585  1
  Mo  Mo167  1  0.70135897  0.69043130  0.89731747  1
  Mo  Mo168  1  0.70111452  0.50158159  0.14127974  1
  Mo  Mo169  1  0.00650745  0.19434949  0.22401841  1
  Mo  Mo170  1  0.39507036  0.39059173  0.26264651  1
  Mo  Mo171  1  0.20502689  -0.00148652  -0.02363911  1
  Mo  Mo172  1  0.00286162  0.39866625  0.23782911  1
  Mo  Mo173  1  0.29203881  0.49708221  0.36728705  1
  Mo  Mo174  1  0.49711831  0.29939396  0.63940399  1
  Mo  Mo175  1  0.91073307  0.09868239  0.10118341  1
  Mo  Mo176  1  0.09061526  0.68709773  0.60479638  1
  Mo  Mo177  1  0.70652408  0.10294559  0.89258063  1
  Mo  Mo178  1  0.10191212  0.10379341  0.62899519  1
  Mo  Mo179  1  0.80139289  0.39621807  0.02130441  1
  Mo  Mo180  1  0.00917252  0.20122230  0.01242889  1
  Mo  Mo181  1  0.79812127  0.79535660  0.01463035  1
  Mo  Mo182  1  -0.00907175  0.82291651  0.52049016  1
  Mo  Mo183  1  0.10399929  0.29862820  0.35883425  1
  Mo  Mo184  1  0.30838614  0.10251227  0.10444947  1
  Mo  Mo185  1  0.10429680  0.90275245  0.86138303  1
  Mo  Mo186  1  0.19331797  0.81248991  0.74548594  1
  Mo  Mo187  1  0.40291087  0.19618474  -0.01032051  1
  Mo  Mo188  1  0.20452993  0.81047022  0.25520061  1
  Mo  Mo189  1  0.80559957  -0.00097006  -0.01334194  1
  Mo  Mo190  1  0.89897505  0.09678780  0.37624418  1
  Mo  Mo191  1  0.30046372  0.30183658  0.87029898  1
  Mo  Mo192  1  -0.00047511  0.39132987  0.75798251  1
  Mo  Mo193  1  0.89725637  0.90082661  0.63705849  1
  Mo  Mo194  1  0.81314717  0.18592600  0.23417775  1
  Mo  Mo195  1  0.30352176  0.29305453  0.36785834  1
  Mo  Mo196  1  0.79777796  0.60286521  0.24790452  1
  Mo  Mo197  1  0.08890980  0.69448254  0.88223193  1
  Mo  Mo198  1  0.90387032  0.29368031  0.12427174  1
  Mo  Mo199  1  0.70316373  0.70036957  0.61652986  1
