# generated using pymatgen
data_HfZrTaTiMo
_symmetry_space_group_name_H-M   'P 1'
_cell_length_a   15.83885363
_cell_length_b   15.84775810
_cell_length_c   15.38805343
_cell_angle_alpha   89.99563740
_cell_angle_beta   90.02412524
_cell_angle_gamma   90.01722608
_symmetry_Int_Tables_number   1
_chemical_formula_structural   HfZrTaTiMo
_chemical_formula_sum   'Hf40 Zr40 Ta40 Ti40 Mo40'
_cell_volume   3862.55970273
_cell_formula_units_Z   40
loop_
 _symmetry_equiv_pos_site_id
 _symmetry_equiv_pos_as_xyz
  1  'x, y, z'
loop_
 _atom_site_type_symbol
 _atom_site_label
 _atom_site_symmetry_multiplicity
 _atom_site_fract_x
 _atom_site_fract_y
 _atom_site_fract_z
 _atom_site_occupancy
  Hf  Hf0  1  0.10197242  0.31138478  0.39012149  1
  Hf  Hf1  1  0.30586386  0.69893709  0.63563611  1
  Hf  Hf2  1  0.90123558  0.70097845  0.35158983  1
  Hf  Hf3  1  0.50066604  0.90833057  0.10909902  1
  Hf  Hf4  1  0.19661573  0.59850999  0.75143796  1
  Hf  Hf5  1  0.30930399  0.48015505  0.13689767  1
  Hf  Hf6  1  0.41542876  0.40761825  0.76325436  1
  Hf  Hf7  1  0.59401185  0.20686920  -0.01098557  1
  Hf  Hf8  1  0.69880756  0.10124337  0.37963533  1
  Hf  Hf9  1  0.89545178  0.10476528  0.38178561  1
  Hf  Hf10  1  0.20010035  0.59100552  0.23544236  1
  Hf  Hf11  1  0.60166653  0.60459270  0.49506899  1
  Hf  Hf12  1  0.19180861  0.19867498  -0.01857254  1
  Hf  Hf13  1  0.19691461  0.79210793  0.48848323  1
  Hf  Hf14  1  0.30572991  0.90293265  0.87977198  1
  Hf  Hf15  1  0.79642783  0.40409608  -0.00759293  1
  Hf  Hf16  1  0.80500781  0.60109030  0.76809598  1
  Hf  Hf17  1  0.80546649  0.41251851  0.75489005  1
  Hf  Hf18  1  0.91003374  0.31169896  0.62270722  1
  Hf  Hf19  1  0.70374331  0.90206248  0.12266317  1
  Hf  Hf20  1  0.89931698  0.30488216  0.38380211  1
  Hf  Hf21  1  0.91159459  0.90543818  0.63445200  1
  Hf  Hf22  1  0.79560897  0.40620208  0.50003558  1
  Hf  Hf23  1  0.59688512  0.01090172  0.23753090  1
  Hf  Hf24  1  0.39312950  0.20364992  -0.01669875  1
  Hf  Hf25  1  0.90406200  0.90035453  0.13553378  1
  Hf  Hf26  1  0.68278977  0.31176995  0.12277442  1
  Hf  Hf27  1  0.51274578  0.70172068  0.35117026  1
  Hf  Hf28  1  0.49680112  0.09306765  0.86241853  1
  Hf  Hf29  1  0.70204368  0.69863634  0.63028715  1
  Hf  Hf30  1  0.00736731  0.60543900  0.49867327  1
  Hf  Hf31  1  0.91464393  0.91137688  0.88009914  1
  Hf  Hf32  1  0.00584271  0.79555847  0.00730754  1
  Hf  Hf33  1  0.30092284  0.49057713  0.63480885  1
  Hf  Hf34  1  0.30752439  0.68474825  0.35592809  1
  Hf  Hf35  1  -0.00455648  0.20210685  -0.01329865  1
  Hf  Hf36  1  0.89460406  0.10576389  0.62578398  1
  Hf  Hf37  1  0.00362668  0.80271647  0.49068981  1
  Hf  Hf38  1  0.69068494  0.30388848  0.85903961  1
  Hf  Hf39  1  0.79690607  -0.01028038  0.49842141  1
  Zr  Zr40  1  0.19294703  -0.00701571  0.49898107  1
  Zr  Zr41  1  0.28400101  0.30561444  0.85192605  1
  Zr  Zr42  1  0.68494583  0.10793395  0.63583602  1
  Zr  Zr43  1  0.39700864  -0.00289339  0.52029351  1
  Zr  Zr44  1  0.78753188  0.00346081  0.76299739  1
  Zr  Zr45  1  0.59775163  0.39948928  0.48965245  1
  Zr  Zr46  1  0.10690035  0.49407597  0.88066354  1
  Zr  Zr47  1  0.40071436  0.79316018  0.22528692  1
  Zr  Zr48  1  0.29160409  0.88877787  0.64097318  1
  Zr  Zr49  1  0.79248707  0.40546246  0.24731532  1
  Zr  Zr50  1  0.10758033  0.29673392  0.12646076  1
  Zr  Zr51  1  0.49164945  0.09526811  0.38797083  1
  Zr  Zr52  1  0.50091036  0.29469733  0.63265488  1
  Zr  Zr53  1  0.80395376  0.01315081  0.00128210  1
  Zr  Zr54  1  -0.00105798  0.40259555  0.24028374  1
  Zr  Zr55  1  0.58922024  -0.01443155  0.50695864  1
  Zr  Zr56  1  0.39502286  0.00754447  0.24311327  1
  Zr  Zr57  1  0.69480104  0.89250209  0.63305995  1
  Zr  Zr58  1  0.41721361  0.80021019  0.50261595  1
  Zr  Zr59  1  0.90203470  0.70454562  0.62472005  1
  Zr  Zr60  1  0.02106376  0.80701863  0.76546164  1
  Zr  Zr61  1  0.09359068  0.09903286  0.63265344  1
  Zr  Zr62  1  0.59473922  0.21568900  0.26227603  1
  Zr  Zr63  1  0.40664688  0.59759486  0.50135712  1
  Zr  Zr64  1  0.39615468  0.79418821  0.00542327  1
  Zr  Zr65  1  0.40793685  0.59345492  0.02110321  1
  Zr  Zr66  1  0.60127587  0.58497631  0.76105528  1
  Zr  Zr67  1  0.70968095  0.70302255  0.12087991  1
  Zr  Zr68  1  0.39721776  0.20298526  0.25874889  1
  Zr  Zr69  1  0.19339147  0.00748708  0.25875768  1
  Zr  Zr70  1  0.89201524  0.29009805  0.12487464  1
  Zr  Zr71  1  0.80543851  0.79735368  0.77291779  1
  Zr  Zr72  1  0.69304665  0.88654230  0.35474978  1
  Zr  Zr73  1  0.60721002  0.58958844  0.23063548  1
  Zr  Zr74  1  0.19971625  0.19861546  0.26483121  1
  Zr  Zr75  1  0.30352621  0.89260501  0.36692411  1
  Zr  Zr76  1  0.00526870  -0.00404552  0.48131955  1
  Zr  Zr77  1  0.20415772  0.59183313  0.49715080  1
  Zr  Zr78  1  0.17808976  -0.02115778  0.75736331  1
  Zr  Zr79  1  0.49778910  0.69677882  0.88160594  1
  Ta  Ta80  1  0.29495399  0.29796579  0.63147735  1
  Ta  Ta81  1  0.90611746  0.50502362  0.38000240  1
  Ta  Ta82  1  0.48904062  0.49726964  0.35723953  1
  Ta  Ta83  1  0.10638186  0.49614340  0.37325303  1
  Ta  Ta84  1  0.20243566  0.20049114  0.50749899  1
  Ta  Ta85  1  0.89894444  0.10832847  0.86522097  1
  Ta  Ta86  1  0.10376000  0.30844312  0.63010744  1
  Ta  Ta87  1  0.80090418  0.01073197  0.24531161  1
  Ta  Ta88  1  0.70195938  0.69509443  0.89343157  1
  Ta  Ta89  1  -0.00441661  0.20893205  0.75359532  1
  Ta  Ta90  1  0.40517284  0.39441525  -0.01458231  1
  Ta  Ta91  1  0.20072040  0.79465027  0.00772384  1
  Ta  Ta92  1  0.30331782  0.50580535  0.87947987  1
  Ta  Ta93  1  0.70307663  0.11396947  0.12252805  1
  Ta  Ta94  1  -0.00193529  0.39488710  -0.00297817  1
  Ta  Ta95  1  0.80826387  0.79969719  -0.00905202  1
  Ta  Ta96  1  0.30252596  0.29687489  0.12462016  1
  Ta  Ta97  1  0.29443601  0.10475492  0.11200484  1
  Ta  Ta98  1  -0.00064267  0.59988741  0.75060436  1
  Ta  Ta99  1  0.39419113  0.40073060  0.49238907  1
  Ta  Ta100  1  0.10134518  0.69116792  0.88771846  1
  Ta  Ta101  1  0.00240547  0.19366658  0.26103290  1
  Ta  Ta102  1  0.29206656  0.90933037  0.11555327  1
  Ta  Ta103  1  0.89635676  0.89563188  0.35084198  1
  Ta  Ta104  1  0.19553292  0.00411578  -0.00601164  1
  Ta  Ta105  1  0.90313900  0.69468443  0.12125006  1
  Ta  Ta106  1  0.60449773  0.58736260  0.00881326  1
  Ta  Ta107  1  0.91169110  0.50928279  0.88938771  1
  Ta  Ta108  1  0.60272282  0.01218074  -0.00540524  1
  Ta  Ta109  1  0.70114086  0.50656625  0.37120912  1
  Ta  Ta110  1  0.10746490  0.70904739  0.63524337  1
  Ta  Ta111  1  0.79954379  0.60505789  0.49048090  1
  Ta  Ta112  1  0.80029829  0.79579679  0.48614072  1
  Ta  Ta113  1  0.59607461  0.20500990  0.49787806  1
  Ta  Ta114  1  0.20618325  0.60255835  0.01332544  1
  Ta  Ta115  1  0.29685395  0.10456176  0.64401717  1
  Ta  Ta116  1  0.60167346  0.80143209  0.77012249  1
  Ta  Ta117  1  0.00160527  0.59195299  0.23305670  1
  Ta  Ta118  1  0.10062075  0.69779124  0.34744084  1
  Ta  Ta119  1  0.10267046  0.90316550  0.12782953  1
  Ti  Ti120  1  0.79956083  0.20634260  0.75396922  1
  Ti  Ti121  1  0.48775171  0.30511712  0.12700459  1
  Ti  Ti122  1  0.79614288  0.20485105  -0.01482017  1
  Ti  Ti123  1  0.70670147  0.70061755  0.35329402  1
  Ti  Ti124  1  0.58846370  0.40586066  -0.01846341  1
  Ti  Ti125  1  0.60447587  0.79539158  0.49925953  1
  Ti  Ti126  1  0.40603540  0.80200025  0.75763288  1
  Ti  Ti127  1  0.29492054  0.31209595  0.38209695  1
  Ti  Ti128  1  0.09139733  0.09564919  0.86134283  1
  Ti  Ti129  1  0.09386071  0.88378611  0.34354285  1
  Ti  Ti130  1  0.80785658  0.58694622  0.23415221  1
  Ti  Ti131  1  0.10077977  0.49348008  0.11237686  1
  Ti  Ti132  1  0.69231178  0.90327381  0.88749714  1
  Ti  Ti133  1  0.79641469  0.20353820  0.25531177  1
  Ti  Ti134  1  0.49760746  0.90747952  0.87846569  1
  Ti  Ti135  1  0.69299340  0.30619493  0.64083454  1
  Ti  Ti136  1  0.20695675  0.39612946  -0.00027128  1
  Ti  Ti137  1  0.29639390  0.09303546  0.85782421  1
  Ti  Ti138  1  0.59966625  0.79727561  -0.00056839  1
  Ti  Ti139  1  0.09245677  0.30945457  0.85320183  1
  Ti  Ti140  1  0.39879559  0.20081168  0.75379998  1
  Ti  Ti141  1  0.90212996  0.10519330  0.13086607  1
  Ti  Ti142  1  0.50628868  0.47626491  0.13899257  1
  Ti  Ti143  1  0.49701385  0.09289128  0.64483570  1
  Ti  Ti144  1  0.78485982  0.21221881  0.50440653  1
  Ti  Ti145  1  0.90446899  0.50581192  0.61856850  1
  Ti  Ti146  1  0.00174072  0.01099342  0.25597154  1
  Ti  Ti147  1  0.50857668  0.70732546  0.63913624  1
  Ti  Ti148  1  0.09899534  0.10121761  0.12467554  1
  Ti  Ti149  1  0.70103768  0.50235768  0.62167630  1
  Ti  Ti150  1  0.50314315  0.89363530  0.35769768  1
  Ti  Ti151  1  0.09341773  0.49070919  0.62450797  1
  Ti  Ti152  1  0.00581696  0.20172246  0.50179960  1
  Ti  Ti153  1  0.39670515  0.20236029  0.50898734  1
  Ti  Ti154  1  0.49298647  0.10966573  0.11193977  1
  Ti  Ti155  1  0.50552386  0.49793577  0.62333895  1
  Ti  Ti156  1  0.29701989  0.10263575  0.39287976  1
  Ti  Ti157  1  0.40699881  0.59935666  0.75481173  1
  Ti  Ti158  1  0.00702783  0.00952173  0.00293667  1
  Ti  Ti159  1  0.29753047  0.69674111  0.87338334  1
  Mo  Mo160  1  0.19912079  0.79725894  0.22983996  1
  Mo  Mo161  1  0.39718924  -0.00339692  0.74070966  1
  Mo  Mo162  1  0.69985747  0.10474564  0.87591900  1
  Mo  Mo163  1  0.29668260  0.48689966  0.36043200  1
  Mo  Mo164  1  0.00370106  0.79618538  0.23228562  1
  Mo  Mo165  1  0.40023749  0.38762385  0.26561348  1
  Mo  Mo166  1  0.29780023  0.69648223  0.12991305  1
  Mo  Mo167  1  0.70035130  0.49437027  0.11042783  1
  Mo  Mo168  1  0.70111519  0.50353231  0.88912990  1
  Mo  Mo169  1  -0.00286934  0.41040434  0.75542786  1
  Mo  Mo170  1  0.59675506  0.39803558  0.26530734  1
  Mo  Mo171  1  0.20374913  0.78793544  0.77556103  1
  Mo  Mo172  1  0.50864477  0.69940743  0.12201010  1
  Mo  Mo173  1  0.90153803  0.30526163  0.86543109  1
  Mo  Mo174  1  -0.00577175  0.00613163  0.75816762  1
  Mo  Mo175  1  0.49933859  0.50068453  0.88201596  1
  Mo  Mo176  1  0.09539526  0.10931831  0.38861159  1
  Mo  Mo177  1  0.10233303  0.69728358  0.12740612  1
  Mo  Mo178  1  0.19792483  0.40449000  0.73907297  1
  Mo  Mo179  1  0.80718149  0.60097306  -0.00368559  1
  Mo  Mo180  1  0.69818047  0.30167129  0.37517289  1
  Mo  Mo181  1  0.00237923  0.41152055  0.49879706  1
  Mo  Mo182  1  0.20344233  0.39729629  0.51499707  1
  Mo  Mo183  1  0.20093283  0.39712131  0.24837090  1
  Mo  Mo184  1  0.59950458  0.80011122  0.22874883  1
  Mo  Mo185  1  0.60504757  0.40414151  0.74499054  1
  Mo  Mo186  1  0.59862585  0.19732036  0.75573117  1
  Mo  Mo187  1  0.19214297  0.19676489  0.74883056  1
  Mo  Mo188  1  0.49042488  0.30037618  0.39540963  1
  Mo  Mo189  1  0.00795606  0.59562646  0.01619539  1
  Mo  Mo190  1  0.40526140  0.59076978  0.23760383  1
  Mo  Mo191  1  0.49812551  0.29837540  0.86195252  1
  Mo  Mo192  1  0.50263883  0.88962595  0.65077649  1
  Mo  Mo193  1  0.90293235  0.50209387  0.10685926  1
  Mo  Mo194  1  0.59419275  -0.00919740  0.76707397  1
  Mo  Mo195  1  0.80294655  0.79716263  0.24626342  1
  Mo  Mo196  1  0.10377670  0.89943442  0.90550895  1
  Mo  Mo197  1  0.39490594  0.00983461  0.00376235  1
  Mo  Mo198  1  0.09821547  0.88680944  0.62118966  1
  Mo  Mo199  1  0.90819568  0.69453104  0.89214911  1
