# generated using pymatgen
data_HfZrTaTiMo
_symmetry_space_group_name_H-M   'P 1'
_cell_length_a   15.83223835
_cell_length_b   15.83815399
_cell_length_c   15.39424524
_cell_angle_alpha   90.05939551
_cell_angle_beta   89.97131671
_cell_angle_gamma   90.20119497
_symmetry_Int_Tables_number   1
_chemical_formula_structural   HfZrTaTiMo
_chemical_formula_sum   'Hf40 Zr40 Ta40 Ti40 Mo40'
_cell_volume   3860.13343071
_cell_formula_units_Z   40
loop_
 _symmetry_equiv_pos_site_id
 _symmetry_equiv_pos_as_xyz
  1  'x, y, z'
loop_
 _atom_site_type_symbol
 _atom_site_label
 _atom_site_symmetry_multiplicity
 _atom_site_fract_x
 _atom_site_fract_y
 _atom_site_fract_z
 _atom_site_occupancy
  Hf  Hf0  1  -0.00158123  0.20464944  0.50625951  1
  Hf  Hf1  1  0.58159697  0.39127376  0.75065662  1
  Hf  Hf2  1  0.49522456  0.89084506  0.87389053  1
  Hf  Hf3  1  0.40334204  0.00209792  0.50738857  1
  Hf  Hf4  1  0.79580374  0.80441078  0.73965525  1
  Hf  Hf5  1  0.80216261  0.20803922  -0.00552646  1
  Hf  Hf6  1  0.79886676  0.59935154  0.25016334  1
  Hf  Hf7  1  0.90852217  0.69494744  0.13192121  1
  Hf  Hf8  1  0.79579137  0.39494720  0.24330962  1
  Hf  Hf9  1  0.90190675  0.70411739  0.86558701  1
  Hf  Hf10  1  0.29761554  0.30362745  0.35257930  1
  Hf  Hf11  1  0.01511258  0.80918346  0.25577261  1
  Hf  Hf12  1  0.49705360  0.09551164  0.88133075  1
  Hf  Hf13  1  0.59515480  0.80056948  0.49535135  1
  Hf  Hf14  1  0.70026826  0.90183663  0.60814458  1
  Hf  Hf15  1  0.39444218  0.79255448  0.00799779  1
  Hf  Hf16  1  0.89442785  0.29108870  0.37225016  1
  Hf  Hf17  1  0.10563534  0.11013664  0.62423078  1
  Hf  Hf18  1  0.91296903  0.91175970  0.12600751  1
  Hf  Hf19  1  0.91612965  0.09344118  0.88460422  1
  Hf  Hf20  1  0.82037074  -0.00102017  0.73905230  1
  Hf  Hf21  1  0.11340956  0.69830892  0.12757753  1
  Hf  Hf22  1  0.61462893  0.20758592  0.26123616  1
  Hf  Hf23  1  0.80551753  0.40184732  0.76430808  1
  Hf  Hf24  1  0.30147166  0.09744105  0.35584457  1
  Hf  Hf25  1  0.60837742  0.79508592  0.26015601  1
  Hf  Hf26  1  0.69999745  0.29780755  0.63280988  1
  Hf  Hf27  1  0.19666945  0.58471561  0.76894136  1
  Hf  Hf28  1  0.39990400  0.80106483  0.73345230  1
  Hf  Hf29  1  0.69891827  0.50713188  0.62780772  1
  Hf  Hf30  1  0.70104172  0.09840878  0.11575229  1
  Hf  Hf31  1  0.59815713  -0.00710741  0.74210283  1
  Hf  Hf32  1  0.48951911  0.49792593  0.36909471  1
  Hf  Hf33  1  0.48870830  0.68388132  0.14639651  1
  Hf  Hf34  1  0.29188443  0.89002288  0.86761990  1
  Hf  Hf35  1  0.19195979  0.19531703  0.00231410  1
  Hf  Hf36  1  0.00345807  0.39120074  0.23707156  1
  Hf  Hf37  1  0.10557090  0.71290539  0.86383141  1
  Hf  Hf38  1  0.18625603  -0.01797156  0.23783929  1
  Hf  Hf39  1  0.28626406  0.68860799  0.62123093  1
  Zr  Zr40  1  0.70177085  0.09280832  0.88245509  1
  Zr  Zr41  1  0.21400831  0.39419203  0.77875557  1
  Zr  Zr42  1  0.89318602  0.68933902  0.62304400  1
  Zr  Zr43  1  0.59566302  0.39547852  -0.01356903  1
  Zr  Zr44  1  0.10050349  0.90620858  0.39521315  1
  Zr  Zr45  1  0.49571385  0.68793938  0.62350776  1
  Zr  Zr46  1  0.79574772  0.80787821  0.25782768  1
  Zr  Zr47  1  0.30010613  0.51639974  0.12534833  1
  Zr  Zr48  1  0.69259183  0.50232796  0.11597160  1
  Zr  Zr49  1  0.58826431  -0.01351262  0.01051053  1
  Zr  Zr50  1  0.29983650  0.11411565  0.63082332  1
  Zr  Zr51  1  0.80943906  0.40734095  -0.00732964  1
  Zr  Zr52  1  0.30364922  0.09098610  0.88112644  1
  Zr  Zr53  1  0.19405088  0.00679718  0.75197261  1
  Zr  Zr54  1  0.90424419  0.69712130  0.37592728  1
  Zr  Zr55  1  0.59237679  0.39625474  0.49795844  1
  Zr  Zr56  1  0.91460942  0.31007394  0.63606776  1
  Zr  Zr57  1  0.29818886  0.09870184  0.13486444  1
  Zr  Zr58  1  0.68976776  0.70425676  0.88234732  1
  Zr  Zr59  1  0.49844705  0.10167122  0.13764665  1
  Zr  Zr60  1  0.00275467  0.58794230  0.49395659  1
  Zr  Zr61  1  0.70730621  0.10743209  0.61977255  1
  Zr  Zr62  1  0.70223005  0.89344781  0.88461640  1
  Zr  Zr63  1  0.10151934  0.49217686  0.62653339  1
  Zr  Zr64  1  0.68952300  0.51352896  0.86865344  1
  Zr  Zr65  1  0.60415268  0.59407500  0.26026581  1
  Zr  Zr66  1  0.60058107  0.20684752  0.48446452  1
  Zr  Zr67  1  0.61583849  -0.00835117  0.25658398  1
  Zr  Zr68  1  0.09782244  0.69336943  0.63295603  1
  Zr  Zr69  1  0.01294288  0.20204532  0.76333372  1
  Zr  Zr70  1  0.49282312  0.90415981  0.36776327  1
  Zr  Zr71  1  0.49937215  0.30339834  0.12807863  1
  Zr  Zr72  1  0.80704544  0.39869069  0.50087199  1
  Zr  Zr73  1  0.10705801  0.90012748  0.61959008  1
  Zr  Zr74  1  0.90816462  0.09603840  0.36235359  1
  Zr  Zr75  1  0.50296534  0.11621963  0.62862748  1
  Zr  Zr76  1  0.01063338  0.80194005  0.00408427  1
  Zr  Zr77  1  0.40164697  0.23036469  0.76570797  1
  Zr  Zr78  1  0.09882274  0.10391049  0.37083918  1
  Zr  Zr79  1  0.72008797  0.10489131  0.38318297  1
  Ta  Ta80  1  0.60223215  0.20677074  0.76987687  1
  Ta  Ta81  1  0.09738439  0.50659358  0.11650942  1
  Ta  Ta82  1  0.09523876  0.90848518  0.87093455  1
  Ta  Ta83  1  0.48319008  0.49312844  0.62778610  1
  Ta  Ta84  1  0.80757007  0.60385787  -0.00209096  1
  Ta  Ta85  1  0.48994385  0.10366250  0.35915910  1
  Ta  Ta86  1  0.38914938  0.59444599  0.49158400  1
  Ta  Ta87  1  -0.00627856  0.81849495  0.73803453  1
  Ta  Ta88  1  0.39858431  0.20901054  0.48906583  1
  Ta  Ta89  1  0.11694195  0.30480938  0.62682204  1
  Ta  Ta90  1  0.40285607  0.60195403  -0.00811008  1
  Ta  Ta91  1  0.19677188  0.39942993  0.48440748  1
  Ta  Ta92  1  0.39375340  0.79865012  0.49969647  1
  Ta  Ta93  1  0.48988428  0.50410196  0.86052288  1
  Ta  Ta94  1  0.18210724  0.21046253  0.23411883  1
  Ta  Ta95  1  0.29495408  0.89489454  0.61890361  1
  Ta  Ta96  1  0.59479560  0.59524665  0.49752668  1
  Ta  Ta97  1  0.69595740  0.29673513  0.11649546  1
  Ta  Ta98  1  0.29889621  0.30382492  0.12355611  1
  Ta  Ta99  1  0.48854353  0.69673120  0.37537153  1
  Ta  Ta100  1  0.90439826  0.49820474  0.36501964  1
  Ta  Ta101  1  0.49108011  0.30190442  0.35773630  1
  Ta  Ta102  1  0.39044046  -0.01278224  0.01916355  1
  Ta  Ta103  1  -0.00282270  0.80021715  0.50506023  1
  Ta  Ta104  1  0.50144629  0.69186750  0.85898501  1
  Ta  Ta105  1  0.00114861  0.59441031  -0.01359349  1
  Ta  Ta106  1  0.89949995  0.90745552  0.38460364  1
  Ta  Ta107  1  0.19710519  0.40282632  -0.00009366  1
  Ta  Ta108  1  0.80646344  0.20255425  0.76142629  1
  Ta  Ta109  1  0.70337985  0.89144265  0.11379535  1
  Ta  Ta110  1  0.30077951  0.30888296  0.61973177  1
  Ta  Ta111  1  0.29992866  0.89528447  0.36787899  1
  Ta  Ta112  1  -0.00200635  0.20145077  0.22451710  1
  Ta  Ta113  1  0.70001206  0.70139228  0.11249792  1
  Ta  Ta114  1  0.20192280  0.21259709  0.48687258  1
  Ta  Ta115  1  0.20027701  0.21085190  0.77812424  1
  Ta  Ta116  1  0.90648514  0.90159965  0.88121356  1
  Ta  Ta117  1  0.19514042  -0.01844210  0.01076502  1
  Ta  Ta118  1  0.40074351  0.20422482  0.00092181  1
  Ta  Ta119  1  0.59773432  0.79761799  0.73266649  1
  Ti  Ti120  1  0.38729782  0.58779733  0.75129643  1
  Ti  Ti121  1  0.79822145  0.60193561  0.75633971  1
  Ti  Ti122  1  0.80469038  -0.00079326  0.24419081  1
  Ti  Ti123  1  0.39862552  0.40857346  -0.00207557  1
  Ti  Ti124  1  0.19554065  0.59859255  0.25780810  1
  Ti  Ti125  1  0.29873261  0.69767522  0.37020507  1
  Ti  Ti126  1  0.59697848  0.00305380  0.49140482  1
  Ti  Ti127  1  0.10362967  0.69155561  0.37542373  1
  Ti  Ti128  1  0.29295303  0.49400014  0.61508108  1
  Ti  Ti129  1  0.90837671  0.50436145  0.12594433  1
  Ti  Ti130  1  0.81457616  0.00801442  0.50946369  1
  Ti  Ti131  1  0.29250180  0.50162280  0.36850621  1
  Ti  Ti132  1  0.58564370  0.78957753  0.01159514  1
  Ti  Ti133  1  0.20176666  0.78980492  0.49083117  1
  Ti  Ti134  1  0.39242423  0.39586262  0.49451135  1
  Ti  Ti135  1  0.70444478  0.69268690  0.39327770  1
  Ti  Ti136  1  0.69995814  0.69270229  0.61465289  1
  Ti  Ti137  1  0.30397224  0.70220093  0.86603584  1
  Ti  Ti138  1  0.40336220  -0.00381891  0.73482166  1
  Ti  Ti139  1  0.20702435  0.60890542  -0.00953909  1
  Ti  Ti140  1  -0.00005216  0.20574864  0.01379766  1
  Ti  Ti141  1  0.29798976  0.70964412  0.14494390  1
  Ti  Ti142  1  0.58439594  0.59766513  0.00619478  1
  Ti  Ti143  1  -0.00676774  0.00488223  0.52094164  1
  Ti  Ti144  1  0.90552019  0.50418577  0.63863031  1
  Ti  Ti145  1  0.09911055  0.49608912  0.36340987  1
  Ti  Ti146  1  0.80891592  0.20286558  0.22597014  1
  Ti  Ti147  1  0.91351803  0.30585541  0.88218605  1
  Ti  Ti148  1  0.80712093  0.79735801  0.00512962  1
  Ti  Ti149  1  0.48917192  0.88924133  0.14477826  1
  Ti  Ti150  1  0.21017360  0.01022433  0.49935820  1
  Ti  Ti151  1  0.60352191  0.40166297  0.25149580  1
  Ti  Ti152  1  0.19128343  0.39989158  0.23713759  1
  Ti  Ti153  1  0.08140592  0.08301137  0.12103971  1
  Ti  Ti154  1  0.80298779  0.80139017  0.49674726  1
  Ti  Ti155  1  0.70625964  0.49645800  0.38483852  1
  Ti  Ti156  1  0.01645884  0.41223177  0.77860371  1
  Ti  Ti157  1  0.00934155  0.39385631  0.48722972  1
  Ti  Ti158  1  0.80929023  -0.00259758  0.00564199  1
  Ti  Ti159  1  0.39795648  0.41072473  0.23608984  1
  Mo  Mo160  1  0.19981430  0.79810935  0.74519633  1
  Mo  Mo161  1  0.09923356  0.30490750  0.11064578  1
  Mo  Mo162  1  0.59957792  0.20089826  -0.01311847  1
  Mo  Mo163  1  0.70434474  0.30749819  0.36408274  1
  Mo  Mo164  1  0.70298878  0.29779235  0.86725349  1
  Mo  Mo165  1  0.90060306  0.89930661  0.60573500  1
  Mo  Mo166  1  0.71307199  0.90387916  0.39664039  1
  Mo  Mo167  1  0.39114345  0.40871889  0.75282200  1
  Mo  Mo168  1  0.30454708  0.50713746  0.89684222  1
  Mo  Mo169  1  0.89744047  0.30204199  0.11697158  1
  Mo  Mo170  1  0.00075004  0.40262836  0.00687562  1
  Mo  Mo171  1  0.38829149  0.59736051  0.26888112  1
  Mo  Mo172  1  0.80897516  0.20020727  0.51561345  1
  Mo  Mo173  1  0.09643648  0.30170448  0.89710171  1
  Mo  Mo174  1  0.19991595  0.79166123  0.27122852  1
  Mo  Mo175  1  0.20298483  0.59164853  0.48011037  1
  Mo  Mo176  1  0.10137893  0.50276005  0.89585662  1
  Mo  Mo177  1  0.90287619  0.50708954  0.87044198  1
  Mo  Mo178  1  0.10719750  0.89114069  0.11720131  1
  Mo  Mo179  1  0.39547878  -0.00524895  0.23684742  1
  Mo  Mo180  1  0.49364393  0.49943790  0.13124840  1
  Mo  Mo181  1  0.00144034  -0.00024034  0.74490162  1
  Mo  Mo182  1  0.29926816  0.88681703  0.13809353  1
  Mo  Mo183  1  -0.00463268  0.59370385  0.76587266  1
  Mo  Mo184  1  0.10110365  0.09634649  0.89275578  1
  Mo  Mo185  1  0.49691390  0.30150175  0.89150376  1
  Mo  Mo186  1  0.90477652  0.10615877  0.63525203  1
  Mo  Mo187  1  0.00760886  0.00254365  -0.00225386  1
  Mo  Mo188  1  0.89866663  0.10056499  0.12082705  1
  Mo  Mo189  1  0.39500940  0.20710489  0.24896491  1
  Mo  Mo190  1  0.39516765  0.79671725  0.25665577  1
  Mo  Mo191  1  0.30389564  0.30393102  0.90530093  1
  Mo  Mo192  1  -0.00459620  -0.00109442  0.24775374  1
  Mo  Mo193  1  0.21035912  0.79463637  -0.00527232  1
  Mo  Mo194  1  0.48804306  0.30399443  0.61382249  1
  Mo  Mo195  1  0.59379437  0.59966288  0.73242847  1
  Mo  Mo196  1  0.49753178  0.90204450  0.61282823  1
  Mo  Mo197  1  0.09950893  0.30310201  0.37128098  1
  Mo  Mo198  1  0.00852661  0.59166441  0.25338158  1
  Mo  Mo199  1  0.79497874  0.59442783  0.49130377  1
