# generated using pymatgen
data_HfZrTaTiMo
_symmetry_space_group_name_H-M   'P 1'
_cell_length_a   15.84332422
_cell_length_b   15.84474063
_cell_length_c   15.38550880
_cell_angle_alpha   90.09960235
_cell_angle_beta   90.01707733
_cell_angle_gamma   89.95593021
_symmetry_Int_Tables_number   1
_chemical_formula_structural   HfZrTaTiMo
_chemical_formula_sum   'Hf40 Zr40 Ta40 Ti40 Mo40'
_cell_volume   3862.26886490
_cell_formula_units_Z   40
loop_
 _symmetry_equiv_pos_site_id
 _symmetry_equiv_pos_as_xyz
  1  'x, y, z'
loop_
 _atom_site_type_symbol
 _atom_site_label
 _atom_site_symmetry_multiplicity
 _atom_site_fract_x
 _atom_site_fract_y
 _atom_site_fract_z
 _atom_site_occupancy
  Hf  Hf0  1  0.79591439  0.00971766  0.73728429  1
  Hf  Hf1  1  0.00001015  0.20044170  0.25540689  1
  Hf  Hf2  1  0.59382706  0.20382989  0.01341559  1
  Hf  Hf3  1  0.80595028  0.60877673  0.50096715  1
  Hf  Hf4  1  0.57884488  0.00295801  0.01189594  1
  Hf  Hf5  1  0.30281590  0.30139260  0.63703917  1
  Hf  Hf6  1  0.40706378  0.82621933  0.26765721  1
  Hf  Hf7  1  0.79373511  0.00966162  0.50128082  1
  Hf  Hf8  1  0.40406689  0.40484108  0.49337618  1
  Hf  Hf9  1  0.59938408  0.22045445  0.22557010  1
  Hf  Hf10  1  0.90046741  0.49309067  0.37412173  1
  Hf  Hf11  1  0.50639272  0.89864017  0.86953175  1
  Hf  Hf12  1  0.69512518  0.49889739  0.62417176  1
  Hf  Hf13  1  0.69901872  0.89712290  0.87226733  1
  Hf  Hf14  1  0.29795314  0.09294685  0.62934964  1
  Hf  Hf15  1  0.51391987  0.70894071  0.13184334  1
  Hf  Hf16  1  0.10248967  0.71338061  0.88192030  1
  Hf  Hf17  1  -0.01466169  0.81339198  0.01927042  1
  Hf  Hf18  1  0.07831574  0.29679387  0.61494498  1
  Hf  Hf19  1  0.60865406  0.59095106  -0.01188902  1
  Hf  Hf20  1  -0.00365983  0.60504255  0.00099563  1
  Hf  Hf21  1  0.09353947  0.90499520  0.87772749  1
  Hf  Hf22  1  0.79330211  0.59852933  0.25573673  1
  Hf  Hf23  1  0.10255259  0.30317397  0.10472923  1
  Hf  Hf24  1  0.49899107  0.89733947  0.61452336  1
  Hf  Hf25  1  0.41159471  0.80997716  0.01019952  1
  Hf  Hf26  1  -0.00119366  0.39407739  0.24920389  1
  Hf  Hf27  1  0.49988155  0.49926969  0.62865974  1
  Hf  Hf28  1  -0.00588769  0.79089689  0.51129490  1
  Hf  Hf29  1  0.79938826  0.39099430  0.50861779  1
  Hf  Hf30  1  0.31142209  0.69845022  0.62136990  1
  Hf  Hf31  1  0.30118216  0.10162690  0.36615121  1
  Hf  Hf32  1  0.79702865  0.19903259  0.51215281  1
  Hf  Hf33  1  0.90350571  0.09342916  0.88344949  1
  Hf  Hf34  1  0.10641577  0.50162911  0.37110642  1
  Hf  Hf35  1  0.40231265  -0.01105643  0.48276446  1
  Hf  Hf36  1  0.50543703  0.70174260  0.37933105  1
  Hf  Hf37  1  -0.00314952  0.00126114  0.25215218  1
  Hf  Hf38  1  0.41017224  0.19092453  0.51659077  1
  Hf  Hf39  1  0.70320601  0.71173499  0.86651911  1
  Zr  Zr40  1  0.40409190  0.17235583  -0.00826947  1
  Zr  Zr41  1  0.89025493  0.30432589  0.11380951  1
  Zr  Zr42  1  0.90744042  0.48920221  0.62635365  1
  Zr  Zr43  1  0.10226244  0.10043775  0.10831673  1
  Zr  Zr44  1  0.79660743  -0.01386118  0.01578349  1
  Zr  Zr45  1  0.18853986  0.40265600  0.75988830  1
  Zr  Zr46  1  0.30931210  0.50026013  0.63884207  1
  Zr  Zr47  1  0.39173023  0.61190399  0.23998918  1
  Zr  Zr48  1  0.30927281  0.91224404  0.12421532  1
  Zr  Zr49  1  0.09570453  0.09746685  0.61834585  1
  Zr  Zr50  1  0.00572633  0.81096877  0.24288732  1
  Zr  Zr51  1  0.89895822  0.90036121  0.86114652  1
  Zr  Zr52  1  0.40632129  0.38988948  0.24781853  1
  Zr  Zr53  1  0.89515651  0.71146975  0.86429160  1
  Zr  Zr54  1  0.69542362  0.10612663  0.87533676  1
  Zr  Zr55  1  0.59510148  0.60445450  0.75787885  1
  Zr  Zr56  1  0.51364464  0.49124810  0.12903885  1
  Zr  Zr57  1  0.89173384  0.89921155  0.38070952  1
  Zr  Zr58  1  0.29412430  0.49162763  0.11880657  1
  Zr  Zr59  1  0.19520574  -0.00668421  0.26219652  1
  Zr  Zr60  1  0.61219611  0.39239024  0.76745732  1
  Zr  Zr61  1  0.29714717  0.70086581  0.38412875  1
  Zr  Zr62  1  0.21267791  0.19912972  -0.01544876  1
  Zr  Zr63  1  0.88837231  0.28784411  0.88673916  1
  Zr  Zr64  1  0.00541158  0.59478624  0.75533465  1
  Zr  Zr65  1  0.11395470  0.69891183  0.12993865  1
  Zr  Zr66  1  0.30628729  0.70411705  0.87235492  1
  Zr  Zr67  1  0.50990631  0.10244002  0.36105718  1
  Zr  Zr68  1  0.20241627  0.40481336  0.50055037  1
  Zr  Zr69  1  -0.01023615  0.41482677  -0.01428456  1
  Zr  Zr70  1  0.00557056  0.60160855  0.50589678  1
  Zr  Zr71  1  0.10645494  0.70005667  0.36670496  1
  Zr  Zr72  1  0.90001646  0.10080811  0.11691772  1
  Zr  Zr73  1  0.30055535  0.29434697  0.37417362  1
  Zr  Zr74  1  0.40253704  0.60201069  0.00162194  1
  Zr  Zr75  1  0.29788725  0.89629932  0.86692766  1
  Zr  Zr76  1  0.90231051  0.90744639  0.62103019  1
  Zr  Zr77  1  0.51081858  0.29845613  0.38503525  1
  Zr  Zr78  1  0.80285462  0.59543920  -0.00207592  1
  Zr  Zr79  1  0.19853801  0.60116345  0.75583815  1
  Ta  Ta80  1  0.69898033  0.49027081  0.13690092  1
  Ta  Ta81  1  0.30117025  0.29243932  0.12320025  1
  Ta  Ta82  1  0.19461314  0.80301217  0.73025327  1
  Ta  Ta83  1  0.70365172  0.70638705  0.38130741  1
  Ta  Ta84  1  0.79154705  0.80466944  0.24599451  1
  Ta  Ta85  1  -0.00471997  0.39681887  0.76704170  1
  Ta  Ta86  1  0.20044631  0.59535351  -0.00390749  1
  Ta  Ta87  1  0.40381229  0.00126269  0.75211685  1
  Ta  Ta88  1  0.10142009  0.49708780  0.12199717  1
  Ta  Ta89  1  0.19574720  0.80015966  0.51538384  1
  Ta  Ta90  1  0.21693465  0.00698063  -0.01253442  1
  Ta  Ta91  1  0.91336479  0.10896034  0.62523789  1
  Ta  Ta92  1  0.40824051  0.19522681  0.74988200  1
  Ta  Ta93  1  0.30042978  0.89976689  0.62253750  1
  Ta  Ta94  1  0.89298928  0.49841160  0.13431653  1
  Ta  Ta95  1  0.79155950  0.21109092  0.73462400  1
  Ta  Ta96  1  0.50304943  0.29200032  0.87409170  1
  Ta  Ta97  1  0.50629438  0.30636515  0.63203376  1
  Ta  Ta98  1  0.50791289  0.50396323  0.36498473  1
  Ta  Ta99  1  0.19608680  0.19809840  0.75720414  1
  Ta  Ta100  1  0.30917112  0.30235570  0.86499286  1
  Ta  Ta101  1  0.69382437  0.49452908  0.37554134  1
  Ta  Ta102  1  0.09501077  0.29739785  0.38831719  1
  Ta  Ta103  1  0.70172883  0.70413445  0.62091445  1
  Ta  Ta104  1  0.09304954  0.09666451  0.87664602  1
  Ta  Ta105  1  0.69219360  0.90297352  0.38466652  1
  Ta  Ta106  1  0.19385454  0.20414309  0.25002562  1
  Ta  Ta107  1  0.59754715  0.00438904  0.73556306  1
  Ta  Ta108  1  0.00040469  0.59620556  0.24255744  1
  Ta  Ta109  1  0.09908176  0.90008635  0.39384356  1
  Ta  Ta110  1  0.30659046  0.09902873  0.14119137  1
  Ta  Ta111  1  0.89435823  0.69913658  0.13930016  1
  Ta  Ta112  1  0.00648792  0.79920427  0.72929348  1
  Ta  Ta113  1  0.69895651  0.89696242  0.61378428  1
  Ta  Ta114  1  0.19678846  0.39356423  0.25134192  1
  Ta  Ta115  1  0.89980221  0.70273618  0.36200187  1
  Ta  Ta116  1  0.80150049  0.39648749  0.75518915  1
  Ta  Ta117  1  0.09826863  0.29710967  0.88333210  1
  Ta  Ta118  1  0.40749297  0.79705095  0.73973199  1
  Ta  Ta119  1  0.69853898  0.29670517  0.38099057  1
  Ti  Ti120  1  -0.00342825  0.20065072  0.75861759  1
  Ti  Ti121  1  0.21038503  0.79885503  0.01046106  1
  Ti  Ti122  1  0.50204921  0.69744070  0.61250635  1
  Ti  Ti123  1  0.60345047  0.80478670  0.26051145  1
  Ti  Ti124  1  0.58646667  -0.01379648  0.24634789  1
  Ti  Ti125  1  0.79451616  0.20211910  0.24268346  1
  Ti  Ti126  1  0.60796915  0.20020491  0.52065671  1
  Ti  Ti127  1  0.60096556  0.01659049  0.50917162  1
  Ti  Ti128  1  0.40737894  0.60122874  0.76262729  1
  Ti  Ti129  1  0.77947109  0.41106261  -0.01820054  1
  Ti  Ti130  1  0.09758400  0.91232166  0.61706978  1
  Ti  Ti131  1  0.78254474  0.19984409  0.01513276  1
  Ti  Ti132  1  0.79105198  -0.00522039  0.24821437  1
  Ti  Ti133  1  0.60162508  0.59653211  0.49560102  1
  Ti  Ti134  1  0.89709397  0.29376505  0.37782215  1
  Ti  Ti135  1  0.20220224  -0.00172533  0.49418257  1
  Ti  Ti136  1  0.09788072  0.49288223  0.61903987  1
  Ti  Ti137  1  0.09340808  0.10342058  0.39051140  1
  Ti  Ti138  1  0.68424175  0.88883333  0.12614860  1
  Ti  Ti139  1  0.29811330  0.50590985  0.36326533  1
  Ti  Ti140  1  0.69794609  0.10434819  0.36152830  1
  Ti  Ti141  1  0.60413743  0.19706337  0.73929706  1
  Ti  Ti142  1  0.40560977  0.38505361  -0.00065702  1
  Ti  Ti143  1  0.30390666  0.49122766  0.88065987  1
  Ti  Ti144  1  0.49397063  0.48806898  0.87686867  1
  Ti  Ti145  1  0.20138689  0.59972707  0.51119698  1
  Ti  Ti146  1  0.21159113  0.80151021  0.24891834  1
  Ti  Ti147  1  0.60096714  0.80129675  0.73522288  1
  Ti  Ti148  1  0.78942293  0.38638609  0.25249641  1
  Ti  Ti149  1  0.20167744  0.19901808  0.50224280  1
  Ti  Ti150  1  0.69222149  0.09228244  0.13734550  1
  Ti  Ti151  1  0.69515578  0.69316575  0.13161056  1
  Ti  Ti152  1  0.60216595  0.79920014  0.49876861  1
  Ti  Ti153  1  0.80078752  0.59840406  0.74656803  1
  Ti  Ti154  1  0.79400292  0.79573748  0.02076361  1
  Ti  Ti155  1  0.40288395  0.59559709  0.49253033  1
  Ti  Ti156  1  0.89492171  0.10327067  0.37592797  1
  Ti  Ti157  1  0.10733793  0.91037361  0.11166217  1
  Ti  Ti158  1  0.50721486  0.71111392  0.88076349  1
  Ti  Ti159  1  0.19467018  -0.00012267  0.75260622  1
  Mo  Mo160  1  -0.00068274  0.20028242  -0.01282888  1
  Mo  Mo161  1  0.50439204  0.90316091  0.12739184  1
  Mo  Mo162  1  0.50091680  0.10042411  0.63064077  1
  Mo  Mo163  1  0.61001657  0.79790274  0.00614410  1
  Mo  Mo164  1  0.69456691  0.30314751  0.61825208  1
  Mo  Mo165  1  0.79345562  0.79831649  0.50212366  1
  Mo  Mo166  1  -0.00168202  0.00401704  0.48580730  1
  Mo  Mo167  1  0.48802650  0.09200579  0.14590851  1
  Mo  Mo168  1  0.49306897  0.30257104  0.10923345  1
  Mo  Mo169  1  0.69842443  0.29677533  0.88887970  1
  Mo  Mo170  1  0.70521365  0.50416495  0.86063184  1
  Mo  Mo171  1  0.19939222  0.59218555  0.23659567  1
  Mo  Mo172  1  0.89408286  0.70064348  0.63992395  1
  Mo  Mo173  1  0.39752352  0.00368989  -0.01714415  1
  Mo  Mo174  1  0.40793329  0.39640713  0.76346461  1
  Mo  Mo175  1  0.10435887  0.69833101  0.62646704  1
  Mo  Mo176  1  0.40359126  -0.00026033  0.26842903  1
  Mo  Mo177  1  0.89458139  0.50159618  0.86069351  1
  Mo  Mo178  1  0.90221541  0.29591027  0.63810277  1
  Mo  Mo179  1  0.29671013  0.09776601  0.84902733  1
  Mo  Mo180  1  0.60051194  0.40198639  0.49410366  1
  Mo  Mo181  1  0.10321081  0.50101682  0.89131993  1
  Mo  Mo182  1  0.70008485  0.10072282  0.63092129  1
  Mo  Mo183  1  0.60778572  0.40049618  0.25957287  1
  Mo  Mo184  1  0.00577874  0.00555935  0.74657950  1
  Mo  Mo185  1  0.40231435  0.79627638  0.50573944  1
  Mo  Mo186  1  -0.01059816  0.19782867  0.48465648  1
  Mo  Mo187  1  0.88822010  0.90029866  0.14144265  1
  Mo  Mo188  1  0.60048371  0.39937256  -0.01615660  1
  Mo  Mo189  1  0.28588291  0.89361085  0.39239275  1
  Mo  Mo190  1  0.50520316  0.09848672  0.85392208  1
  Mo  Mo191  1  -0.00328867  0.39559715  0.48681589  1
  Mo  Mo192  1  0.79636420  0.80035258  0.72777257  1
  Mo  Mo193  1  0.00673188  -0.00190324  0.00982420  1
  Mo  Mo194  1  0.51823333  0.89990887  0.39459738  1
  Mo  Mo195  1  0.40006331  0.19927254  0.23509801  1
  Mo  Mo196  1  0.20739795  0.40064691  -0.01500292  1
  Mo  Mo197  1  0.60642604  0.60403170  0.26048426  1
  Mo  Mo198  1  0.69773923  0.31570020  0.11154104  1
  Mo  Mo199  1  0.30260078  0.70513613  0.12606369  1
