# generated using pymatgen
data_HfZrTaTiMo
_symmetry_space_group_name_H-M   'P 1'
_cell_length_a   15.82776835
_cell_length_b   15.83992089
_cell_length_c   15.41168174
_cell_angle_alpha   90.03506581
_cell_angle_beta   90.02379139
_cell_angle_gamma   90.00296129
_symmetry_Int_Tables_number   1
_chemical_formula_structural   HfZrTaTiMo
_chemical_formula_sum   'Hf40 Zr40 Ta40 Ti40 Mo40'
_cell_volume   3863.87089190
_cell_formula_units_Z   40
loop_
 _symmetry_equiv_pos_site_id
 _symmetry_equiv_pos_as_xyz
  1  'x, y, z'
loop_
 _atom_site_type_symbol
 _atom_site_label
 _atom_site_symmetry_multiplicity
 _atom_site_fract_x
 _atom_site_fract_y
 _atom_site_fract_z
 _atom_site_occupancy
  Hf  Hf0  1  0.60428436  0.79358439  0.25551726  1
  Hf  Hf1  1  -0.00203986  0.40088753  0.75232106  1
  Hf  Hf2  1  0.60465573  0.20017119  0.26188427  1
  Hf  Hf3  1  0.60329593  0.20987927  0.73131301  1
  Hf  Hf4  1  0.69513841  0.50029563  0.12573647  1
  Hf  Hf5  1  0.30515833  0.90223792  0.13532443  1
  Hf  Hf6  1  0.89397640  0.09396179  0.14743061  1
  Hf  Hf7  1  0.10018386  0.30462919  0.35818444  1
  Hf  Hf8  1  0.90095775  0.49182375  0.62445307  1
  Hf  Hf9  1  0.28995444  0.09666124  0.38758332  1
  Hf  Hf10  1  0.19760609  0.40035443  0.75730227  1
  Hf  Hf11  1  -0.00594833  0.00279503  0.00851459  1
  Hf  Hf12  1  0.91093210  0.69329061  0.35485190  1
  Hf  Hf13  1  0.19358504  0.79534402  0.75718570  1
  Hf  Hf14  1  0.09276204  0.51267598  0.89289841  1
  Hf  Hf15  1  -0.00810398  0.40410639  0.01711771  1
  Hf  Hf16  1  0.29636194  0.29862682  0.37115261  1
  Hf  Hf17  1  0.40573363  0.19792363  0.24680186  1
  Hf  Hf18  1  0.20304723  0.59199714  0.74989391  1
  Hf  Hf19  1  0.80751823  0.80381424  0.01233250  1
  Hf  Hf20  1  0.49751035  0.10449265  0.39647727  1
  Hf  Hf21  1  0.11191893  0.69802150  0.61087660  1
  Hf  Hf22  1  0.60517360  0.00354350  0.27345254  1
  Hf  Hf23  1  0.69912215  0.47676532  0.87912939  1
  Hf  Hf24  1  0.21022603  0.59334057  0.49087311  1
  Hf  Hf25  1  0.71034895  0.90297764  0.86448268  1
  Hf  Hf26  1  0.39004680  0.41657112  0.49192077  1
  Hf  Hf27  1  -0.00227138  0.80090872  0.01721724  1
  Hf  Hf28  1  0.50201457  0.88662003  0.63152733  1
  Hf  Hf29  1  0.60799458  0.19578961  0.00884083  1
  Hf  Hf30  1  0.09566340  0.29384449  0.88706697  1
  Hf  Hf31  1  0.29626979  0.70952969  0.36477653  1
  Hf  Hf32  1  0.70776525  0.68709111  0.88148325  1
  Hf  Hf33  1  0.40483901  0.20708095  0.00874283  1
  Hf  Hf34  1  0.69376461  0.69573439  0.61948491  1
  Hf  Hf35  1  0.79429933  0.79463491  0.24711330  1
  Hf  Hf36  1  0.79844147  0.20029403  0.01821535  1
  Hf  Hf37  1  0.69565754  0.91678596  0.12482037  1
  Hf  Hf38  1  0.28459949  0.31638531  0.61523443  1
  Hf  Hf39  1  0.10282093  0.30810473  0.14201794  1
  Zr  Zr40  1  0.49563306  0.89543825  0.13673453  1
  Zr  Zr41  1  0.39600321  -0.00679835  0.51090871  1
  Zr  Zr42  1  0.18974293  -0.00132273  0.74160617  1
  Zr  Zr43  1  0.20435413  0.19139752  0.01824930  1
  Zr  Zr44  1  0.29535070  0.10721784  0.86303760  1
  Zr  Zr45  1  0.80922674  0.00879161  0.74189372  1
  Zr  Zr46  1  0.59985181  0.80314789  -0.01124708  1
  Zr  Zr47  1  0.30758485  0.31176318  0.13836079  1
  Zr  Zr48  1  0.40278527  0.80571127  -0.02164407  1
  Zr  Zr49  1  0.39924733  0.00209725  -0.01577659  1
  Zr  Zr50  1  0.29046213  0.10036137  0.62229912  1
  Zr  Zr51  1  -0.00023104  0.80001135  0.73719036  1
  Zr  Zr52  1  0.60757706  0.59902179  0.26180213  1
  Zr  Zr53  1  0.90890676  0.69301325  0.88259988  1
  Zr  Zr54  1  0.49451973  0.47909407  0.10984842  1
  Zr  Zr55  1  0.79623328  0.00922512  -0.00193374  1
  Zr  Zr56  1  0.40895577  0.59706784  0.25983741  1
  Zr  Zr57  1  0.51355821  0.31409762  0.88194257  1
  Zr  Zr58  1  0.80126948  0.59369569  0.74659519  1
  Zr  Zr59  1  0.09258207  0.09884995  0.88305784  1
  Zr  Zr60  1  0.50686643  0.08682618  0.12505214  1
  Zr  Zr61  1  0.79958091  0.39479527  0.01897721  1
  Zr  Zr62  1  0.20978196  0.40494862  -0.00343522  1
  Zr  Zr63  1  0.90567631  0.89436538  0.37585093  1
  Zr  Zr64  1  -0.00034949  -0.00410025  0.73504228  1
  Zr  Zr65  1  0.79428528  0.40035962  0.26550002  1
  Zr  Zr66  1  0.81022330  0.59725912  0.48879537  1
  Zr  Zr67  1  0.40802266  0.41433675  0.74371583  1
  Zr  Zr68  1  0.39913634  0.21257938  0.73764313  1
  Zr  Zr69  1  0.88604531  0.30297314  0.87277981  1
  Zr  Zr70  1  0.89554276  0.10290470  0.59547986  1
  Zr  Zr71  1  -0.01159768  0.40626003  0.47470593  1
  Zr  Zr72  1  0.70899377  0.89767854  0.61899566  1
  Zr  Zr73  1  0.69727972  0.48828238  0.61224171  1
  Zr  Zr74  1  0.39905812  0.78686637  0.50439163  1
  Zr  Zr75  1  -0.00756352  0.19777947  0.73850384  1
  Zr  Zr76  1  0.30362534  0.70196667  0.12577990  1
  Zr  Zr77  1  0.50574676  0.69401800  0.11563536  1
  Zr  Zr78  1  0.10819290  0.89736579  0.38215067  1
  Zr  Zr79  1  0.59891984  0.79317988  0.76139374  1
  Ta  Ta80  1  0.60281020  0.00679891  0.74372929  1
  Ta  Ta81  1  0.50180682  0.50800281  0.61043713  1
  Ta  Ta82  1  0.10441763  0.49243933  0.61700816  1
  Ta  Ta83  1  0.29710229  0.69270826  0.87633966  1
  Ta  Ta84  1  0.10299436  0.69517662  0.11932190  1
  Ta  Ta85  1  0.00574082  0.60089595  0.73876661  1
  Ta  Ta86  1  0.20300478  0.80435310  -0.00054317  1
  Ta  Ta87  1  -0.00291730  0.19347791  0.25997051  1
  Ta  Ta88  1  0.69900459  0.88865751  0.39474433  1
  Ta  Ta89  1  0.18533995  0.20829248  0.73650064  1
  Ta  Ta90  1  -0.00934094  0.20258871  0.02177005  1
  Ta  Ta91  1  0.29289394  0.88589181  0.62843160  1
  Ta  Ta92  1  0.60107966  -0.00439827  0.50365584  1
  Ta  Ta93  1  0.50139457  0.30114468  0.39370303  1
  Ta  Ta94  1  0.59097556  0.39857018  0.26955501  1
  Ta  Ta95  1  0.48858238  0.68331626  0.86540822  1
  Ta  Ta96  1  0.19966801  0.00510125  0.24753162  1
  Ta  Ta97  1  0.71416319  0.68384091  0.11202145  1
  Ta  Ta98  1  0.29551109  0.50209843  0.13443676  1
  Ta  Ta99  1  0.29824119  0.89859757  0.37366062  1
  Ta  Ta100  1  0.09792017  0.89734744  0.88961046  1
  Ta  Ta101  1  0.70049346  0.10569535  0.60685897  1
  Ta  Ta102  1  0.79283616  0.19605757  0.26797592  1
  Ta  Ta103  1  0.79151595  0.21487168  0.73270704  1
  Ta  Ta104  1  0.10218099  0.69629377  0.89491679  1
  Ta  Ta105  1  -0.00498881  0.79111087  0.51014326  1
  Ta  Ta106  1  0.40764884  0.40339571  0.26879525  1
  Ta  Ta107  1  0.19210715  0.41078672  0.48005140  1
  Ta  Ta108  1  0.39835171  0.20892814  0.51372395  1
  Ta  Ta109  1  0.08861899  0.30394564  0.60670060  1
  Ta  Ta110  1  0.70185606  0.11553414  0.86153139  1
  Ta  Ta111  1  0.50453009  0.10371533  0.86096186  1
  Ta  Ta112  1  0.79297174  0.00463169  0.27506889  1
  Ta  Ta113  1  0.10262374  0.90284380  0.12862626  1
  Ta  Ta114  1  0.09810939  0.70434788  0.37357937  1
  Ta  Ta115  1  0.90685886  0.90141181  0.87412300  1
  Ta  Ta116  1  0.49677867  0.89378454  0.37871181  1
  Ta  Ta117  1  0.40401799  -0.00745652  0.74870731  1
  Ta  Ta118  1  0.50263662  0.09941601  0.62314403  1
  Ta  Ta119  1  0.89477365  0.52220388  0.14335508  1
  Ti  Ti120  1  0.20422591  -0.00156297  0.00856600  1
  Ti  Ti121  1  0.00019025  0.00115980  0.49055891  1
  Ti  Ti122  1  0.19360128  0.80279836  0.24312054  1
  Ti  Ti123  1  0.81594134  0.79744195  0.73623704  1
  Ti  Ti124  1  0.10188633  0.50548536  0.12894144  1
  Ti  Ti125  1  0.59458576  0.60606249  0.49007169  1
  Ti  Ti126  1  0.59724061  0.00073576  -0.02513144  1
  Ti  Ti127  1  0.79684237  0.20367934  0.47542221  1
  Ti  Ti128  1  0.09615427  0.10435512  0.60252107  1
  Ti  Ti129  1  0.39663755  0.00329155  0.26184667  1
  Ti  Ti130  1  -0.00572674  0.20264490  0.47276837  1
  Ti  Ti131  1  0.90572721  0.90274395  0.14969920  1
  Ti  Ti132  1  0.89803282  0.10782126  0.87567912  1
  Ti  Ti133  1  0.19653581  0.60088149  0.25147417  1
  Ti  Ti134  1  0.18902136  0.20460257  0.49738085  1
  Ti  Ti135  1  0.29642739  0.89902179  0.86281209  1
  Ti  Ti136  1  0.59756516  0.58875489  -0.01057613  1
  Ti  Ti137  1  0.49821122  0.69067158  0.63727317  1
  Ti  Ti138  1  0.09709423  0.09729905  0.13031606  1
  Ti  Ti139  1  0.68830310  0.30227486  0.13876861  1
  Ti  Ti140  1  0.79993975  0.39317943  0.47613457  1
  Ti  Ti141  1  0.00975923  0.00373097  0.26384761  1
  Ti  Ti142  1  0.89098838  0.30259853  0.61081614  1
  Ti  Ti143  1  0.51299365  0.31433407  0.60386217  1
  Ti  Ti144  1  0.69670139  0.50286332  0.38271043  1
  Ti  Ti145  1  0.30247657  0.30018790  0.87393243  1
  Ti  Ti146  1  0.30901354  0.69358062  0.63695351  1
  Ti  Ti147  1  0.61302492  0.39332805  0.73812160  1
  Ti  Ti148  1  0.89747697  0.50491938  0.88009619  1
  Ti  Ti149  1  0.00160942  0.59847369  0.50067378  1
  Ti  Ti150  1  0.39550676  0.59293596  0.00076697  1
  Ti  Ti151  1  0.90191526  0.30318285  0.15235575  1
  Ti  Ti152  1  0.80881494  0.79190222  0.50393541  1
  Ti  Ti153  1  0.10435984  0.89969879  0.60190634  1
  Ti  Ti154  1  0.58901868  0.58033501  0.75711023  1
  Ti  Ti155  1  0.19992141  0.18593934  0.24756439  1
  Ti  Ti156  1  0.31453123  0.50550971  0.87847150  1
  Ti  Ti157  1  0.39809834  0.59899683  0.49638497  1
  Ti  Ti158  1  0.50373054  0.70485097  0.38042979  1
  Ti  Ti159  1  0.08772266  0.51135526  0.35499504  1
  Mo  Mo160  1  -0.00212613  0.59952260  0.02164590  1
  Mo  Mo161  1  -0.00098989  0.40640354  0.24238988  1
  Mo  Mo162  1  0.29726199  0.50715948  0.62569419  1
  Mo  Mo163  1  0.70390652  0.10023225  0.13924763  1
  Mo  Mo164  1  0.90341500  0.69380337  0.62449072  1
  Mo  Mo165  1  0.50149375  0.90335839  0.85273741  1
  Mo  Mo166  1  0.69334936  0.29899118  0.38560912  1
  Mo  Mo167  1  0.39744098  0.40266945  -0.01089343  1
  Mo  Mo168  1  0.70108631  0.29272428  0.87302986  1
  Mo  Mo169  1  0.50183907  0.50487880  0.39205936  1
  Mo  Mo170  1  0.40205025  0.80455215  0.26481424  1
  Mo  Mo171  1  0.59838454  0.79279146  0.49797723  1
  Mo  Mo172  1  0.10114750  0.10128074  0.37990871  1
  Mo  Mo173  1  0.79961818  -0.00243578  0.48844657  1
  Mo  Mo174  1  0.80227771  0.59408843  -0.00271524  1
  Mo  Mo175  1  0.79764870  0.39117036  0.74309059  1
  Mo  Mo176  1  0.00892608  0.60646965  0.23759440  1
  Mo  Mo177  1  0.50660874  0.30296253  0.12923260  1
  Mo  Mo178  1  0.29757943  0.09398007  0.13733447  1
  Mo  Mo179  1  0.60175496  0.38830216  0.00932018  1
  Mo  Mo180  1  0.20134173  0.41549844  0.25794660  1
  Mo  Mo181  1  0.90259758  0.09778137  0.37449699  1
  Mo  Mo182  1  0.59993748  0.40603654  0.48691284  1
  Mo  Mo183  1  0.90095455  0.69924345  0.13590898  1
  Mo  Mo184  1  0.00914285  0.80225802  0.23494258  1
  Mo  Mo185  1  0.20653782  0.60241946  0.00382874  1
  Mo  Mo186  1  0.29561194  0.50503822  0.35637806  1
  Mo  Mo187  1  0.70133998  0.70435723  0.39344508  1
  Mo  Mo188  1  0.90295899  0.89679910  0.60248982  1
  Mo  Mo189  1  0.20263473  0.79666765  0.50248304  1
  Mo  Mo190  1  0.89812048  0.29751548  0.36174149  1
  Mo  Mo191  1  0.50171755  0.50175818  0.88551766  1
  Mo  Mo192  1  0.40259851  0.59834594  0.74319337  1
  Mo  Mo193  1  0.70789379  0.30040088  0.59864872  1
  Mo  Mo194  1  0.19605429  -0.00231751  0.50776876  1
  Mo  Mo195  1  0.59947360  0.20353884  0.51045548  1
  Mo  Mo196  1  0.90376035  0.50430149  0.35468922  1
  Mo  Mo197  1  0.39279243  0.79356344  0.75504535  1
  Mo  Mo198  1  0.79502766  0.60291897  0.26414695  1
  Mo  Mo199  1  0.70007050  0.09638059  0.39827035  1
