# generated using pymatgen
data_HfZrTaTiMo
_symmetry_space_group_name_H-M   'P 1'
_cell_length_a   15.84523479
_cell_length_b   15.82086662
_cell_length_c   15.39485573
_cell_angle_alpha   89.99734780
_cell_angle_beta   89.98445729
_cell_angle_gamma   90.08009620
_symmetry_Int_Tables_number   1
_chemical_formula_structural   HfZrTaTiMo
_chemical_formula_sum   'Hf40 Zr40 Ta40 Ti40 Mo40'
_cell_volume   3859.26081869
_cell_formula_units_Z   40
loop_
 _symmetry_equiv_pos_site_id
 _symmetry_equiv_pos_as_xyz
  1  'x, y, z'
loop_
 _atom_site_type_symbol
 _atom_site_label
 _atom_site_symmetry_multiplicity
 _atom_site_fract_x
 _atom_site_fract_y
 _atom_site_fract_z
 _atom_site_occupancy
  Hf  Hf0  1  0.80620764  0.80395797  0.74896606  1
  Hf  Hf1  1  0.10923601  0.90037817  0.62273807  1
  Hf  Hf2  1  0.70209839  0.49465175  0.12598791  1
  Hf  Hf3  1  0.49452089  0.30858805  0.37639683  1
  Hf  Hf4  1  0.79948227  0.01006133  0.50252207  1
  Hf  Hf5  1  0.00511818  0.80280084  0.49253479  1
  Hf  Hf6  1  0.90984505  0.49435489  0.37027543  1
  Hf  Hf7  1  0.49580585  0.09988678  0.38779104  1
  Hf  Hf8  1  0.00746272  0.59980332  0.77360426  1
  Hf  Hf9  1  0.58666944  0.20618470  0.74285772  1
  Hf  Hf10  1  0.60047243  0.00316669  0.26058076  1
  Hf  Hf11  1  0.90333648  0.91066719  0.36396765  1
  Hf  Hf12  1  0.59873746  0.79970012  -0.01468789  1
  Hf  Hf13  1  0.48652359  0.10789229  0.61504139  1
  Hf  Hf14  1  0.10890471  0.68611770  0.62482316  1
  Hf  Hf15  1  0.60188169  0.79287872  0.74599180  1
  Hf  Hf16  1  0.61549015  0.60119499  0.48241597  1
  Hf  Hf17  1  0.30419795  0.30027844  0.37501794  1
  Hf  Hf18  1  0.19704724  -0.01056341  0.47859711  1
  Hf  Hf19  1  0.09633702  0.28372176  0.63067405  1
  Hf  Hf20  1  0.40698298  0.39605681  0.74837901  1
  Hf  Hf21  1  0.31185940  0.70415193  0.64892114  1
  Hf  Hf22  1  0.90429525  0.91061370  0.89617076  1
  Hf  Hf23  1  0.41105869  0.59694587  -0.00870358  1
  Hf  Hf24  1  0.80920342  0.60937269  0.77449303  1
  Hf  Hf25  1  0.07385359  0.09143249  0.35547500  1
  Hf  Hf26  1  0.29693856  0.89777572  0.11844429  1
  Hf  Hf27  1  0.59533192  0.79338711  0.51321230  1
  Hf  Hf28  1  0.49617192  0.70529519  0.35908603  1
  Hf  Hf29  1  0.68998065  0.09557609  0.86245540  1
  Hf  Hf30  1  -0.00077541  0.41091469  -0.00360911  1
  Hf  Hf31  1  0.79500900  0.79730637  -0.00299377  1
  Hf  Hf32  1  0.29161583  0.48551313  0.88303518  1
  Hf  Hf33  1  0.50646570  0.91306352  0.86276601  1
  Hf  Hf34  1  0.61112861  0.19514870  0.25617251  1
  Hf  Hf35  1  0.28571228  0.09934854  0.61662894  1
  Hf  Hf36  1  0.89927048  0.69502094  0.60693924  1
  Hf  Hf37  1  0.29245429  0.69922455  0.87512545  1
  Hf  Hf38  1  0.48955933  0.89872177  0.37228740  1
  Hf  Hf39  1  0.20258967  0.39125910  0.74324546  1
  Zr  Zr40  1  0.08450906  0.30846326  0.35199848  1
  Zr  Zr41  1  0.79469798  0.40361795  0.49587090  1
  Zr  Zr42  1  0.69370916  0.90330845  0.12883234  1
  Zr  Zr43  1  0.20688774  0.79588811  0.49055702  1
  Zr  Zr44  1  -0.00907236  0.20839747  0.00243596  1
  Zr  Zr45  1  0.39166947  0.38989609  0.00889663  1
  Zr  Zr46  1  0.59855851  0.40844691  0.50205382  1
  Zr  Zr47  1  0.20401661  0.19478353  0.24364962  1
  Zr  Zr48  1  0.60940793  0.20859024  0.50407140  1
  Zr  Zr49  1  -0.00016794  0.79886474  0.74337941  1
  Zr  Zr50  1  0.09741838  0.89373922  0.89928207  1
  Zr  Zr51  1  0.80620330  -0.00030826  0.73648761  1
  Zr  Zr52  1  0.30046685  0.51056328  0.62558953  1
  Zr  Zr53  1  0.00142585  0.19881871  0.77011019  1
  Zr  Zr54  1  0.41597715  0.60132542  0.49903094  1
  Zr  Zr55  1  0.00584646  0.40789033  0.75781199  1
  Zr  Zr56  1  0.09810661  0.10014075  0.62300786  1
  Zr  Zr57  1  0.60733265  0.60412846  -0.02323996  1
  Zr  Zr58  1  0.69972199  0.89839955  0.37957559  1
  Zr  Zr59  1  0.38755811  -0.00364333  0.75039179  1
  Zr  Zr60  1  0.31027601  0.49171573  0.38297574  1
  Zr  Zr61  1  0.38430606  0.20162503  0.76535133  1
  Zr  Zr62  1  -0.00310240  -0.00442129  0.74678937  1
  Zr  Zr63  1  0.18346568  0.41122453  0.50650072  1
  Zr  Zr64  1  0.50553891  0.09172702  0.10983718  1
  Zr  Zr65  1  0.39888786  0.58711016  0.24366536  1
  Zr  Zr66  1  0.70031771  0.69533313  0.13096006  1
  Zr  Zr67  1  0.39787526  0.80054459  0.51370613  1
  Zr  Zr68  1  0.78818788  0.20930573  0.01051994  1
  Zr  Zr69  1  0.51245962  0.49867791  0.12389810  1
  Zr  Zr70  1  -0.01073958  0.37862745  0.51025591  1
  Zr  Zr71  1  0.30045357  0.69582510  0.12275795  1
  Zr  Zr72  1  0.40611747  0.79889948  -0.01031829  1
  Zr  Zr73  1  0.30953471  0.29135608  0.60156080  1
  Zr  Zr74  1  0.01127045  0.61124533  0.00437816  1
  Zr  Zr75  1  0.90451234  0.50634914  0.62193797  1
  Zr  Zr76  1  0.70654196  0.50929525  0.63899673  1
  Zr  Zr77  1  0.51736133  0.29781498  0.12461276  1
  Zr  Zr78  1  0.09924806  0.09346193  0.90267648  1
  Zr  Zr79  1  0.18321152  0.19547841  0.47425061  1
  Ta  Ta80  1  0.60707503  0.59319728  0.26649305  1
  Ta  Ta81  1  0.80065648  0.60112254  0.26365727  1
  Ta  Ta82  1  0.20270231  0.80852038  0.75749706  1
  Ta  Ta83  1  -0.00253194  0.79820526  0.24112030  1
  Ta  Ta84  1  0.50575898  0.70521123  0.13586293  1
  Ta  Ta85  1  0.09986880  0.30289732  0.12484748  1
  Ta  Ta86  1  0.89729667  0.70024190  0.12969358  1
  Ta  Ta87  1  0.38919724  -0.00958189  0.50528934  1
  Ta  Ta88  1  -0.01200012  0.19651444  0.22934343  1
  Ta  Ta89  1  0.11939525  0.30592339  0.88909757  1
  Ta  Ta90  1  0.69793213  0.10445645  0.62891077  1
  Ta  Ta91  1  0.89578126  0.31104846  0.13303230  1
  Ta  Ta92  1  0.21096915  0.40475289  0.23172853  1
  Ta  Ta93  1  0.71208437  0.29495125  0.36378194  1
  Ta  Ta94  1  0.30117223  0.70339809  0.35766538  1
  Ta  Ta95  1  0.88742658  0.10287002  0.88412913  1
  Ta  Ta96  1  0.90210113  0.70107769  0.37445821  1
  Ta  Ta97  1  0.80865842  0.59660655  -0.01181883  1
  Ta  Ta98  1  0.59523574  0.40225257  0.75358455  1
  Ta  Ta99  1  0.19805822  -0.00291031  0.24174683  1
  Ta  Ta100  1  0.88614996  0.30688056  0.86500779  1
  Ta  Ta101  1  0.70839819  0.49054803  0.86855962  1
  Ta  Ta102  1  0.80016811  0.40142196  -0.00042099  1
  Ta  Ta103  1  0.19941822  0.00345557  0.76401627  1
  Ta  Ta104  1  0.59619720  -0.00377120  0.51163298  1
  Ta  Ta105  1  0.19873710  0.59581300  0.24710535  1
  Ta  Ta106  1  0.19487712  0.79738704  0.24366116  1
  Ta  Ta107  1  0.00088902  0.60276228  0.24698825  1
  Ta  Ta108  1  0.78879228  0.00396266  0.00397947  1
  Ta  Ta109  1  0.70186538  0.29842083  0.85879180  1
  Ta  Ta110  1  0.79825284  0.40194022  0.24888325  1
  Ta  Ta111  1  -0.00723215  0.00300575  0.50306843  1
  Ta  Ta112  1  0.50139906  0.29956603  0.88600321  1
  Ta  Ta113  1  0.40250429  0.19375951  0.24480383  1
  Ta  Ta114  1  0.09602387  0.09424500  0.12054792  1
  Ta  Ta115  1  0.29301531  0.09552560  0.89986193  1
  Ta  Ta116  1  0.09463884  0.89964258  0.35457652  1
  Ta  Ta117  1  0.79413055  0.01886115  0.25087762  1
  Ta  Ta118  1  0.80971521  0.21227228  0.51097298  1
  Ta  Ta119  1  0.39556203  0.00290278  0.24288692  1
  Ti  Ti120  1  0.89346654  0.09550397  0.11933745  1
  Ti  Ti121  1  0.71157662  0.30554676  0.64482968  1
  Ti  Ti122  1  0.50564821  0.50990574  0.63343091  1
  Ti  Ti123  1  0.40329840  -0.00354348  -0.00077259  1
  Ti  Ti124  1  0.69989532  0.90225346  0.62358682  1
  Ti  Ti125  1  0.10049785  0.69779210  0.36213397  1
  Ti  Ti126  1  0.89443970  0.90414064  0.12804430  1
  Ti  Ti127  1  0.89929689  0.29412485  0.35378260  1
  Ti  Ti128  1  0.30526263  0.09338171  0.37195564  1
  Ti  Ti129  1  0.60360892  0.20205335  -0.00753468  1
  Ti  Ti130  1  0.21020359  0.21205315  0.01395322  1
  Ti  Ti131  1  0.41334033  0.59698873  0.76754977  1
  Ti  Ti132  1  0.30210146  0.89452409  0.35250247  1
  Ti  Ti133  1  0.19478017  0.59032428  0.00531800  1
  Ti  Ti134  1  0.60928618  0.39578972  -0.01521805  1
  Ti  Ti135  1  0.69453712  0.10173507  0.11740348  1
  Ti  Ti136  1  0.29994573  0.09573914  0.11536201  1
  Ti  Ti137  1  0.20115533  0.60272821  0.48559662  1
  Ti  Ti138  1  0.40121004  0.39520546  0.23363922  1
  Ti  Ti139  1  0.29088298  0.90173947  0.89126839  1
  Ti  Ti140  1  0.88739398  0.11386607  0.36889577  1
  Ti  Ti141  1  0.49206559  0.89839730  0.63762967  1
  Ti  Ti142  1  0.18010378  0.78273675  0.01219204  1
  Ti  Ti143  1  0.09017825  0.90132404  0.12456854  1
  Ti  Ti144  1  0.89867591  0.50578616  0.13039017  1
  Ti  Ti145  1  0.10047001  0.49941539  0.13091017  1
  Ti  Ti146  1  0.91707073  0.71622984  0.89262787  1
  Ti  Ti147  1  0.69871920  0.90931487  0.86639012  1
  Ti  Ti148  1  0.39800322  0.20073616  0.00294275  1
  Ti  Ti149  1  0.59981255  0.60108569  0.76755323  1
  Ti  Ti150  1  0.70675504  0.69245491  0.62369350  1
  Ti  Ti151  1  0.49921642  0.89648704  0.12894585  1
  Ti  Ti152  1  0.79716495  0.79842944  0.49828744  1
  Ti  Ti153  1  0.49943591  0.09960962  0.88170490  1
  Ti  Ti154  1  0.10174662  0.49683134  0.35777146  1
  Ti  Ti155  1  0.19035663  0.59038794  0.76277223  1
  Ti  Ti156  1  0.01412633  0.59257046  0.48795707  1
  Ti  Ti157  1  0.90413395  0.11692631  0.62506701  1
  Ti  Ti158  1  0.60394567  0.79899620  0.25281834  1
  Ti  Ti159  1  0.79970808  0.79990827  0.25326093  1
  Mo  Mo160  1  0.00031417  0.40582652  0.23082143  1
  Mo  Mo161  1  0.70522353  0.10533084  0.39480150  1
  Mo  Mo162  1  0.20120839  -0.00289317  0.01977696  1
  Mo  Mo163  1  0.09981237  0.69705736  0.14284821  1
  Mo  Mo164  1  0.40017423  0.80446374  0.23773952  1
  Mo  Mo165  1  0.80160243  0.40361244  0.75404871  1
  Mo  Mo166  1  0.60472717  0.40139912  0.26574109  1
  Mo  Mo167  1  0.29548924  0.90344041  0.63650154  1
  Mo  Mo168  1  0.50028762  0.30764033  0.61529461  1
  Mo  Mo169  1  0.10980807  0.49883945  0.88951142  1
  Mo  Mo170  1  0.60092567  -0.00021284  -0.00267669  1
  Mo  Mo171  1  0.70629267  0.49536095  0.36406436  1
  Mo  Mo172  1  0.50474839  0.49130867  0.87212310  1
  Mo  Mo173  1  0.80294273  0.60954181  0.47883525  1
  Mo  Mo174  1  0.39507941  0.19584216  0.48252828  1
  Mo  Mo175  1  0.90106055  0.49931923  0.88682990  1
  Mo  Mo176  1  0.79879654  0.19880527  0.23627848  1
  Mo  Mo177  1  0.50274960  0.49380976  0.36154406  1
  Mo  Mo178  1  0.41125122  0.40227892  0.51779797  1
  Mo  Mo179  1  0.89870819  0.90015267  0.60191667  1
  Mo  Mo180  1  0.19760476  0.39808631  0.02109527  1
  Mo  Mo181  1  0.20084252  0.19384620  0.77318291  1
  Mo  Mo182  1  0.70680697  0.70273160  0.87123824  1
  Mo  Mo183  1  0.30527221  0.29026871  0.13884761  1
  Mo  Mo184  1  0.59851296  -0.00005711  0.72338688  1
  Mo  Mo185  1  0.10301120  0.50661300  0.62065910  1
  Mo  Mo186  1  -0.00361140  0.80100832  0.02757094  1
  Mo  Mo187  1  -0.01204736  0.00155860  0.01973732  1
  Mo  Mo188  1  0.79929030  0.20036124  0.74091161  1
  Mo  Mo189  1  0.49835633  0.70248803  0.85686383  1
  Mo  Mo190  1  0.50843282  0.69000507  0.64408502  1
  Mo  Mo191  1  0.70681840  0.70540149  0.36848507  1
  Mo  Mo192  1  0.39824831  0.79945396  0.75946989  1
  Mo  Mo193  1  -0.01022246  -0.00091458  0.23059548  1
  Mo  Mo194  1  0.29630644  0.49656901  0.11528661  1
  Mo  Mo195  1  -0.01842567  0.19166889  0.49000630  1
  Mo  Mo196  1  0.70115724  0.30537649  0.13570247  1
  Mo  Mo197  1  0.10853948  0.70360065  0.87508346  1
  Mo  Mo198  1  0.89504652  0.29733880  0.64607203  1
  Mo  Mo199  1  0.29692175  0.29047654  0.88218712  1
