# generated using pymatgen
data_HfZrTaTiMo
_symmetry_space_group_name_H-M   'P 1'
_cell_length_a   15.82798929
_cell_length_b   15.83069241
_cell_length_c   15.41418807
_cell_angle_alpha   90.00750536
_cell_angle_beta   89.99436251
_cell_angle_gamma   90.12128580
_symmetry_Int_Tables_number   1
_chemical_formula_structural   HfZrTaTiMo
_chemical_formula_sum   'Hf40 Zr40 Ta40 Ti40 Mo40'
_cell_volume   3862.29403340
_cell_formula_units_Z   40
loop_
 _symmetry_equiv_pos_site_id
 _symmetry_equiv_pos_as_xyz
  1  'x, y, z'
loop_
 _atom_site_type_symbol
 _atom_site_label
 _atom_site_symmetry_multiplicity
 _atom_site_fract_x
 _atom_site_fract_y
 _atom_site_fract_z
 _atom_site_occupancy
  Hf  Hf0  1  0.20260827  0.20128529  -0.00481537  1
  Hf  Hf1  1  0.79804948  0.39813390  0.25569432  1
  Hf  Hf2  1  0.30054521  0.29754260  0.63274604  1
  Hf  Hf3  1  0.87904400  0.09842777  0.11424550  1
  Hf  Hf4  1  0.19245525  0.19309747  0.49535708  1
  Hf  Hf5  1  0.30352152  0.49754363  0.38550825  1
  Hf  Hf6  1  0.47790486  0.11095545  0.88232760  1
  Hf  Hf7  1  0.79304283  0.20812726  0.76573190  1
  Hf  Hf8  1  0.09387824  0.31174583  0.12073281  1
  Hf  Hf9  1  0.61385653  0.81886144  0.49224600  1
  Hf  Hf10  1  0.29513894  0.89553380  0.63204274  1
  Hf  Hf11  1  0.89872041  0.09645104  0.87626120  1
  Hf  Hf12  1  0.09097982  0.29122002  0.64544422  1
  Hf  Hf13  1  0.80412841  0.59213445  0.24093763  1
  Hf  Hf14  1  0.09334894  0.09583150  0.87410842  1
  Hf  Hf15  1  0.59153580  0.80197640  0.25660659  1
  Hf  Hf16  1  0.61095967  -0.00161025  0.77144975  1
  Hf  Hf17  1  0.40243637  -0.00845889  0.24105376  1
  Hf  Hf18  1  -0.00992438  0.20097513  0.24271383  1
  Hf  Hf19  1  0.39753075  0.20042611  0.50195213  1
  Hf  Hf20  1  0.20685470  0.59206432  -0.00009780  1
  Hf  Hf21  1  0.12557081  0.71091619  0.13656574  1
  Hf  Hf22  1  0.18727340  0.19535396  0.24104896  1
  Hf  Hf23  1  0.19709079  -0.00519955  0.50428212  1
  Hf  Hf24  1  0.70329627  0.31078963  0.11524213  1
  Hf  Hf25  1  0.30506995  0.30087258  0.36545153  1
  Hf  Hf26  1  -0.01305298  -0.00359359  0.22865576  1
  Hf  Hf27  1  0.80151983  0.58939135  0.50251748  1
  Hf  Hf28  1  0.60807884  0.00537653  0.23474558  1
  Hf  Hf29  1  0.60162804  0.20042325  0.23565175  1
  Hf  Hf30  1  0.40435945  0.79394115  0.75646358  1
  Hf  Hf31  1  0.09438040  0.50388828  0.37218186  1
  Hf  Hf32  1  0.41038913  0.60058276  0.26724633  1
  Hf  Hf33  1  0.60014604  0.19868284  -0.00216632  1
  Hf  Hf34  1  0.39459824  -0.00279133  0.50225076  1
  Hf  Hf35  1  0.78450575  -0.00675440  0.49524275  1
  Hf  Hf36  1  0.38448668  0.40541311  -0.02378577  1
  Hf  Hf37  1  0.19396640  0.40291018  -0.01473163  1
  Hf  Hf38  1  0.10273552  0.50073751  0.64128280  1
  Hf  Hf39  1  0.80585816  0.60291461  0.73102897  1
  Zr  Zr40  1  0.19454066  0.79639207  0.75357552  1
  Zr  Zr41  1  0.60790711  0.60105876  0.73963010  1
  Zr  Zr42  1  0.89945297  0.10715437  0.63014462  1
  Zr  Zr43  1  0.41046341  0.20052513  0.24328359  1
  Zr  Zr44  1  0.72316505  0.70299066  0.88576910  1
  Zr  Zr45  1  0.69832883  0.09882639  0.62809208  1
  Zr  Zr46  1  0.89681650  0.87703322  0.89661217  1
  Zr  Zr47  1  0.30791364  0.49767177  0.13607959  1
  Zr  Zr48  1  -0.00383906  0.40319803  0.77126376  1
  Zr  Zr49  1  0.59095439  0.40447076  0.26494429  1
  Zr  Zr50  1  0.60269606  0.79851973  0.75691478  1
  Zr  Zr51  1  0.01207709  0.80983143  0.24309970  1
  Zr  Zr52  1  0.01046689  0.59579030  0.02321613  1
  Zr  Zr53  1  0.81025788  0.39156441  0.48461443  1
  Zr  Zr54  1  0.29349038  0.87264544  0.12294042  1
  Zr  Zr55  1  0.20445496  0.78433461  -0.02138649  1
  Zr  Zr56  1  0.08255654  0.67847651  0.85909959  1
  Zr  Zr57  1  0.80756016  0.82188172  0.24744375  1
  Zr  Zr58  1  -0.01123542  -0.01601887  0.74797732  1
  Zr  Zr59  1  0.79968775  0.81602742  0.73957762  1
  Zr  Zr60  1  0.20648242  0.39230959  0.77841627  1
  Zr  Zr61  1  -0.00586756  0.22311790  0.48448462  1
  Zr  Zr62  1  0.61331623  0.40747555  0.75773008  1
  Zr  Zr63  1  0.17984394  0.38775793  0.49311192  1
  Zr  Zr64  1  0.59911422  0.20893833  0.76180079  1
  Zr  Zr65  1  0.39614400  0.00479468  0.75349853  1
  Zr  Zr66  1  0.69205186  0.70244186  0.13102905  1
  Zr  Zr67  1  0.70952799  0.70375166  0.37417094  1
  Zr  Zr68  1  0.91251558  0.70038700  0.37749305  1
  Zr  Zr69  1  0.48870094  0.31236650  0.10939104  1
  Zr  Zr70  1  0.29607698  0.08948691  0.36119370  1
  Zr  Zr71  1  0.50489501  0.50593500  0.11569464  1
  Zr  Zr72  1  0.18464963  -0.01981707  0.23340434  1
  Zr  Zr73  1  0.08564416  0.08846018  0.37370008  1
  Zr  Zr74  1  0.50946091  0.10137486  0.38403857  1
  Zr  Zr75  1  0.30476456  0.49265075  0.62133322  1
  Zr  Zr76  1  0.50586931  0.30701309  0.61761552  1
  Zr  Zr77  1  0.51050942  0.90445555  0.62118083  1
  Zr  Zr78  1  0.90452594  0.52562567  0.87641923  1
  Zr  Zr79  1  0.49670181  0.89165046  0.11604378  1
  Ta  Ta80  1  0.90131795  0.29895033  0.89062534  1
  Ta  Ta81  1  0.09306124  0.89596794  0.62197625  1
  Ta  Ta82  1  0.89774695  0.30231236  0.63720730  1
  Ta  Ta83  1  0.50104939  0.70168007  0.39346416  1
  Ta  Ta84  1  0.80466984  0.59834512  0.02284404  1
  Ta  Ta85  1  0.29776291  0.90448157  0.87776652  1
  Ta  Ta86  1  0.38978910  0.00158047  0.00352706  1
  Ta  Ta87  1  0.19538440  -0.00130390  0.00274780  1
  Ta  Ta88  1  0.49008467  0.69935851  0.12170108  1
  Ta  Ta89  1  0.29808939  0.10077210  0.12128422  1
  Ta  Ta90  1  0.50116857  0.70059424  0.60750646  1
  Ta  Ta91  1  0.09248764  0.89528231  0.88497520  1
  Ta  Ta92  1  0.50401919  0.49678983  0.61275424  1
  Ta  Ta93  1  0.00563522  0.59810728  0.23693573  1
  Ta  Ta94  1  0.41057811  0.40265608  0.76044479  1
  Ta  Ta95  1  0.88834632  0.09818099  0.37153142  1
  Ta  Ta96  1  0.60089124  0.80020927  -0.00348416  1
  Ta  Ta97  1  0.60159115  0.59526826  0.26749226  1
  Ta  Ta98  1  0.21260451  0.60943668  0.25877383  1
  Ta  Ta99  1  0.79263594  0.19666716  0.24786712  1
  Ta  Ta100  1  0.70946142  0.30809421  0.61689204  1
  Ta  Ta101  1  0.90472912  0.70507814  0.60929188  1
  Ta  Ta102  1  0.50057152  0.51048760  0.87804420  1
  Ta  Ta103  1  0.89555478  0.30160222  0.11162895  1
  Ta  Ta104  1  0.09825444  0.09835478  0.63834633  1
  Ta  Ta105  1  0.29850387  0.30478952  0.13149375  1
  Ta  Ta106  1  0.10492951  0.69745476  0.37631486  1
  Ta  Ta107  1  0.49844638  0.90370435  0.37719489  1
  Ta  Ta108  1  0.60737094  0.40885085  -0.01477113  1
  Ta  Ta109  1  0.41103266  0.60029745  0.73705096  1
  Ta  Ta110  1  0.70259537  0.70767222  0.61068740  1
  Ta  Ta111  1  0.60685035  0.59634549  0.49851777  1
  Ta  Ta112  1  0.90732229  0.91061269  0.38473926  1
  Ta  Ta113  1  0.30129844  0.69482839  0.62127250  1
  Ta  Ta114  1  0.50151071  0.10329935  0.62534090  1
  Ta  Ta115  1  0.20184697  0.79723863  0.49534661  1
  Ta  Ta116  1  0.00440523  0.59332665  0.51019856  1
  Ta  Ta117  1  0.49558410  0.90076441  0.89075688  1
  Ta  Ta118  1  0.78535027  -0.00004843  -0.01534625  1
  Ta  Ta119  1  0.19564177  0.40282343  0.25343806  1
  Ti  Ti120  1  0.80325244  0.80755660  0.49575651  1
  Ti  Ti121  1  0.50132596  0.69362705  0.88111014  1
  Ti  Ti122  1  0.00647147  0.40644285  -0.01067464  1
  Ti  Ti123  1  -0.00957700  0.78997745  0.74407591  1
  Ti  Ti124  1  0.90463194  0.71532615  0.11878830  1
  Ti  Ti125  1  0.70673069  0.51023700  0.88379794  1
  Ti  Ti126  1  0.79681414  0.40401295  0.75775306  1
  Ti  Ti127  1  0.59779669  0.00528975  0.00187131  1
  Ti  Ti128  1  0.38738910  0.78846386  0.27079387  1
  Ti  Ti129  1  0.30054485  0.52388029  0.85306917  1
  Ti  Ti130  1  0.19933456  0.19235658  0.76546164  1
  Ti  Ti131  1  0.00210850  0.19765384  0.00641020  1
  Ti  Ti132  1  0.78960040  0.20047553  -0.01036230  1
  Ti  Ti133  1  0.60690999  0.20295231  0.50199025  1
  Ti  Ti134  1  0.09986975  0.69998854  0.62456675  1
  Ti  Ti135  1  0.89710790  0.90153999  0.61312277  1
  Ti  Ti136  1  0.00589175  0.80047236  0.50021060  1
  Ti  Ti137  1  0.69805326  0.09812132  0.37620396  1
  Ti  Ti138  1  0.39604191  0.78856985  -0.01330763  1
  Ti  Ti139  1  -0.00308466  0.00482816  0.50851856  1
  Ti  Ti140  1  0.90771800  0.49969324  0.37352761  1
  Ti  Ti141  1  0.09918191  0.89549876  0.38476342  1
  Ti  Ti142  1  0.90738959  0.48504613  0.12558824  1
  Ti  Ti143  1  0.39368935  0.60806723  -0.00699559  1
  Ti  Ti144  1  0.19828540  0.60356197  0.50384286  1
  Ti  Ti145  1  0.39440246  0.80138285  0.49506861  1
  Ti  Ti146  1  0.49993094  0.30507154  0.87971188  1
  Ti  Ti147  1  -0.00141489  -0.00447876  0.01264523  1
  Ti  Ti148  1  0.60854507  0.40705584  0.48716873  1
  Ti  Ti149  1  0.29399021  0.10341444  0.63826367  1
  Ti  Ti150  1  -0.00284595  0.39573646  0.25626951  1
  Ti  Ti151  1  0.80075532  0.20133793  0.49352510  1
  Ti  Ti152  1  0.60454375  0.60310756  0.00156050  1
  Ti  Ti153  1  0.80352235  0.40910057  -0.00448689  1
  Ti  Ti154  1  0.32338804  0.26773385  0.86538630  1
  Ti  Ti155  1  0.19389039  -0.00357741  0.75622142  1
  Ti  Ti156  1  0.70886246  0.90753372  0.11572992  1
  Ti  Ti157  1  0.40592181  0.59679176  0.50214210  1
  Ti  Ti158  1  0.90441183  0.48860118  0.62391307  1
  Ti  Ti159  1  0.69566190  0.29199092  0.37574079  1
  Mo  Mo160  1  0.70337002  0.50187020  0.37857759  1
  Mo  Mo161  1  0.00414683  0.79426309  0.01077185  1
  Mo  Mo162  1  0.49311970  0.09757635  0.10811314  1
  Mo  Mo163  1  0.40024816  0.40014928  0.26720190  1
  Mo  Mo164  1  -0.00503628  0.60714364  0.72428043  1
  Mo  Mo165  1  -0.00345182  0.20144802  0.75983501  1
  Mo  Mo166  1  -0.00607328  0.40636904  0.49917107  1
  Mo  Mo167  1  0.79290565  -0.00070059  0.76918017  1
  Mo  Mo168  1  0.70434452  0.49260590  0.61602873  1
  Mo  Mo169  1  0.89937075  0.69807227  0.88701412  1
  Mo  Mo170  1  0.09507395  0.09978919  0.10786427  1
  Mo  Mo171  1  0.69261467  0.89749489  0.89452335  1
  Mo  Mo172  1  0.69521723  0.10171137  0.88107761  1
  Mo  Mo173  1  0.89273256  0.90264079  0.10781843  1
  Mo  Mo174  1  0.10411387  0.50031405  0.14643440  1
  Mo  Mo175  1  0.20611120  0.60243708  0.73582632  1
  Mo  Mo176  1  0.79577775  0.00661742  0.25799007  1
  Mo  Mo177  1  0.89400397  0.29401763  0.35805560  1
  Mo  Mo178  1  0.70859530  0.31145816  0.89137833  1
  Mo  Mo179  1  0.59709594  0.00707511  0.49599398  1
  Mo  Mo180  1  0.31567751  0.69456960  0.12973506  1
  Mo  Mo181  1  0.70171608  0.50086575  0.11339303  1
  Mo  Mo182  1  0.29205532  0.09288857  0.87647139  1
  Mo  Mo183  1  0.30314867  0.69271355  0.40380898  1
  Mo  Mo184  1  0.39951781  0.20094104  0.73332268  1
  Mo  Mo185  1  0.08877326  0.29051548  0.88059931  1
  Mo  Mo186  1  0.50337242  0.50198819  0.39475614  1
  Mo  Mo187  1  0.79722790  0.79912324  0.02045633  1
  Mo  Mo188  1  0.30122156  0.89145251  0.37487195  1
  Mo  Mo189  1  0.39364963  0.20149049  0.01482595  1
  Mo  Mo190  1  0.09552109  0.89549113  0.09889061  1
  Mo  Mo191  1  0.31105433  0.69373504  0.85532700  1
  Mo  Mo192  1  0.50597091  0.30266766  0.39110017  1
  Mo  Mo193  1  0.09552764  0.30314480  0.35728465  1
  Mo  Mo194  1  0.69793407  0.10218384  0.11076125  1
  Mo  Mo195  1  0.70136191  0.91292915  0.36079590  1
  Mo  Mo196  1  0.40980790  0.39845435  0.48877595  1
  Mo  Mo197  1  0.10563550  0.50184781  0.86158865  1
  Mo  Mo198  1  0.70782999  0.90302125  0.62753045  1
  Mo  Mo199  1  0.21033881  0.79359844  0.27938298  1
