# generated using pymatgen
data_HfZrTaTiMo
_symmetry_space_group_name_H-M   'P 1'
_cell_length_a   15.84018757
_cell_length_b   15.82687138
_cell_length_c   15.40051206
_cell_angle_alpha   90.00433508
_cell_angle_beta   90.02494759
_cell_angle_gamma   89.99625510
_symmetry_Int_Tables_number   1
_chemical_formula_structural   HfZrTaTiMo
_chemical_formula_sum   'Hf40 Zr40 Ta40 Ti40 Mo40'
_cell_volume   3860.91740157
_cell_formula_units_Z   40
loop_
 _symmetry_equiv_pos_site_id
 _symmetry_equiv_pos_as_xyz
  1  'x, y, z'
loop_
 _atom_site_type_symbol
 _atom_site_label
 _atom_site_symmetry_multiplicity
 _atom_site_fract_x
 _atom_site_fract_y
 _atom_site_fract_z
 _atom_site_occupancy
  Hf  Hf0  1  0.29650909  0.90849168  0.61975383  1
  Hf  Hf1  1  0.20855189  0.39471005  0.26338559  1
  Hf  Hf2  1  0.48352156  0.89989544  0.37792646  1
  Hf  Hf3  1  0.41001492  0.19916294  0.49582217  1
  Hf  Hf4  1  0.19506203  0.81203267  0.49004725  1
  Hf  Hf5  1  0.20007464  0.80411291  -0.00669250  1
  Hf  Hf6  1  0.21043167  0.00318871  0.76734408  1
  Hf  Hf7  1  -0.00929093  0.59722951  0.01883675  1
  Hf  Hf8  1  0.20592099  -0.00029553  -0.00759528  1
  Hf  Hf9  1  0.77819666  0.78139003  0.49990101  1
  Hf  Hf10  1  0.60059343  0.39632212  0.25359464  1
  Hf  Hf11  1  0.09895534  0.49254418  0.13323269  1
  Hf  Hf12  1  0.88428576  0.47518751  0.63718904  1
  Hf  Hf13  1  0.60130751  0.60273391  -0.00472823  1
  Hf  Hf14  1  0.10081876  0.28753673  0.13964147  1
  Hf  Hf15  1  0.61330904  0.21085579  0.49987427  1
  Hf  Hf16  1  0.80854629  -0.01104269  -0.00216130  1
  Hf  Hf17  1  0.39866916  0.80920768  -0.00126775  1
  Hf  Hf18  1  0.52175434  0.51039060  0.62910598  1
  Hf  Hf19  1  -0.01649366  0.80562219  0.25303038  1
  Hf  Hf20  1  0.29428677  0.68904539  0.87383223  1
  Hf  Hf21  1  0.39652340  0.60913332  0.22709009  1
  Hf  Hf22  1  0.09814266  0.71006538  0.13364621  1
  Hf  Hf23  1  -0.00075118  0.59957959  0.73259800  1
  Hf  Hf24  1  0.29237124  0.29965624  0.61013762  1
  Hf  Hf25  1  0.80830637  0.20470459  0.51157713  1
  Hf  Hf26  1  0.40474953  0.21148624  0.26609586  1
  Hf  Hf27  1  0.51004378  0.51679049  0.37921918  1
  Hf  Hf28  1  0.30060738  0.51592569  0.37871615  1
  Hf  Hf29  1  0.61068356  0.20261454  0.00464122  1
  Hf  Hf30  1  0.41285877  0.62219706  0.50604153  1
  Hf  Hf31  1  0.21225836  -0.01298133  0.26518431  1
  Hf  Hf32  1  0.51698401  0.30576243  0.87393050  1
  Hf  Hf33  1  0.41318361  0.39819325  0.48369669  1
  Hf  Hf34  1  0.68973757  0.88830975  0.63087522  1
  Hf  Hf35  1  0.78842276  0.58860931  0.00783576  1
  Hf  Hf36  1  0.29908053  0.70964834  0.62669418  1
  Hf  Hf37  1  0.70485729  0.09801091  0.85983040  1
  Hf  Hf38  1  0.18355524  0.81066167  0.75972418  1
  Hf  Hf39  1  0.08954388  0.50572793  0.37256410  1
  Zr  Zr40  1  0.51411265  0.31439646  0.62616496  1
  Zr  Zr41  1  0.78702851  0.80020183  0.26522331  1
  Zr  Zr42  1  0.59867908  0.59852390  0.22905352  1
  Zr  Zr43  1  0.79375284  0.57749540  0.51402847  1
  Zr  Zr44  1  0.00713926  -0.00801468  0.49885092  1
  Zr  Zr45  1  0.30324961  0.50138130  0.61260506  1
  Zr  Zr46  1  0.20628545  0.40800058  -0.00166397  1
  Zr  Zr47  1  0.89975366  0.09198341  0.86033181  1
  Zr  Zr48  1  0.89826512  0.69185490  0.86488087  1
  Zr  Zr49  1  0.51048541  0.09653660  0.37036193  1
  Zr  Zr50  1  0.70274135  0.09629438  0.12972463  1
  Zr  Zr51  1  0.29772513  0.10474645  0.13675731  1
  Zr  Zr52  1  0.40833257  0.41075741  0.00359687  1
  Zr  Zr53  1  0.30276819  0.29789366  0.12347357  1
  Zr  Zr54  1  0.09731561  0.50881948  0.88507711  1
  Zr  Zr55  1  0.01151167  -0.01473474  0.73031287  1
  Zr  Zr56  1  0.19837456  0.39917832  0.76166348  1
  Zr  Zr57  1  0.89821149  0.26454132  0.35521979  1
  Zr  Zr58  1  0.39594724  0.80633005  0.76621634  1
  Zr  Zr59  1  0.19809073  0.19514519  -0.00789821  1
  Zr  Zr60  1  0.20187089  0.20028697  0.75822738  1
  Zr  Zr61  1  0.51317179  0.91364026  0.86861359  1
  Zr  Zr62  1  0.39678935  0.41075754  0.75825864  1
  Zr  Zr63  1  0.09783525  0.48929286  0.60956805  1
  Zr  Zr64  1  0.89858830  0.49387473  0.86783231  1
  Zr  Zr65  1  0.09826704  0.90803581  0.13386998  1
  Zr  Zr66  1  0.79693644  0.38740751  -0.00613459  1
  Zr  Zr67  1  0.89226669  0.68463611  0.38111609  1
  Zr  Zr68  1  0.09254775  0.29298881  0.60387325  1
  Zr  Zr69  1  0.19568805  0.60182232  0.74035531  1
  Zr  Zr70  1  0.40022378  0.20153242  0.74363866  1
  Zr  Zr71  1  0.40718805  0.40724807  0.25131116  1
  Zr  Zr72  1  0.30268014  0.72056068  0.36965957  1
  Zr  Zr73  1  -0.01889755  0.81311350  0.00280699  1
  Zr  Zr74  1  0.08444690  0.10323511  0.87495504  1
  Zr  Zr75  1  -0.03071937  0.39215733  0.48190531  1
  Zr  Zr76  1  0.40069148  0.60095863  0.00764161  1
  Zr  Zr77  1  0.50856342  0.10583060  0.86351152  1
  Zr  Zr78  1  0.78863002  0.79574219  -0.01884746  1
  Zr  Zr79  1  0.60393053  0.00580523  0.50763695  1
  Ta  Ta80  1  0.40567847  0.00734976  0.00826278  1
  Ta  Ta81  1  0.70964541  0.29965717  0.13957203  1
  Ta  Ta82  1  0.79976651  0.59824113  0.23306126  1
  Ta  Ta83  1  0.20153101  0.00433455  0.48320060  1
  Ta  Ta84  1  0.29810364  0.10060409  0.61261480  1
  Ta  Ta85  1  -0.00975883  0.59849143  0.24110697  1
  Ta  Ta86  1  0.90040137  0.88295616  0.61484641  1
  Ta  Ta87  1  0.62613683  0.21249159  0.73668830  1
  Ta  Ta88  1  0.11286165  0.09764218  0.61420224  1
  Ta  Ta89  1  0.08666487  0.30015480  0.88466713  1
  Ta  Ta90  1  -0.00952229  0.19621267  0.01591010  1
  Ta  Ta91  1  0.08744631  0.71589995  0.60838313  1
  Ta  Ta92  1  0.50433713  0.71793965  0.11926933  1
  Ta  Ta93  1  0.09315608  0.70015960  0.37228624  1
  Ta  Ta94  1  0.59230364  0.80813669  0.25278702  1
  Ta  Ta95  1  0.79926494  0.00138386  0.50593915  1
  Ta  Ta96  1  0.20921155  0.60247386  0.02191463  1
  Ta  Ta97  1  0.19966518  0.60749310  0.24339552  1
  Ta  Ta98  1  -0.00690716  0.59762262  0.50640527  1
  Ta  Ta99  1  -0.00614569  0.39483467  0.25283814  1
  Ta  Ta100  1  0.71084990  0.50778597  0.36260082  1
  Ta  Ta101  1  0.80140320  -0.00659975  0.26367371  1
  Ta  Ta102  1  0.69402130  0.70958418  0.12587796  1
  Ta  Ta103  1  0.19250220  0.60938468  0.49856662  1
  Ta  Ta104  1  0.61476368  0.61536053  0.49892652  1
  Ta  Ta105  1  0.90833645  0.10035943  0.62117793  1
  Ta  Ta106  1  0.49839095  0.70918171  0.36109247  1
  Ta  Ta107  1  0.38751065  0.81724107  0.22803533  1
  Ta  Ta108  1  0.60501259  -0.00369970  0.24876085  1
  Ta  Ta109  1  0.50898889  0.29402133  0.12321585  1
  Ta  Ta110  1  0.90275006  0.28362631  0.86691715  1
  Ta  Ta111  1  0.58655772  0.79277375  0.49648575  1
  Ta  Ta112  1  0.30885491  0.29586510  0.88689150  1
  Ta  Ta113  1  0.09577861  0.28652624  0.36887393  1
  Ta  Ta114  1  0.78485402  0.38461993  0.76861811  1
  Ta  Ta115  1  0.61057699  0.40962352  0.01062403  1
  Ta  Ta116  1  0.69898491  0.89514664  0.12543091  1
  Ta  Ta117  1  0.49648332  0.89883591  0.63271647  1
  Ta  Ta118  1  0.80391946  -0.00579991  0.72671187  1
  Ta  Ta119  1  -0.00757146  0.38754843  0.01009667  1
  Ti  Ti120  1  0.60322482  0.00313558  0.00743604  1
  Ti  Ti121  1  0.09143403  0.69688170  0.88620118  1
  Ti  Ti122  1  0.51087867  0.70925407  0.63887717  1
  Ti  Ti123  1  0.50783860  0.50632416  0.86834564  1
  Ti  Ti124  1  -0.01216498  0.00059222  0.26079308  1
  Ti  Ti125  1  0.80080934  0.39477171  0.26358294  1
  Ti  Ti126  1  0.50968162  0.90706798  0.11836567  1
  Ti  Ti127  1  0.71649022  0.10797991  0.36892111  1
  Ti  Ti128  1  0.89808487  0.09648793  0.14083258  1
  Ti  Ti129  1  0.70596607  0.90588011  0.85602793  1
  Ti  Ti130  1  0.20030116  0.39777758  0.47850229  1
  Ti  Ti131  1  0.39545921  0.00642235  0.75394198  1
  Ti  Ti132  1  0.07842938  0.90361963  0.88424224  1
  Ti  Ti133  1  0.00026824  0.38962146  0.75378225  1
  Ti  Ti134  1  -0.00481707  0.79869356  0.74879765  1
  Ti  Ti135  1  0.30947181  0.09518550  0.37474060  1
  Ti  Ti136  1  0.40878276  0.60572870  0.75526758  1
  Ti  Ti137  1  0.62257667  0.41056789  0.48517996  1
  Ti  Ti138  1  0.68956217  0.90170838  0.38473089  1
  Ti  Ti139  1  0.09960086  0.09867252  0.14176484  1
  Ti  Ti140  1  0.60117302  0.78915612  0.76671158  1
  Ti  Ti141  1  0.41035502  0.19327062  0.00452508  1
  Ti  Ti142  1  0.88671350  0.71177966  0.12476779  1
  Ti  Ti143  1  0.09381938  0.89354438  0.36663122  1
  Ti  Ti144  1  -0.00750259  0.00415748  0.01312998  1
  Ti  Ti145  1  0.60443099  0.20166330  0.25565248  1
  Ti  Ti146  1  0.60287775  0.79999819  -0.01713384  1
  Ti  Ti147  1  0.71502273  0.32543346  0.61958162  1
  Ti  Ti148  1  0.40178423  0.00261886  0.50751873  1
  Ti  Ti149  1  0.89194821  0.48294532  0.13389742  1
  Ti  Ti150  1  0.89338205  0.89644772  0.39554900  1
  Ti  Ti151  1  0.89687870  0.28970465  0.13778738  1
  Ti  Ti152  1  0.08592864  0.10550011  0.36844555  1
  Ti  Ti153  1  0.40898633  0.00174536  0.23355050  1
  Ti  Ti154  1  0.79754571  0.79077235  0.74935156  1
  Ti  Ti155  1  0.80665383  0.19487273  0.00510433  1
  Ti  Ti156  1  0.20232523  0.19404633  0.47801803  1
  Ti  Ti157  1  0.00184993  0.20145688  0.73453528  1
  Ti  Ti158  1  0.50847298  0.09607810  0.63687010  1
  Ti  Ti159  1  0.89145072  0.69728523  0.62325225  1
  Mo  Mo160  1  0.59798959  0.60508917  0.76659873  1
  Mo  Mo161  1  0.69959701  0.69369067  0.86171500  1
  Mo  Mo162  1  0.68549970  0.69435424  0.36242703  1
  Mo  Mo163  1  0.29556223  0.50457952  0.14063244  1
  Mo  Mo164  1  0.30221230  0.90644175  0.11438510  1
  Mo  Mo165  1  0.30853164  0.91083505  0.38564443  1
  Mo  Mo166  1  0.89420185  0.89736494  0.84656614  1
  Mo  Mo167  1  0.89860175  0.08465380  0.37950446  1
  Mo  Mo168  1  0.88759839  0.90996270  0.13450204  1
  Mo  Mo169  1  0.70672467  0.49222287  0.13816106  1
  Mo  Mo170  1  0.31656436  0.10439583  0.88631507  1
  Mo  Mo171  1  0.30575687  0.90846910  0.88574004  1
  Mo  Mo172  1  0.60507795  0.00223395  0.73288102  1
  Mo  Mo173  1  -0.00838394  0.79423878  0.49212800  1
  Mo  Mo174  1  0.68968453  0.69176039  0.64436687  1
  Mo  Mo175  1  0.29454834  0.71254084  0.12862698  1
  Mo  Mo176  1  0.00044202  0.18787328  0.23500706  1
  Mo  Mo177  1  0.70317254  0.29804128  0.36531557  1
  Mo  Mo178  1  0.79060665  0.59532567  0.73833082  1
  Mo  Mo179  1  0.19918043  0.19037850  0.27412660  1
  Mo  Mo180  1  0.70608994  0.10082399  0.63138210  1
  Mo  Mo181  1  0.10398826  0.89700534  0.61961042  1
  Mo  Mo182  1  0.70548264  0.28929302  0.88188197  1
  Mo  Mo183  1  0.50495828  0.10160994  0.13484505  1
  Mo  Mo184  1  0.50191855  0.70163309  0.87963823  1
  Mo  Mo185  1  0.29796961  0.29737584  0.38688620  1
  Mo  Mo186  1  0.89874098  0.29696017  0.64045778  1
  Mo  Mo187  1  0.51206394  0.30442583  0.38184072  1
  Mo  Mo188  1  0.50532672  0.49770362  0.11916345  1
  Mo  Mo189  1  0.60529714  0.40187168  0.75965223  1
  Mo  Mo190  1  0.69337589  0.49434668  0.64117758  1
  Mo  Mo191  1  0.19621360  0.80266946  0.26243817  1
  Mo  Mo192  1  0.69309781  0.49569654  0.86234873  1
  Mo  Mo193  1  0.89645807  0.49843043  0.35607896  1
  Mo  Mo194  1  0.40709955  0.80622864  0.51353310  1
  Mo  Mo195  1  0.30394401  0.50264125  0.86829950  1
  Mo  Mo196  1  0.00430083  0.18965562  0.50597109  1
  Mo  Mo197  1  0.80545045  0.20038601  0.73274085  1
  Mo  Mo198  1  0.78979140  0.39077308  0.48126124  1
  Mo  Mo199  1  0.79582655  0.18902759  0.24314190  1
