# generated using pymatgen
data_HfZrTaTiMo
_symmetry_space_group_name_H-M   'P 1'
_cell_length_a   15.84155420
_cell_length_b   15.84846920
_cell_length_c   15.41626362
_cell_angle_alpha   90.04330173
_cell_angle_beta   89.92783813
_cell_angle_gamma   89.88438089
_symmetry_Int_Tables_number   1
_chemical_formula_structural   HfZrTaTiMo
_chemical_formula_sum   'Hf40 Zr40 Ta40 Ti40 Mo40'
_cell_volume   3870.46266491
_cell_formula_units_Z   40
loop_
 _symmetry_equiv_pos_site_id
 _symmetry_equiv_pos_as_xyz
  1  'x, y, z'
loop_
 _atom_site_type_symbol
 _atom_site_label
 _atom_site_symmetry_multiplicity
 _atom_site_fract_x
 _atom_site_fract_y
 _atom_site_fract_z
 _atom_site_occupancy
  Hf  Hf0  1  0.19422639  0.79861197  0.26046085  1
  Hf  Hf1  1  -0.00149663  0.79606964  0.26329015  1
  Hf  Hf2  1  0.09779506  0.89912041  0.62944408  1
  Hf  Hf3  1  0.39436989  0.22018863  0.24371691  1
  Hf  Hf4  1  0.22022572  0.81778216  0.76330350  1
  Hf  Hf5  1  0.10507948  0.70096329  0.63616985  1
  Hf  Hf6  1  0.89683701  0.29440781  0.11484046  1
  Hf  Hf7  1  0.69895592  0.70752374  0.88988588  1
  Hf  Hf8  1  0.51097481  0.90791146  0.37244766  1
  Hf  Hf9  1  -0.00131173  0.79510917  0.48790829  1
  Hf  Hf10  1  0.09716878  0.70720310  0.11015530  1
  Hf  Hf11  1  0.11590120  0.49124763  0.64203047  1
  Hf  Hf12  1  0.10236271  0.29383339  0.62404473  1
  Hf  Hf13  1  0.38653059  -0.00829957  0.75554399  1
  Hf  Hf14  1  0.69208269  0.29941856  0.87655416  1
  Hf  Hf15  1  0.31762835  0.49442297  0.87601928  1
  Hf  Hf16  1  0.40122760  0.80000289  0.25317780  1
  Hf  Hf17  1  0.42331698  0.60368196  0.22622227  1
  Hf  Hf18  1  0.39431127  0.01848789  0.25165469  1
  Hf  Hf19  1  0.40179883  0.80078745  0.48895920  1
  Hf  Hf20  1  0.30224662  0.32193112  0.39184237  1
  Hf  Hf21  1  0.89193119  0.48622970  0.63514089  1
  Hf  Hf22  1  0.89773491  0.90459702  0.62339252  1
  Hf  Hf23  1  0.40842252  0.00310284  -0.00043493  1
  Hf  Hf24  1  0.00050733  0.39959156  0.50361890  1
  Hf  Hf25  1  0.59611211  0.59914991  0.75254548  1
  Hf  Hf26  1  0.80468475  0.80465683  0.75451852  1
  Hf  Hf27  1  0.60691244  0.79724843  0.74220840  1
  Hf  Hf28  1  0.10226924  0.49661578  0.11248278  1
  Hf  Hf29  1  0.60028577  0.00574769  0.00684157  1
  Hf  Hf30  1  0.88400315  0.49209104  0.87490833  1
  Hf  Hf31  1  0.29367447  0.90583924  0.12683434  1
  Hf  Hf32  1  0.78325030  0.79828992  0.50535512  1
  Hf  Hf33  1  -0.00616736  0.60431692  0.76200118  1
  Hf  Hf34  1  0.29436466  0.91490911  0.37765195  1
  Hf  Hf35  1  0.09591479  0.09612674  0.87150343  1
  Hf  Hf36  1  -0.00124952  0.59938432  -0.01329604  1
  Hf  Hf37  1  0.69698592  0.28122254  0.38387518  1
  Hf  Hf38  1  0.70937025  0.30558465  0.62343888  1
  Hf  Hf39  1  0.50275967  0.89938668  0.61434877  1
  Zr  Zr40  1  0.50256193  0.31659074  0.61582850  1
  Zr  Zr41  1  0.10564637  0.28879248  0.39090823  1
  Zr  Zr42  1  0.09029133  0.09198212  0.10536437  1
  Zr  Zr43  1  0.09981048  0.09116153  0.63338853  1
  Zr  Zr44  1  0.28807949  0.10809354  0.11050253  1
  Zr  Zr45  1  0.48908858  0.50828456  0.38005097  1
  Zr  Zr46  1  0.21493522  0.60187720  0.76548431  1
  Zr  Zr47  1  0.09416333  0.90212044  0.11785333  1
  Zr  Zr48  1  0.19468777  0.78789798  0.48846165  1
  Zr  Zr49  1  0.90453787  0.69855455  0.62155363  1
  Zr  Zr50  1  0.30203318  0.70536333  0.11155963  1
  Zr  Zr51  1  0.79373503  0.19268393  0.24002081  1
  Zr  Zr52  1  0.00535802  0.38664477  0.76417114  1
  Zr  Zr53  1  0.58712472  0.20268265  0.01013207  1
  Zr  Zr54  1  0.79130803  0.00548586  0.01003062  1
  Zr  Zr55  1  0.29211190  0.91329775  0.60711349  1
  Zr  Zr56  1  0.70783478  0.69939534  0.12337768  1
  Zr  Zr57  1  0.20349165  0.59415541  0.23809417  1
  Zr  Zr58  1  0.31135760  0.69836361  0.62637230  1
  Zr  Zr59  1  0.49990080  0.10786025  0.86056016  1
  Zr  Zr60  1  0.87850217  0.09633553  0.86535100  1
  Zr  Zr61  1  0.01151662  0.38450019  0.24415095  1
  Zr  Zr62  1  0.09910639  0.70981119  0.87647969  1
  Zr  Zr63  1  0.78759726  0.60644972  0.75101237  1
  Zr  Zr64  1  0.20546102  0.38655869  -0.01105240  1
  Zr  Zr65  1  0.79864128  0.59070544  0.49425881  1
  Zr  Zr66  1  0.20297911  0.20850702  0.76102721  1
  Zr  Zr67  1  0.89725625  0.49692738  0.12157118  1
  Zr  Zr68  1  0.88564426  0.90574900  0.37610044  1
  Zr  Zr69  1  0.60063092  0.59562589  0.00646269  1
  Zr  Zr70  1  0.91701545  0.49702427  0.36736563  1
  Zr  Zr71  1  0.21633452  0.38727542  0.23047489  1
  Zr  Zr72  1  0.87700997  0.29455271  0.87587198  1
  Zr  Zr73  1  0.79789698  0.59565086  0.25495345  1
  Zr  Zr74  1  0.50896589  0.11357527  0.37452501  1
  Zr  Zr75  1  0.60139767  0.40115955  0.26103669  1
  Zr  Zr76  1  0.31073416  0.67273858  0.37608882  1
  Zr  Zr77  1  0.69113927  0.90241598  0.36335924  1
  Zr  Zr78  1  0.40116447  0.21100717  0.51051961  1
  Zr  Zr79  1  0.18990215  0.19790607  0.24515424  1
  Ta  Ta80  1  0.01588279  0.59257513  0.50603465  1
  Ta  Ta81  1  0.20765118  -0.00642750  -0.02253934  1
  Ta  Ta82  1  0.77974167  0.01269794  0.51608384  1
  Ta  Ta83  1  0.89750825  0.29025203  0.38004292  1
  Ta  Ta84  1  0.40942984  0.59623381  0.00191421  1
  Ta  Ta85  1  -0.01123227  -0.00868801  0.75576065  1
  Ta  Ta86  1  0.90041978  0.89880131  0.13511047  1
  Ta  Ta87  1  0.09520912  0.90077681  0.87162874  1
  Ta  Ta88  1  0.09678654  0.91250254  0.38125425  1
  Ta  Ta89  1  0.51110077  0.69785670  0.38692835  1
  Ta  Ta90  1  -0.00870205  0.00649829  0.49702683  1
  Ta  Ta91  1  -0.00012522  0.39203137  -0.01061620  1
  Ta  Ta92  1  0.50238753  0.90497619  0.13695654  1
  Ta  Ta93  1  0.80724206  0.81313164  -0.00290882  1
  Ta  Ta94  1  0.42081031  0.38652796  0.00491501  1
  Ta  Ta95  1  0.70243461  0.89956372  0.14030255  1
  Ta  Ta96  1  0.28144038  0.11471418  0.39378732  1
  Ta  Ta97  1  0.68737407  0.69223597  0.37281662  1
  Ta  Ta98  1  0.31377966  0.49292622  0.11113798  1
  Ta  Ta99  1  0.90463493  0.70814244  0.11504263  1
  Ta  Ta100  1  0.79824139  0.39354963  0.25898583  1
  Ta  Ta101  1  0.88647148  0.10440090  0.38537522  1
  Ta  Ta102  1  0.69621708  0.30685055  0.11656930  1
  Ta  Ta103  1  0.59522155  0.20530127  0.73748194  1
  Ta  Ta104  1  0.29297043  0.10402210  0.61982868  1
  Ta  Ta105  1  0.21715580  0.57627745  0.50900230  1
  Ta  Ta106  1  -0.00760853  0.19600234  -0.01439213  1
  Ta  Ta107  1  0.51115416  0.69432940  0.60683758  1
  Ta  Ta108  1  -0.00890932  0.19318357  0.50695435  1
  Ta  Ta109  1  0.60457136  0.40844158  0.48930346  1
  Ta  Ta110  1  0.60275630  0.81505549  0.00907566  1
  Ta  Ta111  1  0.50030646  0.70488379  0.88692018  1
  Ta  Ta112  1  0.61050220  0.18590319  0.51897465  1
  Ta  Ta113  1  0.59282402  0.78329974  0.23706550  1
  Ta  Ta114  1  0.12191452  0.49197580  0.37743589  1
  Ta  Ta115  1  0.20933732  0.59808559  -0.00883712  1
  Ta  Ta116  1  0.49667714  0.09456970  0.62887341  1
  Ta  Ta117  1  -0.00523196  0.00885071  0.26278775  1
  Ta  Ta118  1  0.39890650  0.20645264  0.73719272  1
  Ta  Ta119  1  0.69172303  0.49850261  0.62054889  1
  Ti  Ti120  1  0.60514236  -0.00202128  0.74122995  1
  Ti  Ti121  1  0.70412618  0.91299481  0.87009476  1
  Ti  Ti122  1  0.40241185  0.01273025  0.49429437  1
  Ti  Ti123  1  0.10131558  0.28188561  0.10070223  1
  Ti  Ti124  1  0.89995856  0.69126802  0.37842086  1
  Ti  Ti125  1  0.59806250  0.40482586  0.74981356  1
  Ti  Ti126  1  0.69813047  0.10738215  0.85804470  1
  Ti  Ti127  1  -0.00238240  0.18940356  0.25584599  1
  Ti  Ti128  1  0.88873730  0.10298188  0.63368297  1
  Ti  Ti129  1  0.80127422  0.00574725  0.24200594  1
  Ti  Ti130  1  -0.01581651  -0.01297234  -0.01508378  1
  Ti  Ti131  1  0.80089761  0.79387070  0.25356719  1
  Ti  Ti132  1  0.18677924  0.01174835  0.26064756  1
  Ti  Ti133  1  0.09918287  0.67848912  0.37759551  1
  Ti  Ti134  1  0.89423669  0.29427315  0.62903459  1
  Ti  Ti135  1  -0.00862954  0.19654244  0.75383658  1
  Ti  Ti136  1  0.40630263  0.40127198  0.74632083  1
  Ti  Ti137  1  0.40291561  0.20308555  0.00933333  1
  Ti  Ti138  1  0.28937767  0.31706873  0.62699320  1
  Ti  Ti139  1  0.90281772  0.09714990  0.11855691  1
  Ti  Ti140  1  0.60246348  0.01876421  0.23115203  1
  Ti  Ti141  1  0.41157767  0.79477034  0.75221518  1
  Ti  Ti142  1  0.70033400  0.48770658  0.88255272  1
  Ti  Ti143  1  0.41099957  0.80744427  0.00498959  1
  Ti  Ti144  1  0.31776487  0.70459678  0.88353192  1
  Ti  Ti145  1  0.69523606  0.09304098  0.37575949  1
  Ti  Ti146  1  0.38392187  0.43269877  0.51815538  1
  Ti  Ti147  1  0.51294130  0.48709686  0.12249168  1
  Ti  Ti148  1  0.10835041  0.49144660  0.87312490  1
  Ti  Ti149  1  0.80199730  0.60058161  -0.00126433  1
  Ti  Ti150  1  0.41423580  0.59893572  0.74800153  1
  Ti  Ti151  1  0.70251112  0.49200229  0.12322741  1
  Ti  Ti152  1  0.79957631  0.39784551  0.48461987  1
  Ti  Ti153  1  0.30255035  0.10323647  0.87598702  1
  Ti  Ti154  1  0.50764351  0.48942113  0.88100147  1
  Ti  Ti155  1  0.49870883  0.30513746  0.38175569  1
  Ti  Ti156  1  0.50560678  0.89642896  0.87133752  1
  Ti  Ti157  1  0.31748713  0.29405567  0.87729946  1
  Ti  Ti158  1  0.20687379  0.80602178  -0.01263313  1
  Ti  Ti159  1  0.00490889  0.60121885  0.24248460  1
  Mo  Mo160  1  0.79309184  0.40298631  0.01057896  1
  Mo  Mo161  1  0.59883966  0.00331716  0.51087632  1
  Mo  Mo162  1  0.20161199  0.00113946  0.76820075  1
  Mo  Mo163  1  0.69540749  0.10095867  0.64241752  1
  Mo  Mo164  1  0.31262320  0.89294447  0.88722973  1
  Mo  Mo165  1  0.49620395  0.10500916  0.13570022  1
  Mo  Mo166  1  0.89476446  0.70306557  0.89247304  1
  Mo  Mo167  1  -0.00168735  0.80432123  0.76288096  1
  Mo  Mo168  1  0.19882439  0.20334916  0.51626079  1
  Mo  Mo169  1  0.30430643  0.49934641  0.36462963  1
  Mo  Mo170  1  0.08905697  0.10036712  0.38686454  1
  Mo  Mo171  1  0.49570289  0.30621037  0.85632344  1
  Mo  Mo172  1  0.89463021  0.90073075  0.86715917  1
  Mo  Mo173  1  0.59568679  0.20198569  0.23750919  1
  Mo  Mo174  1  0.19138154  0.00837536  0.49197197  1
  Mo  Mo175  1  0.78702870  0.40215229  0.74583248  1
  Mo  Mo176  1  0.50324100  0.70893911  0.10448985  1
  Mo  Mo177  1  0.78909508  -0.00105237  0.73756832  1
  Mo  Mo178  1  0.30661709  0.49719746  0.65355559  1
  Mo  Mo179  1  0.70041542  0.49477840  0.37642404  1
  Mo  Mo180  1  0.09219164  0.29103708  0.88218486  1
  Mo  Mo181  1  0.50241292  0.50397060  0.62282857  1
  Mo  Mo182  1  0.60323259  0.79853399  0.50080624  1
  Mo  Mo183  1  0.79452826  0.20104396  0.73457107  1
  Mo  Mo184  1  0.69561169  0.90345470  0.62699597  1
  Mo  Mo185  1  0.79223952  0.19617400  0.01510383  1
  Mo  Mo186  1  0.40278936  0.40445324  0.23312763  1
  Mo  Mo187  1  0.20135879  0.19508667  -0.01935664  1
  Mo  Mo188  1  0.69912346  0.10427004  0.12878123  1
  Mo  Mo189  1  0.20338606  0.40372527  0.50780404  1
  Mo  Mo190  1  0.30371972  0.29911672  0.10258342  1
  Mo  Mo191  1  0.60309209  0.59954266  0.23658940  1
  Mo  Mo192  1  0.80340054  0.19553395  0.51098441  1
  Mo  Mo193  1  0.21215706  0.39322601  0.77094363  1
  Mo  Mo194  1  0.69521995  0.69888075  0.61382494  1
  Mo  Mo195  1  0.50176834  0.30506952  0.13758087  1
  Mo  Mo196  1  0.60025779  0.40052868  -0.00264471  1
  Mo  Mo197  1  0.60497615  0.59681819  0.50528016  1
  Mo  Mo198  1  -0.01015847  0.80702354  -0.00922934  1
  Mo  Mo199  1  0.40339425  0.59868479  0.51475660  1
