# generated using pymatgen
data_HfZrTaTiMo
_symmetry_space_group_name_H-M   'P 1'
_cell_length_a   15.83372709
_cell_length_b   15.82990009
_cell_length_c   15.39962127
_cell_angle_alpha   89.98243474
_cell_angle_beta   90.02615598
_cell_angle_gamma   89.92348972
_symmetry_Int_Tables_number   1
_chemical_formula_structural   HfZrTaTiMo
_chemical_formula_sum   'Hf40 Zr40 Ta40 Ti40 Mo40'
_cell_volume   3859.85434115
_cell_formula_units_Z   40
loop_
 _symmetry_equiv_pos_site_id
 _symmetry_equiv_pos_as_xyz
  1  'x, y, z'
loop_
 _atom_site_type_symbol
 _atom_site_label
 _atom_site_symmetry_multiplicity
 _atom_site_fract_x
 _atom_site_fract_y
 _atom_site_fract_z
 _atom_site_occupancy
  Hf  Hf0  1  0.59927258  0.79102870  0.00297565  1
  Hf  Hf1  1  0.79741217  0.81137491  0.74911386  1
  Hf  Hf2  1  0.79167417  0.40456050  0.77202813  1
  Hf  Hf3  1  0.19993577  0.79765905  0.00040149  1
  Hf  Hf4  1  0.89264986  0.49737261  0.63320453  1
  Hf  Hf5  1  0.10461866  0.28712551  0.10348653  1
  Hf  Hf6  1  0.21368433  0.00531283  0.23357041  1
  Hf  Hf7  1  0.50974689  0.28074813  0.36017166  1
  Hf  Hf8  1  0.19912562  0.59505409  0.74901319  1
  Hf  Hf9  1  -0.00376550  0.80400500  -0.00130879  1
  Hf  Hf10  1  0.89092598  0.48495766  0.36071924  1
  Hf  Hf11  1  0.38705843  0.18685781  0.22652853  1
  Hf  Hf12  1  0.51322875  0.10576517  0.64553157  1
  Hf  Hf13  1  0.39892029  0.59818638  0.26421712  1
  Hf  Hf14  1  0.19568502  0.00623485  0.74049487  1
  Hf  Hf15  1  0.30434176  0.30669909  0.87867042  1
  Hf  Hf16  1  0.09497172  0.10277302  0.10610775  1
  Hf  Hf17  1  0.11123601  0.90947791  0.38455817  1
  Hf  Hf18  1  0.00278812  0.01407520  0.50132817  1
  Hf  Hf19  1  0.40097278  0.38804751  0.23716984  1
  Hf  Hf20  1  0.60414277  0.80798364  0.25363670  1
  Hf  Hf21  1  0.39128559  0.00074440  0.00646511  1
  Hf  Hf22  1  0.09584647  0.90825324  0.86923551  1
  Hf  Hf23  1  0.00150497  0.60946585  0.00475062  1
  Hf  Hf24  1  0.60895171  0.58240635  0.76077527  1
  Hf  Hf25  1  0.89918300  0.90707462  0.62020247  1
  Hf  Hf26  1  0.09934971  0.70181968  0.61129455  1
  Hf  Hf27  1  0.28774263  0.28513641  0.37751020  1
  Hf  Hf28  1  0.09242345  0.30422471  0.64685609  1
  Hf  Hf29  1  -0.01652126  0.38881788  0.50915130  1
  Hf  Hf30  1  0.70445653  0.30590685  0.36118305  1
  Hf  Hf31  1  0.29242498  0.69940181  0.61382433  1
  Hf  Hf32  1  0.79629153  0.59436607  0.47824720  1
  Hf  Hf33  1  0.90622232  0.10923007  0.64203372  1
  Hf  Hf34  1  0.69536048  0.91080253  0.38448458  1
  Hf  Hf35  1  0.39473947  0.80440523  0.48648317  1
  Hf  Hf36  1  0.52096933  0.09504177  0.10750683  1
  Hf  Hf37  1  0.71205013  0.68677805  0.87500671  1
  Hf  Hf38  1  0.29013655  0.49788931  0.61145100  1
  Hf  Hf39  1  -0.00568119  0.39994614  -0.00174881  1
  Zr  Zr40  1  0.49689082  0.90315032  0.87511947  1
  Zr  Zr41  1  0.80589437  0.21827879  0.51664079  1
  Zr  Zr42  1  0.50523977  0.49379453  0.62513153  1
  Zr  Zr43  1  0.39965007  0.59758600  0.48418096  1
  Zr  Zr44  1  0.29524080  0.71242293  0.14539320  1
  Zr  Zr45  1  0.20850312  0.20155550  0.75191584  1
  Zr  Zr46  1  0.19783049  0.38405863  0.24513778  1
  Zr  Zr47  1  0.29392034  0.50591808  0.13249396  1
  Zr  Zr48  1  0.89953316  0.70494459  0.14222377  1
  Zr  Zr49  1  0.09663016  0.48953608  0.38076864  1
  Zr  Zr50  1  0.50058444  0.70074338  0.61835878  1
  Zr  Zr51  1  -0.00335593  0.00855995  0.25045595  1
  Zr  Zr52  1  0.69714673  0.69874746  0.62608457  1
  Zr  Zr53  1  0.10901413  0.11757388  0.36881576  1
  Zr  Zr54  1  0.49445864  0.69601583  0.86675461  1
  Zr  Zr55  1  0.00405021  0.60479288  0.25997425  1
  Zr  Zr56  1  0.49145970  0.47990909  0.87349070  1
  Zr  Zr57  1  0.39991632  -0.00968059  0.24359335  1
  Zr  Zr58  1  0.89885273  0.69804620  0.62283076  1
  Zr  Zr59  1  0.39956654  0.59982714  0.00938841  1
  Zr  Zr60  1  0.70089643  0.91737780  0.11332397  1
  Zr  Zr61  1  0.80771224  0.80249119  -0.00175918  1
  Zr  Zr62  1  0.50383498  0.11190344  0.87324482  1
  Zr  Zr63  1  0.39313361  0.00011352  0.73987759  1
  Zr  Zr64  1  0.59648783  0.58863260  0.00665128  1
  Zr  Zr65  1  0.70093581  0.49516074  0.12980052  1
  Zr  Zr66  1  0.10167940  0.89213356  0.12972768  1
  Zr  Zr67  1  0.40482629  0.38689767  0.50052801  1
  Zr  Zr68  1  0.49844372  0.89286082  0.12299765  1
  Zr  Zr69  1  0.61067177  0.59637878  0.48125357  1
  Zr  Zr70  1  0.30228540  0.09382416  0.38610763  1
  Zr  Zr71  1  0.79085146  0.80112256  0.49435550  1
  Zr  Zr72  1  0.09951631  0.70214926  0.86241156  1
  Zr  Zr73  1  0.78942057  0.02445662  0.24924344  1
  Zr  Zr74  1  0.40659871  -0.00165458  0.51425006  1
  Zr  Zr75  1  0.10051976  0.50692050  0.12629736  1
  Zr  Zr76  1  0.60293862  0.80510276  0.75356911  1
  Zr  Zr77  1  0.40095197  0.19840930  0.52177444  1
  Zr  Zr78  1  0.10309975  0.48888833  0.87326057  1
  Zr  Zr79  1  0.51484571  0.47844003  0.36530505  1
  Ta  Ta80  1  0.89301110  0.51222002  0.87624580  1
  Ta  Ta81  1  0.79741550  0.19891346  0.76784917  1
  Ta  Ta82  1  -0.00429567  0.38808957  0.23201530  1
  Ta  Ta83  1  0.29702500  0.89584115  0.87315114  1
  Ta  Ta84  1  0.49941324  0.69721479  0.14493171  1
  Ta  Ta85  1  0.61195555  0.38830369  0.50886807  1
  Ta  Ta86  1  0.09351508  0.50179757  0.61939357  1
  Ta  Ta87  1  0.62070241  0.18756944  0.23248430  1
  Ta  Ta88  1  0.00254693  0.20706007  0.50923857  1
  Ta  Ta89  1  0.70418768  0.69791120  0.13873884  1
  Ta  Ta90  1  0.30171832  0.70157208  0.86517200  1
  Ta  Ta91  1  0.29009269  0.49180454  0.38091216  1
  Ta  Ta92  1  -0.00397688  0.59862520  0.74791417  1
  Ta  Ta93  1  0.50594389  0.70983274  0.36814287  1
  Ta  Ta94  1  -0.00132159  0.80777164  0.74652111  1
  Ta  Ta95  1  -0.00527760  0.59960879  0.49006218  1
  Ta  Ta96  1  0.70088308  0.30112708  0.64443730  1
  Ta  Ta97  1  0.70663031  0.28449704  0.10878526  1
  Ta  Ta98  1  0.80418771  0.38681888  0.22720839  1
  Ta  Ta99  1  0.89533509  0.11440489  0.37910718  1
  Ta  Ta100  1  0.00933824  0.80147238  0.26545390  1
  Ta  Ta101  1  0.80473542  0.00378531  0.76303646  1
  Ta  Ta102  1  0.60631965  0.59636508  0.25633073  1
  Ta  Ta103  1  0.30041458  0.49964172  0.87678485  1
  Ta  Ta104  1  0.69527647  0.11441370  0.38874406  1
  Ta  Ta105  1  0.40495296  0.39649838  0.02195309  1
  Ta  Ta106  1  0.68760602  0.29307748  0.88764390  1
  Ta  Ta107  1  0.09713124  0.89916706  0.61980093  1
  Ta  Ta108  1  0.09790715  0.10372005  0.88539558  1
  Ta  Ta109  1  0.62106087  0.00166912  0.75605215  1
  Ta  Ta110  1  0.39300992  0.79619564  0.00077525  1
  Ta  Ta111  1  0.79970807  0.01346633  0.50177109  1
  Ta  Ta112  1  0.79921557  0.39878626  -0.00193010  1
  Ta  Ta113  1  0.20130651  0.60680740  -0.00471180  1
  Ta  Ta114  1  0.19119560  0.38525469  0.50737360  1
  Ta  Ta115  1  0.51125102  0.09876306  0.37494330  1
  Ta  Ta116  1  0.89990635  0.90784090  0.13750034  1
  Ta  Ta117  1  0.39496388  0.59522137  0.74624917  1
  Ta  Ta118  1  0.89876001  0.90917031  0.37341628  1
  Ta  Ta119  1  0.90143659  0.29441229  0.36071947  1
  Ti  Ti120  1  0.89877888  0.28585177  0.10971235  1
  Ti  Ti121  1  0.89622963  0.70613333  0.36826642  1
  Ti  Ti122  1  0.30292600  0.10394266  0.88039320  1
  Ti  Ti123  1  -0.00639734  0.20070513  0.23994711  1
  Ti  Ti124  1  0.90050371  0.70081012  0.86299117  1
  Ti  Ti125  1  0.60139607  0.00660988  0.25386549  1
  Ti  Ti126  1  0.19454378  0.19472502  0.52819071  1
  Ti  Ti127  1  0.88981901  0.10712510  0.10675711  1
  Ti  Ti128  1  0.20061791  0.80415922  0.74622641  1
  Ti  Ti129  1  0.90197032  0.29470965  0.88032079  1
  Ti  Ti130  1  0.20947961  0.80454518  0.27300750  1
  Ti  Ti131  1  0.60325475  0.39460574  0.75894581  1
  Ti  Ti132  1  0.20645906  0.39994902  0.00279504  1
  Ti  Ti133  1  0.70243148  0.90225437  0.88590362  1
  Ti  Ti134  1  0.19417270  0.61335750  0.27287404  1
  Ti  Ti135  1  0.50541980  0.29768054  0.64675030  1
  Ti  Ti136  1  0.58874777  0.38838007  0.01516619  1
  Ti  Ti137  1  0.09086525  0.29508840  0.37066115  1
  Ti  Ti138  1  -0.01365694  -0.00228321  -0.00626711  1
  Ti  Ti139  1  0.29106327  0.89341599  0.61725030  1
  Ti  Ti140  1  0.49569139  0.29390205  0.86778747  1
  Ti  Ti141  1  0.39998795  0.20807442  0.01342954  1
  Ti  Ti142  1  -0.00602932  0.39950599  0.76167039  1
  Ti  Ti143  1  0.80094867  0.80971392  0.25633822  1
  Ti  Ti144  1  0.49942004  0.90696139  0.37699880  1
  Ti  Ti145  1  0.80703757  0.00529655  -0.01970036  1
  Ti  Ti146  1  0.80333893  0.59791297  0.00498142  1
  Ti  Ti147  1  0.51680535  0.89529567  0.62299868  1
  Ti  Ti148  1  0.70547705  0.10304355  0.63066112  1
  Ti  Ti149  1  0.60339240  0.20570455  0.51232104  1
  Ti  Ti150  1  0.60418287  0.00534738  0.51108239  1
  Ti  Ti151  1  0.39434535  0.80050466  0.74055953  1
  Ti  Ti152  1  0.79290004  0.39975414  0.50279395  1
  Ti  Ti153  1  0.20349840  -0.00131862  -0.00066832  1
  Ti  Ti154  1  -0.00089602  0.80168113  0.48622351  1
  Ti  Ti155  1  0.20270745  0.00724838  0.51936038  1
  Ti  Ti156  1  0.00182404  0.19811434  0.76847443  1
  Ti  Ti157  1  0.38511546  0.39574590  0.73794489  1
  Ti  Ti158  1  0.70336233  0.49791942  0.62796759  1
  Ti  Ti159  1  0.89678922  0.50347833  0.13073090  1
  Mo  Mo160  1  -0.00488595  0.19760163  -0.01654637  1
  Mo  Mo161  1  0.80119097  0.59762140  0.75779639  1
  Mo  Mo162  1  0.20372275  0.20007547  -0.02502151  1
  Mo  Mo163  1  0.19347778  0.19734492  0.24181666  1
  Mo  Mo164  1  0.19154810  0.59517192  0.48836225  1
  Mo  Mo165  1  0.29678367  0.29639617  0.10657602  1
  Mo  Mo166  1  0.50301866  0.49656885  0.13931943  1
  Mo  Mo167  1  0.59728093  0.20528439  0.00108526  1
  Mo  Mo168  1  0.80420452  0.19845831  -0.02079759  1
  Mo  Mo169  1  0.70258041  0.09975791  0.88332280  1
  Mo  Mo170  1  0.79684640  0.59879005  0.25931142  1
  Mo  Mo171  1  0.29931636  0.89844609  0.11201319  1
  Mo  Mo172  1  0.10036164  0.70544936  0.39313537  1
  Mo  Mo173  1  0.10489598  0.70400852  0.13744232  1
  Mo  Mo174  1  0.29597925  0.30366940  0.63090634  1
  Mo  Mo175  1  0.40116279  0.20789248  0.74569168  1
  Mo  Mo176  1  0.29634367  0.70011809  0.37484189  1
  Mo  Mo177  1  0.19964799  0.40415649  0.74047782  1
  Mo  Mo178  1  0.28674606  0.10643144  0.10124059  1
  Mo  Mo179  1  0.30030666  0.10052538  0.62429962  1
  Mo  Mo180  1  0.70985720  0.10316955  0.09396790  1
  Mo  Mo181  1  0.70478644  0.70290141  0.35538312  1
  Mo  Mo182  1  0.89728673  0.30195682  0.65830571  1
  Mo  Mo183  1  0.09581946  0.10319994  0.63079914  1
  Mo  Mo184  1  0.80650721  0.19988724  0.24197197  1
  Mo  Mo185  1  0.00355955  0.00243848  0.74640216  1
  Mo  Mo186  1  0.90264269  0.90060523  0.86416801  1
  Mo  Mo187  1  0.39714207  0.80256811  0.26924096  1
  Mo  Mo188  1  0.59368409  0.80907523  0.48534139  1
  Mo  Mo189  1  0.61025057  0.20500949  0.75232845  1
  Mo  Mo190  1  0.60439871  -0.00183513  -0.02396603  1
  Mo  Mo191  1  0.29652648  0.90421738  0.39022444  1
  Mo  Mo192  1  0.09918635  0.30039177  0.87616469  1
  Mo  Mo193  1  0.70525251  0.48807810  0.35549709  1
  Mo  Mo194  1  0.69758017  0.91758424  0.61489495  1
  Mo  Mo195  1  0.50631028  0.29219017  0.13317105  1
  Mo  Mo196  1  0.60405147  0.38759974  0.22695830  1
  Mo  Mo197  1  0.19816680  0.80555884  0.49506611  1
  Mo  Mo198  1  0.90776984  0.09575730  0.86719592  1
  Mo  Mo199  1  0.69894135  0.48911357  0.90011097  1
