# generated using pymatgen
data_HfZrTaTiMo
_symmetry_space_group_name_H-M   'P 1'
_cell_length_a   15.84155799
_cell_length_b   15.83047326
_cell_length_c   15.42094372
_cell_angle_alpha   90.03942192
_cell_angle_beta   90.01829537
_cell_angle_gamma   89.93730837
_symmetry_Int_Tables_number   1
_chemical_formula_structural   HfZrTaTiMo
_chemical_formula_sum   'Hf40 Zr40 Ta40 Ti40 Mo40'
_cell_volume   3867.25097219
_cell_formula_units_Z   40
loop_
 _symmetry_equiv_pos_site_id
 _symmetry_equiv_pos_as_xyz
  1  'x, y, z'
loop_
 _atom_site_type_symbol
 _atom_site_label
 _atom_site_symmetry_multiplicity
 _atom_site_fract_x
 _atom_site_fract_y
 _atom_site_fract_z
 _atom_site_occupancy
  Hf  Hf0  1  0.61290823  0.80169817  0.77409416  1
  Hf  Hf1  1  0.00454267  0.20415097  0.00249783  1
  Hf  Hf2  1  0.39732632  -0.00043318  0.76076873  1
  Hf  Hf3  1  0.60363614  0.00568459  0.75793647  1
  Hf  Hf4  1  0.40298882  0.79352862  0.23555478  1
  Hf  Hf5  1  0.39116283  0.19863643  0.01513086  1
  Hf  Hf6  1  0.69861822  0.90604524  0.36190109  1
  Hf  Hf7  1  0.68581938  0.90011738  0.13361299  1
  Hf  Hf8  1  0.80182796  0.00488004  0.49687284  1
  Hf  Hf9  1  0.69938207  0.89782701  0.62508828  1
  Hf  Hf10  1  0.70276526  0.09316257  0.13725530  1
  Hf  Hf11  1  0.80606310  0.78861342  0.25269274  1
  Hf  Hf12  1  0.69984506  0.49741494  0.88822437  1
  Hf  Hf13  1  0.89059893  0.90319366  0.13121610  1
  Hf  Hf14  1  0.89457694  0.49945384  0.87961321  1
  Hf  Hf15  1  0.10023079  0.70691098  0.12006664  1
  Hf  Hf16  1  0.30308262  0.09700934  0.38465797  1
  Hf  Hf17  1  0.41508081  -0.00861915  0.24079142  1
  Hf  Hf18  1  0.49964216  0.09855300  0.37588517  1
  Hf  Hf19  1  -0.00854031  0.60745032  0.23730872  1
  Hf  Hf20  1  0.29878114  0.90289995  0.11203578  1
  Hf  Hf21  1  0.20063793  0.39183726  0.01143925  1
  Hf  Hf22  1  0.79487450  0.60632005  0.74549111  1
  Hf  Hf23  1  0.11322292  0.90947051  0.61020920  1
  Hf  Hf24  1  0.80325039  0.00075869  0.74998130  1
  Hf  Hf25  1  0.79972992  0.79039602  0.50337315  1
  Hf  Hf26  1  0.51357714  0.31722662  0.62832463  1
  Hf  Hf27  1  0.40593804  0.59895268  0.20356671  1
  Hf  Hf28  1  0.49906578  0.51848696  0.64340470  1
  Hf  Hf29  1  0.90343768  0.10081468  0.14039586  1
  Hf  Hf30  1  0.60238131  0.60098236  0.23822911  1
  Hf  Hf31  1  0.10322047  0.69959468  0.37740378  1
  Hf  Hf32  1  0.09720562  0.29903875  0.87171035  1
  Hf  Hf33  1  0.31011461  0.88898665  0.37796599  1
  Hf  Hf34  1  0.29399197  0.07421319  0.61592605  1
  Hf  Hf35  1  0.31926091  0.69703176  0.63383106  1
  Hf  Hf36  1  0.70798268  0.70402378  0.11118143  1
  Hf  Hf37  1  0.49443320  0.88680263  0.63671439  1
  Hf  Hf38  1  0.39791439  0.39625339  0.23045267  1
  Hf  Hf39  1  0.79836190  0.21111505  0.25769519  1
  Zr  Zr40  1  0.89359903  0.10562997  0.61942212  1
  Zr  Zr41  1  0.49896464  0.29318117  0.37679476  1
  Zr  Zr42  1  0.39867150  0.20630730  0.52405913  1
  Zr  Zr43  1  0.60168403  -0.00329001  -0.01160752  1
  Zr  Zr44  1  0.59463860  -0.00275542  0.50771985  1
  Zr  Zr45  1  0.20815851  -0.00380981  0.25269859  1
  Zr  Zr46  1  0.78609564  0.58816583  0.50031057  1
  Zr  Zr47  1  0.19595643  0.40081435  0.50451149  1
  Zr  Zr48  1  0.69243971  0.10913110  0.37516192  1
  Zr  Zr49  1  0.11557103  0.10741890  0.13647034  1
  Zr  Zr50  1  -0.00407362  0.59642891  0.01228959  1
  Zr  Zr51  1  0.39708922  0.59611160  0.00102406  1
  Zr  Zr52  1  0.09623391  0.49836121  0.86806372  1
  Zr  Zr53  1  0.20409718  0.59293078  0.00172034  1
  Zr  Zr54  1  0.19327446  0.61093222  0.75129720  1
  Zr  Zr55  1  0.09553989  0.49716202  0.63199563  1
  Zr  Zr56  1  0.48183972  0.51111010  0.36225310  1
  Zr  Zr57  1  0.39963697  0.40834323  0.01046398  1
  Zr  Zr58  1  0.60887721  0.20578343  0.74545613  1
  Zr  Zr59  1  0.00420761  0.80326704  0.73878831  1
  Zr  Zr60  1  0.60678763  0.41537704  0.48532307  1
  Zr  Zr61  1  -0.01586877  0.21336889  0.48372061  1
  Zr  Zr62  1  0.21920236  0.79216616  0.51017762  1
  Zr  Zr63  1  0.20139311  0.19500923  0.73780916  1
  Zr  Zr64  1  0.78692429  0.38909182  0.74953369  1
  Zr  Zr65  1  0.31652307  0.67395151  0.37483248  1
  Zr  Zr66  1  0.00528313  0.00359776  0.00273414  1
  Zr  Zr67  1  0.80138565  0.20646157  0.01021268  1
  Zr  Zr68  1  0.10224200  0.49983534  0.36542376  1
  Zr  Zr69  1  0.29987214  0.29544880  0.87351331  1
  Zr  Zr70  1  0.29690180  0.29924871  0.36282361  1
  Zr  Zr71  1  0.59263386  0.58570952  0.01658950  1
  Zr  Zr72  1  -0.00797582  0.59343062  0.50697948  1
  Zr  Zr73  1  0.80684339  0.39300539  0.48711136  1
  Zr  Zr74  1  0.19506106  0.20992567  0.50757838  1
  Zr  Zr75  1  0.58171445  0.61537303  0.48866286  1
  Zr  Zr76  1  0.08885453  0.09203472  0.61141195  1
  Zr  Zr77  1  0.38820197  0.41607330  0.50661824  1
  Zr  Zr78  1  0.10196078  0.89845515  0.38988741  1
  Zr  Zr79  1  0.81211894  0.79562725  0.74462866  1
  Ta  Ta80  1  0.68386143  0.49465180  0.64005416  1
  Ta  Ta81  1  0.20453641  0.79330623  0.24093616  1
  Ta  Ta82  1  0.10076763  0.90100067  0.87779694  1
  Ta  Ta83  1  -0.00379661  0.80545641  0.00568781  1
  Ta  Ta84  1  0.90603807  0.90038215  0.87838015  1
  Ta  Ta85  1  0.09217046  0.30095360  0.35204412  1
  Ta  Ta86  1  0.90004317  0.30028604  0.63205761  1
  Ta  Ta87  1  0.40244186  0.19910357  0.74158161  1
  Ta  Ta88  1  -0.00596078  0.39716851  0.01446739  1
  Ta  Ta89  1  0.89293063  0.49325224  0.63406845  1
  Ta  Ta90  1  0.49661854  0.11189283  0.87837610  1
  Ta  Ta91  1  0.20019808  -0.00703625  0.76190554  1
  Ta  Ta92  1  -0.01346063  0.61263170  0.74393194  1
  Ta  Ta93  1  0.90211792  0.10253171  0.87409603  1
  Ta  Ta94  1  0.42370665  0.78302784  0.49668277  1
  Ta  Ta95  1  0.89792295  0.70040815  0.89195777  1
  Ta  Ta96  1  0.90440701  0.89591868  0.37831008  1
  Ta  Ta97  1  0.68449256  0.69431178  0.62750501  1
  Ta  Ta98  1  0.89977806  0.31163969  0.14192257  1
  Ta  Ta99  1  0.50492996  0.49381445  0.86573872  1
  Ta  Ta100  1  0.50357588  0.29939462  0.87988476  1
  Ta  Ta101  1  -0.00592737  0.19961652  0.75446387  1
  Ta  Ta102  1  0.00143224  0.80208753  0.24635314  1
  Ta  Ta103  1  0.89692314  0.49784387  0.35510015  1
  Ta  Ta104  1  0.09309180  0.70948556  0.87913333  1
  Ta  Ta105  1  0.90495558  0.69834634  0.38137058  1
  Ta  Ta106  1  0.20759641  0.60108284  0.23306933  1
  Ta  Ta107  1  0.89724703  0.30241924  0.87719285  1
  Ta  Ta108  1  0.10019177  0.10357554  0.37349389  1
  Ta  Ta109  1  0.69210390  0.32129357  0.12866641  1
  Ta  Ta110  1  0.19531050  0.80491329  -0.00093845  1
  Ta  Ta111  1  0.70305383  0.10780277  0.88296575  1
  Ta  Ta112  1  0.50257474  0.69717418  0.87972335  1
  Ta  Ta113  1  0.29406855  0.70681739  0.88051070  1
  Ta  Ta114  1  0.80164235  0.00009824  -0.00997063  1
  Ta  Ta115  1  0.39854084  0.39824775  0.75371450  1
  Ta  Ta116  1  0.79893863  0.19815079  0.75705934  1
  Ta  Ta117  1  -0.00039573  -0.00324325  0.26064523  1
  Ta  Ta118  1  0.09885001  0.29551275  0.14239106  1
  Ta  Ta119  1  0.59096620  0.20290678  0.23669326  1
  Ti  Ti120  1  0.09921689  0.90448178  0.12725668  1
  Ti  Ti121  1  0.70878431  0.28795705  0.60654761  1
  Ti  Ti122  1  -0.00482371  0.39892290  0.49537207  1
  Ti  Ti123  1  0.09528908  0.49151688  0.13391301  1
  Ti  Ti124  1  0.39090191  0.19122073  0.22831398  1
  Ti  Ti125  1  0.79768994  0.80980870  -0.00891785  1
  Ti  Ti126  1  0.91888794  0.90273438  0.60360781  1
  Ti  Ti127  1  0.70333509  0.69412910  0.89313970  1
  Ti  Ti128  1  0.09466491  0.70311703  0.61280787  1
  Ti  Ti129  1  0.51468359  0.73097165  0.10010566  1
  Ti  Ti130  1  0.69783794  0.30238043  0.89259068  1
  Ti  Ti131  1  0.50661420  0.09095295  0.12187298  1
  Ti  Ti132  1  0.58625223  0.80419380  0.25844187  1
  Ti  Ti133  1  0.69336468  0.30317202  0.37197482  1
  Ti  Ti134  1  0.20262234  0.01078114  -0.00411649  1
  Ti  Ti135  1  0.80176598  0.59617138  0.23532406  1
  Ti  Ti136  1  0.50583821  0.29861042  0.12059053  1
  Ti  Ti137  1  0.20447577  0.80776726  0.74943076  1
  Ti  Ti138  1  0.30238574  0.50392999  0.64212749  1
  Ti  Ti139  1  0.00351174  0.00121124  0.75524541  1
  Ti  Ti140  1  0.39411727  0.59984840  0.77598603  1
  Ti  Ti141  1  0.39363376  0.80219043  0.76909369  1
  Ti  Ti142  1  0.59940180  0.20012796  0.00861026  1
  Ti  Ti143  1  0.50495561  0.70012000  0.65358909  1
  Ti  Ti144  1  0.50576587  0.10034325  0.62633048  1
  Ti  Ti145  1  0.29791223  0.10326021  0.88067648  1
  Ti  Ti146  1  0.39713779  0.80032759  -0.00478546  1
  Ti  Ti147  1  0.20543641  0.39908111  0.74758097  1
  Ti  Ti148  1  0.49742154  0.89621830  0.88511581  1
  Ti  Ti149  1  0.08963680  0.30173516  0.63302484  1
  Ti  Ti150  1  0.59972136  0.79912142  0.48686683  1
  Ti  Ti151  1  0.89873759  0.09938352  0.36741202  1
  Ti  Ti152  1  0.70034634  0.69302677  0.36717288  1
  Ti  Ti153  1  -0.00755683  0.39933819  0.75005137  1
  Ti  Ti154  1  0.40325202  -0.01965259  0.50474675  1
  Ti  Ti155  1  0.20331885  0.40084885  0.24201931  1
  Ti  Ti156  1  0.21229526  0.58924677  0.50458858  1
  Ti  Ti157  1  0.40198537  0.00372199  -0.00171414  1
  Ti  Ti158  1  0.29451778  0.90177979  0.88524121  1
  Ti  Ti159  1  0.10311825  0.10109465  0.87366013  1
  Mo  Mo160  1  0.59367317  0.00038610  0.24592139  1
  Mo  Mo161  1  0.59966143  0.39814821  0.76397698  1
  Mo  Mo162  1  0.71267712  0.90372464  0.87048434  1
  Mo  Mo163  1  0.28793681  0.49468128  0.13361870  1
  Mo  Mo164  1  0.29803480  0.70639866  0.10606133  1
  Mo  Mo165  1  -0.00203511  0.00302937  0.47807102  1
  Mo  Mo166  1  0.50008176  0.89499473  0.38145313  1
  Mo  Mo167  1  -0.00068407  0.19934431  0.25786801  1
  Mo  Mo168  1  -0.00101438  0.40514346  0.23848867  1
  Mo  Mo169  1  0.60256926  0.60464773  0.76683034  1
  Mo  Mo170  1  0.39416043  0.60164523  0.51138514  1
  Mo  Mo171  1  0.79350287  0.40608371  0.25902853  1
  Mo  Mo172  1  0.80419881  -0.00220564  0.26481801  1
  Mo  Mo173  1  0.20774019  -0.00128432  0.48489931  1
  Mo  Mo174  1  0.49970239  0.90043704  0.10265437  1
  Mo  Mo175  1  -0.00154141  0.79658066  0.50502766  1
  Mo  Mo176  1  0.60209696  0.39592777  0.26390869  1
  Mo  Mo177  1  0.80243844  0.60124719  0.01105570  1
  Mo  Mo178  1  0.60529013  0.80131685  -0.02024928  1
  Mo  Mo179  1  0.70290496  0.50680263  0.35435889  1
  Mo  Mo180  1  0.79774709  0.20481960  0.48326334  1
  Mo  Mo181  1  0.28654288  0.28676009  0.13398448  1
  Mo  Mo182  1  0.59976618  0.38979763  -0.00855823  1
  Mo  Mo183  1  0.90361261  0.30924642  0.35464060  1
  Mo  Mo184  1  0.89604480  0.70683395  0.10998090  1
  Mo  Mo185  1  0.89568534  0.69472058  0.60962977  1
  Mo  Mo186  1  0.71031177  0.49378062  0.12602309  1
  Mo  Mo187  1  0.30004803  0.49860265  0.85942426  1
  Mo  Mo188  1  0.30157748  0.30540487  0.64297796  1
  Mo  Mo189  1  0.19633905  0.19455475  -0.00569926  1
  Mo  Mo190  1  0.52761886  0.46910355  0.13354593  1
  Mo  Mo191  1  0.89176910  0.49660015  0.12906223  1
  Mo  Mo192  1  0.80429462  0.40036178  0.00789824  1
  Mo  Mo193  1  0.30498933  0.09531273  0.11727807  1
  Mo  Mo194  1  0.29378317  0.50216416  0.35376785  1
  Mo  Mo195  1  0.50268409  0.70481447  0.36069446  1
  Mo  Mo196  1  0.30879958  0.89255615  0.63075057  1
  Mo  Mo197  1  0.20529242  0.19988639  0.25850573  1
  Mo  Mo198  1  0.60361234  0.20092135  0.51447381  1
  Mo  Mo199  1  0.69964743  0.10838852  0.61380946  1
