# generated using pymatgen
data_HfZrTaTiMo
_symmetry_space_group_name_H-M   'P 1'
_cell_length_a   15.83081712
_cell_length_b   15.84014668
_cell_length_c   15.41316562
_cell_angle_alpha   90.10720443
_cell_angle_beta   89.99251945
_cell_angle_gamma   89.84932340
_symmetry_Int_Tables_number   1
_chemical_formula_structural   HfZrTaTiMo
_chemical_formula_sum   'Hf40 Zr40 Ta40 Ti40 Mo40'
_cell_volume   3865.02324310
_cell_formula_units_Z   40
loop_
 _symmetry_equiv_pos_site_id
 _symmetry_equiv_pos_as_xyz
  1  'x, y, z'
loop_
 _atom_site_type_symbol
 _atom_site_label
 _atom_site_symmetry_multiplicity
 _atom_site_fract_x
 _atom_site_fract_y
 _atom_site_fract_z
 _atom_site_occupancy
  Hf  Hf0  1  0.79565219  0.40175503  0.75223354  1
  Hf  Hf1  1  0.90323311  0.29784153  0.88004216  1
  Hf  Hf2  1  -0.00023705  0.38380997  0.50887240  1
  Hf  Hf3  1  0.89917905  0.51155595  0.87432678  1
  Hf  Hf4  1  -0.00098095  0.00316101  0.01093408  1
  Hf  Hf5  1  0.90864613  0.69602647  0.11184275  1
  Hf  Hf6  1  0.80198094  0.39978812  0.50138507  1
  Hf  Hf7  1  0.18882943  0.81295820  0.50520688  1
  Hf  Hf8  1  0.00999213  0.79789304  -0.00859860  1
  Hf  Hf9  1  0.69563105  0.90139373  0.86199283  1
  Hf  Hf10  1  0.30744407  0.90450153  0.62682794  1
  Hf  Hf11  1  0.00652963  -0.00627275  0.49818305  1
  Hf  Hf12  1  0.18231776  0.41742607  -0.00233201  1
  Hf  Hf13  1  0.39726856  0.20046133  0.49042595  1
  Hf  Hf14  1  0.71599384  0.90522641  0.36698121  1
  Hf  Hf15  1  0.79817933  0.19054932  0.75465921  1
  Hf  Hf16  1  0.01776982  0.20257256  0.25824803  1
  Hf  Hf17  1  0.49382023  0.90693882  0.36576951  1
  Hf  Hf18  1  0.48828431  0.29903084  0.88293666  1
  Hf  Hf19  1  0.69495829  0.50845066  0.37876621  1
  Hf  Hf20  1  0.38763329  0.40128988  0.01798437  1
  Hf  Hf21  1  0.69635890  0.70119729  0.62855828  1
  Hf  Hf22  1  0.69543968  0.29426597  0.63040599  1
  Hf  Hf23  1  0.60987638  0.78923151  0.25572484  1
  Hf  Hf24  1  0.39969764  -0.00242082  0.01025566  1
  Hf  Hf25  1  0.70032201  0.10226428  0.12903516  1
  Hf  Hf26  1  0.61289523  0.59572251  0.01644302  1
  Hf  Hf27  1  0.19262244  0.19221358  0.75327363  1
  Hf  Hf28  1  0.00527812  -0.00555987  0.74058674  1
  Hf  Hf29  1  0.60166507  0.38647322  0.48910276  1
  Hf  Hf30  1  0.30177159  0.90068464  0.15024770  1
  Hf  Hf31  1  0.69547543  0.90429773  0.63636781  1
  Hf  Hf32  1  0.19286067  0.38903690  0.24833581  1
  Hf  Hf33  1  0.59364469  0.40195738  0.00737835  1
  Hf  Hf34  1  0.49581293  0.50491266  0.13596932  1
  Hf  Hf35  1  0.90920893  0.50124875  0.11964318  1
  Hf  Hf36  1  0.80026457  0.20478274  0.49365742  1
  Hf  Hf37  1  0.20215903  0.39851963  0.51508754  1
  Hf  Hf38  1  0.89932718  0.50477636  0.37387074  1
  Hf  Hf39  1  0.59076678  0.18175244  0.75264420  1
  Zr  Zr40  1  0.90299373  0.30066088  0.11721892  1
  Zr  Zr41  1  0.82384086  0.79735678  0.73701461  1
  Zr  Zr42  1  0.49420477  0.10131115  0.36387580  1
  Zr  Zr43  1  0.10409260  0.50654943  0.63349279  1
  Zr  Zr44  1  0.90027471  0.90146562  0.87355725  1
  Zr  Zr45  1  0.10268051  0.88953480  0.13259345  1
  Zr  Zr46  1  0.28385435  0.51633486  0.12370630  1
  Zr  Zr47  1  0.42694083  0.59422955  0.72536606  1
  Zr  Zr48  1  0.11230261  0.68361194  0.11521172  1
  Zr  Zr49  1  0.21084425  0.78050779  0.25724017  1
  Zr  Zr50  1  0.60769094  0.80489844  0.49669063  1
  Zr  Zr51  1  0.11604307  0.91194150  0.35917174  1
  Zr  Zr52  1  0.40824266  0.00631212  0.75663635  1
  Zr  Zr53  1  0.29028108  0.30254227  0.87539436  1
  Zr  Zr54  1  0.50822191  0.69271441  0.87481406  1
  Zr  Zr55  1  0.11229912  0.90542106  0.87714259  1
  Zr  Zr56  1  0.79767373  0.40116489  0.25304624  1
  Zr  Zr57  1  0.09633777  0.49718306  0.38448554  1
  Zr  Zr58  1  0.80868519  -0.00850907  0.50944183  1
  Zr  Zr59  1  0.60339668  0.80335935  0.00813131  1
  Zr  Zr60  1  0.69477645  0.10775936  0.36914391  1
  Zr  Zr61  1  0.18349853  0.20515404  0.48361144  1
  Zr  Zr62  1  0.10073370  0.29844567  0.11028988  1
  Zr  Zr63  1  0.39924315  0.80166160  -0.00483586  1
  Zr  Zr64  1  0.28958406  0.08184916  0.36726999  1
  Zr  Zr65  1  0.78834889  0.41893180  -0.00272222  1
  Zr  Zr66  1  0.39403048  0.19699766  0.74817451  1
  Zr  Zr67  1  0.69767849  0.29352893  0.12439765  1
  Zr  Zr68  1  0.30778369  0.50211952  0.86071401  1
  Zr  Zr69  1  0.70930401  0.69633392  0.86832098  1
  Zr  Zr70  1  0.30366814  0.50330769  0.39079649  1
  Zr  Zr71  1  0.19506333  0.59702191  0.26430966  1
  Zr  Zr72  1  0.50050994  0.68997399  0.38373080  1
  Zr  Zr73  1  0.19662426  0.80470443  0.74531243  1
  Zr  Zr74  1  -0.00566723  0.60495107  0.50957080  1
  Zr  Zr75  1  0.00274640  0.00403143  0.24593258  1
  Zr  Zr76  1  0.58082027  0.40833323  0.74825680  1
  Zr  Zr77  1  0.30127464  0.69277749  0.61741602  1
  Zr  Zr78  1  0.68986668  0.29104793  0.88198546  1
  Zr  Zr79  1  0.50008195  0.89820448  0.14699661  1
  Ta  Ta80  1  0.49930494  0.10464004  0.12982873  1
  Ta  Ta81  1  0.49793779  0.29642271  0.13503818  1
  Ta  Ta82  1  0.89495559  0.10348115  0.13313030  1
  Ta  Ta83  1  0.79937813  0.60586067  0.51098148  1
  Ta  Ta84  1  0.90023373  0.09652067  0.87578950  1
  Ta  Ta85  1  0.39314766  0.40112775  0.24735975  1
  Ta  Ta86  1  0.91102808  0.10973445  0.62555051  1
  Ta  Ta87  1  0.39286096  0.61311993  0.25161091  1
  Ta  Ta88  1  0.20194289  0.00589971  0.01583457  1
  Ta  Ta89  1  0.81462283  0.79016430  0.25184387  1
  Ta  Ta90  1  0.60494374  0.59870050  0.24597331  1
  Ta  Ta91  1  0.59944591  0.00259341  0.49847540  1
  Ta  Ta92  1  0.08436633  0.71116760  0.38592428  1
  Ta  Ta93  1  0.29686052  0.09552053  0.60760732  1
  Ta  Ta94  1  0.79924834  -0.00376367  0.00977472  1
  Ta  Ta95  1  0.69642878  0.08772109  0.88499485  1
  Ta  Ta96  1  0.89811238  0.09439670  0.36736146  1
  Ta  Ta97  1  0.40177722  0.39624090  0.50708788  1
  Ta  Ta98  1  0.29590744  0.09769849  0.89161115  1
  Ta  Ta99  1  0.69492342  0.50104001  0.62461016  1
  Ta  Ta100  1  0.10090445  0.09912599  0.61427438  1
  Ta  Ta101  1  0.49518311  0.49737891  0.37479983  1
  Ta  Ta102  1  0.49881320  0.29680806  0.36125855  1
  Ta  Ta103  1  0.29824178  0.69890877  0.40123817  1
  Ta  Ta104  1  0.09945897  0.50339748  0.85216110  1
  Ta  Ta105  1  0.59881650  0.39992339  0.25425477  1
  Ta  Ta106  1  0.50386271  0.09990977  0.89906651  1
  Ta  Ta107  1  -0.00459537  0.61096338  0.25796625  1
  Ta  Ta108  1  0.49946315  0.28957053  0.61664699  1
  Ta  Ta109  1  0.49876891  0.09363424  0.60850675  1
  Ta  Ta110  1  0.80130677  0.80326027  0.00465687  1
  Ta  Ta111  1  0.38182571  0.20346702  0.23775818  1
  Ta  Ta112  1  0.90308128  0.29120894  0.63702008  1
  Ta  Ta113  1  0.30994232  0.70546336  0.85595277  1
  Ta  Ta114  1  0.40527697  0.80390862  0.50134713  1
  Ta  Ta115  1  0.38982323  0.20076876  0.01699796  1
  Ta  Ta116  1  0.71259279  0.69820471  0.12725407  1
  Ta  Ta117  1  0.60337286  -0.00315236  0.01238603  1
  Ta  Ta118  1  -0.00024873  0.39512013  0.75071468  1
  Ta  Ta119  1  0.89824349  0.89561426  0.13249750  1
  Ti  Ti120  1  0.69433324  0.09923352  0.61832036  1
  Ti  Ti121  1  0.20722904  0.60032585  0.74556531  1
  Ti  Ti122  1  0.08478875  0.28184695  0.63580040  1
  Ti  Ti123  1  0.71461371  0.69996761  0.38436414  1
  Ti  Ti124  1  0.21402545  0.79752124  -0.00510421  1
  Ti  Ti125  1  0.60474325  0.00419045  0.24651313  1
  Ti  Ti126  1  0.39596575  0.60854356  0.00477059  1
  Ti  Ti127  1  0.50042575  0.90291239  0.62652717  1
  Ti  Ti128  1  0.79920996  0.18888842  -0.00586566  1
  Ti  Ti129  1  0.90504463  0.69688371  0.88296120  1
  Ti  Ti130  1  0.49239698  0.70368656  0.13542194  1
  Ti  Ti131  1  0.19846327  0.39448574  0.73927610  1
  Ti  Ti132  1  0.29865396  0.30149222  0.37039157  1
  Ti  Ti133  1  0.89882321  0.49740318  0.63144926  1
  Ti  Ti134  1  0.80243665  0.59992498  0.73767715  1
  Ti  Ti135  1  -0.00751979  0.61307065  0.74226692  1
  Ti  Ti136  1  0.50783322  0.90562623  0.86636349  1
  Ti  Ti137  1  0.10065566  0.10139342  0.88380461  1
  Ti  Ti138  1  0.49760551  0.50425763  0.88444957  1
  Ti  Ti139  1  0.57968588  0.79217891  0.74085973  1
  Ti  Ti140  1  0.30569878  0.90257518  0.86681788  1
  Ti  Ti141  1  0.20330833  0.00683491  0.74508299  1
  Ti  Ti142  1  0.39352294  0.40103387  0.72305643  1
  Ti  Ti143  1  0.80075091  0.60495314  0.25143024  1
  Ti  Ti144  1  0.68845890  0.51376063  0.85975077  1
  Ti  Ti145  1  0.80278210  0.00578173  0.74185911  1
  Ti  Ti146  1  0.29600831  0.28972393  0.62442122  1
  Ti  Ti147  1  -0.01389489  0.80753668  0.52201534  1
  Ti  Ti148  1  0.21002607  0.61154120  -0.02344764  1
  Ti  Ti149  1  0.91011383  0.88534258  0.36494210  1
  Ti  Ti150  1  0.71031147  0.89936439  0.13937255  1
  Ti  Ti151  1  0.09300803  0.30018549  0.87616620  1
  Ti  Ti152  1  0.09538016  0.70647665  0.62677538  1
  Ti  Ti153  1  0.02025760  0.58512000  -0.00827938  1
  Ti  Ti154  1  0.10172221  0.69689775  0.86338374  1
  Ti  Ti155  1  0.80066586  0.20306812  0.25945704  1
  Ti  Ti156  1  0.90792493  0.30100163  0.36903590  1
  Ti  Ti157  1  0.00101348  0.19411120  -0.00112536  1
  Ti  Ti158  1  0.30803641  0.90173099  0.37164191  1
  Ti  Ti159  1  0.59324756  0.59691371  0.51182608  1
  Mo  Mo160  1  0.19583445  0.20080441  -0.01730617  1
  Mo  Mo161  1  -0.00880745  0.19432006  0.48633489  1
  Mo  Mo162  1  0.59781711  0.19641179  0.50430176  1
  Mo  Mo163  1  0.29523684  0.30244416  0.12438382  1
  Mo  Mo164  1  0.50335026  0.49195374  0.60056146  1
  Mo  Mo165  1  0.80579981  -0.00259903  0.24206987  1
  Mo  Mo166  1  0.60640283  0.59628030  0.73607698  1
  Mo  Mo167  1  0.59303693  0.19460928  0.00322534  1
  Mo  Mo168  1  0.19425942  0.60947902  0.50213072  1
  Mo  Mo169  1  0.90092810  0.69860018  0.61956397  1
  Mo  Mo170  1  0.09349635  0.10033701  0.38755793  1
  Mo  Mo171  1  0.90323349  0.90452310  0.63071186  1
  Mo  Mo172  1  0.70185240  0.50538330  0.14316732  1
  Mo  Mo173  1  0.10188492  0.90327872  0.63061310  1
  Mo  Mo174  1  0.19987405  0.20071930  0.25886176  1
  Mo  Mo175  1  0.19383875  0.02845296  0.22625437  1
  Mo  Mo176  1  0.40005570  0.79203707  0.27295991  1
  Mo  Mo177  1  0.29961565  0.49282909  0.62495126  1
  Mo  Mo178  1  0.00050880  0.79064363  0.24978139  1
  Mo  Mo179  1  0.00151580  0.19275499  0.76070007  1
  Mo  Mo180  1  0.59391046  0.20518288  0.24284588  1
  Mo  Mo181  1  0.69912832  0.29909785  0.36563996  1
  Mo  Mo182  1  0.00666062  0.79080576  0.75215122  1
  Mo  Mo183  1  0.09531820  0.30476074  0.37264288  1
  Mo  Mo184  1  0.30897963  0.70182395  0.11512542  1
  Mo  Mo185  1  0.89602572  0.70604459  0.38747052  1
  Mo  Mo186  1  0.80102577  0.60847665  -0.00039136  1
  Mo  Mo187  1  0.80985554  0.79684358  0.49969540  1
  Mo  Mo188  1  0.00214108  0.40495017  -0.02650946  1
  Mo  Mo189  1  0.09750765  0.10728113  0.11029570  1
  Mo  Mo190  1  0.40265101  -0.00738621  0.50389267  1
  Mo  Mo191  1  0.50210599  0.70431684  0.60914427  1
  Mo  Mo192  1  0.20095430  -0.00147499  0.51026497  1
  Mo  Mo193  1  0.40736516  0.80335161  0.74953111  1
  Mo  Mo194  1  0.29230011  0.10823255  0.11912334  1
  Mo  Mo195  1  0.59994409  0.00311195  0.74398769  1
  Mo  Mo196  1  0.00128011  0.40547496  0.25405684  1
  Mo  Mo197  1  0.39750191  0.00626684  0.23564423  1
  Mo  Mo198  1  0.08347300  0.49832988  0.13609834  1
  Mo  Mo199  1  0.40437567  0.59424731  0.50906678  1
