# generated using pymatgen
data_HfZrTaTiMo
_symmetry_space_group_name_H-M   'P 1'
_cell_length_a   15.82445597
_cell_length_b   15.82895672
_cell_length_c   15.39477366
_cell_angle_alpha   90.07863948
_cell_angle_beta   89.93047533
_cell_angle_gamma   90.05451089
_symmetry_Int_Tables_number   1
_chemical_formula_structural   HfZrTaTiMo
_chemical_formula_sum   'Hf40 Zr40 Ta40 Ti40 Mo40'
_cell_volume   3856.14595369
_cell_formula_units_Z   40
loop_
 _symmetry_equiv_pos_site_id
 _symmetry_equiv_pos_as_xyz
  1  'x, y, z'
loop_
 _atom_site_type_symbol
 _atom_site_label
 _atom_site_symmetry_multiplicity
 _atom_site_fract_x
 _atom_site_fract_y
 _atom_site_fract_z
 _atom_site_occupancy
  Hf  Hf0  1  0.89757131  0.30247699  0.11757017  1
  Hf  Hf1  1  0.10087509  0.69463109  0.38202222  1
  Hf  Hf2  1  0.20044138  -0.00192963  0.74867614  1
  Hf  Hf3  1  0.90027276  0.91645089  0.66822591  1
  Hf  Hf4  1  0.79585721  0.40937346  0.23729098  1
  Hf  Hf5  1  0.89857496  0.51497407  0.88431136  1
  Hf  Hf6  1  0.09885224  0.10047570  0.36414777  1
  Hf  Hf7  1  0.69252084  0.31835880  0.61477996  1
  Hf  Hf8  1  0.69722564  0.10663245  0.37931342  1
  Hf  Hf9  1  0.11717335  0.29643639  0.88657264  1
  Hf  Hf10  1  0.40469783  0.80126533  0.75858122  1
  Hf  Hf11  1  0.21175576  0.39748437  0.02271993  1
  Hf  Hf12  1  0.90657258  0.70817887  0.63087030  1
  Hf  Hf13  1  0.10548264  0.49910634  0.61275074  1
  Hf  Hf14  1  0.09535116  0.88496414  0.36717369  1
  Hf  Hf15  1  0.40111466  0.59780456  0.00570570  1
  Hf  Hf16  1  0.69029100  0.51445247  0.62291349  1
  Hf  Hf17  1  0.09265405  0.88867847  0.62226285  1
  Hf  Hf18  1  0.78581551  0.21211120  0.74973786  1
  Hf  Hf19  1  0.40197944  -0.00164855  0.25262923  1
  Hf  Hf20  1  -0.01980066  -0.01658241  0.48740619  1
  Hf  Hf21  1  0.50675539  0.49434182  0.13707156  1
  Hf  Hf22  1  0.60640831  0.79607658  0.25886480  1
  Hf  Hf23  1  0.39626829  -0.00999334  0.49580573  1
  Hf  Hf24  1  0.29709212  0.69152880  0.62158993  1
  Hf  Hf25  1  0.61198190  -0.00166725  0.00357014  1
  Hf  Hf26  1  0.41120956  0.18513001  0.74242173  1
  Hf  Hf27  1  0.09241425  0.09085393  0.61936752  1
  Hf  Hf28  1  0.10006273  0.69943275  0.61313972  1
  Hf  Hf29  1  0.20472369  -0.00657405  0.24623016  1
  Hf  Hf30  1  0.59681203  -0.01234042  0.50915294  1
  Hf  Hf31  1  0.89582658  0.10444678  0.36168456  1
  Hf  Hf32  1  0.09780840  0.09447428  0.12292418  1
  Hf  Hf33  1  0.39990574  0.59132687  0.49073759  1
  Hf  Hf34  1  0.29768281  0.90844003  0.89313968  1
  Hf  Hf35  1  0.79333009  -0.00119853  0.23914048  1
  Hf  Hf36  1  0.57783756  0.00573793  0.73095821  1
  Hf  Hf37  1  -0.01552513  0.58570158  0.50029517  1
  Hf  Hf38  1  0.80687233  0.21288722  0.50523917  1
  Hf  Hf39  1  0.78825733  0.80822147  0.00221588  1
  Zr  Zr40  1  0.19110364  0.59387593  0.76672417  1
  Zr  Zr41  1  0.49553364  0.70083043  0.13580368  1
  Zr  Zr42  1  0.88357730  0.70345069  0.87479898  1
  Zr  Zr43  1  0.09873301  0.49950974  0.13022683  1
  Zr  Zr44  1  0.20757087  0.19579683  0.74815029  1
  Zr  Zr45  1  0.10350608  0.89444699  0.11466057  1
  Zr  Zr46  1  0.88681748  0.07852090  0.86031095  1
  Zr  Zr47  1  0.82060566  0.41878197  0.50853894  1
  Zr  Zr48  1  -0.00221348  0.20260478  0.49721035  1
  Zr  Zr49  1  0.79995596  0.81822528  0.52184383  1
  Zr  Zr50  1  0.60438160  0.59822276  -0.01258887  1
  Zr  Zr51  1  0.79514672  0.00770782  0.51526816  1
  Zr  Zr52  1  0.21441048  0.40792657  0.75256502  1
  Zr  Zr53  1  0.19964933  0.79582008  0.76420479  1
  Zr  Zr54  1  0.31003469  0.30462506  0.61631172  1
  Zr  Zr55  1  0.70759757  0.70035047  0.38469171  1
  Zr  Zr56  1  0.39075877  0.58438235  0.75157178  1
  Zr  Zr57  1  0.10361329  0.30169620  0.61998113  1
  Zr  Zr58  1  0.00678946  0.19456895  0.76410504  1
  Zr  Zr59  1  0.80538846  0.60721341  0.23958692  1
  Zr  Zr60  1  0.10728497  0.30137009  0.35777865  1
  Zr  Zr61  1  0.51360684  0.68818904  0.64025216  1
  Zr  Zr62  1  0.41621541  0.00817702  0.01586606  1
  Zr  Zr63  1  0.71517826  0.90785669  0.84640943  1
  Zr  Zr64  1  0.01123533  0.41358110  0.76553437  1
  Zr  Zr65  1  0.50523187  0.89446106  0.13395163  1
  Zr  Zr66  1  0.89944135  0.71509578  0.38851177  1
  Zr  Zr67  1  0.40743302  0.39418917  0.48063309  1
  Zr  Zr68  1  0.59602175  0.79727118  -0.01916456  1
  Zr  Zr69  1  0.49831029  0.10914184  0.38139176  1
  Zr  Zr70  1  0.20269921  0.59636684  0.24749258  1
  Zr  Zr71  1  0.78433541  0.19795331  -0.00420883  1
  Zr  Zr72  1  0.19783955  -0.00532030  0.48758576  1
  Zr  Zr73  1  0.30860495  0.10405014  0.89127613  1
  Zr  Zr74  1  0.67268142  0.12592930  0.61745818  1
  Zr  Zr75  1  0.58598856  0.19366278  -0.00127699  1
  Zr  Zr76  1  0.89323976  0.30312487  0.88091589  1
  Zr  Zr77  1  0.00559172  0.40121835  0.00260281  1
  Zr  Zr78  1  -0.00828775  0.79139058  0.24027948  1
  Zr  Zr79  1  0.59909273  0.39664783  -0.00984637  1
  Ta  Ta80  1  -0.00430412  0.20292708  0.23486351  1
  Ta  Ta81  1  0.09759395  0.69873757  0.11437647  1
  Ta  Ta82  1  0.59843203  0.79793842  0.50852199  1
  Ta  Ta83  1  0.30736682  0.88061317  0.12869435  1
  Ta  Ta84  1  0.40346436  0.79269115  -0.01265924  1
  Ta  Ta85  1  0.50115348  0.29965924  0.14303124  1
  Ta  Ta86  1  0.00226085  0.19456132  0.00336398  1
  Ta  Ta87  1  0.20771074  0.40681123  0.47746976  1
  Ta  Ta88  1  0.51116756  0.28898635  0.62157743  1
  Ta  Ta89  1  0.20807322  0.20447204  0.02301234  1
  Ta  Ta90  1  0.70617579  0.50391396  0.38443719  1
  Ta  Ta91  1  0.30028897  0.09868876  0.60842605  1
  Ta  Ta92  1  0.29913195  0.89071768  0.62031979  1
  Ta  Ta93  1  0.90765199  0.31222274  0.63893056  1
  Ta  Ta94  1  0.50348463  0.89093451  0.37351014  1
  Ta  Ta95  1  0.78505173  0.41537200  0.00595760  1
  Ta  Ta96  1  0.79409270  0.20673912  0.24166303  1
  Ta  Ta97  1  0.40723581  0.79162727  0.49373007  1
  Ta  Ta98  1  0.31275407  0.29974026  0.88445111  1
  Ta  Ta99  1  0.39797370  0.59931205  0.25523366  1
  Ta  Ta100  1  -0.00941927  -0.00400881  -0.00594453  1
  Ta  Ta101  1  0.20617012  0.59603972  0.00963884  1
  Ta  Ta102  1  0.00017349  0.40522406  0.24686832  1
  Ta  Ta103  1  0.09405231  0.69415770  0.90127627  1
  Ta  Ta104  1  0.00430958  0.80150827  0.77636382  1
  Ta  Ta105  1  0.20733429  0.20390044  0.49196236  1
  Ta  Ta106  1  0.30350042  0.48902977  0.89353026  1
  Ta  Ta107  1  0.39425086  -0.00363988  0.73494494  1
  Ta  Ta108  1  0.89847743  0.30537511  0.35868274  1
  Ta  Ta109  1  0.70516459  0.30801123  0.37725341  1
  Ta  Ta110  1  0.89728219  0.90008122  0.12280704  1
  Ta  Ta111  1  0.59250009  0.59980665  0.48807210  1
  Ta  Ta112  1  0.50176957  0.48465078  0.62824659  1
  Ta  Ta113  1  0.89711948  0.09934075  0.12144156  1
  Ta  Ta114  1  0.60097295  0.39656947  0.76069339  1
  Ta  Ta115  1  0.49444240  0.29286762  0.86942484  1
  Ta  Ta116  1  0.11253725  0.09104707  0.90044702  1
  Ta  Ta117  1  0.79890267  0.40971020  0.74996886  1
  Ta  Ta118  1  0.70824890  0.89939760  0.36969775  1
  Ta  Ta119  1  0.69805440  0.69872643  0.12522199  1
  Ti  Ti120  1  0.59508958  0.40466597  0.48297026  1
  Ti  Ti121  1  0.20820101  0.58644195  0.48174268  1
  Ti  Ti122  1  0.90140660  0.10584409  0.64246980  1
  Ti  Ti123  1  0.68181043  0.10400696  0.85820751  1
  Ti  Ti124  1  0.69240214  0.10544082  0.13190343  1
  Ti  Ti125  1  0.40368671  0.39352370  0.74818042  1
  Ti  Ti126  1  0.40597255  0.39474909  0.01040575  1
  Ti  Ti127  1  0.21025914  0.78949106  0.00727674  1
  Ti  Ti128  1  0.49561555  0.49586481  0.86872982  1
  Ti  Ti129  1  0.30311351  0.09613202  0.12512571  1
  Ti  Ti130  1  0.29831648  0.10793507  0.37445912  1
  Ti  Ti131  1  0.69089961  0.30599924  0.12749562  1
  Ti  Ti132  1  0.89765638  0.50319670  0.36479605  1
  Ti  Ti133  1  0.30892317  0.29630292  0.36076859  1
  Ti  Ti134  1  0.60637971  0.40114580  0.26012106  1
  Ti  Ti135  1  0.10396484  0.90054551  0.89410743  1
  Ti  Ti136  1  0.89856277  0.69783138  0.10627279  1
  Ti  Ti137  1  0.20410852  0.20186499  0.23682335  1
  Ti  Ti138  1  0.68954797  0.70029127  0.84365249  1
  Ti  Ti139  1  0.80070010  0.60303829  0.73311169  1
  Ti  Ti140  1  -0.00712855  -0.00502486  0.24764696  1
  Ti  Ti141  1  0.30066641  0.88370768  0.36295300  1
  Ti  Ti142  1  0.00503795  0.39925185  0.48414022  1
  Ti  Ti143  1  0.40258915  0.20700799  0.01965792  1
  Ti  Ti144  1  0.30861558  0.31071924  0.14708447  1
  Ti  Ti145  1  0.79647461  -0.00117080  0.01045961  1
  Ti  Ti146  1  0.60236951  0.20566966  0.25490102  1
  Ti  Ti147  1  0.60576426  0.59777761  0.26080171  1
  Ti  Ti148  1  0.50066159  0.49888430  0.35990684  1
  Ti  Ti149  1  0.20847433  0.79686878  0.49536482  1
  Ti  Ti150  1  0.30226939  0.70188644  0.36783475  1
  Ti  Ti151  1  0.89721291  0.51070889  0.11152745  1
  Ti  Ti152  1  0.00592732  0.60423375  0.75748389  1
  Ti  Ti153  1  0.50135254  0.90893181  0.87047799  1
  Ti  Ti154  1  0.70613788  0.50937171  0.86447239  1
  Ti  Ti155  1  0.60037030  0.00143198  0.25044242  1
  Ti  Ti156  1  0.30140393  0.69300449  0.88074418  1
  Ti  Ti157  1  0.40285969  0.19683765  0.24501077  1
  Ti  Ti158  1  -0.00984986  0.80387280  -0.00714986  1
  Ti  Ti159  1  -0.00217849  0.59868204  0.25006614  1
  Mo  Mo160  1  0.69915493  0.89914483  0.13293210  1
  Mo  Mo161  1  0.49861966  0.09482396  0.87528539  1
  Mo  Mo162  1  0.30026912  0.70210065  0.12770956  1
  Mo  Mo163  1  0.69900007  0.69889677  0.62636817  1
  Mo  Mo164  1  0.59510282  0.80082986  0.74645994  1
  Mo  Mo165  1  0.29969477  0.49535813  0.35820887  1
  Mo  Mo166  1  0.50059797  0.69522684  0.37368117  1
  Mo  Mo167  1  0.59699139  0.58957590  0.76419349  1
  Mo  Mo168  1  0.50574927  0.10793439  0.14793975  1
  Mo  Mo169  1  0.59242720  0.20740836  0.76063761  1
  Mo  Mo170  1  0.39970317  0.79416527  0.26880847  1
  Mo  Mo171  1  0.40432670  0.39950041  0.25790854  1
  Mo  Mo172  1  0.31202209  0.49765160  0.13068438  1
  Mo  Mo173  1  0.77748634  0.01415978  0.72799016  1
  Mo  Mo174  1  0.90031321  0.90091926  0.87294944  1
  Mo  Mo175  1  0.39663261  0.20050105  0.49421848  1
  Mo  Mo176  1  0.00088307  0.80032035  0.49818226  1
  Mo  Mo177  1  0.69466176  0.50346029  0.13226322  1
  Mo  Mo178  1  0.89185602  0.90232730  0.35616092  1
  Mo  Mo179  1  0.78977480  0.60245280  0.00857334  1
  Mo  Mo180  1  0.30190293  0.49659614  0.60964461  1
  Mo  Mo181  1  0.20497557  0.79024172  0.23826654  1
  Mo  Mo182  1  0.90514567  0.50357142  0.64675301  1
  Mo  Mo183  1  0.48667431  0.10549010  0.60064255  1
  Mo  Mo184  1  0.68925347  0.89119119  0.64138914  1
  Mo  Mo185  1  -0.00269019  0.60601861  0.00653891  1
  Mo  Mo186  1  0.02123460  -0.00569534  0.78058078  1
  Mo  Mo187  1  0.50562169  0.30250734  0.35494027  1
  Mo  Mo188  1  0.48868961  0.89129464  0.61609893  1
  Mo  Mo189  1  0.09349953  0.49822955  0.37074389  1
  Mo  Mo190  1  0.79729852  0.80286375  0.22977028  1
  Mo  Mo191  1  0.69665017  0.31162747  0.87391211  1
  Mo  Mo192  1  0.20662518  0.39742011  0.25180557  1
  Mo  Mo193  1  0.59316766  0.22260794  0.47807201  1
  Mo  Mo194  1  0.49799246  0.69645049  0.86275280  1
  Mo  Mo195  1  0.10283465  0.29429594  0.13540976  1
  Mo  Mo196  1  0.10634343  0.50652708  0.89798303  1
  Mo  Mo197  1  0.20467432  -0.00351532  0.02000432  1
  Mo  Mo198  1  0.79478256  0.60447595  0.51571087  1
  Mo  Mo199  1  0.79609787  0.79618209  0.73924991  1
