# generated using pymatgen
data_HfZrTaTiMo
_symmetry_space_group_name_H-M   'P 1'
_cell_length_a   15.85175496
_cell_length_b   15.82833164
_cell_length_c   15.39740839
_cell_angle_alpha   90.02415246
_cell_angle_beta   90.00163890
_cell_angle_gamma   90.06746687
_symmetry_Int_Tables_number   1
_chemical_formula_structural   HfZrTaTiMo
_chemical_formula_sum   'Hf40 Zr40 Ta40 Ti40 Mo40'
_cell_volume   3863.31197633
_cell_formula_units_Z   40
loop_
 _symmetry_equiv_pos_site_id
 _symmetry_equiv_pos_as_xyz
  1  'x, y, z'
loop_
 _atom_site_type_symbol
 _atom_site_label
 _atom_site_symmetry_multiplicity
 _atom_site_fract_x
 _atom_site_fract_y
 _atom_site_fract_z
 _atom_site_occupancy
  Hf  Hf0  1  0.69726981  0.48850255  0.13004135  1
  Hf  Hf1  1  0.67799128  0.10799299  0.86673521  1
  Hf  Hf2  1  0.80479401  0.60362325  0.75923476  1
  Hf  Hf3  1  0.09995281  0.09707556  0.86822835  1
  Hf  Hf4  1  0.89420872  0.70143749  0.39116671  1
  Hf  Hf5  1  0.09865145  0.68533450  0.61197132  1
  Hf  Hf6  1  0.50287971  0.69947146  0.11856913  1
  Hf  Hf7  1  0.30653617  0.50499579  0.63190566  1
  Hf  Hf8  1  0.40630897  0.19896530  0.23813045  1
  Hf  Hf9  1  0.20878393  0.79588462  0.74492721  1
  Hf  Hf10  1  0.90761565  0.28943354  0.38761093  1
  Hf  Hf11  1  0.20080784  0.60226731  0.24345319  1
  Hf  Hf12  1  0.89016433  0.10075379  0.12273280  1
  Hf  Hf13  1  0.09895518  0.49488424  0.11993373  1
  Hf  Hf14  1  0.40449723  0.80419775  0.51007013  1
  Hf  Hf15  1  0.91380276  0.50393394  0.38265911  1
  Hf  Hf16  1  0.68610233  0.09110195  0.11910398  1
  Hf  Hf17  1  0.51145223  0.71861120  0.35497175  1
  Hf  Hf18  1  0.90203451  0.89390018  0.39721796  1
  Hf  Hf19  1  0.29548672  0.10633426  0.36849156  1
  Hf  Hf20  1  0.80216216  0.39902514  0.26640640  1
  Hf  Hf21  1  0.89789808  0.49607554  0.12390471  1
  Hf  Hf22  1  0.30990651  0.29337971  0.89299301  1
  Hf  Hf23  1  0.03361980  0.40437599  0.50419923  1
  Hf  Hf24  1  0.89228660  0.89698299  0.12501717  1
  Hf  Hf25  1  0.01140071  0.59859917  0.76571559  1
  Hf  Hf26  1  0.41289528  0.60363226  0.49298790  1
  Hf  Hf27  1  0.58971972  0.79601838  0.51466580  1
  Hf  Hf28  1  0.19887890  0.00234802  0.50372400  1
  Hf  Hf29  1  0.70107327  0.49570709  0.63313697  1
  Hf  Hf30  1  0.78925183  0.79002795  0.25015586  1
  Hf  Hf31  1  0.18662200  0.80193441  0.24305460  1
  Hf  Hf32  1  0.68224728  0.90790320  0.63756058  1
  Hf  Hf33  1  0.20819986  0.20205448  0.74681891  1
  Hf  Hf34  1  -0.00744037  0.20383804  -0.00425067  1
  Hf  Hf35  1  0.61606239  0.60467456  0.25128983  1
  Hf  Hf36  1  0.00814401  0.40499113  0.75261122  1
  Hf  Hf37  1  0.39666292  -0.00525421  0.50501584  1
  Hf  Hf38  1  0.08462618  0.10118410  0.62821677  1
  Hf  Hf39  1  0.41189415  0.39084761  0.75735486  1
  Zr  Zr40  1  0.78998753  0.79505168  0.75064330  1
  Zr  Zr41  1  0.30729444  0.50765129  0.88878755  1
  Zr  Zr42  1  0.89727156  0.70435181  0.60217208  1
  Zr  Zr43  1  0.30799047  0.69956577  0.36525204  1
  Zr  Zr44  1  0.08884956  0.70610783  0.38775083  1
  Zr  Zr45  1  0.30520456  0.90445006  0.35384167  1
  Zr  Zr46  1  0.30650486  0.50441738  0.11317428  1
  Zr  Zr47  1  0.30726336  0.09083675  0.12172626  1
  Zr  Zr48  1  0.49396162  0.70089097  0.89365305  1
  Zr  Zr49  1  0.78318282  -0.00474785  -0.01525020  1
  Zr  Zr50  1  0.00177796  0.60628321  0.24504025  1
  Zr  Zr51  1  -0.00298653  0.19346313  0.24664550  1
  Zr  Zr52  1  0.79285444  -0.00023813  0.26522063  1
  Zr  Zr53  1  -0.00726842  0.79051092  0.75313239  1
  Zr  Zr54  1  0.08659580  0.90239684  0.63010877  1
  Zr  Zr55  1  0.30659359  0.30187855  0.36771534  1
  Zr  Zr56  1  -0.00302149  0.21068129  0.75372510  1
  Zr  Zr57  1  0.79211575  0.39830077  0.49578823  1
  Zr  Zr58  1  0.51508593  0.30217844  0.12238763  1
  Zr  Zr59  1  0.90709036  0.29825907  0.61260282  1
  Zr  Zr60  1  0.79757834  0.80716885  -0.01136626  1
  Zr  Zr61  1  0.50022980  0.11151720  0.38599633  1
  Zr  Zr62  1  0.22408717  0.00211756  0.74772070  1
  Zr  Zr63  1  0.20601545  0.80895761  0.50219279  1
  Zr  Zr64  1  0.19719828  0.40321645  0.75615411  1
  Zr  Zr65  1  0.50521648  0.09423594  0.62843000  1
  Zr  Zr66  1  0.79202827  0.21208987  -0.01236539  1
  Zr  Zr67  1  0.19327374  0.20952154  0.51116328  1
  Zr  Zr68  1  0.50747427  0.50265363  0.62973317  1
  Zr  Zr69  1  0.00386743  -0.00462092  0.26479073  1
  Zr  Zr70  1  0.29499766  0.70150971  0.89384827  1
  Zr  Zr71  1  0.20005313  0.57912440  0.48563425  1
  Zr  Zr72  1  0.10188841  0.89044493  0.87526817  1
  Zr  Zr73  1  0.49713896  0.92230732  0.12416694  1
  Zr  Zr74  1  -0.01064690  0.00006996  -0.01242490  1
  Zr  Zr75  1  0.91063040  0.51152549  0.61497497  1
  Zr  Zr76  1  0.31453379  0.30363497  0.62612827  1
  Zr  Zr77  1  0.51172825  0.27624889  0.88700702  1
  Zr  Zr78  1  0.09433531  0.89974576  0.10998185  1
  Zr  Zr79  1  0.50385792  0.49961037  0.87752377  1
  Ta  Ta80  1  0.78314615  0.19551545  0.51580356  1
  Ta  Ta81  1  0.79200462  0.00879086  0.74074784  1
  Ta  Ta82  1  0.89585137  0.09977418  0.40117570  1
  Ta  Ta83  1  0.59178762  0.00056172  0.26482531  1
  Ta  Ta84  1  0.89459929  0.90902618  0.62053688  1
  Ta  Ta85  1  0.60322049  0.81798304  0.00632883  1
  Ta  Ta86  1  0.10785014  0.29890035  0.36350858  1
  Ta  Ta87  1  0.78519920  -0.00103487  0.50644953  1
  Ta  Ta88  1  0.89001161  0.10275765  0.85911338  1
  Ta  Ta89  1  0.40804398  0.40656689  0.48855917  1
  Ta  Ta90  1  0.49067125  0.90126368  0.87086754  1
  Ta  Ta91  1  0.19784526  0.19487636  0.00684549  1
  Ta  Ta92  1  0.80258768  0.39463054  -0.00924387  1
  Ta  Ta93  1  0.30128114  0.30071747  0.11661785  1
  Ta  Ta94  1  0.70408863  0.49700273  0.87193097  1
  Ta  Ta95  1  0.29617294  0.90581613  0.12887433  1
  Ta  Ta96  1  0.68337939  0.88648602  0.37312144  1
  Ta  Ta97  1  0.79755220  0.59313962  -0.00390973  1
  Ta  Ta98  1  0.62071516  0.38812463  -0.00886897  1
  Ta  Ta99  1  0.79248803  0.20383154  0.73678289  1
  Ta  Ta100  1  0.90040507  0.70004108  0.11169064  1
  Ta  Ta101  1  0.69128863  0.28916393  0.37102018  1
  Ta  Ta102  1  0.51250545  0.30246626  0.61091632  1
  Ta  Ta103  1  0.70697841  0.29451328  0.14116912  1
  Ta  Ta104  1  0.50454114  0.50015162  0.35919881  1
  Ta  Ta105  1  0.90122806  0.49819302  0.87960359  1
  Ta  Ta106  1  0.39154581  0.81106473  0.01250824  1
  Ta  Ta107  1  0.09917141  0.29966545  0.12119195  1
  Ta  Ta108  1  0.40908230  0.40290730  0.24181700  1
  Ta  Ta109  1  0.19344566  0.19828165  0.23513560  1
  Ta  Ta110  1  0.60254762  0.40462513  0.48573635  1
  Ta  Ta111  1  0.21186938  -0.00379106  -0.01395999  1
  Ta  Ta112  1  -0.00480881  0.39387564  -0.00808268  1
  Ta  Ta113  1  0.58438383  0.78761275  0.75024776  1
  Ta  Ta114  1  0.60423432  0.60317325  0.75831649  1
  Ta  Ta115  1  0.59555157  -0.00755591  0.49087738  1
  Ta  Ta116  1  0.70302691  0.69969611  0.10834585  1
  Ta  Ta117  1  -0.00247266  0.59733335  -0.00223543  1
  Ta  Ta118  1  0.30606729  0.69674653  0.62585904  1
  Ta  Ta119  1  0.68958229  0.69661393  0.88950719  1
  Ti  Ti120  1  0.41893419  0.40508625  0.01000480  1
  Ti  Ti121  1  0.21277329  0.39980041  0.49818047  1
  Ti  Ti122  1  -0.00440010  0.80033416  0.24975954  1
  Ti  Ti123  1  0.10354506  0.30049436  0.88676623  1
  Ti  Ti124  1  0.77912143  0.80311736  0.50548713  1
  Ti  Ti125  1  0.18850584  0.00446272  0.25417449  1
  Ti  Ti126  1  0.69524433  0.10137574  0.38643520  1
  Ti  Ti127  1  0.60844223  0.39136248  0.75646056  1
  Ti  Ti128  1  0.59949241  0.58556525  0.00648193  1
  Ti  Ti129  1  0.89833887  0.09506688  0.61794843  1
  Ti  Ti130  1  0.80160366  0.60268834  0.25419052  1
  Ti  Ti131  1  0.40521426  0.59920130  0.23616622  1
  Ti  Ti132  1  0.60290954  0.59998790  0.48592088  1
  Ti  Ti133  1  0.00715443  0.39684633  0.25405227  1
  Ti  Ti134  1  0.20492952  0.39606554  0.24313705  1
  Ti  Ti135  1  0.19990899  0.60029997  0.75451376  1
  Ti  Ti136  1  0.19886772  0.39549487  0.00246125  1
  Ti  Ti137  1  0.68348719  0.89989655  0.85599026  1
  Ti  Ti138  1  0.50463879  0.30178586  0.37806664  1
  Ti  Ti139  1  0.89796577  0.30281729  0.13276731  1
  Ti  Ti140  1  0.48794622  0.90075614  0.65260927  1
  Ti  Ti141  1  0.39869181  0.18239544  0.74935766  1
  Ti  Ti142  1  0.40870632  0.61855511  0.74828567  1
  Ti  Ti143  1  0.80630890  0.39170337  0.75616178  1
  Ti  Ti144  1  0.50133871  0.10228661  0.09662455  1
  Ti  Ti145  1  0.78086235  0.59559733  0.48745937  1
  Ti  Ti146  1  0.09031440  0.10580077  0.38706755  1
  Ti  Ti147  1  0.69006808  0.68980471  0.62470019  1
  Ti  Ti148  1  0.90108098  0.69987286  0.89096615  1
  Ti  Ti149  1  0.79838140  0.19330842  0.26020291  1
  Ti  Ti150  1  0.09730406  0.70434990  0.10377319  1
  Ti  Ti151  1  0.39946955  0.20212196  0.50661774  1
  Ti  Ti152  1  0.60115056  0.20415578  0.73201680  1
  Ti  Ti153  1  0.89709992  0.90471292  0.85756997  1
  Ti  Ti154  1  0.09878234  0.09456543  0.11533113  1
  Ti  Ti155  1  0.60233253  0.19383150  0.24760689  1
  Ti  Ti156  1  0.10943028  0.50677857  0.89574388  1
  Ti  Ti157  1  0.30832094  0.49566126  0.35912653  1
  Ti  Ti158  1  0.40224406  0.80606630  0.23283776  1
  Ti  Ti159  1  0.10383249  0.70075860  0.89916881  1
  Mo  Mo160  1  0.89932705  0.30410003  0.86497585  1
  Mo  Mo161  1  -0.00270264  0.80463948  0.51241612  1
  Mo  Mo162  1  -0.00096054  0.20153330  0.50156928  1
  Mo  Mo163  1  0.10921648  0.30555368  0.62556605  1
  Mo  Mo164  1  0.60221310  0.39472830  0.26685462  1
  Mo  Mo165  1  0.69204836  0.90083080  0.13689486  1
  Mo  Mo166  1  -0.01862366  0.00324876  0.75448439  1
  Mo  Mo167  1  0.20115656  0.80253638  0.01480195  1
  Mo  Mo168  1  0.39693769  0.00087089  -0.02002014  1
  Mo  Mo169  1  -0.00600084  0.79525632  -0.01027461  1
  Mo  Mo170  1  0.50189899  0.69537712  0.63140818  1
  Mo  Mo171  1  0.39879009  0.00342797  0.76321424  1
  Mo  Mo172  1  0.69958187  0.70211122  0.38576775  1
  Mo  Mo173  1  0.49914437  0.90168542  0.36129176  1
  Mo  Mo174  1  0.30629349  0.89901150  0.63229774  1
  Mo  Mo175  1  -0.00405235  0.00274701  0.49532347  1
  Mo  Mo176  1  0.50906324  0.49760282  0.13244950  1
  Mo  Mo177  1  0.40553961  0.60304736  0.01780663  1
  Mo  Mo178  1  0.60251608  0.20481875  0.50604707  1
  Mo  Mo179  1  0.30499921  0.10549391  0.88958570  1
  Mo  Mo180  1  0.30630360  0.10153010  0.61772341  1
  Mo  Mo181  1  0.59369586  -0.00277104  -0.01972516  1
  Mo  Mo182  1  0.60733767  0.20093441  0.01084902  1
  Mo  Mo183  1  0.11330333  0.48511204  0.35182946  1
  Mo  Mo184  1  0.30413994  0.89600211  0.88287868  1
  Mo  Mo185  1  0.59118509  -0.00116964  0.76222324  1
  Mo  Mo186  1  0.19534016  0.60223152  0.01297512  1
  Mo  Mo187  1  0.70303197  0.30073091  0.85427204  1
  Mo  Mo188  1  0.39405976  0.80134219  0.74589816  1
  Mo  Mo189  1  0.40381390  0.00552975  0.25797828  1
  Mo  Mo190  1  0.00573580  0.59453367  0.49004026  1
  Mo  Mo191  1  0.09580998  0.90624275  0.37707536  1
  Mo  Mo192  1  0.60509706  0.80446900  0.22714820  1
  Mo  Mo193  1  0.11589515  0.50258432  0.63622581  1
  Mo  Mo194  1  0.70042288  0.49947231  0.36926947  1
  Mo  Mo195  1  0.69564424  0.30562040  0.63416535  1
  Mo  Mo196  1  0.39988187  0.20051485  0.01224897  1
  Mo  Mo197  1  0.49314527  0.09706458  0.87846982  1
  Mo  Mo198  1  0.30004083  0.70788960  0.12325438  1
  Mo  Mo199  1  0.69447502  0.09875783  0.62520738  1
