# generated using pymatgen
data_HfZrTaTiMo
_symmetry_space_group_name_H-M   'P 1'
_cell_length_a   15.82969960
_cell_length_b   15.84508119
_cell_length_c   15.40038960
_cell_angle_alpha   89.94865825
_cell_angle_beta   90.02647411
_cell_angle_gamma   89.90152808
_symmetry_Int_Tables_number   1
_chemical_formula_structural   HfZrTaTiMo
_chemical_formula_sum   'Hf40 Zr40 Ta40 Ti40 Mo40'
_cell_volume   3862.76233138
_cell_formula_units_Z   40
loop_
 _symmetry_equiv_pos_site_id
 _symmetry_equiv_pos_as_xyz
  1  'x, y, z'
loop_
 _atom_site_type_symbol
 _atom_site_label
 _atom_site_symmetry_multiplicity
 _atom_site_fract_x
 _atom_site_fract_y
 _atom_site_fract_z
 _atom_site_occupancy
  Hf  Hf0  1  0.80353639  0.39561301  0.51394061  1
  Hf  Hf1  1  0.40125910  -0.00676253  0.50743140  1
  Hf  Hf2  1  0.19509987  0.79900064  0.00483255  1
  Hf  Hf3  1  0.19420092  0.79495018  0.25635078  1
  Hf  Hf4  1  0.90797219  0.88932389  0.11574182  1
  Hf  Hf5  1  0.79144633  0.40106397  0.22948159  1
  Hf  Hf6  1  0.39817742  0.78990596  -0.00445150  1
  Hf  Hf7  1  0.60672282  0.40200100  0.51993647  1
  Hf  Hf8  1  0.00460206  -0.00113593  0.25834049  1
  Hf  Hf9  1  0.02426034  0.59881333  0.76013437  1
  Hf  Hf10  1  0.89917678  0.70051621  0.38232563  1
  Hf  Hf11  1  0.10087660  0.91905996  0.88788678  1
  Hf  Hf12  1  0.51563492  0.69027910  0.10380674  1
  Hf  Hf13  1  0.40035099  0.20307647  0.75833510  1
  Hf  Hf14  1  0.28344234  0.09656153  0.89707388  1
  Hf  Hf15  1  0.29273563  0.09544692  0.37227850  1
  Hf  Hf16  1  0.80774509  -0.01175507  0.75985774  1
  Hf  Hf17  1  0.50600569  0.69975808  0.37281044  1
  Hf  Hf18  1  0.18971353  0.20275928  0.24887934  1
  Hf  Hf19  1  0.40163541  0.59279286  0.24011121  1
  Hf  Hf20  1  -0.00509418  0.20966673  0.00716754  1
  Hf  Hf21  1  0.39451640  0.20414667  0.24558035  1
  Hf  Hf22  1  0.30227442  0.30352513  0.88851785  1
  Hf  Hf23  1  0.69887517  0.70197434  0.38285616  1
  Hf  Hf24  1  0.38968082  0.00152212  0.74397676  1
  Hf  Hf25  1  0.28888256  0.10740150  0.60626186  1
  Hf  Hf26  1  0.69786470  0.89454269  0.38460427  1
  Hf  Hf27  1  0.80720787  0.60433397  -0.00528003  1
  Hf  Hf28  1  0.60219613  0.38641012  0.74859609  1
  Hf  Hf29  1  0.50437230  0.90633235  0.88986796  1
  Hf  Hf30  1  0.80951014  0.39111813  0.01296554  1
  Hf  Hf31  1  0.00117277  0.81561690  0.75975871  1
  Hf  Hf32  1  0.39763030  0.40445335  0.22791445  1
  Hf  Hf33  1  0.89799262  0.49470858  0.36719469  1
  Hf  Hf34  1  0.49113073  0.31486615  0.37816412  1
  Hf  Hf35  1  0.29968093  0.90895567  0.88856882  1
  Hf  Hf36  1  0.10261334  0.70730774  0.62067720  1
  Hf  Hf37  1  0.19274575  0.40630745  0.01349331  1
  Hf  Hf38  1  0.19218546  0.60595729  -0.00055039  1
  Hf  Hf39  1  0.60122522  0.79678645  0.76166916  1
  Zr  Zr40  1  0.39831110  0.20506276  0.01609925  1
  Zr  Zr41  1  0.70200929  0.30507154  0.36746608  1
  Zr  Zr42  1  0.90892167  0.89195232  0.61291712  1
  Zr  Zr43  1  0.49780251  0.10528593  0.62300664  1
  Zr  Zr44  1  0.39514201  0.79546552  0.50249343  1
  Zr  Zr45  1  0.00464996  0.59185019  0.50286416  1
  Zr  Zr46  1  0.80098468  0.60466361  0.23197520  1
  Zr  Zr47  1  0.29939157  0.30485628  0.60511781  1
  Zr  Zr48  1  0.19959804  0.60931309  0.47285613  1
  Zr  Zr49  1  0.51056504  0.89373953  0.36136962  1
  Zr  Zr50  1  0.40407432  0.59826936  0.75599746  1
  Zr  Zr51  1  0.60861147  0.60319047  0.52746477  1
  Zr  Zr52  1  0.90124392  0.50223802  0.64453954  1
  Zr  Zr53  1  0.28618661  0.50783049  0.61789677  1
  Zr  Zr54  1  0.60432225  0.00033083  0.75036891  1
  Zr  Zr55  1  0.18211270  0.00850885  0.74256716  1
  Zr  Zr56  1  0.68392473  0.51091541  0.09718839  1
  Zr  Zr57  1  0.60115022  0.20399498  0.23663353  1
  Zr  Zr58  1  0.70436604  0.48851737  0.87347174  1
  Zr  Zr59  1  0.69914686  0.50222657  0.37638100  1
  Zr  Zr60  1  0.60310962  0.19687632  0.49469551  1
  Zr  Zr61  1  0.60130290  0.60012810  0.24270595  1
  Zr  Zr62  1  0.40151082  0.60378125  0.50395980  1
  Zr  Zr63  1  0.69621018  0.10238060  0.88880844  1
  Zr  Zr64  1  0.10192373  0.29826002  0.61717271  1
  Zr  Zr65  1  0.40303482  0.39870266  0.75320372  1
  Zr  Zr66  1  0.01705462  0.18285487  0.75853146  1
  Zr  Zr67  1  0.51247723  0.88972954  0.11724661  1
  Zr  Zr68  1  0.80468186  0.00132644  0.49360815  1
  Zr  Zr69  1  0.20191054  0.59603573  0.25264014  1
  Zr  Zr70  1  0.49880420  0.10154745  0.89427290  1
  Zr  Zr71  1  0.90118311  0.29351232  0.63831426  1
  Zr  Zr72  1  0.30811641  0.90365891  0.35959467  1
  Zr  Zr73  1  0.49927487  0.08783931  0.36284801  1
  Zr  Zr74  1  0.89900741  0.10297822  0.87609307  1
  Zr  Zr75  1  0.80297936  -0.00212325  0.24340667  1
  Zr  Zr76  1  0.90960211  0.09290526  0.62581689  1
  Zr  Zr77  1  0.19278655  0.41445091  0.75386513  1
  Zr  Zr78  1  0.10105971  0.29865713  0.88053511  1
  Zr  Zr79  1  0.79512769  0.80170997  0.24062734  1
  Ta  Ta80  1  0.29142706  0.70696955  0.64100811  1
  Ta  Ta81  1  0.79875864  0.19860640  0.23636891  1
  Ta  Ta82  1  0.19683505  0.80183773  0.47977256  1
  Ta  Ta83  1  0.18778554  0.40736465  0.47625794  1
  Ta  Ta84  1  0.91098814  0.70085404  0.11521083  1
  Ta  Ta85  1  0.50058091  0.09023603  0.12244171  1
  Ta  Ta86  1  0.20519549  0.19926357  0.75122472  1
  Ta  Ta87  1  0.90132699  0.69918949  0.87007075  1
  Ta  Ta88  1  0.59893359  0.59847758  0.76030186  1
  Ta  Ta89  1  0.70353108  0.89402265  0.62448552  1
  Ta  Ta90  1  0.58914943  0.40264649  0.22411378  1
  Ta  Ta91  1  0.70197760  0.09679906  0.36953743  1
  Ta  Ta92  1  0.31285228  0.48689068  0.37894226  1
  Ta  Ta93  1  0.80090609  0.20063164  0.49850892  1
  Ta  Ta94  1  0.60260604  -0.00535028  0.51145218  1
  Ta  Ta95  1  0.88968198  0.30297158  0.86758473  1
  Ta  Ta96  1  0.29564190  0.69856030  0.86692114  1
  Ta  Ta97  1  0.10021925  0.90404585  0.60534159  1
  Ta  Ta98  1  0.10022388  0.09815056  0.59626166  1
  Ta  Ta99  1  0.49526559  0.29829376  0.61417077  1
  Ta  Ta100  1  0.40277164  0.78871692  0.23830638  1
  Ta  Ta101  1  0.80159451  -0.00737482  0.00230583  1
  Ta  Ta102  1  0.70568714  0.10019965  0.62589705  1
  Ta  Ta103  1  0.29177328  0.30399566  0.12349441  1
  Ta  Ta104  1  0.39784263  0.80347753  0.75736468  1
  Ta  Ta105  1  0.29720665  0.50268494  0.88475850  1
  Ta  Ta106  1  0.69890685  0.28992498  0.89659283  1
  Ta  Ta107  1  0.08719677  0.30240198  0.36200262  1
  Ta  Ta108  1  0.19557244  0.80419708  0.75893889  1
  Ta  Ta109  1  0.00475439  0.40151571  0.75905344  1
  Ta  Ta110  1  0.50323781  0.49721156  0.38307293  1
  Ta  Ta111  1  -0.00193775  0.00550235  0.00465423  1
  Ta  Ta112  1  0.90222572  0.49643017  0.86945579  1
  Ta  Ta113  1  0.50091090  0.89463348  0.63300863  1
  Ta  Ta114  1  0.89984759  0.11225874  0.36609834  1
  Ta  Ta115  1  0.09162077  0.50521634  0.13195747  1
  Ta  Ta116  1  0.30290953  0.90282593  0.12916522  1
  Ta  Ta117  1  0.09402422  0.10061761  0.12562434  1
  Ta  Ta118  1  0.00242370  0.39894613  0.49302934  1
  Ta  Ta119  1  0.61475866  -0.00782748  0.23075700  1
  Ti  Ti120  1  0.19995558  0.40277228  0.25009501  1
  Ti  Ti121  1  0.19112574  -0.00145194  0.25033244  1
  Ti  Ti122  1  0.70171362  0.69935426  0.87804842  1
  Ti  Ti123  1  0.80093873  0.80324639  0.76602519  1
  Ti  Ti124  1  0.69937099  0.72041534  0.09993227  1
  Ti  Ti125  1  0.89976678  0.10080460  0.12656089  1
  Ti  Ti126  1  0.00397637  0.60575160  0.25680334  1
  Ti  Ti127  1  0.89734513  0.29869759  0.36240757  1
  Ti  Ti128  1  0.39351207  0.20637728  0.48166962  1
  Ti  Ti129  1  0.59878360  0.20296255  0.74797158  1
  Ti  Ti130  1  0.71356897  0.69538895  0.64827237  1
  Ti  Ti131  1  0.50157860  0.49485142  0.89121022  1
  Ti  Ti132  1  0.00264188  0.40123244  0.24502565  1
  Ti  Ti133  1  0.50897424  0.30286527  0.89731632  1
  Ti  Ti134  1  0.00531751  0.59973607  -0.01066055  1
  Ti  Ti135  1  0.79996058  0.78958129  0.51284600  1
  Ti  Ti136  1  0.29957296  0.69753342  0.12535715  1
  Ti  Ti137  1  0.00587051  0.79975707  0.26471432  1
  Ti  Ti138  1  0.49670930  0.70297606  0.63813808  1
  Ti  Ti139  1  0.60078507  0.79708632  0.52099595  1
  Ti  Ti140  1  -0.00447413  0.20337805  0.48541625  1
  Ti  Ti141  1  0.39583332  0.59399121  -0.00127053  1
  Ti  Ti142  1  0.70179356  0.10102283  0.10928173  1
  Ti  Ti143  1  0.49671637  0.49724085  0.62699281  1
  Ti  Ti144  1  0.28859024  0.89356879  0.62295016  1
  Ti  Ti145  1  0.80131340  0.59715261  0.51547816  1
  Ti  Ti146  1  0.91116880  0.50835182  0.12467947  1
  Ti  Ti147  1  0.18972749  0.20265965  0.01935662  1
  Ti  Ti148  1  0.90777981  0.29545281  0.13812791  1
  Ti  Ti149  1  0.71170180  0.50034001  0.65293895  1
  Ti  Ti150  1  0.00043704  0.40451919  0.00240155  1
  Ti  Ti151  1  0.09925526  0.90133252  0.12215315  1
  Ti  Ti152  1  0.19007994  0.20776954  0.47292531  1
  Ti  Ti153  1  0.89927387  0.69934450  0.63954356  1
  Ti  Ti154  1  0.08641806  0.70393745  0.12755040  1
  Ti  Ti155  1  0.00925892  0.00076099  0.47443498  1
  Ti  Ti156  1  0.00062613  0.79521099  -0.01526956  1
  Ti  Ti157  1  0.78541768  0.20504030  0.74589128  1
  Ti  Ti158  1  0.29609806  0.09100913  0.12872926  1
  Ti  Ti159  1  0.90218112  0.89175787  0.38362033  1
  Mo  Mo160  1  0.40234134  -0.00216374  0.23173755  1
  Mo  Mo161  1  0.60657038  0.79783827  0.24410880  1
  Mo  Mo162  1  0.10108365  0.70801355  0.87592552  1
  Mo  Mo163  1  0.80782421  0.79713802  -0.01144621  1
  Mo  Mo164  1  0.59757254  0.60335935  -0.02881036  1
  Mo  Mo165  1  0.70079650  0.29695678  0.11459789  1
  Mo  Mo166  1  0.29278398  0.30505978  0.37225872  1
  Mo  Mo167  1  0.09617983  0.10379175  0.37915083  1
  Mo  Mo168  1  0.50022378  0.30078757  0.11570032  1
  Mo  Mo169  1  0.70354181  0.89838766  0.10540474  1
  Mo  Mo170  1  -0.00618360  0.20009174  0.24584299  1
  Mo  Mo171  1  0.19881336  -0.00358149  0.49614681  1
  Mo  Mo172  1  0.09456610  0.50054424  0.89314601  1
  Mo  Mo173  1  0.00678118  -0.00124855  0.75033080  1
  Mo  Mo174  1  0.69895453  0.28807314  0.62790020  1
  Mo  Mo175  1  0.09301616  0.49570452  0.35325055  1
  Mo  Mo176  1  0.10271262  0.10483410  0.90093423  1
  Mo  Mo177  1  0.70520983  0.89544465  0.88952607  1
  Mo  Mo178  1  0.29525452  0.50447407  0.11294009  1
  Mo  Mo179  1  0.09328005  0.30625635  0.13834711  1
  Mo  Mo180  1  0.59562803  0.39530309  0.00308334  1
  Mo  Mo181  1  0.60202278  0.20153175  0.01733835  1
  Mo  Mo182  1  0.09331565  0.70099388  0.37327171  1
  Mo  Mo183  1  0.30655342  0.69798411  0.35719566  1
  Mo  Mo184  1  0.60710572  0.79731900  -0.02404454  1
  Mo  Mo185  1  0.49503704  0.49973500  0.09840009  1
  Mo  Mo186  1  0.60709373  -0.00095933  0.01364235  1
  Mo  Mo187  1  0.80485698  0.19921636  0.01949330  1
  Mo  Mo188  1  0.39985669  0.40251078  0.50423255  1
  Mo  Mo189  1  0.39696685  -0.00154742  0.01918828  1
  Mo  Mo190  1  0.39648277  0.40635476  0.00730157  1
  Mo  Mo191  1  0.80006062  0.39072544  0.75626028  1
  Mo  Mo192  1  0.10009121  0.49693176  0.61704840  1
  Mo  Mo193  1  0.49659285  0.69502641  0.87661960  1
  Mo  Mo194  1  0.19452867  0.00197437  0.02833537  1
  Mo  Mo195  1  0.80308049  0.60657602  0.76296330  1
  Mo  Mo196  1  0.20176724  0.60599321  0.76331711  1
  Mo  Mo197  1  0.00236055  0.79931041  0.49038806  1
  Mo  Mo198  1  0.10129330  0.90149141  0.38082734  1
  Mo  Mo199  1  0.90117309  0.89827496  0.88990670  1
