# generated using pymatgen
data_HfZrTaTiMo
_symmetry_space_group_name_H-M   'P 1'
_cell_length_a   15.84116659
_cell_length_b   15.83949980
_cell_length_c   15.40069528
_cell_angle_alpha   89.93616382
_cell_angle_beta   90.03715019
_cell_angle_gamma   90.00433858
_symmetry_Int_Tables_number   1
_chemical_formula_structural   HfZrTaTiMo
_chemical_formula_sum   'Hf40 Zr40 Ta40 Ti40 Mo40'
_cell_volume   3864.28002557
_cell_formula_units_Z   40
loop_
 _symmetry_equiv_pos_site_id
 _symmetry_equiv_pos_as_xyz
  1  'x, y, z'
loop_
 _atom_site_type_symbol
 _atom_site_label
 _atom_site_symmetry_multiplicity
 _atom_site_fract_x
 _atom_site_fract_y
 _atom_site_fract_z
 _atom_site_occupancy
  Hf  Hf0  1  0.58946002  0.60632184  0.51433825  1
  Hf  Hf1  1  0.49930018  0.69824589  0.88215929  1
  Hf  Hf2  1  0.79276810  0.60160965  0.49813520  1
  Hf  Hf3  1  0.90172699  0.50137220  0.62214221  1
  Hf  Hf4  1  0.59466691  0.39311202  0.01035957  1
  Hf  Hf5  1  0.69627785  0.89989088  0.60219729  1
  Hf  Hf6  1  0.90481092  0.30302036  0.61646290  1
  Hf  Hf7  1  0.11530958  0.29896765  0.12302415  1
  Hf  Hf8  1  0.19480978  -0.00538183  0.74096244  1
  Hf  Hf9  1  0.80321397  0.40067970  0.75216449  1
  Hf  Hf10  1  0.49676462  0.29701076  0.86670985  1
  Hf  Hf11  1  0.89453988  0.89588036  0.12885178  1
  Hf  Hf12  1  0.88711494  0.11083190  0.61279584  1
  Hf  Hf13  1  0.08902832  0.89755095  0.88250678  1
  Hf  Hf14  1  0.69826436  0.50462472  0.87521504  1
  Hf  Hf15  1  0.10988501  0.29963731  0.36906102  1
  Hf  Hf16  1  0.09628532  0.49998514  0.63933916  1
  Hf  Hf17  1  0.41001489  0.39098965  0.23049735  1
  Hf  Hf18  1  0.49235444  0.90360922  0.87474080  1
  Hf  Hf19  1  0.89402181  0.50787905  0.88114685  1
  Hf  Hf20  1  0.39789996  0.19948805  0.52226918  1
  Hf  Hf21  1  0.29085765  0.51646580  0.63888390  1
  Hf  Hf22  1  0.11746029  0.69171270  0.63894972  1
  Hf  Hf23  1  0.00144613  0.40405124  0.23171532  1
  Hf  Hf24  1  0.30868473  0.10012850  0.86667368  1
  Hf  Hf25  1  0.19103178  0.00675059  0.00106566  1
  Hf  Hf26  1  0.90276616  0.89793896  0.88945974  1
  Hf  Hf27  1  0.79392021  0.00516656  0.75015124  1
  Hf  Hf28  1  0.60207823  0.79645193  0.74993259  1
  Hf  Hf29  1  0.71521304  0.29237713  0.62169562  1
  Hf  Hf30  1  0.50156178  0.69268866  0.36487855  1
  Hf  Hf31  1  0.19141660  0.00360711  0.52397862  1
  Hf  Hf32  1  0.68985404  0.50566663  0.35482452  1
  Hf  Hf33  1  0.70238882  0.09890974  0.13777839  1
  Hf  Hf34  1  0.31307836  0.50440245  0.36904797  1
  Hf  Hf35  1  0.09842662  0.90538559  0.13172208  1
  Hf  Hf36  1  0.09481999  0.30437963  0.63867179  1
  Hf  Hf37  1  0.89338634  0.90014345  0.60549660  1
  Hf  Hf38  1  0.89760965  0.09355986  0.12036926  1
  Hf  Hf39  1  0.60129796  0.40125922  0.74173975  1
  Zr  Zr40  1  0.30870532  0.90304029  0.39220271  1
  Zr  Zr41  1  0.69519822  0.89425689  0.13960087  1
  Zr  Zr42  1  0.29983144  0.09504715  0.12095157  1
  Zr  Zr43  1  0.59983934  0.00185545  -0.00117859  1
  Zr  Zr44  1  0.81844586  0.61601950  0.24534872  1
  Zr  Zr45  1  -0.01044984  0.00627455  0.26659888  1
  Zr  Zr46  1  0.29463924  0.50027017  0.11408353  1
  Zr  Zr47  1  0.50081182  0.29595626  0.37466585  1
  Zr  Zr48  1  0.60842876  0.60421510  0.00465278  1
  Zr  Zr49  1  0.60058851  0.18597549  0.50780662  1
  Zr  Zr50  1  0.20299268  0.78676380  0.49432510  1
  Zr  Zr51  1  0.11269575  0.90378976  0.36267786  1
  Zr  Zr52  1  0.49461123  0.10051557  0.12248729  1
  Zr  Zr53  1  0.70332208  0.89303751  0.87436723  1
  Zr  Zr54  1  0.09237799  0.50075526  0.86138392  1
  Zr  Zr55  1  0.50376914  0.49709390  0.36404489  1
  Zr  Zr56  1  0.40208697  0.39953915  0.51582126  1
  Zr  Zr57  1  0.80753010  0.39366335  0.24097948  1
  Zr  Zr58  1  0.60276425  0.19420333  0.73689809  1
  Zr  Zr59  1  -0.01551222  0.61979247  0.75592092  1
  Zr  Zr60  1  -0.01081057  0.77951282  0.26556601  1
  Zr  Zr61  1  0.50971085  0.71271655  0.12236746  1
  Zr  Zr62  1  0.60525276  0.40200159  0.51696578  1
  Zr  Zr63  1  0.57896734  -0.01321403  0.25568213  1
  Zr  Zr64  1  0.87459592  0.89145873  0.37984050  1
  Zr  Zr65  1  0.00071659  0.20114970  0.25109587  1
  Zr  Zr66  1  0.79608655  0.39716358  0.01026851  1
  Zr  Zr67  1  0.10652124  0.70391874  0.13066117  1
  Zr  Zr68  1  0.00882852  0.19225350  0.00156515  1
  Zr  Zr69  1  0.11142315  0.50430157  0.36095318  1
  Zr  Zr70  1  0.00939547  0.79781574  0.49361857  1
  Zr  Zr71  1  0.19320893  0.59923224  -0.01061304  1
  Zr  Zr72  1  0.20212087  0.19569053  0.51486317  1
  Zr  Zr73  1  0.20515930  0.40133311  0.50342267  1
  Zr  Zr74  1  0.20336295  0.20766964  -0.01611239  1
  Zr  Zr75  1  -0.00320675  0.00244549  0.73262477  1
  Zr  Zr76  1  0.40357298  0.81194567  0.24731579  1
  Zr  Zr77  1  0.50103521  0.89014772  0.61242357  1
  Zr  Zr78  1  0.90459936  0.50131531  0.37749289  1
  Zr  Zr79  1  0.81334961  0.78749787  0.74344218  1
  Ta  Ta80  1  0.30408054  0.29403982  0.36688420  1
  Ta  Ta81  1  0.78271086  0.01417432  0.48406900  1
  Ta  Ta82  1  0.19904835  0.80243311  -0.00745955  1
  Ta  Ta83  1  0.30284753  0.90067920  0.87863485  1
  Ta  Ta84  1  0.40107494  0.00127183  0.73458364  1
  Ta  Ta85  1  0.30887785  0.70880228  0.10576068  1
  Ta  Ta86  1  0.60303390  0.20229826  -0.00036547  1
  Ta  Ta87  1  0.80321116  0.60446637  0.02072213  1
  Ta  Ta88  1  0.00193209  0.00709461  0.49787844  1
  Ta  Ta89  1  0.29767586  0.09932746  0.37168323  1
  Ta  Ta90  1  0.69556033  0.50361671  0.14013791  1
  Ta  Ta91  1  0.50169751  0.89423877  0.40224466  1
  Ta  Ta92  1  0.79507184  0.20167007  0.47714807  1
  Ta  Ta93  1  -0.00745794  0.20054340  0.75819851  1
  Ta  Ta94  1  0.29913622  0.30173409  0.65158897  1
  Ta  Ta95  1  -0.00073353  0.60027269  0.01335449  1
  Ta  Ta96  1  0.29793504  0.88726172  0.62613385  1
  Ta  Ta97  1  0.39883210  0.76622810  0.51052476  1
  Ta  Ta98  1  0.79667656  0.00191857  -0.00481626  1
  Ta  Ta99  1  0.30539939  0.70170123  0.88122021  1
  Ta  Ta100  1  0.69613461  0.30389294  0.36385258  1
  Ta  Ta101  1  0.90287475  0.30091965  0.88492105  1
  Ta  Ta102  1  0.48487803  0.09208101  0.37879373  1
  Ta  Ta103  1  0.00559516  0.19584127  0.49212142  1
  Ta  Ta104  1  0.00658183  0.40123336  0.49316663  1
  Ta  Ta105  1  0.49814404  0.10087825  0.86963597  1
  Ta  Ta106  1  0.59815220  0.00267977  0.74080826  1
  Ta  Ta107  1  0.39879785  0.60454050  0.22929549  1
  Ta  Ta108  1  0.20088002  0.79700015  0.76389048  1
  Ta  Ta109  1  0.80410990  0.19827775  0.76635796  1
  Ta  Ta110  1  0.00502730  0.40588736  0.01086210  1
  Ta  Ta111  1  0.39379669  0.00964143  0.51975102  1
  Ta  Ta112  1  0.80427410  0.19239811  0.26638948  1
  Ta  Ta113  1  0.60648635  0.60207603  0.74455835  1
  Ta  Ta114  1  0.01726020  0.60474524  0.49142872  1
  Ta  Ta115  1  0.49315676  0.50845901  0.63915087  1
  Ta  Ta116  1  0.90308390  0.30205231  0.38240985  1
  Ta  Ta117  1  0.39910411  0.39877018  -0.00354184  1
  Ta  Ta118  1  0.49528156  0.50324841  0.87461690  1
  Ta  Ta119  1  0.19258543  0.19480101  0.75224834  1
  Ti  Ti120  1  0.70083537  0.29728569  0.87427055  1
  Ti  Ti121  1  0.69904897  0.70643470  0.14541727  1
  Ti  Ti122  1  0.90974835  0.70889848  0.89768637  1
  Ti  Ti123  1  0.90207470  0.69958825  0.60640418  1
  Ti  Ti124  1  0.47749920  0.90391925  0.09969100  1
  Ti  Ti125  1  0.38481937  -0.00509900  0.25008082  1
  Ti  Ti126  1  0.00709987  0.80716404  0.73746896  1
  Ti  Ti127  1  0.11043731  0.09856753  0.36844932  1
  Ti  Ti128  1  0.68624434  0.09677220  0.35910433  1
  Ti  Ti129  1  0.40615073  0.20483061  -0.00170852  1
  Ti  Ti130  1  0.70087398  0.70376023  0.62129921  1
  Ti  Ti131  1  0.21624557  0.61008013  0.48809136  1
  Ti  Ti132  1  0.21740879  0.80058593  0.24976970  1
  Ti  Ti133  1  0.30890530  0.50555376  0.87501889  1
  Ti  Ti134  1  0.09133473  0.30443795  0.86804068  1
  Ti  Ti135  1  0.20896941  0.60885512  0.24602131  1
  Ti  Ti136  1  0.69595031  0.29222719  0.13762158  1
  Ti  Ti137  1  0.69471950  0.10148104  0.87688650  1
  Ti  Ti138  1  0.58899373  0.20578619  0.24717810  1
  Ti  Ti139  1  0.60715501  0.80070232  -0.00672148  1
  Ti  Ti140  1  0.30563439  0.29561941  0.11873161  1
  Ti  Ti141  1  0.79281572  0.19686800  -0.00641751  1
  Ti  Ti142  1  0.39921355  0.19711857  0.24795219  1
  Ti  Ti143  1  0.30597848  0.30064614  0.86364528  1
  Ti  Ti144  1  0.39641561  0.79854005  0.74579892  1
  Ti  Ti145  1  0.71862763  0.69236623  0.87164031  1
  Ti  Ti146  1  0.08993868  0.09583097  0.86764229  1
  Ti  Ti147  1  0.00459317  0.59491645  0.23460149  1
  Ti  Ti148  1  0.79616471  0.40264647  0.49347674  1
  Ti  Ti149  1  0.21066714  0.39969775  0.24356655  1
  Ti  Ti150  1  0.50266797  0.50598091  0.12162481  1
  Ti  Ti151  1  0.90167372  0.09636930  0.88657429  1
  Ti  Ti152  1  0.40077991  0.60959165  0.75130187  1
  Ti  Ti153  1  0.20261025  0.40107698  0.76304881  1
  Ti  Ti154  1  0.20734515  0.19224165  0.24570779  1
  Ti  Ti155  1  0.19996898  0.39982623  -0.01193783  1
  Ti  Ti156  1  0.89697309  0.29036284  0.11524231  1
  Ti  Ti157  1  0.40070988  0.40482783  0.75113802  1
  Ti  Ti158  1  0.70525483  0.71589853  0.37012020  1
  Ti  Ti159  1  0.79648296  0.79175000  0.01219640  1
  Mo  Mo160  1  0.79082357  0.00453604  0.26912518  1
  Mo  Mo161  1  0.79546724  0.80017483  0.24895810  1
  Mo  Mo162  1  0.08746511  0.10718688  0.63337410  1
  Mo  Mo163  1  0.49936952  0.69659065  0.64097186  1
  Mo  Mo164  1  0.49427922  0.30424427  0.64001751  1
  Mo  Mo165  1  0.39568735  0.59890922  0.51109603  1
  Mo  Mo166  1  0.39514729  0.00411035  -0.01339499  1
  Mo  Mo167  1  0.00218395  0.79658848  0.00929942  1
  Mo  Mo168  1  0.50049712  0.09366888  0.62807807  1
  Mo  Mo169  1  0.29686484  0.89525655  0.10715068  1
  Mo  Mo170  1  0.10450661  0.49824544  0.12754644  1
  Mo  Mo171  1  0.70301380  0.50461248  0.63111141  1
  Mo  Mo172  1  0.30281056  0.70011236  0.64708085  1
  Mo  Mo173  1  0.89871180  0.10223493  0.38819911  1
  Mo  Mo174  1  0.90182061  0.70627110  0.11199216  1
  Mo  Mo175  1  0.79339395  0.60305935  0.73372633  1
  Mo  Mo176  1  0.20596092  0.60421692  0.77478074  1
  Mo  Mo177  1  0.40039234  0.20095263  0.74154077  1
  Mo  Mo178  1  0.09538705  0.70787223  0.87244622  1
  Mo  Mo179  1  0.11054671  0.69112201  0.35627053  1
  Mo  Mo180  1  0.30674988  0.69301027  0.35972840  1
  Mo  Mo181  1  0.70381759  0.09507342  0.62230776  1
  Mo  Mo182  1  0.49560338  0.29372546  0.11472376  1
  Mo  Mo183  1  0.90229691  0.69407976  0.39304355  1
  Mo  Mo184  1  0.60005991  0.80004795  0.27075192  1
  Mo  Mo185  1  0.79503135  0.79272019  0.50622087  1
  Mo  Mo186  1  0.29686622  0.10122108  0.64595900  1
  Mo  Mo187  1  0.40224512  0.59611481  0.00318000  1
  Mo  Mo188  1  0.59360877  0.00306678  0.48921494  1
  Mo  Mo189  1  0.68766552  0.89663047  0.37968594  1
  Mo  Mo190  1  -0.00588272  0.39451948  0.76350960  1
  Mo  Mo191  1  0.09959318  0.89312752  0.62692760  1
  Mo  Mo192  1  0.39697777  0.80302248  -0.00560704  1
  Mo  Mo193  1  0.10243200  0.09773994  0.14266871  1
  Mo  Mo194  1  0.60111581  0.39417754  0.22934053  1
  Mo  Mo195  1  -0.00382549  0.00104711  0.00621954  1
  Mo  Mo196  1  0.60060054  0.79022779  0.49178890  1
  Mo  Mo197  1  0.90107145  0.50147694  0.11508677  1
  Mo  Mo198  1  0.60116407  0.60314479  0.23891056  1
  Mo  Mo199  1  0.20425024  0.00386451  0.24320248  1
