# generated using pymatgen
data_HfZrTaTiMo
_symmetry_space_group_name_H-M   'P 1'
_cell_length_a   15.82054824
_cell_length_b   15.84614639
_cell_length_c   15.38118525
_cell_angle_alpha   89.99848060
_cell_angle_beta   90.08645372
_cell_angle_gamma   89.90794579
_symmetry_Int_Tables_number   1
_chemical_formula_structural   HfZrTaTiMo
_chemical_formula_sum   'Hf40 Zr40 Ta40 Ti40 Mo40'
_cell_volume   3855.97261168
_cell_formula_units_Z   40
loop_
 _symmetry_equiv_pos_site_id
 _symmetry_equiv_pos_as_xyz
  1  'x, y, z'
loop_
 _atom_site_type_symbol
 _atom_site_label
 _atom_site_symmetry_multiplicity
 _atom_site_fract_x
 _atom_site_fract_y
 _atom_site_fract_z
 _atom_site_occupancy
  Hf  Hf0  1  0.29701367  0.30010654  0.64410221  1
  Hf  Hf1  1  0.61876485  0.79743659  0.50526369  1
  Hf  Hf2  1  0.31740021  0.92291054  0.37093530  1
  Hf  Hf3  1  0.10950332  0.30967510  0.88487487  1
  Hf  Hf4  1  0.81955248  0.17803257  0.24444946  1
  Hf  Hf5  1  0.21239837  0.00690358  0.51543046  1
  Hf  Hf6  1  0.40274798  -0.00415281  -0.00529397  1
  Hf  Hf7  1  0.19208911  0.61484857  0.48415765  1
  Hf  Hf8  1  0.29678245  0.48765426  0.36828778  1
  Hf  Hf9  1  0.89594012  0.90904080  0.37755041  1
  Hf  Hf10  1  0.49129775  0.30845319  0.14592910  1
  Hf  Hf11  1  0.48272779  0.08158353  0.37388802  1
  Hf  Hf12  1  0.49902672  0.70593600  0.39386679  1
  Hf  Hf13  1  0.70289711  0.07595113  0.10717292  1
  Hf  Hf14  1  0.21160436  0.20085196  0.50655491  1
  Hf  Hf15  1  0.69052805  0.69545370  0.87323286  1
  Hf  Hf16  1  0.90450274  0.89494825  0.63399837  1
  Hf  Hf17  1  0.09928412  0.69849093  0.13187684  1
  Hf  Hf18  1  0.89887134  0.70590217  0.14260351  1
  Hf  Hf19  1  0.00537949  0.79816088  0.77649561  1
  Hf  Hf20  1  0.21699616  0.01846063  0.23584184  1
  Hf  Hf21  1  0.59222967  0.79799198  0.25051189  1
  Hf  Hf22  1  0.38615251  0.17316802  0.23600616  1
  Hf  Hf23  1  0.00313027  0.40777424  0.75625520  1
  Hf  Hf24  1  0.39050740  0.37986967  0.50170945  1
  Hf  Hf25  1  0.89717184  0.10430591  0.64932649  1
  Hf  Hf26  1  0.09701661  0.90690811  0.11829825  1
  Hf  Hf27  1  0.10422153  0.10698513  0.64943004  1
  Hf  Hf28  1  0.88590556  0.90769298  0.11365469  1
  Hf  Hf29  1  0.49122034  0.28397885  0.36804835  1
  Hf  Hf30  1  0.39505720  0.80108766  0.74506554  1
  Hf  Hf31  1  0.59636439  0.39381695  0.72744578  1
  Hf  Hf32  1  0.59820288  0.38894666  0.50249493  1
  Hf  Hf33  1  0.49808483  0.69625009  0.61662194  1
  Hf  Hf34  1  0.28736735  0.50175586  0.62643489  1
  Hf  Hf35  1  0.80215640  0.79218246  -0.00912419  1
  Hf  Hf36  1  0.10734916  0.89290576  0.63692453  1
  Hf  Hf37  1  0.49609579  0.49999720  0.38081568  1
  Hf  Hf38  1  0.79529642  0.39402446  0.73340769  1
  Hf  Hf39  1  0.59323992  0.39290204  0.00498538  1
  Zr  Zr40  1  0.91635790  0.28383737  0.37300902  1
  Zr  Zr41  1  0.60106352  0.17397304  0.24544241  1
  Zr  Zr42  1  0.79879181  0.20075717  -0.00290783  1
  Zr  Zr43  1  -0.00239316  0.39512948  0.23635685  1
  Zr  Zr44  1  0.21321533  0.80666700  0.24864580  1
  Zr  Zr45  1  0.10611338  0.10622966  0.88627110  1
  Zr  Zr46  1  0.90164027  0.51208436  0.13268763  1
  Zr  Zr47  1  0.00389622  0.01182435  0.50539977  1
  Zr  Zr48  1  0.00699623  0.39974324  0.49795801  1
  Zr  Zr49  1  0.69652293  0.26826282  0.61520779  1
  Zr  Zr50  1  0.11149998  0.50372969  0.12434986  1
  Zr  Zr51  1  0.40000535  0.61511365  0.25673591  1
  Zr  Zr52  1  0.69771446  0.28158326  0.37777754  1
  Zr  Zr53  1  0.70102812  0.89261306  0.37516276  1
  Zr  Zr54  1  0.00087000  0.81367543  0.25815765  1
  Zr  Zr55  1  0.69521411  0.69886740  0.13134385  1
  Zr  Zr56  1  0.59888620  0.01552250  0.51670792  1
  Zr  Zr57  1  0.09791566  0.49828310  0.35806075  1
  Zr  Zr58  1  0.19233013  0.79532153  -0.01374177  1
  Zr  Zr59  1  0.58787948  0.58819778  0.00584312  1
  Zr  Zr60  1  0.79910622  0.40700293  0.49551465  1
  Zr  Zr61  1  0.49429486  0.50363528  0.60898465  1
  Zr  Zr62  1  0.89890248  0.49632229  0.87582765  1
  Zr  Zr63  1  0.10132531  0.50914542  0.63203520  1
  Zr  Zr64  1  0.10697523  0.91615449  0.37122594  1
  Zr  Zr65  1  0.79728003  0.40053932  0.25615547  1
  Zr  Zr66  1  0.10342041  0.11626660  0.35897169  1
  Zr  Zr67  1  0.90369309  0.29335276  0.62363705  1
  Zr  Zr68  1  0.49059862  0.69123204  0.87848585  1
  Zr  Zr69  1  0.00369650  0.62024004  -0.01984267  1
  Zr  Zr70  1  0.79640580  0.59296910  0.00058082  1
  Zr  Zr71  1  0.79889548  0.59358039  0.74995068  1
  Zr  Zr72  1  0.59540804  0.19822054  -0.00504898  1
  Zr  Zr73  1  0.68824580  0.48522536  0.87374283  1
  Zr  Zr74  1  0.79830471  -0.00067822  0.51101210  1
  Zr  Zr75  1  0.70613655  0.69608000  0.63186026  1
  Zr  Zr76  1  0.69774537  0.29740794  0.13941890  1
  Zr  Zr77  1  0.50497092  0.90087945  0.63004286  1
  Zr  Zr78  1  0.40089747  0.22009881  -0.00657607  1
  Zr  Zr79  1  -0.00452449  0.61152095  0.48493493  1
  Ta  Ta80  1  0.29463953  0.28769425  0.35499886  1
  Ta  Ta81  1  -0.00265241  0.00410336  -0.00186084  1
  Ta  Ta82  1  0.09730517  0.11256606  0.10850361  1
  Ta  Ta83  1  0.79822367  0.39530861  0.01233634  1
  Ta  Ta84  1  0.10633715  0.30290640  0.64384028  1
  Ta  Ta85  1  0.30505537  0.10496848  0.87477103  1
  Ta  Ta86  1  0.28193461  0.70286245  0.63454555  1
  Ta  Ta87  1  0.20735146  0.59366456  -0.01501534  1
  Ta  Ta88  1  0.30196192  0.89955374  0.86893523  1
  Ta  Ta89  1  0.79323589  0.60975790  0.48948385  1
  Ta  Ta90  1  0.39292880  0.01064085  0.53314077  1
  Ta  Ta91  1  0.38225733  0.81229392  0.51724588  1
  Ta  Ta92  1  0.90865100  0.70180033  0.63231977  1
  Ta  Ta93  1  0.39396110  0.59803657  0.74217333  1
  Ta  Ta94  1  0.49515737  0.89847053  0.39233591  1
  Ta  Ta95  1  0.20357862  0.61050577  0.25859452  1
  Ta  Ta96  1  0.00685098  0.79668873  0.49400447  1
  Ta  Ta97  1  0.88365577  0.71503598  0.36493865  1
  Ta  Ta98  1  0.60110317  0.79926918  0.75450383  1
  Ta  Ta99  1  0.60106467  -0.00193917  0.75793280  1
  Ta  Ta100  1  0.79100433  -0.00552680  0.24830521  1
  Ta  Ta101  1  0.50225763  0.89632659  0.87620198  1
  Ta  Ta102  1  0.90075082  0.90245377  0.88470278  1
  Ta  Ta103  1  0.49199970  0.70198032  0.11231105  1
  Ta  Ta104  1  0.10074949  0.70006174  0.64429021  1
  Ta  Ta105  1  0.49993111  0.09888903  0.86621500  1
  Ta  Ta106  1  0.19809371  0.80433148  0.49731366  1
  Ta  Ta107  1  0.11066795  0.29895780  0.11209487  1
  Ta  Ta108  1  0.00022595  0.20752480  0.76838607  1
  Ta  Ta109  1  0.29305779  0.10501017  0.09262730  1
  Ta  Ta110  1  0.11414512  0.29938784  0.34970105  1
  Ta  Ta111  1  0.49292095  0.50261430  0.14125405  1
  Ta  Ta112  1  0.79878968  -0.00410002  0.76585724  1
  Ta  Ta113  1  0.89840668  0.10230559  0.87916198  1
  Ta  Ta114  1  -0.00013512  0.40374404  0.00175119  1
  Ta  Ta115  1  0.30220474  0.69315438  0.11357451  1
  Ta  Ta116  1  -0.01651897  0.02354084  0.23506444  1
  Ta  Ta117  1  0.01498994  0.20170041  0.50759563  1
  Ta  Ta118  1  0.70870719  0.89728074  0.64261843  1
  Ta  Ta119  1  0.89970372  0.51240924  0.62149427  1
  Ti  Ti120  1  0.91253597  0.28669955  0.11500243  1
  Ti  Ti121  1  0.30695182  0.89873725  0.11532762  1
  Ti  Ti122  1  0.60012243  0.60043608  0.26228369  1
  Ti  Ti123  1  0.40200148  0.40148435  0.74598622  1
  Ti  Ti124  1  0.39590654  0.79502210  -0.00529575  1
  Ti  Ti125  1  0.78720698  0.60110485  0.26648432  1
  Ti  Ti126  1  0.30063705  0.49724925  0.86343519  1
  Ti  Ti127  1  0.20517865  -0.00451342  0.75975340  1
  Ti  Ti128  1  0.58666315  -0.01705025  0.24452280  1
  Ti  Ti129  1  0.21830583  0.40206718  -0.00481001  1
  Ti  Ti130  1  0.50142568  0.30569636  0.86082128  1
  Ti  Ti131  1  0.69841294  0.09863127  0.87136403  1
  Ti  Ti132  1  0.80258961  0.79907311  0.76461629  1
  Ti  Ti133  1  0.40768979  0.81280016  0.23857744  1
  Ti  Ti134  1  0.69503967  0.89939040  0.88066861  1
  Ti  Ti135  1  0.30638162  0.50127250  0.13419351  1
  Ti  Ti136  1  0.20943145  0.20661156  0.76868364  1
  Ti  Ti137  1  0.29743243  0.30899474  0.13596814  1
  Ti  Ti138  1  0.69967064  0.09806274  0.64970420  1
  Ti  Ti139  1  0.59460049  0.59083173  0.74206488  1
  Ti  Ti140  1  0.68506111  0.89483102  0.10660904  1
  Ti  Ti141  1  0.00379378  -0.00037123  0.77009254  1
  Ti  Ti142  1  0.40519479  0.18673114  0.51948990  1
  Ti  Ti143  1  0.60099178  0.40662675  0.26470936  1
  Ti  Ti144  1  0.39835939  0.00471977  0.74638118  1
  Ti  Ti145  1  0.29852193  0.69327474  0.86810546  1
  Ti  Ti146  1  0.81219572  0.18097490  0.48994035  1
  Ti  Ti147  1  0.20141830  -0.00454064  -0.00849722  1
  Ti  Ti148  1  0.89854474  0.50839078  0.36746393  1
  Ti  Ti149  1  0.49093664  0.49916955  0.86773289  1
  Ti  Ti150  1  0.38251302  0.60792139  0.50098162  1
  Ti  Ti151  1  0.40000076  0.41406591  -0.00219879  1
  Ti  Ti152  1  0.50263379  0.08135545  0.11362248  1
  Ti  Ti153  1  0.40814692  0.20088592  0.74908488  1
  Ti  Ti154  1  0.89653484  0.30122511  0.87991111  1
  Ti  Ti155  1  0.70094204  0.29421769  0.86470048  1
  Ti  Ti156  1  0.69268078  0.49778100  0.13541715  1
  Ti  Ti157  1  0.69870584  0.09020860  0.37641222  1
  Ti  Ti158  1  0.19454383  0.38968064  0.49625969  1
  Ti  Ti159  1  0.30385933  0.71867604  0.37719167  1
  Mo  Mo160  1  0.10278541  0.90606366  0.88480633  1
  Mo  Mo161  1  0.10814863  0.49904768  0.88473751  1
  Mo  Mo162  1  0.59122817  0.18773292  0.49411020  1
  Mo  Mo163  1  0.81646210  0.79314185  0.51144863  1
  Mo  Mo164  1  0.50405951  0.89052710  0.10314475  1
  Mo  Mo165  1  0.49593294  0.29124061  0.62990615  1
  Mo  Mo166  1  0.20165810  0.79980766  0.76538833  1
  Mo  Mo167  1  0.70169576  0.50272769  0.60363941  1
  Mo  Mo168  1  -0.00076005  0.80565720  -0.00997078  1
  Mo  Mo169  1  0.59402323  0.79852299  -0.00739574  1
  Mo  Mo170  1  0.38945309  0.58900374  0.00188953  1
  Mo  Mo171  1  0.70142514  0.69999058  0.36713611  1
  Mo  Mo172  1  0.20584163  0.40221130  0.23518040  1
  Mo  Mo173  1  0.30618095  0.10652482  0.37890636  1
  Mo  Mo174  1  0.79963545  0.19681525  0.77069987  1
  Mo  Mo175  1  -0.00213138  0.60968655  0.26679799  1
  Mo  Mo176  1  0.60926708  0.59564819  0.49182844  1
  Mo  Mo177  1  0.59742993  -0.00359687  -0.02280319  1
  Mo  Mo178  1  0.20283575  0.20193335  0.22415530  1
  Mo  Mo179  1  0.00061983  0.60252598  0.75701631  1
  Mo  Mo180  1  0.79368319  -0.00430346  -0.02254390  1
  Mo  Mo181  1  0.20163217  0.59935417  0.76620280  1
  Mo  Mo182  1  0.09987376  0.70938658  0.36227355  1
  Mo  Mo183  1  0.40044836  0.40000934  0.25588171  1
  Mo  Mo184  1  0.89724985  0.70173098  0.86253719  1
  Mo  Mo185  1  0.30107317  0.10378929  0.65647449  1
  Mo  Mo186  1  0.21029727  0.21146897  -0.00289381  1
  Mo  Mo187  1  0.79092579  0.80936700  0.23520621  1
  Mo  Mo188  1  0.31253342  0.31057731  0.86224468  1
  Mo  Mo189  1  0.90307975  0.09677421  0.37596088  1
  Mo  Mo190  1  0.10778955  0.69455427  0.86290991  1
  Mo  Mo191  1  0.40629978  -0.01077612  0.22185408  1
  Mo  Mo192  1  0.89889753  0.09654730  0.09983188  1
  Mo  Mo193  1  0.69434624  0.50376663  0.38050826  1
  Mo  Mo194  1  0.50523895  0.10802987  0.64890437  1
  Mo  Mo195  1  0.20485211  0.40294062  0.76391916  1
  Mo  Mo196  1  0.00510426  0.19943563  0.22521582  1
  Mo  Mo197  1  0.00040818  0.20825109  -0.00617522  1
  Mo  Mo198  1  0.59869808  0.19742655  0.76601906  1
  Mo  Mo199  1  0.29405557  0.90199321  0.64512242  1
