# generated using pymatgen
data_HfZrTaTiMo
_symmetry_space_group_name_H-M   'P 1'
_cell_length_a   15.84616239
_cell_length_b   15.83150387
_cell_length_c   15.41457369
_cell_angle_alpha   90.02820443
_cell_angle_beta   90.00190449
_cell_angle_gamma   89.98244583
_symmetry_Int_Tables_number   1
_chemical_formula_structural   HfZrTaTiMo
_chemical_formula_sum   'Hf40 Zr40 Ta40 Ti40 Mo40'
_cell_volume   3867.03158010
_cell_formula_units_Z   40
loop_
 _symmetry_equiv_pos_site_id
 _symmetry_equiv_pos_as_xyz
  1  'x, y, z'
loop_
 _atom_site_type_symbol
 _atom_site_label
 _atom_site_symmetry_multiplicity
 _atom_site_fract_x
 _atom_site_fract_y
 _atom_site_fract_z
 _atom_site_occupancy
  Hf  Hf0  1  0.00470154  0.00260719  0.50294632  1
  Hf  Hf1  1  0.39750877  0.41219781  0.74795089  1
  Hf  Hf2  1  0.42209931  0.42169237  0.49876351  1
  Hf  Hf3  1  0.29225058  0.09909984  0.88484627  1
  Hf  Hf4  1  0.10580558  0.49626904  0.63153438  1
  Hf  Hf5  1  0.51111840  0.30366727  0.62872031  1
  Hf  Hf6  1  0.71314215  0.29313706  0.89173433  1
  Hf  Hf7  1  0.90352953  0.30869283  0.36632063  1
  Hf  Hf8  1  0.51738123  0.51230038  0.85775013  1
  Hf  Hf9  1  0.09548869  0.51269364  0.85811257  1
  Hf  Hf10  1  0.58674619  -0.00798090  0.00486080  1
  Hf  Hf11  1  0.90670512  0.51323859  0.60724726  1
  Hf  Hf12  1  0.40591362  -0.00218252  0.51066492  1
  Hf  Hf13  1  0.51510691  0.30130943  0.37388772  1
  Hf  Hf14  1  0.29239525  0.90055450  0.89159338  1
  Hf  Hf15  1  0.00429593  0.60470179  0.01079291  1
  Hf  Hf16  1  0.79411134  -0.00923767  0.24502069  1
  Hf  Hf17  1  0.59107663  0.19034116  -0.00184190  1
  Hf  Hf18  1  0.10683188  0.29925935  0.63174969  1
  Hf  Hf19  1  0.00133941  0.19845020  0.48983827  1
  Hf  Hf20  1  0.90506400  0.29843124  0.61951228  1
  Hf  Hf21  1  0.89634123  0.09952622  0.36274732  1
  Hf  Hf22  1  0.88981497  0.89691291  0.88608803  1
  Hf  Hf23  1  0.49661458  0.29669096  0.13130907  1
  Hf  Hf24  1  0.30500596  0.08468359  0.38124613  1
  Hf  Hf25  1  0.70347516  0.90375924  0.39137925  1
  Hf  Hf26  1  0.50147164  0.29657529  0.86468913  1
  Hf  Hf27  1  0.08871739  0.70311608  0.36048390  1
  Hf  Hf28  1  0.30610793  0.29225340  0.11825999  1
  Hf  Hf29  1  0.89552049  0.50268749  0.12977116  1
  Hf  Hf30  1  0.31127624  0.49797100  0.11805208  1
  Hf  Hf31  1  0.59357229  0.78977505  0.49907682  1
  Hf  Hf32  1  0.60631305  0.78690923  0.74968505  1
  Hf  Hf33  1  0.37676460  0.20556619  0.75357825  1
  Hf  Hf34  1  0.49213519  0.66656202  0.63274693  1
  Hf  Hf35  1  0.69144357  0.49862346  0.38383696  1
  Hf  Hf36  1  0.09822203  0.70861276  0.86524705  1
  Hf  Hf37  1  0.40894882  0.19841830  0.49877815  1
  Hf  Hf38  1  0.19628694  0.60536211  0.50153973  1
  Hf  Hf39  1  0.42022375  0.60698888  -0.01010065  1
  Zr  Zr40  1  0.38861752  0.81622186  0.25678562  1
  Zr  Zr41  1  0.61668019  0.18522373  0.75553048  1
  Zr  Zr42  1  0.21960696  -0.00862002  0.22956906  1
  Zr  Zr43  1  0.60594521  -0.01143245  0.75319554  1
  Zr  Zr44  1  0.70704856  0.70037276  0.10982100  1
  Zr  Zr45  1  0.80324472  0.58747583  0.75289305  1
  Zr  Zr46  1  0.70487118  0.29468300  0.38349461  1
  Zr  Zr47  1  0.63017379  0.40183399  0.74386293  1
  Zr  Zr48  1  0.70180510  0.10103102  0.11801972  1
  Zr  Zr49  1  0.30794183  0.70935092  0.11797290  1
  Zr  Zr50  1  0.61052208  0.79781455  0.26021649  1
  Zr  Zr51  1  -0.01523426  0.00877328  0.74548862  1
  Zr  Zr52  1  -0.01606837  0.40688371  0.75849678  1
  Zr  Zr53  1  0.20390451  0.80282426  0.73879772  1
  Zr  Zr54  1  0.80981854  0.19330256  0.74867337  1
  Zr  Zr55  1  0.79112736  -0.00156442  0.74177870  1
  Zr  Zr56  1  0.49816519  0.09720055  0.64230167  1
  Zr  Zr57  1  0.48284060  0.88920433  0.86936893  1
  Zr  Zr58  1  0.21037396  0.19774930  0.25462872  1
  Zr  Zr59  1  0.49635235  0.91065793  0.37339955  1
  Zr  Zr60  1  0.50921391  0.69882099  0.13681992  1
  Zr  Zr61  1  0.00602776  0.79958571  0.49841303  1
  Zr  Zr62  1  0.29621992  0.30744565  0.61005136  1
  Zr  Zr63  1  0.19556147  0.00808547  0.74464678  1
  Zr  Zr64  1  0.90520717  0.10734215  0.13045940  1
  Zr  Zr65  1  0.08509508  0.68922286  0.63716105  1
  Zr  Zr66  1  0.29045275  0.70864584  0.37368829  1
  Zr  Zr67  1  0.09312451  0.30458332  0.12609747  1
  Zr  Zr68  1  0.59203500  0.40270018  0.00756862  1
  Zr  Zr69  1  0.08166787  0.50284184  0.36672803  1
  Zr  Zr70  1  0.70294875  0.68563061  0.60608886  1
  Zr  Zr71  1  0.19547583  0.40421938  -0.00888767  1
  Zr  Zr72  1  0.09440000  0.90271674  0.87853450  1
  Zr  Zr73  1  0.19942030  0.60166078  0.23893698  1
  Zr  Zr74  1  0.19819732  0.39739067  0.26039373  1
  Zr  Zr75  1  0.72241169  0.49364079  0.89664922  1
  Zr  Zr76  1  -0.00308880  0.00193089  0.00769405  1
  Zr  Zr77  1  0.40191023  0.40151667  0.25872661  1
  Zr  Zr78  1  0.39628957  0.78950808  0.50367152  1
  Zr  Zr79  1  0.19607324  0.60517581  0.00554033  1
  Ta  Ta80  1  0.89766828  0.69684884  0.88085733  1
  Ta  Ta81  1  0.30797820  0.71122031  0.88482465  1
  Ta  Ta82  1  0.48557128  0.10468762  0.14378513  1
  Ta  Ta83  1  0.80578887  0.00992657  0.50736487  1
  Ta  Ta84  1  0.80425196  0.40136123  0.50271545  1
  Ta  Ta85  1  0.10383031  0.09140364  0.36495211  1
  Ta  Ta86  1  0.79411754  0.40154610  0.24280955  1
  Ta  Ta87  1  0.31548954  0.51860462  0.61787726  1
  Ta  Ta88  1  -0.00124007  0.79441957  0.01654419  1
  Ta  Ta89  1  0.00080921  0.19992317  0.76389705  1
  Ta  Ta90  1  0.69607666  0.09890356  0.37856565  1
  Ta  Ta91  1  0.89480986  0.30933130  0.88995236  1
  Ta  Ta92  1  0.39409333  0.00342470  0.01856235  1
  Ta  Ta93  1  0.71039320  0.29216716  0.60959637  1
  Ta  Ta94  1  0.89103999  0.89104446  0.61448756  1
  Ta  Ta95  1  0.10601177  0.10491292  0.12176475  1
  Ta  Ta96  1  0.29409251  0.90417317  0.61249681  1
  Ta  Ta97  1  0.60003729  -0.00217696  0.23888492  1
  Ta  Ta98  1  0.50644782  0.10155076  0.35861125  1
  Ta  Ta99  1  0.30698104  0.29953595  0.38675092  1
  Ta  Ta100  1  0.48778358  0.08994138  0.86784892  1
  Ta  Ta101  1  0.70420027  0.89155186  0.60942476  1
  Ta  Ta102  1  0.60945422  0.40326545  0.23642850  1
  Ta  Ta103  1  0.70038636  0.51076082  0.11897702  1
  Ta  Ta104  1  0.90099776  0.30326329  0.12391713  1
  Ta  Ta105  1  -0.00681440  0.80523291  0.24275549  1
  Ta  Ta106  1  0.80161253  0.79597872  0.26360748  1
  Ta  Ta107  1  0.09820230  0.10577470  0.88452653  1
  Ta  Ta108  1  0.22115485  0.60335028  0.74800966  1
  Ta  Ta109  1  0.28488819  0.10542682  0.61548204  1
  Ta  Ta110  1  0.90460919  0.89850074  0.37692081  1
  Ta  Ta111  1  0.89102672  0.70059474  0.60896774  1
  Ta  Ta112  1  0.11107626  0.90430153  0.36810660  1
  Ta  Ta113  1  0.20024904  0.40370081  0.48829844  1
  Ta  Ta114  1  0.89524647  0.69336537  0.38080685  1
  Ta  Ta115  1  0.88792886  0.89186100  0.12150315  1
  Ta  Ta116  1  0.09931471  0.11189732  0.62756518  1
  Ta  Ta117  1  0.21290294  0.39797571  0.76175513  1
  Ta  Ta118  1  0.40438853  0.59880072  0.26097960  1
  Ta  Ta119  1  0.70111902  0.88715373  0.89552600  1
  Ti  Ti120  1  0.00205103  0.20861517  -0.00663848  1
  Ti  Ti121  1  0.08707252  0.49888603  0.14254861  1
  Ti  Ti122  1  0.79559037  0.20527193  0.24510160  1
  Ti  Ti123  1  0.30431033  0.50623614  0.38219840  1
  Ti  Ti124  1  0.78722019  0.60500646  0.26132176  1
  Ti  Ti125  1  0.00422074  -0.00407828  0.24506116  1
  Ti  Ti126  1  0.49980013  0.89095039  0.63271665  1
  Ti  Ti127  1  0.19055692  0.80251351  0.01409271  1
  Ti  Ti128  1  0.60814867  0.20044802  0.24345234  1
  Ti  Ti129  1  0.89345136  0.69886442  0.13109701  1
  Ti  Ti130  1  0.69956052  0.88910689  0.10869570  1
  Ti  Ti131  1  0.89206169  0.10564726  0.89487219  1
  Ti  Ti132  1  0.19490731  0.80695271  0.50599659  1
  Ti  Ti133  1  0.00744924  0.39968541  0.49348824  1
  Ti  Ti134  1  0.58314106  0.78695115  -0.01039761  1
  Ti  Ti135  1  0.69776124  0.69128869  0.88775279  1
  Ti  Ti136  1  0.01194523  0.20653795  0.25763308  1
  Ti  Ti137  1  0.89539751  0.50450253  0.37046244  1
  Ti  Ti138  1  0.19210823  0.20010657  0.48324554  1
  Ti  Ti139  1  0.40073095  0.19825480  -0.01002325  1
  Ti  Ti140  1  0.09604722  0.90220885  0.12347474  1
  Ti  Ti141  1  0.69543741  0.49859947  0.60761923  1
  Ti  Ti142  1  0.10305871  0.30024423  0.86923975  1
  Ti  Ti143  1  0.30317271  0.50903916  0.87892719  1
  Ti  Ti144  1  0.09504865  0.90433623  0.62890463  1
  Ti  Ti145  1  0.19443965  0.80610569  0.23668802  1
  Ti  Ti146  1  0.38804742  0.78752888  0.73460162  1
  Ti  Ti147  1  0.79618333  0.79574204  0.75247674  1
  Ti  Ti148  1  0.59981491  0.00366968  0.51216140  1
  Ti  Ti149  1  -0.00157307  0.40688092  -0.00674182  1
  Ti  Ti150  1  0.60528437  0.18889569  0.50511524  1
  Ti  Ti151  1  0.50785142  0.50868259  0.13187660  1
  Ti  Ti152  1  0.70967749  0.08497702  0.89711175  1
  Ti  Ti153  1  0.49218826  0.89638988  0.12960177  1
  Ti  Ti154  1  -0.01724651  0.79952445  0.74355435  1
  Ti  Ti155  1  0.38709050  -0.00631823  0.74028562  1
  Ti  Ti156  1  0.70747042  0.30113933  0.11290539  1
  Ti  Ti157  1  0.50928835  0.68122565  0.37529120  1
  Ti  Ti158  1  0.40051993  0.39791934  -0.01480840  1
  Ti  Ti159  1  0.19841698  0.20299620  -0.00314498  1
  Mo  Mo160  1  0.80378664  0.79427943  -0.00464761  1
  Mo  Mo161  1  0.49996670  0.70245998  0.85713559  1
  Mo  Mo162  1  0.50722837  0.49850393  0.35742153  1
  Mo  Mo163  1  0.29691751  0.89906814  0.10544838  1
  Mo  Mo164  1  0.29728915  0.69977839  0.61471364  1
  Mo  Mo165  1  -0.01659651  0.60766985  0.24317851  1
  Mo  Mo166  1  0.10329341  0.29784698  0.37802913  1
  Mo  Mo167  1  0.80960392  0.60168679  -0.00323773  1
  Mo  Mo168  1  0.40443522  0.80625164  0.00414353  1
  Mo  Mo169  1  0.40211122  0.19908004  0.26693196  1
  Mo  Mo170  1  0.60505031  0.39400568  0.51327468  1
  Mo  Mo171  1  0.79606163  0.59675463  0.48784209  1
  Mo  Mo172  1  0.19071694  0.20529036  0.76256993  1
  Mo  Mo173  1  -0.00774097  0.61002661  0.75666650  1
  Mo  Mo174  1  0.09190887  0.70859584  0.13956475  1
  Mo  Mo175  1  0.60418745  0.59400395  0.25338253  1
  Mo  Mo176  1  0.19230900  0.00131683  0.50819490  1
  Mo  Mo177  1  0.80355851  0.39574691  0.73134813  1
  Mo  Mo178  1  0.90571551  0.10095624  0.62111556  1
  Mo  Mo179  1  0.40136308  0.00184250  0.23886389  1
  Mo  Mo180  1  0.80097006  0.80131345  0.48521868  1
  Mo  Mo181  1  0.80529639  0.39793351  0.02400128  1
  Mo  Mo182  1  0.19530747  0.00648857  0.01349998  1
  Mo  Mo183  1  -0.00372183  0.59846303  0.48874223  1
  Mo  Mo184  1  0.51057368  0.50077020  0.64039205  1
  Mo  Mo185  1  0.80835924  0.19952388  0.00198090  1
  Mo  Mo186  1  0.61546493  0.60191186  0.75721027  1
  Mo  Mo187  1  0.60335626  0.60340438  -0.00689599  1
  Mo  Mo188  1  0.90407002  0.50025469  0.89278753  1
  Mo  Mo189  1  0.29891519  0.30544146  0.88905467  1
  Mo  Mo190  1  0.39480367  0.60573783  0.76649699  1
  Mo  Mo191  1  0.30143585  0.10866419  0.11039820  1
  Mo  Mo192  1  0.80411726  0.19455793  0.49718172  1
  Mo  Mo193  1  0.79414012  -0.00472474  0.01039622  1
  Mo  Mo194  1  0.40106498  0.59818649  0.48135849  1
  Mo  Mo195  1  0.58396774  0.58214993  0.49200396  1
  Mo  Mo196  1  0.70103748  0.69540309  0.38448874  1
  Mo  Mo197  1  0.70261005  0.09746920  0.60458923  1
  Mo  Mo198  1  0.28802071  0.90398631  0.39475492  1
  Mo  Mo199  1  -0.00988318  0.39897066  0.25217774  1
