# generated using pymatgen
data_HfZrTaTiMo
_symmetry_space_group_name_H-M   'P 1'
_cell_length_a   15.84085505
_cell_length_b   15.83767702
_cell_length_c   15.37440527
_cell_angle_alpha   90.02612458
_cell_angle_beta   90.06401069
_cell_angle_gamma   89.99596651
_symmetry_Int_Tables_number   1
_chemical_formula_structural   HfZrTaTiMo
_chemical_formula_sum   'Hf40 Zr40 Ta40 Ti40 Mo40'
_cell_volume   3857.16404508
_cell_formula_units_Z   40
loop_
 _symmetry_equiv_pos_site_id
 _symmetry_equiv_pos_as_xyz
  1  'x, y, z'
loop_
 _atom_site_type_symbol
 _atom_site_label
 _atom_site_symmetry_multiplicity
 _atom_site_fract_x
 _atom_site_fract_y
 _atom_site_fract_z
 _atom_site_occupancy
  Hf  Hf0  1  0.51017834  0.89723921  0.14842535  1
  Hf  Hf1  1  0.60317990  0.39530436  0.74998589  1
  Hf  Hf2  1  0.19803544  0.19936809  0.73949046  1
  Hf  Hf3  1  -0.00455218  0.40802559  -0.01491764  1
  Hf  Hf4  1  0.30400750  0.30025745  0.12036816  1
  Hf  Hf5  1  0.79157142  0.60599352  0.75120406  1
  Hf  Hf6  1  0.50426103  0.09346245  0.86114619  1
  Hf  Hf7  1  0.10393342  0.90774989  0.10908669  1
  Hf  Hf8  1  0.18961456  -0.00396259  0.26297804  1
  Hf  Hf9  1  0.62106666  0.20102145  0.24002501  1
  Hf  Hf10  1  0.79317514  0.00933014  0.74576080  1
  Hf  Hf11  1  0.90039088  0.91004891  0.36845471  1
  Hf  Hf12  1  0.20331321  -0.00405093  0.74093066  1
  Hf  Hf13  1  0.08884958  0.89771974  0.38961568  1
  Hf  Hf14  1  0.90394557  0.11674364  0.36962755  1
  Hf  Hf15  1  0.89667828  0.50360561  0.12867333  1
  Hf  Hf16  1  0.51359232  0.90548770  0.85787804  1
  Hf  Hf17  1  0.40102297  -0.01109060  0.49611359  1
  Hf  Hf18  1  0.39868784  0.18463407  -0.00871645  1
  Hf  Hf19  1  0.70003832  0.29089662  0.88213636  1
  Hf  Hf20  1  0.10099726  0.49941272  0.64116697  1
  Hf  Hf21  1  0.19374646  0.80254950  0.74319886  1
  Hf  Hf22  1  0.08531068  0.29856141  0.37400080  1
  Hf  Hf23  1  0.19917792  0.40492040  0.25475272  1
  Hf  Hf24  1  0.40357175  0.78814634  0.27245451  1
  Hf  Hf25  1  0.80005708  0.00668015  0.50030065  1
  Hf  Hf26  1  0.71353032  0.68824501  0.36541172  1
  Hf  Hf27  1  0.09739655  0.30051820  0.11697395  1
  Hf  Hf28  1  0.70756381  0.31748507  0.37504413  1
  Hf  Hf29  1  0.50439037  0.10242535  0.36783983  1
  Hf  Hf30  1  0.50859182  0.09125974  0.62406719  1
  Hf  Hf31  1  0.19369425  0.19930773  0.50651065  1
  Hf  Hf32  1  0.79601749  0.02041201  0.23564012  1
  Hf  Hf33  1  0.51240997  0.29879595  0.37756004  1
  Hf  Hf34  1  0.89397726  0.71035321  0.87871871  1
  Hf  Hf35  1  0.19390144  0.20134720  0.25683781  1
  Hf  Hf36  1  0.39727762  0.79918379  0.72807426  1
  Hf  Hf37  1  -0.01059197  0.20604702  0.75204363  1
  Hf  Hf38  1  0.40263614  0.79291972  0.00306469  1
  Hf  Hf39  1  0.61413245  0.79018009  0.74205732  1
  Zr  Zr40  1  0.10685884  0.30626394  0.87568658  1
  Zr  Zr41  1  0.89653081  0.31520585  0.38139513  1
  Zr  Zr42  1  0.09870920  0.09294709  0.87881499  1
  Zr  Zr43  1  0.60394636  -0.01003496  0.48389612  1
  Zr  Zr44  1  0.49886575  0.09997441  0.14580780  1
  Zr  Zr45  1  0.30334355  0.30798873  0.61132808  1
  Zr  Zr46  1  -0.00343824  0.21275598  0.52246912  1
  Zr  Zr47  1  -0.00397961  0.80030424  0.00345778  1
  Zr  Zr48  1  0.50180899  0.68916433  0.13042410  1
  Zr  Zr49  1  0.49817851  0.30218407  0.12161715  1
  Zr  Zr50  1  0.19436464  0.60114483  -0.01589434  1
  Zr  Zr51  1  0.40059348  0.59212586  0.27290525  1
  Zr  Zr52  1  0.08368251  0.49890991  0.37669573  1
  Zr  Zr53  1  0.50246721  0.49125064  0.61993818  1
  Zr  Zr54  1  0.00211462  0.80367061  0.23587113  1
  Zr  Zr55  1  0.30838905  0.90261221  0.86816832  1
  Zr  Zr56  1  0.90400809  0.70547251  0.37789925  1
  Zr  Zr57  1  0.30276823  0.89418702  0.13536900  1
  Zr  Zr58  1  0.40061929  0.19538369  0.74535999  1
  Zr  Zr59  1  0.69482204  0.09975468  0.88225477  1
  Zr  Zr60  1  0.79470290  0.80094128  0.51137623  1
  Zr  Zr61  1  0.60512756  0.59910800  -0.01539638  1
  Zr  Zr62  1  0.39904150  0.58987858  -0.00878337  1
  Zr  Zr63  1  0.29792453  0.67553938  0.62063883  1
  Zr  Zr64  1  0.87843324  0.50595194  0.35886531  1
  Zr  Zr65  1  0.80507183  -0.00036674  0.00978754  1
  Zr  Zr66  1  0.29983621  0.09888537  0.14394722  1
  Zr  Zr67  1  0.49805585  0.70175170  0.86569366  1
  Zr  Zr68  1  0.30252960  0.30068246  0.88157149  1
  Zr  Zr69  1  0.20355443  0.80443853  0.51843050  1
  Zr  Zr70  1  0.69971758  0.69871034  0.13290032  1
  Zr  Zr71  1  0.30203970  0.50011680  0.12498614  1
  Zr  Zr72  1  0.40640109  0.40148028  0.26704814  1
  Zr  Zr73  1  0.08447907  0.09499709  0.11969656  1
  Zr  Zr74  1  0.29111515  0.49279209  0.85161089  1
  Zr  Zr75  1  0.19375487  0.78659404  0.25376009  1
  Zr  Zr76  1  0.09240709  0.68701639  0.62797400  1
  Zr  Zr77  1  0.60129415  0.40863322  -0.00558740  1
  Zr  Zr78  1  0.40680380  -0.00739804  0.00536338  1
  Zr  Zr79  1  0.41156154  0.79555191  0.49535846  1
  Ta  Ta80  1  0.29784243  0.10140982  0.38220380  1
  Ta  Ta81  1  0.60740653  0.20042245  0.73178965  1
  Ta  Ta82  1  0.61557630  0.58457173  0.49552666  1
  Ta  Ta83  1  0.79787190  0.59875696  0.51943389  1
  Ta  Ta84  1  0.29492247  0.89651248  0.37877977  1
  Ta  Ta85  1  0.79600650  0.20726623  0.51725464  1
  Ta  Ta86  1  0.19560378  -0.00076760  0.50310525  1
  Ta  Ta87  1  0.80113608  0.80439424  0.73802209  1
  Ta  Ta88  1  0.08690493  0.09747893  0.38234947  1
  Ta  Ta89  1  0.09054347  0.08987132  0.62255392  1
  Ta  Ta90  1  0.40606722  0.38951377  0.74382707  1
  Ta  Ta91  1  0.60645283  0.81151418  0.00063010  1
  Ta  Ta92  1  0.69915345  0.50072945  0.14258235  1
  Ta  Ta93  1  0.79676003  0.20830127  0.73552620  1
  Ta  Ta94  1  0.80121741  0.59769234  -0.00254909  1
  Ta  Ta95  1  0.60405562  0.00130952  0.01569433  1
  Ta  Ta96  1  0.80246198  0.40124492  0.76340590  1
  Ta  Ta97  1  -0.00632001  0.40307265  0.76301972  1
  Ta  Ta98  1  0.90392782  0.91038903  0.63185862  1
  Ta  Ta99  1  0.89629712  0.90391917  0.86916744  1
  Ta  Ta100  1  -0.00183993  0.80719414  0.74634590  1
  Ta  Ta101  1  0.50428940  0.29282662  0.88318438  1
  Ta  Ta102  1  0.29992628  0.29774045  0.38601223  1
  Ta  Ta103  1  -0.00451241  0.80450233  0.51946469  1
  Ta  Ta104  1  0.60483680  0.59582907  0.74882339  1
  Ta  Ta105  1  0.09592631  0.69309780  0.39159783  1
  Ta  Ta106  1  -0.00116020  0.59669634  -0.00944231  1
  Ta  Ta107  1  0.00199340  0.61235917  0.23938142  1
  Ta  Ta108  1  0.28745643  0.68720060  0.38801390  1
  Ta  Ta109  1  -0.01371337  0.19980067  -0.00845361  1
  Ta  Ta110  1  0.51305010  0.69070733  0.61357452  1
  Ta  Ta111  1  0.79986617  0.41013000  -0.01253349  1
  Ta  Ta112  1  0.69564963  0.90620741  0.62722361  1
  Ta  Ta113  1  0.09907016  0.50577990  0.13204832  1
  Ta  Ta114  1  0.70536081  0.89800186  0.35293919  1
  Ta  Ta115  1  0.29364978  0.69139016  0.13289027  1
  Ta  Ta116  1  0.30303014  0.09363928  0.61353911  1
  Ta  Ta117  1  0.40931129  0.59237509  0.49034965  1
  Ta  Ta118  1  0.20443017  0.79449278  -0.00614984  1
  Ta  Ta119  1  0.28917570  0.49267318  0.39866855  1
  Ti  Ti120  1  0.89766104  0.32086115  0.62478212  1
  Ti  Ti121  1  0.09567276  0.69952135  0.86447926  1
  Ti  Ti122  1  0.80026380  0.20045178  0.01106704  1
  Ti  Ti123  1  0.20193663  0.19060253  -0.00236356  1
  Ti  Ti124  1  0.40674309  0.19884411  0.49927271  1
  Ti  Ti125  1  -0.00676591  0.39498342  0.23863503  1
  Ti  Ti126  1  0.60746407  0.20520465  0.51074832  1
  Ti  Ti127  1  0.50235403  0.49540892  0.12541591  1
  Ti  Ti128  1  0.59729492  0.79146238  0.26940163  1
  Ti  Ti129  1  0.59309312  0.58366952  0.27342701  1
  Ti  Ti130  1  0.70640042  0.89929940  0.87553644  1
  Ti  Ti131  1  0.10550722  0.69227207  0.11757289  1
  Ti  Ti132  1  0.80953468  0.21206838  0.23248911  1
  Ti  Ti133  1  0.89961091  0.30321453  0.11440624  1
  Ti  Ti134  1  0.90279883  0.69852779  0.63540148  1
  Ti  Ti135  1  0.89892424  0.10005932  0.62612425  1
  Ti  Ti136  1  0.29560153  0.49515570  0.62118703  1
  Ti  Ti137  1  0.89266574  0.10352519  0.87322858  1
  Ti  Ti138  1  0.09453715  0.89853008  0.88475061  1
  Ti  Ti139  1  0.41141377  0.39745627  0.49594183  1
  Ti  Ti140  1  -0.00008642  -0.00168591  0.75549860  1
  Ti  Ti141  1  0.70246108  0.30939261  0.11547457  1
  Ti  Ti142  1  0.40577544  0.59370272  0.74235410  1
  Ti  Ti143  1  0.69808298  0.89975831  0.13809267  1
  Ti  Ti144  1  0.21304039  0.00299841  -0.00994763  1
  Ti  Ti145  1  0.40024383  -0.00757909  0.27115045  1
  Ti  Ti146  1  0.70532065  0.11146377  0.37863218  1
  Ti  Ti147  1  0.81366340  0.79770438  0.22912069  1
  Ti  Ti148  1  0.79028270  0.42167832  0.51554008  1
  Ti  Ti149  1  0.60440616  0.79447906  0.48831078  1
  Ti  Ti150  1  0.19754181  0.41037352  0.00187554  1
  Ti  Ti151  1  0.91211352  0.91793837  0.12607786  1
  Ti  Ti152  1  0.90453780  0.50598233  0.64238609  1
  Ti  Ti153  1  0.17793846  0.39604790  0.50822230  1
  Ti  Ti154  1  0.49361114  0.49013384  0.86549803  1
  Ti  Ti155  1  -0.01206347  0.59168591  0.50366161  1
  Ti  Ti156  1  0.29901614  0.69765887  0.86019145  1
  Ti  Ti157  1  0.50785805  0.89891186  0.63021277  1
  Ti  Ti158  1  0.70599946  0.71378129  0.88794335  1
  Ti  Ti159  1  0.70012665  0.31097564  0.62088711  1
  Mo  Mo160  1  0.90348434  0.11319441  0.12670370  1
  Mo  Mo161  1  0.79662471  0.39278840  0.22856530  1
  Mo  Mo162  1  0.61128253  0.00060381  0.25586942  1
  Mo  Mo163  1  0.60970547  0.39863420  0.51099767  1
  Mo  Mo164  1  0.70317338  0.10662954  0.61642289  1
  Mo  Mo165  1  0.39990135  -0.00477148  0.72759219  1
  Mo  Mo166  1  0.60047901  0.19552711  0.01303020  1
  Mo  Mo167  1  0.19922387  0.60238688  0.76126803  1
  Mo  Mo168  1  0.89663587  0.50591036  0.86990821  1
  Mo  Mo169  1  -0.01247525  0.41220402  0.52043800  1
  Mo  Mo170  1  0.30252011  0.90378033  0.61956815  1
  Mo  Mo171  1  0.51018427  0.48967951  0.39369377  1
  Mo  Mo172  1  0.90192571  0.69839562  0.10615733  1
  Mo  Mo173  1  0.29810394  0.09552230  0.87035130  1
  Mo  Mo174  1  0.09196592  0.30488990  0.63785433  1
  Mo  Mo175  1  0.70062564  0.50319588  0.86444381  1
  Mo  Mo176  1  -0.00670010  0.20652832  0.23707372  1
  Mo  Mo177  1  0.70680064  0.49792475  0.64041579  1
  Mo  Mo178  1  0.51043785  0.69204771  0.39370785  1
  Mo  Mo179  1  0.60341533  0.40244734  0.24038512  1
  Mo  Mo180  1  0.40296843  0.39675187  -0.01368909  1
  Mo  Mo181  1  0.09626931  0.50532747  0.85848151  1
  Mo  Mo182  1  0.50528593  0.29380822  0.61103606  1
  Mo  Mo183  1  0.89138305  0.29549313  0.88218343  1
  Mo  Mo184  1  0.19431362  0.58965317  0.49493527  1
  Mo  Mo185  1  0.80414821  0.60700198  0.23408195  1
  Mo  Mo186  1  0.79396022  0.80735381  0.01452660  1
  Mo  Mo187  1  0.39422773  0.20032664  0.27282335  1
  Mo  Mo188  1  0.09178506  0.90512223  0.62178078  1
  Mo  Mo189  1  0.69698687  0.69858693  0.61334088  1
  Mo  Mo190  1  -0.00598969  0.00191682  -0.02011525  1
  Mo  Mo191  1  -0.00181198  0.00805444  0.25604741  1
  Mo  Mo192  1  0.19202550  0.59879923  0.26273760  1
  Mo  Mo193  1  0.20019075  0.39486345  0.73329107  1
  Mo  Mo194  1  0.70350038  0.49742090  0.36133403  1
  Mo  Mo195  1  0.50677762  0.89557287  0.36349596  1
  Mo  Mo196  1  0.70075999  0.11131123  0.11256596  1
  Mo  Mo197  1  -0.00504939  0.60441180  0.76913378  1
  Mo  Mo198  1  -0.00525315  0.00451644  0.50522450  1
  Mo  Mo199  1  0.60665669  -0.00368439  0.74130076  1
