# generated using pymatgen
data_HfZrTaTiMo
_symmetry_space_group_name_H-M   'P 1'
_cell_length_a   15.84563055
_cell_length_b   15.85083776
_cell_length_c   15.35870133
_cell_angle_alpha   90.02511464
_cell_angle_beta   89.96009920
_cell_angle_gamma   90.02563106
_symmetry_Int_Tables_number   1
_chemical_formula_structural   HfZrTaTiMo
_chemical_formula_sum   'Hf40 Zr40 Ta40 Ti40 Mo40'
_cell_volume   3857.58985867
_cell_formula_units_Z   40
loop_
 _symmetry_equiv_pos_site_id
 _symmetry_equiv_pos_as_xyz
  1  'x, y, z'
loop_
 _atom_site_type_symbol
 _atom_site_label
 _atom_site_symmetry_multiplicity
 _atom_site_fract_x
 _atom_site_fract_y
 _atom_site_fract_z
 _atom_site_occupancy
  Hf  Hf0  1  0.68265815  0.50079549  0.38717422  1
  Hf  Hf1  1  0.00642382  0.79935717  0.75125968  1
  Hf  Hf2  1  0.49237281  0.50997243  0.63616339  1
  Hf  Hf3  1  0.90154978  0.49890660  0.37541653  1
  Hf  Hf4  1  0.89047793  0.89725345  0.12061495  1
  Hf  Hf5  1  0.31772263  0.31315110  0.11681497  1
  Hf  Hf6  1  0.00278999  0.00365622  0.76026102  1
  Hf  Hf7  1  0.69975686  0.70799563  0.11810820  1
  Hf  Hf8  1  0.69312643  0.10459120  0.39369994  1
  Hf  Hf9  1  0.89896433  0.89556498  0.38471670  1
  Hf  Hf10  1  0.79912167  0.20114932  0.26742044  1
  Hf  Hf11  1  0.40224248  0.78721581  0.76395717  1
  Hf  Hf12  1  0.80577598  0.59610165  0.02067005  1
  Hf  Hf13  1  0.79866824  0.39321401  0.51137400  1
  Hf  Hf14  1  0.49779417  0.29746974  0.87719336  1
  Hf  Hf15  1  0.70138570  0.90050755  0.61653697  1
  Hf  Hf16  1  0.69868015  0.91011915  0.12728867  1
  Hf  Hf17  1  0.30691168  0.69050237  0.62848503  1
  Hf  Hf18  1  0.00359403  0.79301562  0.01006705  1
  Hf  Hf19  1  0.89975781  0.50506778  0.86485605  1
  Hf  Hf20  1  0.00548497  0.00839345  -0.00012865  1
  Hf  Hf21  1  0.20414376  0.20139764  0.22978901  1
  Hf  Hf22  1  0.49378779  0.69531528  0.11333129  1
  Hf  Hf23  1  0.40962800  0.20695351  0.24623069  1
  Hf  Hf24  1  0.59867409  0.19619355  0.00557390  1
  Hf  Hf25  1  0.49167706  0.47630067  0.10579789  1
  Hf  Hf26  1  0.19803191  0.20017002  0.74736487  1
  Hf  Hf27  1  0.20731786  0.59775403  0.48730203  1
  Hf  Hf28  1  0.50077221  0.90074530  0.63306905  1
  Hf  Hf29  1  0.11003859  0.31080216  0.36294583  1
  Hf  Hf30  1  0.79284370  0.60130096  0.50756310  1
  Hf  Hf31  1  0.89714357  0.69518101  0.88522013  1
  Hf  Hf32  1  0.30521026  0.49910177  0.63945213  1
  Hf  Hf33  1  0.09643108  0.49879039  0.36611819  1
  Hf  Hf34  1  0.89772660  0.89782599  0.88271469  1
  Hf  Hf35  1  0.40840112  0.58872072  0.25653145  1
  Hf  Hf36  1  0.60518391  0.78830851  0.75608522  1
  Hf  Hf37  1  0.69324904  0.11140344  0.85097754  1
  Hf  Hf38  1  0.69071453  0.09886256  0.62278197  1
  Hf  Hf39  1  0.10808404  0.90080536  0.62797864  1
  Zr  Zr40  1  0.00245949  0.00642563  0.25226077  1
  Zr  Zr41  1  0.20112599  0.80156680  0.47956693  1
  Zr  Zr42  1  0.40807867  0.78986135  0.49653065  1
  Zr  Zr43  1  0.00081059  0.39436033  0.73565750  1
  Zr  Zr44  1  0.49742428  0.89847525  0.12716227  1
  Zr  Zr45  1  0.30123671  0.29522696  0.87851746  1
  Zr  Zr46  1  0.21003843  0.20401773  0.49928911  1
  Zr  Zr47  1  0.88980905  0.10233467  0.13313981  1
  Zr  Zr48  1  0.80310287  0.79358662  0.25248491  1
  Zr  Zr49  1  0.50576160  0.89264525  0.37353892  1
  Zr  Zr50  1  0.09003504  0.50071210  0.87621293  1
  Zr  Zr51  1  0.68655493  0.29904364  0.39477968  1
  Zr  Zr52  1  0.00835006  0.79400596  0.25530959  1
  Zr  Zr53  1  0.59220019  0.00545322  -0.01916229  1
  Zr  Zr54  1  0.68663200  0.70513357  0.38709950  1
  Zr  Zr55  1  -0.00056480  0.20099987  0.74850937  1
  Zr  Zr56  1  0.30695742  0.09374498  0.63088803  1
  Zr  Zr57  1  0.91129144  0.50633308  0.61457318  1
  Zr  Zr58  1  0.01008841  -0.00214177  0.48910682  1
  Zr  Zr59  1  0.10546772  0.10597617  0.36702090  1
  Zr  Zr60  1  0.69939465  0.89830901  0.38962767  1
  Zr  Zr61  1  0.78885703  0.40769787  0.00792970  1
  Zr  Zr62  1  0.80383667  0.79861028  0.73951274  1
  Zr  Zr63  1  0.30543021  0.89886747  0.87783422  1
  Zr  Zr64  1  0.69283175  0.50363592  0.85925594  1
  Zr  Zr65  1  0.08982664  0.49296936  0.14239149  1
  Zr  Zr66  1  0.79535498  0.01341816  -0.01692201  1
  Zr  Zr67  1  0.79086894  0.61262947  0.73278989  1
  Zr  Zr68  1  0.29870940  0.89917690  0.63680971  1
  Zr  Zr69  1  0.79325483  0.39387323  0.72692027  1
  Zr  Zr70  1  0.11749332  0.90843111  0.13084611  1
  Zr  Zr71  1  0.20082979  0.61122576  0.25412615  1
  Zr  Zr72  1  0.69453637  0.30149624  0.12430847  1
  Zr  Zr73  1  0.90367787  0.31149838  0.13570799  1
  Zr  Zr74  1  0.89434533  0.30296126  0.88014971  1
  Zr  Zr75  1  0.19247118  0.59928122  0.00105136  1
  Zr  Zr76  1  0.59933542  0.80362437  -0.01689272  1
  Zr  Zr77  1  0.00199788  0.20346722  0.00899214  1
  Zr  Zr78  1  0.58084455  0.39446075  0.25048164  1
  Zr  Zr79  1  0.90323139  0.09537446  0.61862503  1
  Ta  Ta80  1  0.20968170  -0.00547863  0.47854838  1
  Ta  Ta81  1  0.20910473  0.00789856  -0.00403304  1
  Ta  Ta82  1  0.59548335  0.19633401  0.24552892  1
  Ta  Ta83  1  0.20433302  0.79966185  -0.00321141  1
  Ta  Ta84  1  0.10836289  0.10942770  0.88515815  1
  Ta  Ta85  1  0.31043945  0.30399395  0.63772879  1
  Ta  Ta86  1  0.39798635  0.79226918  0.25377987  1
  Ta  Ta87  1  0.29796430  0.49472396  0.86766579  1
  Ta  Ta88  1  0.79542807  0.59925669  0.24787891  1
  Ta  Ta89  1  0.30168222  0.50094471  0.12817513  1
  Ta  Ta90  1  0.40563910  0.00147186  -0.01106785  1
  Ta  Ta91  1  0.50062370  0.10563823  0.38182984  1
  Ta  Ta92  1  0.11032032  0.50662301  0.62421264  1
  Ta  Ta93  1  0.49651079  0.49289821  0.86821190  1
  Ta  Ta94  1  0.19578152  0.39824792  0.74674758  1
  Ta  Ta95  1  0.50255151  0.68611321  0.88081521  1
  Ta  Ta96  1  0.40426984  0.59282849  0.48139436  1
  Ta  Ta97  1  0.19798808  0.60653998  0.76090177  1
  Ta  Ta98  1  0.10259322  0.30387655  0.88867473  1
  Ta  Ta99  1  0.39309879  0.59499151  -0.00928454  1
  Ta  Ta100  1  0.30743607  0.10223930  0.36533163  1
  Ta  Ta101  1  0.00096551  0.20527130  0.49782703  1
  Ta  Ta102  1  0.79983165  0.20790525  0.73398047  1
  Ta  Ta103  1  0.19629024  0.39940005  0.00962085  1
  Ta  Ta104  1  0.91211465  0.71071053  0.60447139  1
  Ta  Ta105  1  0.59990525  0.59461132  0.24091086  1
  Ta  Ta106  1  0.10912432  0.09460315  0.61772176  1
  Ta  Ta107  1  0.90114157  0.69649783  0.39202533  1
  Ta  Ta108  1  0.39573663  -0.00078249  0.48876346  1
  Ta  Ta109  1  0.19799961  0.00384042  0.76856848  1
  Ta  Ta110  1  0.20538739  0.40013984  0.50817446  1
  Ta  Ta111  1  0.80476460  0.00397571  0.75065112  1
  Ta  Ta112  1  0.30976486  0.89642522  0.12029046  1
  Ta  Ta113  1  0.79213426  0.40735797  0.25612244  1
  Ta  Ta114  1  0.60522437  0.58684089  0.00178527  1
  Ta  Ta115  1  0.30330029  0.70641135  0.11819221  1
  Ta  Ta116  1  0.00524075  0.61131939  0.73586677  1
  Ta  Ta117  1  0.39213534  0.40023214  0.49089045  1
  Ta  Ta118  1  0.49713255  0.29845088  0.39384678  1
  Ta  Ta119  1  0.60045512  0.00786517  0.25851772  1
  Ti  Ti120  1  0.01586029  0.79828128  0.48773972  1
  Ti  Ti121  1  0.67667915  0.69822306  0.60838129  1
  Ti  Ti122  1  0.79829775  0.00606669  0.26822452  1
  Ti  Ti123  1  0.40455095  0.18697566  0.00958193  1
  Ti  Ti124  1  0.90748714  0.30134758  0.37626340  1
  Ti  Ti125  1  -0.00601923  0.41256818  0.00974349  1
  Ti  Ti126  1  0.20710026  0.80769467  0.25931202  1
  Ti  Ti127  1  0.67765966  0.50330380  0.61862415  1
  Ti  Ti128  1  0.49445250  0.30433363  0.61947504  1
  Ti  Ti129  1  0.30381797  0.08351240  0.12957602  1
  Ti  Ti130  1  0.09433502  0.69635057  0.88176552  1
  Ti  Ti131  1  0.10485970  0.29987502  0.61722672  1
  Ti  Ti132  1  0.50066195  0.09149044  0.13282231  1
  Ti  Ti133  1  0.39832369  0.19999766  0.50089711  1
  Ti  Ti134  1  0.49624464  0.09899223  0.62645426  1
  Ti  Ti135  1  0.10408414  0.90056141  0.88303328  1
  Ti  Ti136  1  0.10358422  0.70010733  0.12793333  1
  Ti  Ti137  1  0.58868391  0.20441071  0.73701571  1
  Ti  Ti138  1  0.69985702  0.09829516  0.13353343  1
  Ti  Ti139  1  -0.01482941  0.60847963  0.24466954  1
  Ti  Ti140  1  0.70234916  0.90079978  0.86344353  1
  Ti  Ti141  1  0.58653668  -0.00009411  0.49958081  1
  Ti  Ti142  1  0.90444469  0.89771010  0.61343215  1
  Ti  Ti143  1  0.29436262  0.47868515  0.35789380  1
  Ti  Ti144  1  0.00489199  0.20450571  0.24336030  1
  Ti  Ti145  1  0.30863687  0.10795461  0.87278480  1
  Ti  Ti146  1  0.59549026  0.79424656  0.24650426  1
  Ti  Ti147  1  0.59625337  0.39339765  0.73795532  1
  Ti  Ti148  1  0.80612834  0.20347061  0.50740581  1
  Ti  Ti149  1  0.41334810  0.00657657  0.76693725  1
  Ti  Ti150  1  0.19854893  0.79316108  0.76700337  1
  Ti  Ti151  1  0.69362773  0.30389239  0.87134017  1
  Ti  Ti152  1  0.30673116  0.70001653  0.36917716  1
  Ti  Ti153  1  0.00771062  0.39650069  0.50332983  1
  Ti  Ti154  1  0.01456787  0.60740623  0.49868837  1
  Ti  Ti155  1  0.79806729  0.19902438  -0.00693094  1
  Ti  Ti156  1  0.40127849  -0.00372484  0.25871796  1
  Ti  Ti157  1  0.20194591  0.19709412  0.01586561  1
  Ti  Ti158  1  0.80691534  0.00500663  0.49700538  1
  Ti  Ti159  1  0.10996397  0.70209459  0.62373672  1
  Mo  Mo160  1  0.20281110  0.39881872  0.23193822  1
  Mo  Mo161  1  0.49358401  0.10884950  0.86397490  1
  Mo  Mo162  1  0.49903215  0.69161536  0.63839029  1
  Mo  Mo163  1  0.49947160  0.49440908  0.38550177  1
  Mo  Mo164  1  0.80313909  0.79864225  0.51159548  1
  Mo  Mo165  1  0.58135436  0.60441679  0.49898734  1
  Mo  Mo166  1  0.58351739  0.19715237  0.51816206  1
  Mo  Mo167  1  0.89625768  0.50105382  0.15022848  1
  Mo  Mo168  1  0.10817776  0.89970427  0.36215240  1
  Mo  Mo169  1  0.89601635  0.10696333  0.86295507  1
  Mo  Mo170  1  0.50244309  0.69166243  0.36118636  1
  Mo  Mo171  1  0.70238619  0.70010156  0.89443019  1
  Mo  Mo172  1  0.59641735  0.60273358  0.75661882  1
  Mo  Mo173  1  0.50341254  0.90260565  0.86148442  1
  Mo  Mo174  1  0.29622890  0.69574719  0.88837063  1
  Mo  Mo175  1  -0.00347606  0.60136661  0.01940855  1
  Mo  Mo176  1  0.49849647  0.29038596  0.10638884  1
  Mo  Mo177  1  0.10378366  0.30374122  0.11956817  1
  Mo  Mo178  1  0.09680075  0.69661044  0.36798364  1
  Mo  Mo179  1  0.21587429  0.00006071  0.25258159  1
  Mo  Mo180  1  0.90311309  0.69696678  0.12017298  1
  Mo  Mo181  1  0.59884240  -0.00080153  0.75429121  1
  Mo  Mo182  1  -0.00685283  0.39376447  0.25927370  1
  Mo  Mo183  1  0.11109916  0.10180735  0.11798858  1
  Mo  Mo184  1  0.39797125  0.39384547  0.26663891  1
  Mo  Mo185  1  0.79471515  0.80121806  -0.00602093  1
  Mo  Mo186  1  0.58844886  0.40122919  0.51829170  1
  Mo  Mo187  1  0.39611240  0.59876323  0.77225784  1
  Mo  Mo188  1  0.69207659  0.50172230  0.13812270  1
  Mo  Mo189  1  0.30382279  0.29980882  0.36972478  1
  Mo  Mo190  1  0.59161008  0.79853119  0.51475189  1
  Mo  Mo191  1  0.30640002  0.90196033  0.35912522  1
  Mo  Mo192  1  0.39296267  0.40459935  -0.01987129  1
  Mo  Mo193  1  0.39838774  0.79624905  -0.00955686  1
  Mo  Mo194  1  0.59787055  0.39881831  -0.00913616  1
  Mo  Mo195  1  0.90379580  0.29610209  0.60812313  1
  Mo  Mo196  1  0.68820701  0.29465836  0.61792400  1
  Mo  Mo197  1  0.40490251  0.19834368  0.74095001  1
  Mo  Mo198  1  0.89802717  0.11130383  0.38114162  1
  Mo  Mo199  1  0.40103325  0.39559772  0.75637244  1
