# generated using pymatgen
data_HfZrTaTiMo
_symmetry_space_group_name_H-M   'P 1'
_cell_length_a   15.83619280
_cell_length_b   15.84267470
_cell_length_c   15.38786770
_cell_angle_alpha   89.99443577
_cell_angle_beta   89.99452863
_cell_angle_gamma   89.99217584
_symmetry_Int_Tables_number   1
_chemical_formula_structural   HfZrTaTiMo
_chemical_formula_sum   'Hf40 Zr40 Ta40 Ti40 Mo40'
_cell_volume   3860.62591037
_cell_formula_units_Z   40
loop_
 _symmetry_equiv_pos_site_id
 _symmetry_equiv_pos_as_xyz
  1  'x, y, z'
loop_
 _atom_site_type_symbol
 _atom_site_label
 _atom_site_symmetry_multiplicity
 _atom_site_fract_x
 _atom_site_fract_y
 _atom_site_fract_z
 _atom_site_occupancy
  Hf  Hf0  1  0.90453096  0.90228030  0.60687923  1
  Hf  Hf1  1  0.20547883  -0.00825057  0.50552747  1
  Hf  Hf2  1  0.60365581  0.00013174  -0.01859032  1
  Hf  Hf3  1  0.59745328  0.40401888  0.49956892  1
  Hf  Hf4  1  -0.00368974  0.61620454  -0.00684986  1
  Hf  Hf5  1  -0.00224431  0.39048966  0.50512988  1
  Hf  Hf6  1  0.60826169  0.59072068  0.23824185  1
  Hf  Hf7  1  0.80570301  0.60054911  0.76246689  1
  Hf  Hf8  1  0.49312103  0.50328002  0.37017423  1
  Hf  Hf9  1  0.59184721  0.59813709  0.01016180  1
  Hf  Hf10  1  0.70222028  0.50742908  0.62312971  1
  Hf  Hf11  1  0.39622802  0.80887849  0.47976197  1
  Hf  Hf12  1  0.40045724  0.00444070  0.75050473  1
  Hf  Hf13  1  0.00166025  0.79051983  0.75332634  1
  Hf  Hf14  1  0.19988134  0.39567881  0.50754076  1
  Hf  Hf15  1  0.49658308  0.30171187  0.12734276  1
  Hf  Hf16  1  0.10959800  0.09200650  0.88599133  1
  Hf  Hf17  1  0.50711912  0.11077895  0.11816801  1
  Hf  Hf18  1  -0.00638915  -0.01468331  0.00804054  1
  Hf  Hf19  1  0.59327510  0.00365489  0.49550484  1
  Hf  Hf20  1  0.40043278  0.80162285  -0.01240844  1
  Hf  Hf21  1  0.50194853  0.90495810  0.11603227  1
  Hf  Hf22  1  0.19072343  0.60888625  0.48561509  1
  Hf  Hf23  1  -0.01343862  0.18692888  0.24305075  1
  Hf  Hf24  1  0.29374414  0.31107176  0.13811933  1
  Hf  Hf25  1  0.59835347  0.20093784  0.74578518  1
  Hf  Hf26  1  0.00918662  0.58912668  0.27357236  1
  Hf  Hf27  1  0.28949814  0.10428523  0.37762225  1
  Hf  Hf28  1  0.59453944  0.40143991  0.75319951  1
  Hf  Hf29  1  0.50268701  0.11322047  0.37617351  1
  Hf  Hf30  1  0.40517507  -0.00585218  0.26131366  1
  Hf  Hf31  1  0.79379545  0.39985351  0.26473094  1
  Hf  Hf32  1  0.91733028  0.90622935  0.38326800  1
  Hf  Hf33  1  0.61357756  0.21421720  0.50412158  1
  Hf  Hf34  1  0.39530169  0.39032967  0.76534105  1
  Hf  Hf35  1  0.30018374  0.49852952  0.36727494  1
  Hf  Hf36  1  0.30248638  0.09864004  0.11347359  1
  Hf  Hf37  1  0.78861326  0.38238320  0.50597580  1
  Hf  Hf38  1  0.49327878  0.10981693  0.87028918  1
  Hf  Hf39  1  0.59499137  0.61392588  0.75490937  1
  Zr  Zr40  1  0.83090770  0.79884832  0.01137054  1
  Zr  Zr41  1  0.00626953  0.00518650  0.74028629  1
  Zr  Zr42  1  0.69212653  0.70614020  0.61505343  1
  Zr  Zr43  1  0.20049788  0.00066996  0.73608312  1
  Zr  Zr44  1  0.29140280  0.91502204  0.88107907  1
  Zr  Zr45  1  0.70583504  0.90247631  0.38864533  1
  Zr  Zr46  1  0.02141449  0.77804824  0.48832345  1
  Zr  Zr47  1  0.09843473  0.28522337  0.37909534  1
  Zr  Zr48  1  0.11298798  0.89967390  0.36320575  1
  Zr  Zr49  1  0.91099086  0.49187510  0.11744101  1
  Zr  Zr50  1  -0.00027088  0.20521678  0.00977850  1
  Zr  Zr51  1  0.20347895  0.79807113  0.75234725  1
  Zr  Zr52  1  0.80479232  0.59895698  0.24023190  1
  Zr  Zr53  1  0.80083740  0.60122705  0.00957816  1
  Zr  Zr54  1  0.90510883  0.68506603  0.61203855  1
  Zr  Zr55  1  0.79634490  0.79713850  0.75266392  1
  Zr  Zr56  1  0.29308977  0.50897108  0.63283319  1
  Zr  Zr57  1  0.78454961  0.19362177  0.25964404  1
  Zr  Zr58  1  0.69602622  0.89521466  0.61338071  1
  Zr  Zr59  1  -0.00594167  0.39237618  0.26410838  1
  Zr  Zr60  1  0.70440232  0.68934685  0.37905811  1
  Zr  Zr61  1  0.09835674  0.88839023  0.13274403  1
  Zr  Zr62  1  0.90240400  0.90088035  0.87048709  1
  Zr  Zr63  1  0.49817171  0.71017365  0.12657126  1
  Zr  Zr64  1  0.69736775  0.50223684  0.87948824  1
  Zr  Zr65  1  0.19696667  0.78940278  -0.00371792  1
  Zr  Zr66  1  0.70892128  0.09785640  0.61965418  1
  Zr  Zr67  1  0.71626131  0.91613185  0.11349407  1
  Zr  Zr68  1  0.60439649  0.81582316  0.25391318  1
  Zr  Zr69  1  0.48922102  0.30678527  0.36943562  1
  Zr  Zr70  1  0.10187272  0.49243847  0.87710432  1
  Zr  Zr71  1  0.39001236  0.40580795  -0.00994183  1
  Zr  Zr72  1  0.49669774  0.70349308  0.36371575  1
  Zr  Zr73  1  0.61470355  0.02266705  0.25393282  1
  Zr  Zr74  1  0.81060019  0.00714238  0.26292129  1
  Zr  Zr75  1  0.10146295  0.69063410  0.13998425  1
  Zr  Zr76  1  0.09363935  0.29593023  0.86485572  1
  Zr  Zr77  1  0.18667421  0.19564574  0.24401085  1
  Zr  Zr78  1  0.48717222  0.50993116  0.62497619  1
  Zr  Zr79  1  0.80051222  0.00131613  0.74989673  1
  Ta  Ta80  1  0.09174281  0.50466620  0.62647716  1
  Ta  Ta81  1  0.39553063  0.19821750  0.24940763  1
  Ta  Ta82  1  0.39660646  0.59725571  0.23503432  1
  Ta  Ta83  1  0.59141826  0.60324961  0.49817510  1
  Ta  Ta84  1  0.90015119  0.49842297  0.61832131  1
  Ta  Ta85  1  0.79446675  0.20080211  -0.00405066  1
  Ta  Ta86  1  0.69949131  0.71192662  0.89278131  1
  Ta  Ta87  1  0.48978963  0.29626991  0.62560292  1
  Ta  Ta88  1  0.20051162  0.20193578  0.51064298  1
  Ta  Ta89  1  0.20975387  0.19522748  0.75001822  1
  Ta  Ta90  1  0.59406602  0.81063416  0.77081890  1
  Ta  Ta91  1  0.90035768  0.29945045  0.86983433  1
  Ta  Ta92  1  0.29798755  0.70241214  0.13640444  1
  Ta  Ta93  1  0.80201848  0.39736608  0.74602176  1
  Ta  Ta94  1  0.90505650  0.48756264  0.88131984  1
  Ta  Ta95  1  0.81140749  0.20420700  0.74032708  1
  Ta  Ta96  1  0.90546011  0.10872193  0.87754553  1
  Ta  Ta97  1  0.30269022  0.89563425  0.12989422  1
  Ta  Ta98  1  0.69166511  0.29279521  0.12549967  1
  Ta  Ta99  1  0.79684868  0.38912693  -0.00571627  1
  Ta  Ta100  1  0.10185080  0.09484525  0.11171553  1
  Ta  Ta101  1  0.70873439  0.10236013  0.87125465  1
  Ta  Ta102  1  0.80962324  0.79125589  0.48530105  1
  Ta  Ta103  1  0.50047111  0.89710061  0.62378939  1
  Ta  Ta104  1  0.29876690  0.30321087  0.36596081  1
  Ta  Ta105  1  0.60423401  0.39868821  0.25496284  1
  Ta  Ta106  1  0.30787175  0.10412348  0.61681730  1
  Ta  Ta107  1  0.81475783  0.79916876  0.25087024  1
  Ta  Ta108  1  0.38949502  0.60098320  0.00754194  1
  Ta  Ta109  1  0.30548536  0.70401255  0.63041624  1
  Ta  Ta110  1  -0.00018887  0.59205155  0.75865209  1
  Ta  Ta111  1  0.70352577  0.29653190  0.86642710  1
  Ta  Ta112  1  0.88852949  0.29749372  0.12206211  1
  Ta  Ta113  1  0.88345505  0.09052202  0.11017816  1
  Ta  Ta114  1  0.10564806  0.49270398  0.11350448  1
  Ta  Ta115  1  0.39925299  -0.00045514  0.49476819  1
  Ta  Ta116  1  0.88936427  0.50681134  0.39976303  1
  Ta  Ta117  1  0.49365997  0.71461210  0.62072155  1
  Ta  Ta118  1  0.31203028  0.89344234  0.62597047  1
  Ta  Ta119  1  0.59449395  0.39307479  -0.00992121  1
  Ti  Ti120  1  0.30151869  0.29416971  0.63463589  1
  Ti  Ti121  1  0.28921433  0.50261100  0.13412489  1
  Ti  Ti122  1  0.90384568  0.09992578  0.40671841  1
  Ti  Ti123  1  0.49389171  0.10307443  0.62359230  1
  Ti  Ti124  1  0.30014765  0.69013094  0.86698849  1
  Ti  Ti125  1  0.39951579  0.60968745  0.75528334  1
  Ti  Ti126  1  0.18379392  0.41144169  0.25878138  1
  Ti  Ti127  1  0.70017631  0.71476994  0.11839374  1
  Ti  Ti128  1  -0.00880141  0.39593180  0.73770226  1
  Ti  Ti129  1  0.60160203  0.20655202  -0.01482478  1
  Ti  Ti130  1  0.09478180  0.29146018  0.63658995  1
  Ti  Ti131  1  0.10426662  0.88831431  0.61666397  1
  Ti  Ti132  1  0.29170192  0.50719968  0.86501506  1
  Ti  Ti133  1  0.39212314  0.21454395  -0.01749991  1
  Ti  Ti134  1  0.11018838  0.68743673  0.63552382  1
  Ti  Ti135  1  0.40685669  0.80260093  0.76153165  1
  Ti  Ti136  1  0.10072818  0.10493779  0.61810906  1
  Ti  Ti137  1  0.20157836  0.39379644  -0.00635757  1
  Ti  Ti138  1  0.20641538  0.59547221  -0.00030717  1
  Ti  Ti139  1  0.20645846  0.20580529  -0.00471920  1
  Ti  Ti140  1  0.29453514  0.70495590  0.34773602  1
  Ti  Ti141  1  0.39167906  0.61054581  0.49542249  1
  Ti  Ti142  1  0.10606036  0.69181612  0.86820802  1
  Ti  Ti143  1  0.00006247  0.00210620  0.23892859  1
  Ti  Ti144  1  0.89443823  0.28211800  0.39041083  1
  Ti  Ti145  1  0.39230519  0.39823531  0.50771764  1
  Ti  Ti146  1  0.69789276  0.48186557  0.11412601  1
  Ti  Ti147  1  0.08616897  0.09266847  0.39204007  1
  Ti  Ti148  1  0.49179735  0.49039081  0.12841688  1
  Ti  Ti149  1  0.09961246  0.89645772  0.88386146  1
  Ti  Ti150  1  0.09355693  0.30900058  0.12273929  1
  Ti  Ti151  1  0.21197031  0.79552665  0.49314041  1
  Ti  Ti152  1  0.59923908  -0.00539745  0.75696436  1
  Ti  Ti153  1  0.49198940  0.50847251  0.87839873  1
  Ti  Ti154  1  0.39895872  0.00493068  -0.00916025  1
  Ti  Ti155  1  0.90878764  0.10665002  0.60881368  1
  Ti  Ti156  1  0.50110018  0.70114712  0.88441704  1
  Ti  Ti157  1  0.39438263  0.20636323  0.49955837  1
  Ti  Ti158  1  0.20238850  0.00197622  0.24265094  1
  Ti  Ti159  1  0.19630298  0.39797654  0.74430760  1
  Mo  Mo160  1  0.90307665  0.69274535  0.86611155  1
  Mo  Mo161  1  0.20536474  0.80060159  0.24749525  1
  Mo  Mo162  1  0.91209205  0.70446538  0.14831922  1
  Mo  Mo163  1  0.39537214  0.40426999  0.23934510  1
  Mo  Mo164  1  0.29074650  0.29997173  0.86488807  1
  Mo  Mo165  1  0.29711133  0.10950053  0.88921561  1
  Mo  Mo166  1  0.59284712  0.80022970  0.49306334  1
  Mo  Mo167  1  0.19797081  0.59868751  0.74942472  1
  Mo  Mo168  1  0.30090245  0.90139843  0.36048737  1
  Mo  Mo169  1  0.80459611  0.20254213  0.50791397  1
  Mo  Mo170  1  0.69449915  0.29879846  0.36500186  1
  Mo  Mo171  1  0.59935004  0.20729344  0.25286240  1
  Mo  Mo172  1  0.00213342  0.19601205  0.73981082  1
  Mo  Mo173  1  0.00562573  0.19955847  0.51488453  1
  Mo  Mo174  1  0.70060095  0.89934410  0.88223819  1
  Mo  Mo175  1  0.80660258  0.00090738  0.49609532  1
  Mo  Mo176  1  0.20091127  0.59282371  0.25524699  1
  Mo  Mo177  1  0.39742660  0.80470708  0.25480193  1
  Mo  Mo178  1  0.00696746  0.79303504  -0.01377692  1
  Mo  Mo179  1  0.69829170  0.11070775  0.10262338  1
  Mo  Mo180  1  0.50290527  0.90624762  0.38338776  1
  Mo  Mo181  1  0.60322966  0.80361589  -0.01115091  1
  Mo  Mo182  1  0.50124903  0.30100026  0.87796076  1
  Mo  Mo183  1  0.71104193  0.10835547  0.39992022  1
  Mo  Mo184  1  0.79639244  0.59463154  0.50183081  1
  Mo  Mo185  1  0.49673218  0.90348086  0.87122414  1
  Mo  Mo186  1  0.39535227  0.19944396  0.74635744  1
  Mo  Mo187  1  0.90305689  0.29774382  0.63410358  1
  Mo  Mo188  1  0.90298075  0.69701763  0.37411266  1
  Mo  Mo189  1  0.90839311  0.89992931  0.14147412  1
  Mo  Mo190  1  0.69798323  0.30276523  0.64698883  1
  Mo  Mo191  1  0.01336274  0.00021544  0.51254497  1
  Mo  Mo192  1  0.09874262  0.49290578  0.39512986  1
  Mo  Mo193  1  -0.00268073  0.79153228  0.26646915  1
  Mo  Mo194  1  0.20147465  -0.00240737  0.01555338  1
  Mo  Mo195  1  -0.00238830  0.39647920  0.00487266  1
  Mo  Mo196  1  0.11079984  0.69841608  0.35881573  1
  Mo  Mo197  1  0.69470218  0.49865090  0.38628032  1
  Mo  Mo198  1  0.00363999  0.59131714  0.49234005  1
  Mo  Mo199  1  0.80336835  0.00538251  -0.01328065  1
