# generated using pymatgen
data_HfZrTaTiMo
_symmetry_space_group_name_H-M   'P 1'
_cell_length_a   15.82547304
_cell_length_b   15.84507133
_cell_length_c   15.39640569
_cell_angle_alpha   89.98174519
_cell_angle_beta   89.90597509
_cell_angle_gamma   90.09330962
_symmetry_Int_Tables_number   1
_chemical_formula_structural   HfZrTaTiMo
_chemical_formula_sum   'Hf40 Zr40 Ta40 Ti40 Mo40'
_cell_volume   3860.72672624
_cell_formula_units_Z   40
loop_
 _symmetry_equiv_pos_site_id
 _symmetry_equiv_pos_as_xyz
  1  'x, y, z'
loop_
 _atom_site_type_symbol
 _atom_site_label
 _atom_site_symmetry_multiplicity
 _atom_site_fract_x
 _atom_site_fract_y
 _atom_site_fract_z
 _atom_site_occupancy
  Hf  Hf0  1  0.50414870  0.49717833  0.63526853  1
  Hf  Hf1  1  0.69899240  0.89641667  0.86559684  1
  Hf  Hf2  1  0.81712365  0.80440710  -0.00066896  1
  Hf  Hf3  1  -0.00468784  -0.01348343  0.00336025  1
  Hf  Hf4  1  0.19247866  -0.00093456  -0.00851161  1
  Hf  Hf5  1  0.29313796  0.29479133  0.63809627  1
  Hf  Hf6  1  0.70393370  0.29866210  0.11913522  1
  Hf  Hf7  1  0.59650503  0.00643397  -0.00851799  1
  Hf  Hf8  1  0.80474181  0.60106743  0.01799846  1
  Hf  Hf9  1  0.39758200  0.40059236  0.23659948  1
  Hf  Hf10  1  0.49617016  0.30185443  0.38111389  1
  Hf  Hf11  1  0.00311900  0.18655070  0.00461825  1
  Hf  Hf12  1  0.79902976  0.20367589  0.51900111  1
  Hf  Hf13  1  0.70242862  0.09126692  0.12571078  1
  Hf  Hf14  1  0.08662869  0.89136560  0.86661176  1
  Hf  Hf15  1  0.79530630  0.78540012  0.75086203  1
  Hf  Hf16  1  0.29296211  0.90062423  0.13439209  1
  Hf  Hf17  1  0.59743489  0.01132244  0.51751398  1
  Hf  Hf18  1  0.88914228  0.69200677  0.60902227  1
  Hf  Hf19  1  -0.00259160  0.59848131  0.02058424  1
  Hf  Hf20  1  0.70314465  0.30409996  0.87764885  1
  Hf  Hf21  1  0.10502738  0.90308898  0.63231159  1
  Hf  Hf22  1  0.91451098  0.09467296  0.85639177  1
  Hf  Hf23  1  0.70612858  0.49121821  0.36021810  1
  Hf  Hf24  1  0.19509959  0.59685878  0.48946244  1
  Hf  Hf25  1  0.29719051  0.49973253  0.62079763  1
  Hf  Hf26  1  0.01181925  0.00529226  0.48913742  1
  Hf  Hf27  1  0.70356829  0.89327846  0.61562777  1
  Hf  Hf28  1  0.00260182  0.21093502  0.52057398  1
  Hf  Hf29  1  0.70128574  0.10501698  0.36772247  1
  Hf  Hf30  1  0.90619737  0.30828345  0.37501186  1
  Hf  Hf31  1  0.59164066  0.39993740  0.24247409  1
  Hf  Hf32  1  0.29830336  0.09635493  0.36019279  1
  Hf  Hf33  1  0.48998519  0.89752897  0.63416215  1
  Hf  Hf34  1  0.91337760  0.69187398  0.87272194  1
  Hf  Hf35  1  0.50307178  0.10119471  0.37013409  1
  Hf  Hf36  1  -0.00677987  0.58410824  0.48306659  1
  Hf  Hf37  1  0.90723248  0.89155822  0.62000313  1
  Hf  Hf38  1  0.60572648  0.61107574  0.74121039  1
  Hf  Hf39  1  0.60274373  0.81124117  0.23864530  1
  Zr  Zr40  1  0.19944724  0.78178614  0.75809449  1
  Zr  Zr41  1  0.80479049  -0.00180082  -0.00494301  1
  Zr  Zr42  1  0.20505384  0.59443176  0.24535357  1
  Zr  Zr43  1  0.68950763  0.31405895  0.64054525  1
  Zr  Zr44  1  0.10807380  0.09958922  0.65229737  1
  Zr  Zr45  1  0.18906206  0.59759134  0.74607036  1
  Zr  Zr46  1  0.30436850  0.88413521  0.87597737  1
  Zr  Zr47  1  0.80777142  0.41061373  0.74695747  1
  Zr  Zr48  1  0.69717229  0.90132063  0.38294492  1
  Zr  Zr49  1  0.29779752  0.10196388  0.12543629  1
  Zr  Zr50  1  0.49368218  0.90506230  0.36913141  1
  Zr  Zr51  1  0.39366972  0.80081318  0.50469844  1
  Zr  Zr52  1  0.19654654  0.19084922  0.50037731  1
  Zr  Zr53  1  0.41257922  0.20371544  -0.01092775  1
  Zr  Zr54  1  0.10893651  0.28932680  0.12604139  1
  Zr  Zr55  1  0.39523465  0.20004181  0.77256109  1
  Zr  Zr56  1  0.82394008  0.19968652  0.23363154  1
  Zr  Zr57  1  0.69172322  0.69594105  0.89300820  1
  Zr  Zr58  1  0.59090196  0.59681826  0.48665132  1
  Zr  Zr59  1  0.09202919  0.50577398  0.88086901  1
  Zr  Zr60  1  0.38494560  0.00277240  0.50643612  1
  Zr  Zr61  1  0.69395478  0.50413574  0.88065009  1
  Zr  Zr62  1  0.89724085  0.89204852  0.14875340  1
  Zr  Zr63  1  0.60315776  0.80961610  0.02071169  1
  Zr  Zr64  1  0.81094928  0.40335375  0.00573147  1
  Zr  Zr65  1  0.49164369  0.70656617  0.89366384  1
  Zr  Zr66  1  0.81601980  0.40687256  0.51172087  1
  Zr  Zr67  1  0.80869147  0.01046796  0.50436956  1
  Zr  Zr68  1  0.29914879  0.71290375  0.35762155  1
  Zr  Zr69  1  0.59482841  0.20318953  0.23947135  1
  Zr  Zr70  1  0.39672832  0.19789774  0.50906069  1
  Zr  Zr71  1  0.49619732  0.51079507  0.88519252  1
  Zr  Zr72  1  0.09391385  0.70330868  0.60403484  1
  Zr  Zr73  1  0.39368036  0.62139680  0.74630441  1
  Zr  Zr74  1  0.59815622  0.19943359  0.76361012  1
  Zr  Zr75  1  0.60127933  0.40153133  0.49417499  1
  Zr  Zr76  1  0.10465624  0.49355135  0.12670029  1
  Zr  Zr77  1  0.30736466  0.49545147  0.37865183  1
  Zr  Zr78  1  0.20468758  0.19512830  -0.01948786  1
  Zr  Zr79  1  0.49542173  0.70522181  0.36316471  1
  Ta  Ta80  1  0.29201515  0.90333226  0.64596192  1
  Ta  Ta81  1  0.18967643  0.39064194  0.50357854  1
  Ta  Ta82  1  0.40151035  0.00045913  0.76497708  1
  Ta  Ta83  1  0.39872758  0.40037975  0.50437474  1
  Ta  Ta84  1  0.49418386  0.30510674  0.63596673  1
  Ta  Ta85  1  0.79948816  -0.00123980  0.74279902  1
  Ta  Ta86  1  0.09490297  0.89575771  0.14302746  1
  Ta  Ta87  1  0.71220446  0.51920346  0.62550289  1
  Ta  Ta88  1  0.81183891  0.19486418  -0.00159620  1
  Ta  Ta89  1  0.49508316  0.10469467  0.64075023  1
  Ta  Ta90  1  0.70740494  0.29668764  0.36919309  1
  Ta  Ta91  1  -0.00644706  0.00804322  0.25885376  1
  Ta  Ta92  1  0.71015166  0.70419185  0.13963834  1
  Ta  Ta93  1  0.09636735  0.70723834  0.13821478  1
  Ta  Ta94  1  0.80438142  0.59733883  0.25409268  1
  Ta  Ta95  1  -0.01032698  0.38998150  0.23163529  1
  Ta  Ta96  1  0.69838361  0.50334065  0.13170443  1
  Ta  Ta97  1  0.40196352  0.00124285  -0.01116323  1
  Ta  Ta98  1  -0.00185202  0.59373484  0.25886838  1
  Ta  Ta99  1  0.19504504  0.40245788  0.75278389  1
  Ta  Ta100  1  0.18770647  0.79427823  0.01001541  1
  Ta  Ta101  1  0.09304642  0.47866167  0.36730915  1
  Ta  Ta102  1  0.90748942  0.29803117  0.86694711  1
  Ta  Ta103  1  0.60169599  0.00099559  0.74854749  1
  Ta  Ta104  1  0.70243664  0.70608905  0.37386132  1
  Ta  Ta105  1  0.59676666  0.60019756  0.24714356  1
  Ta  Ta106  1  0.20500728  0.39085916  0.25257203  1
  Ta  Ta107  1  0.69849498  0.70434327  0.59620042  1
  Ta  Ta108  1  0.59171906  0.79314667  0.73681114  1
  Ta  Ta109  1  0.09748415  0.29571547  0.36428322  1
  Ta  Ta110  1  0.29728295  0.50274451  0.88881370  1
  Ta  Ta111  1  0.59163323  0.39891371  0.01271635  1
  Ta  Ta112  1  0.09247806  0.29603156  0.86068437  1
  Ta  Ta113  1  0.60227978  0.20058021  0.51373217  1
  Ta  Ta114  1  0.80470448  0.19829201  0.74208047  1
  Ta  Ta115  1  -0.00363464  0.39155137  0.00447444  1
  Ta  Ta116  1  0.39833713  0.21094549  0.23981987  1
  Ta  Ta117  1  0.29074093  0.68966251  0.90135799  1
  Ta  Ta118  1  0.90574878  0.70473728  0.14858969  1
  Ta  Ta119  1  0.50064026  0.89264779  0.86691850  1
  Ti  Ti120  1  0.10012927  0.10684783  0.36052958  1
  Ti  Ti121  1  0.00457566  0.80508279  0.48102045  1
  Ti  Ti122  1  0.89749371  0.89900871  0.37290191  1
  Ti  Ti123  1  0.29666102  0.29810442  0.37915842  1
  Ti  Ti124  1  0.70811187  0.10143599  0.87119080  1
  Ti  Ti125  1  0.79873694  -0.00114119  0.25280409  1
  Ti  Ti126  1  0.40297164  0.59867057  0.49924431  1
  Ti  Ti127  1  0.29771206  0.31287066  0.87504298  1
  Ti  Ti128  1  0.39397280  0.60414928  0.01698193  1
  Ti  Ti129  1  0.19416714  0.39773102  -0.01136173  1
  Ti  Ti130  1  0.39614119  0.80303993  0.01900143  1
  Ti  Ti131  1  0.40527796  0.00600431  0.24129397  1
  Ti  Ti132  1  0.50441067  0.32191867  0.87356629  1
  Ti  Ti133  1  0.49736780  0.70044873  0.12881300  1
  Ti  Ti134  1  0.90859067  0.09560959  0.63797884  1
  Ti  Ti135  1  0.49932572  0.10391902  0.12203559  1
  Ti  Ti136  1  0.49776130  0.91329760  0.12772898  1
  Ti  Ti137  1  0.30424671  0.30630716  0.10892055  1
  Ti  Ti138  1  0.80285581  0.59529580  0.47648303  1
  Ti  Ti139  1  0.10101578  0.70517821  0.36249796  1
  Ti  Ti140  1  0.29694953  0.49544288  0.10712812  1
  Ti  Ti141  1  0.60117466  0.20032372  -0.00752578  1
  Ti  Ti142  1  0.89834214  0.70724442  0.36915878  1
  Ti  Ti143  1  0.29725658  0.70622240  0.61513473  1
  Ti  Ti144  1  0.00361609  0.40241800  0.73137132  1
  Ti  Ti145  1  0.49605497  0.50219862  0.11567025  1
  Ti  Ti146  1  -0.00016554  0.78623150  0.74572515  1
  Ti  Ti147  1  0.90654193  0.11087219  0.37578166  1
  Ti  Ti148  1  0.00564003  0.39944716  0.52082526  1
  Ti  Ti149  1  0.39468354  0.40878307  0.75666759  1
  Ti  Ti150  1  0.90300119  0.50163905  0.86770708  1
  Ti  Ti151  1  -0.00456373  0.59214491  0.73257957  1
  Ti  Ti152  1  0.20580148  0.20380432  0.24916973  1
  Ti  Ti153  1  0.20106136  0.81184507  0.49167019  1
  Ti  Ti154  1  0.20092950  -0.00580001  0.48970498  1
  Ti  Ti155  1  0.10073100  0.08938847  0.14270594  1
  Ti  Ti156  1  0.29687433  0.89949397  0.34912843  1
  Ti  Ti157  1  0.29448633  0.09190758  0.65125562  1
  Ti  Ti158  1  0.10784557  0.90022236  0.35430595  1
  Ti  Ti159  1  0.40090115  0.59854818  0.23686084  1
  Mo  Mo160  1  0.90612066  0.29518115  0.10801407  1
  Mo  Mo161  1  0.90314472  0.49314525  0.35824998  1
  Mo  Mo162  1  0.20124768  0.20264067  0.76993012  1
  Mo  Mo163  1  0.80657916  0.79792785  0.48235248  1
  Mo  Mo164  1  0.30135894  0.09224658  0.87509263  1
  Mo  Mo165  1  0.80157945  0.39654765  0.23809878  1
  Mo  Mo166  1  0.19425944  0.00327641  0.25513090  1
  Mo  Mo167  1  0.10105893  0.49614063  0.61587106  1
  Mo  Mo168  1  0.69942383  0.10207714  0.63893850  1
  Mo  Mo169  1  0.59446643  0.40803957  0.75399407  1
  Mo  Mo170  1  0.09701806  0.69838437  0.89687790  1
  Mo  Mo171  1  0.20254471  -0.00126573  0.77226952  1
  Mo  Mo172  1  0.39493307  0.40370852  0.00103754  1
  Mo  Mo173  1  0.10049016  0.09676702  0.86051167  1
  Mo  Mo174  1  0.00236461  0.79488078  0.00424610  1
  Mo  Mo175  1  -0.00108685  0.20574353  0.74155390  1
  Mo  Mo176  1  0.59748061  0.00334945  0.23508018  1
  Mo  Mo177  1  0.20034531  0.60091046  0.01389847  1
  Mo  Mo178  1  0.00180260  0.79904231  0.27252617  1
  Mo  Mo179  1  -0.00393784  -0.01062211  0.74918729  1
  Mo  Mo180  1  0.90059358  0.89210399  0.85284838  1
  Mo  Mo181  1  0.90256224  0.50701571  0.62788186  1
  Mo  Mo182  1  0.49279137  0.50231933  0.36095940  1
  Mo  Mo183  1  0.10498957  0.30437448  0.64387358  1
  Mo  Mo184  1  0.30149572  0.69858474  0.11961225  1
  Mo  Mo185  1  0.00881839  0.19629193  0.24504014  1
  Mo  Mo186  1  0.90788955  0.09249513  0.12794620  1
  Mo  Mo187  1  0.49599252  0.29879511  0.11026227  1
  Mo  Mo188  1  0.79993292  0.79765167  0.26595472  1
  Mo  Mo189  1  0.19779897  0.79983524  0.23940638  1
  Mo  Mo190  1  0.50810224  0.09063861  0.87173762  1
  Mo  Mo191  1  0.59652988  0.80070348  0.50782962  1
  Mo  Mo192  1  0.80275135  0.60284282  0.74660684  1
  Mo  Mo193  1  0.40175141  0.80264876  0.22665472  1
  Mo  Mo194  1  0.70155343  0.90387496  0.13459100  1
  Mo  Mo195  1  0.39787912  0.79465317  0.74496261  1
  Mo  Mo196  1  0.90448877  0.30062157  0.63931300  1
  Mo  Mo197  1  0.89798340  0.49869943  0.14266610  1
  Mo  Mo198  1  0.59852051  0.60180716  0.03394336  1
  Mo  Mo199  1  0.50051702  0.70149045  0.61153485  1
