# generated using pymatgen
data_HfZrTaTiMo
_symmetry_space_group_name_H-M   'P 1'
_cell_length_a   15.83061781
_cell_length_b   15.84146423
_cell_length_c   15.39765312
_cell_angle_alpha   89.98971775
_cell_angle_beta   89.95971740
_cell_angle_gamma   90.00251278
_symmetry_Int_Tables_number   1
_chemical_formula_structural   HfZrTaTiMo
_chemical_formula_sum   'Hf40 Zr40 Ta40 Ti40 Mo40'
_cell_volume   3861.42498122
_cell_formula_units_Z   40
loop_
 _symmetry_equiv_pos_site_id
 _symmetry_equiv_pos_as_xyz
  1  'x, y, z'
loop_
 _atom_site_type_symbol
 _atom_site_label
 _atom_site_symmetry_multiplicity
 _atom_site_fract_x
 _atom_site_fract_y
 _atom_site_fract_z
 _atom_site_occupancy
  Hf  Hf0  1  0.20441533  0.19004783  0.75977295  1
  Hf  Hf1  1  -0.00848563  0.00149447  0.49194696  1
  Hf  Hf2  1  0.01358323  0.20634040  0.25350078  1
  Hf  Hf3  1  0.58617245  0.61418381  0.76079319  1
  Hf  Hf4  1  0.10910656  0.08354008  0.88753478  1
  Hf  Hf5  1  0.22045865  0.80870718  0.73810471  1
  Hf  Hf6  1  0.39859592  0.59715601  0.24776703  1
  Hf  Hf7  1  0.79556531  0.60755990  0.49806744  1
  Hf  Hf8  1  0.79207624  0.59670897  0.25128993  1
  Hf  Hf9  1  0.71422269  0.31106252  0.88236463  1
  Hf  Hf10  1  0.50441390  0.50452894  0.38163864  1
  Hf  Hf11  1  0.89350574  0.69257033  0.12772143  1
  Hf  Hf12  1  0.79926180  0.80342237  0.49037982  1
  Hf  Hf13  1  0.58428373  0.01179793  0.00684779  1
  Hf  Hf14  1  0.89981410  0.30304447  0.11682829  1
  Hf  Hf15  1  -0.00503141  0.59222025  -0.00006329  1
  Hf  Hf16  1  0.09526966  0.70178508  0.37217886  1
  Hf  Hf17  1  0.10207794  0.89534288  0.61634941  1
  Hf  Hf18  1  -0.00850354  0.19038764  -0.00777128  1
  Hf  Hf19  1  0.70764557  0.10387447  0.88158682  1
  Hf  Hf20  1  0.40004428  0.40085424  0.25262563  1
  Hf  Hf21  1  0.41474931  0.18741720  0.00187547  1
  Hf  Hf22  1  0.09168988  0.48801996  0.12527103  1
  Hf  Hf23  1  0.30002298  0.70121240  0.11944013  1
  Hf  Hf24  1  0.09543409  0.49886987  0.37634987  1
  Hf  Hf25  1  0.88939951  0.49203264  0.63742675  1
  Hf  Hf26  1  0.31005993  0.28988752  0.87911331  1
  Hf  Hf27  1  0.19947462  0.40203460  -0.00847370  1
  Hf  Hf28  1  0.70138956  0.89300063  0.63485245  1
  Hf  Hf29  1  0.79513638  -0.00380314  0.50046711  1
  Hf  Hf30  1  0.79552255  0.40729020  0.24675727  1
  Hf  Hf31  1  0.19772852  0.59599312  0.23978480  1
  Hf  Hf32  1  0.09514211  0.50634883  0.63700221  1
  Hf  Hf33  1  0.69141776  0.50522566  0.62658766  1
  Hf  Hf34  1  0.29687349  0.10688036  0.61691298  1
  Hf  Hf35  1  0.29753591  0.09952270  0.11776062  1
  Hf  Hf36  1  0.10322880  0.69786081  0.85814982  1
  Hf  Hf37  1  0.80956700  0.00930099  0.75007326  1
  Hf  Hf38  1  0.49064865  0.51202093  0.61880912  1
  Hf  Hf39  1  0.00480538  0.79145696  0.00587003  1
  Zr  Zr40  1  0.89270321  0.88919620  0.12857496  1
  Zr  Zr41  1  0.10409765  0.28963359  0.62308007  1
  Zr  Zr42  1  0.70062898  0.49993755  0.88002713  1
  Zr  Zr43  1  0.21177832  0.40033837  0.75629550  1
  Zr  Zr44  1  0.40192166  0.19792608  0.25105929  1
  Zr  Zr45  1  0.29647858  0.50582465  0.61656919  1
  Zr  Zr46  1  0.19748018  0.38901228  0.25153264  1
  Zr  Zr47  1  0.50646399  0.30260272  0.12331994  1
  Zr  Zr48  1  0.09786751  0.50589126  0.85789628  1
  Zr  Zr49  1  0.49893674  0.70825112  0.11775966  1
  Zr  Zr50  1  -0.01422511  0.37724551  0.75649404  1
  Zr  Zr51  1  0.70524769  0.30915185  0.63063929  1
  Zr  Zr52  1  0.89577450  0.70217122  0.63988289  1
  Zr  Zr53  1  0.79217013  0.21611885  0.25510031  1
  Zr  Zr54  1  0.39380577  -0.00307789  0.73623182  1
  Zr  Zr55  1  0.48492843  0.90061530  0.88469372  1
  Zr  Zr56  1  0.40938463  0.19872126  0.50265447  1
  Zr  Zr57  1  0.10450774  0.88751234  0.38089044  1
  Zr  Zr58  1  0.01134093  -0.00527521  0.24402774  1
  Zr  Zr59  1  0.31536129  0.69241793  0.61178605  1
  Zr  Zr60  1  0.50623652  0.09143713  0.37198723  1
  Zr  Zr61  1  -0.00058341  0.80395282  0.75076254  1
  Zr  Zr62  1  0.59589493  0.00166122  0.75052498  1
  Zr  Zr63  1  0.30088918  0.70837189  0.88713721  1
  Zr  Zr64  1  0.90498953  0.90357169  0.88095707  1
  Zr  Zr65  1  0.60308239  0.61196645  -0.00760829  1
  Zr  Zr66  1  0.60821856  0.60103487  0.23782668  1
  Zr  Zr67  1  0.78556527  -0.01091489  0.24621297  1
  Zr  Zr68  1  0.70044543  0.11407441  0.12116008  1
  Zr  Zr69  1  0.68842909  0.10185373  0.37559959  1
  Zr  Zr70  1  0.19764969  0.39418695  0.49765205  1
  Zr  Zr71  1  0.20677424  -0.00724660  0.24868865  1
  Zr  Zr72  1  0.09049618  0.10299319  0.61483642  1
  Zr  Zr73  1  0.50025004  0.71501343  0.36561930  1
  Zr  Zr74  1  0.90118324  0.09929199  0.36165155  1
  Zr  Zr75  1  0.80384723  0.19689002  0.50030844  1
  Zr  Zr76  1  -0.00619141  0.60206251  0.50345577  1
  Zr  Zr77  1  0.59693784  0.20267928  0.75451102  1
  Zr  Zr78  1  0.29191744  0.70351968  0.38209073  1
  Zr  Zr79  1  0.41382627  -0.00974053  0.51155348  1
  Ta  Ta80  1  0.39514420  0.81656771  0.24229151  1
  Ta  Ta81  1  -0.00672348  0.18433572  0.76763863  1
  Ta  Ta82  1  0.40467580  0.40171423  0.75670314  1
  Ta  Ta83  1  0.29405648  0.29602014  0.11609030  1
  Ta  Ta84  1  0.11132049  0.89813371  0.88177730  1
  Ta  Ta85  1  0.19827188  0.19574962  0.26312643  1
  Ta  Ta86  1  0.11318392  0.69204380  0.62746863  1
  Ta  Ta87  1  0.59831255  0.20437451  -0.01078674  1
  Ta  Ta88  1  0.90016832  0.90399557  0.62906252  1
  Ta  Ta89  1  0.88872558  0.49422524  0.86759771  1
  Ta  Ta90  1  0.69366830  0.70469413  0.37465209  1
  Ta  Ta91  1  0.29997363  0.09411633  0.37961608  1
  Ta  Ta92  1  0.19425993  0.59966805  0.00643992  1
  Ta  Ta93  1  0.30855680  0.89447801  0.38495957  1
  Ta  Ta94  1  0.90081408  0.70399634  0.35823656  1
  Ta  Ta95  1  0.80303855  0.00255060  0.00807275  1
  Ta  Ta96  1  0.59062755  -0.00817280  0.22852885  1
  Ta  Ta97  1  0.81764719  0.20495819  0.75496104  1
  Ta  Ta98  1  0.49563471  0.49524924  0.88644512  1
  Ta  Ta99  1  0.49872181  0.30954256  0.62705004  1
  Ta  Ta100  1  0.29401128  0.90483541  0.89393928  1
  Ta  Ta101  1  0.51615142  0.30714292  0.38050420  1
  Ta  Ta102  1  0.10154442  0.29013440  0.88095777  1
  Ta  Ta103  1  0.89682292  0.50018223  0.37734679  1
  Ta  Ta104  1  0.30564195  0.49487485  0.11124721  1
  Ta  Ta105  1  0.90257005  0.30756356  0.37999473  1
  Ta  Ta106  1  0.40340780  0.39785210  0.49450716  1
  Ta  Ta107  1  0.70205724  0.90216283  0.88823107  1
  Ta  Ta108  1  0.78960325  0.60719360  0.76064417  1
  Ta  Ta109  1  0.59502849  0.61600643  0.50379917  1
  Ta  Ta110  1  -0.00594981  0.39525683  0.50136615  1
  Ta  Ta111  1  0.39328417  0.59597605  0.77041922  1
  Ta  Ta112  1  -0.00528528  0.39641014  -0.01230560  1
  Ta  Ta113  1  0.10643420  0.10195586  0.11358950  1
  Ta  Ta114  1  0.20484950  -0.00322301  0.49726928  1
  Ta  Ta115  1  0.61010275  0.40270646  0.24479376  1
  Ta  Ta116  1  0.30854944  0.08692972  0.88432869  1
  Ta  Ta117  1  0.69297548  0.49604906  0.39065158  1
  Ta  Ta118  1  0.50341277  0.49678367  0.11088739  1
  Ta  Ta119  1  0.30287366  0.29572396  0.38159399  1
  Ti  Ti120  1  0.00245891  0.00399239  0.74937141  1
  Ti  Ti121  1  0.90656408  0.88620386  0.35948202  1
  Ti  Ti122  1  0.70695562  0.50158984  0.10209894  1
  Ti  Ti123  1  0.69020081  0.70724850  0.63117131  1
  Ti  Ti124  1  0.89287181  0.69283919  0.87695529  1
  Ti  Ti125  1  0.59667470  0.00075219  0.52038621  1
  Ti  Ti126  1  0.41109591  0.79986862  0.50188503  1
  Ti  Ti127  1  0.40432293  -0.00645245  0.24306813  1
  Ti  Ti128  1  0.29927817  0.50561008  0.38890104  1
  Ti  Ti129  1  0.59435306  0.40782616  0.75518419  1
  Ti  Ti130  1  0.00265085  -0.00701017  0.01363782  1
  Ti  Ti131  1  0.90814789  0.28413522  0.61404833  1
  Ti  Ti132  1  0.30754591  0.29917690  0.62592727  1
  Ti  Ti133  1  0.50309811  0.30239968  0.87379852  1
  Ti  Ti134  1  0.39722884  0.59811624  -0.00719349  1
  Ti  Ti135  1  -0.00513663  0.39783497  0.25375456  1
  Ti  Ti136  1  0.79836007  0.39842807  0.49603673  1
  Ti  Ti137  1  0.59595126  0.80625707  0.50165333  1
  Ti  Ti138  1  0.19268311  0.80427066  0.23156513  1
  Ti  Ti139  1  0.59904167  0.79576572  0.77043157  1
  Ti  Ti140  1  0.20228273  -0.00561837  0.74115515  1
  Ti  Ti141  1  0.70079188  0.31107366  0.10118761  1
  Ti  Ti142  1  0.40235896  0.39684593  -0.00258673  1
  Ti  Ti143  1  0.78344633  0.79949667  0.25546143  1
  Ti  Ti144  1  -0.00705050  0.79594346  0.50623611  1
  Ti  Ti145  1  0.60104451  0.81395349  0.23369929  1
  Ti  Ti146  1  0.60338513  0.21066031  0.25087748  1
  Ti  Ti147  1  0.79379944  0.80065648  0.76579766  1
  Ti  Ti148  1  0.41044867  0.78742574  0.75091043  1
  Ti  Ti149  1  0.50431935  0.88118789  0.63709227  1
  Ti  Ti150  1  0.70293933  0.10509919  0.62902486  1
  Ti  Ti151  1  0.19097284  0.79820182  0.01261424  1
  Ti  Ti152  1  0.67430260  0.90137124  0.37693199  1
  Ti  Ti153  1  0.30355562  0.90159707  0.10552101  1
  Ti  Ti154  1  0.10665072  0.28874599  0.10714085  1
  Ti  Ti155  1  -0.00609564  0.59331229  0.24392943  1
  Ti  Ti156  1  0.60334369  0.20740274  0.50897961  1
  Ti  Ti157  1  0.59871564  0.80890120  -0.00200504  1
  Ti  Ti158  1  0.89983347  0.10184853  0.13043923  1
  Ti  Ti159  1  0.71087736  0.71583670  0.10613673  1
  Mo  Mo160  1  0.69530879  0.31125068  0.38623660  1
  Mo  Mo161  1  0.20247349  0.19521657  0.48161026  1
  Mo  Mo162  1  0.39712000  0.80267928  0.01016557  1
  Mo  Mo163  1  0.50907181  0.10843043  0.62695216  1
  Mo  Mo164  1  0.20774720  0.60607421  0.75359760  1
  Mo  Mo165  1  0.79664689  0.39854937  0.74347186  1
  Mo  Mo166  1  0.89906228  0.49616968  0.12544527  1
  Mo  Mo167  1  0.39956607  0.00099729  0.00848051  1
  Mo  Mo168  1  0.20348977  0.80085289  0.51275487  1
  Mo  Mo169  1  0.69399185  0.89604117  0.10642075  1
  Mo  Mo170  1  0.19521362  0.60174800  0.49121485  1
  Mo  Mo171  1  0.79757956  0.79889968  -0.01170900  1
  Mo  Mo172  1  0.59798250  0.40174541  0.50526066  1
  Mo  Mo173  1  0.50272504  0.89906316  0.36691530  1
  Mo  Mo174  1  0.49183431  0.10962503  0.86018118  1
  Mo  Mo175  1  0.49564404  0.70292097  0.88792860  1
  Mo  Mo176  1  0.20263002  0.19843721  -0.00802652  1
  Mo  Mo177  1  0.00312637  0.20373922  0.48087466  1
  Mo  Mo178  1  0.40410206  0.20312998  0.74435054  1
  Mo  Mo179  1  0.59813995  0.40043607  0.00030793  1
  Mo  Mo180  1  -0.01003023  0.60079903  0.75427179  1
  Mo  Mo181  1  0.30574053  0.50052588  0.89047083  1
  Mo  Mo182  1  0.19799386  -0.00627306  0.01090424  1
  Mo  Mo183  1  0.80472541  0.60411798  -0.00906125  1
  Mo  Mo184  1  0.50148505  0.10437383  0.14335846  1
  Mo  Mo185  1  0.09707709  0.29801636  0.38218594  1
  Mo  Mo186  1  0.49230816  0.90143966  0.11675456  1
  Mo  Mo187  1  0.90218030  0.09295540  0.88527752  1
  Mo  Mo188  1  0.10852124  0.10089288  0.38531033  1
  Mo  Mo189  1  0.00409159  0.79019825  0.23715562  1
  Mo  Mo190  1  0.10344641  0.89815706  0.11379655  1
  Mo  Mo191  1  0.80217642  0.19944201  0.00015357  1
  Mo  Mo192  1  0.50598423  0.70533276  0.62477698  1
  Mo  Mo193  1  0.89626187  0.29712724  0.88825862  1
  Mo  Mo194  1  0.40339276  0.60046250  0.48318007  1
  Mo  Mo195  1  0.30336809  0.89631993  0.60808460  1
  Mo  Mo196  1  0.09786992  0.69536141  0.13430881  1
  Mo  Mo197  1  0.70242760  0.71293293  0.87821343  1
  Mo  Mo198  1  0.90189590  0.10168927  0.62657033  1
  Mo  Mo199  1  0.80836491  0.40849339  0.01225380  1
