# generated using pymatgen
data_HfZrTaTiMo
_symmetry_space_group_name_H-M   'P 1'
_cell_length_a   15.83455039
_cell_length_b   15.82729619
_cell_length_c   15.39491497
_cell_angle_alpha   89.95975480
_cell_angle_beta   89.98841288
_cell_angle_gamma   90.04326645
_symmetry_Int_Tables_number   1
_chemical_formula_structural   HfZrTaTiMo
_chemical_formula_sum   'Hf40 Zr40 Ta40 Ti40 Mo40'
_cell_volume   3858.24250041
_cell_formula_units_Z   40
loop_
 _symmetry_equiv_pos_site_id
 _symmetry_equiv_pos_as_xyz
  1  'x, y, z'
loop_
 _atom_site_type_symbol
 _atom_site_label
 _atom_site_symmetry_multiplicity
 _atom_site_fract_x
 _atom_site_fract_y
 _atom_site_fract_z
 _atom_site_occupancy
  Hf  Hf0  1  0.88024898  0.50975187  0.61653200  1
  Hf  Hf1  1  0.10052589  0.10268491  0.61872372  1
  Hf  Hf2  1  0.20557988  0.60822210  -0.01876644  1
  Hf  Hf3  1  0.20419045  0.00687678  0.25836861  1
  Hf  Hf4  1  -0.00788019  0.19671989  0.00344896  1
  Hf  Hf5  1  0.90273427  0.88201533  0.37981279  1
  Hf  Hf6  1  0.10057063  0.50232748  0.62204066  1
  Hf  Hf7  1  0.90025020  0.70344402  0.11023059  1
  Hf  Hf8  1  0.49060564  0.28778179  0.36784876  1
  Hf  Hf9  1  0.02164229  0.79254190  -0.02427337  1
  Hf  Hf10  1  0.10655132  0.89870614  0.39668031  1
  Hf  Hf11  1  0.00201245  0.60033100  0.75584465  1
  Hf  Hf12  1  0.30550378  0.11605627  0.62948641  1
  Hf  Hf13  1  0.29685848  0.50218634  0.13490556  1
  Hf  Hf14  1  0.40955176  0.60528941  0.00559728  1
  Hf  Hf15  1  0.09462228  0.09796759  0.87547348  1
  Hf  Hf16  1  0.21015592  0.80507359  0.74837950  1
  Hf  Hf17  1  0.90035037  0.89579255  0.09826151  1
  Hf  Hf18  1  0.19920719  0.21747744  -0.00269195  1
  Hf  Hf19  1  0.59457760  -0.00596595  0.75694273  1
  Hf  Hf20  1  0.00655873  0.78406873  0.52622071  1
  Hf  Hf21  1  0.58658072  0.17995322  0.50324349  1
  Hf  Hf22  1  0.40597911  -0.01410917  0.23699466  1
  Hf  Hf23  1  0.29293383  0.90377535  0.10638849  1
  Hf  Hf24  1  0.60651506  0.60481943  0.48641275  1
  Hf  Hf25  1  0.59708881  0.59179734  0.02875955  1
  Hf  Hf26  1  0.08814750  0.70198176  0.37475171  1
  Hf  Hf27  1  0.51877484  0.50475648  0.87382623  1
  Hf  Hf28  1  0.30138412  0.71619665  0.38223929  1
  Hf  Hf29  1  0.79212097  0.39479706  0.00170901  1
  Hf  Hf30  1  0.01182036  0.80524785  0.75219963  1
  Hf  Hf31  1  0.71344760  0.49973648  0.36397160  1
  Hf  Hf32  1  0.89106321  0.49383523  0.13594228  1
  Hf  Hf33  1  0.69089575  0.88589474  0.88266505  1
  Hf  Hf34  1  0.20788762  0.39910518  0.75494956  1
  Hf  Hf35  1  0.89525263  0.28932650  0.15034168  1
  Hf  Hf36  1  0.71224349  0.70794962  0.12330726  1
  Hf  Hf37  1  0.58752225  0.81782498  0.23017320  1
  Hf  Hf38  1  0.70695223  0.29654715  0.14628681  1
  Hf  Hf39  1  0.21450983  0.60273964  0.75137677  1
  Zr  Zr40  1  0.42023305  0.61730542  0.74899126  1
  Zr  Zr41  1  0.00043139  0.40278877  0.49322810  1
  Zr  Zr42  1  0.78594964  0.40560308  0.74992774  1
  Zr  Zr43  1  0.71300637  0.71674533  0.36235136  1
  Zr  Zr44  1  0.79556522  0.20706178  0.75164373  1
  Zr  Zr45  1  0.01254773  0.40108892  0.26705219  1
  Zr  Zr46  1  0.89442586  0.09435055  0.13032301  1
  Zr  Zr47  1  0.00868150  -0.00685543  0.25107881  1
  Zr  Zr48  1  0.59438464  0.60256104  0.24647731  1
  Zr  Zr49  1  0.49848667  0.50217511  0.61531565  1
  Zr  Zr50  1  0.51107875  0.30066809  0.88151894  1
  Zr  Zr51  1  0.11421792  0.49337128  0.12288131  1
  Zr  Zr52  1  0.69542272  0.09682049  0.63024137  1
  Zr  Zr53  1  0.79522541  0.79698106  0.75545711  1
  Zr  Zr54  1  0.40052081  0.20295147  0.00232683  1
  Zr  Zr55  1  0.20903594  0.20859708  0.48250844  1
  Zr  Zr56  1  0.00146739  0.59273708  -0.00331804  1
  Zr  Zr57  1  0.19905581  -0.00296743  0.74561641  1
  Zr  Zr58  1  0.89889318  0.10221076  0.62526312  1
  Zr  Zr59  1  0.79325832  -0.01883219  0.25606511  1
  Zr  Zr60  1  0.29659671  0.10289019  0.87058387  1
  Zr  Zr61  1  0.79236450  -0.00705521  0.50063006  1
  Zr  Zr62  1  -0.01216540  0.38908105  0.73736795  1
  Zr  Zr63  1  0.49769817  0.72925109  0.37866996  1
  Zr  Zr64  1  0.70932940  0.67689037  0.62755322  1
  Zr  Zr65  1  0.39024913  0.40614327  -0.00797299  1
  Zr  Zr66  1  0.48453182  0.29318946  0.61451771  1
  Zr  Zr67  1  0.70442743  0.90554688  0.09878074  1
  Zr  Zr68  1  0.19295589  0.19862957  0.26145702  1
  Zr  Zr69  1  0.00136195  0.38708508  0.00387919  1
  Zr  Zr70  1  0.59493002  0.40157385  0.48775539  1
  Zr  Zr71  1  0.19029451  0.60725789  0.50049176  1
  Zr  Zr72  1  0.10256957  0.48881929  0.87582626  1
  Zr  Zr73  1  0.29304525  0.31029157  0.14092083  1
  Zr  Zr74  1  0.31344900  0.70753812  0.61026699  1
  Zr  Zr75  1  0.29655468  0.70521971  0.13177924  1
  Zr  Zr76  1  0.88932303  0.69768843  0.87814896  1
  Zr  Zr77  1  0.69930589  0.28995116  0.36626851  1
  Zr  Zr78  1  0.19933370  0.81552282  0.25638215  1
  Zr  Zr79  1  0.80330540  0.79094893  0.51140197  1
  Ta  Ta80  1  0.32222392  0.90298676  0.39369813  1
  Ta  Ta81  1  0.39522266  0.18706524  0.24777831  1
  Ta  Ta82  1  0.10562319  0.70516327  0.12775704  1
  Ta  Ta83  1  0.29788094  0.30761808  0.62583463  1
  Ta  Ta84  1  0.89855479  0.09756822  0.37602742  1
  Ta  Ta85  1  0.79870723  0.19793690  0.49348473  1
  Ta  Ta86  1  0.10513213  0.29651650  0.61982046  1
  Ta  Ta87  1  0.30693972  0.49505897  0.61147084  1
  Ta  Ta88  1  0.69062869  0.08987234  0.37180380  1
  Ta  Ta89  1  0.59565571  0.00145649  0.23779909  1
  Ta  Ta90  1  0.58093319  0.77890943  0.74227972  1
  Ta  Ta91  1  0.49554466  0.29934606  0.13678836  1
  Ta  Ta92  1  0.59450794  0.40484954  0.24658361  1
  Ta  Ta93  1  0.89843556  0.29513298  0.87599381  1
  Ta  Ta94  1  0.39541292  0.21177677  0.76197208  1
  Ta  Ta95  1  -0.00421443  0.79932368  0.23842730  1
  Ta  Ta96  1  0.79797454  -0.00080019  0.76371552  1
  Ta  Ta97  1  0.70113172  0.30160502  0.60916008  1
  Ta  Ta98  1  0.59978290  0.40545589  0.03108398  1
  Ta  Ta99  1  0.49928465  0.10019108  0.86955047  1
  Ta  Ta100  1  0.69330555  0.89090838  0.63641451  1
  Ta  Ta101  1  0.10295264  0.90348495  0.10036642  1
  Ta  Ta102  1  0.40519432  0.00162131  -0.00429823  1
  Ta  Ta103  1  0.09160366  0.09467959  0.39675720  1
  Ta  Ta104  1  0.20075481  0.40163516  0.48559423  1
  Ta  Ta105  1  0.39905453  0.40825710  0.75787141  1
  Ta  Ta106  1  0.78669634  0.58553726  -0.00431270  1
  Ta  Ta107  1  0.10251677  0.09325755  0.11145733  1
  Ta  Ta108  1  -0.00234260  -0.00424749  0.75287495  1
  Ta  Ta109  1  0.32037899  0.71681556  0.87575750  1
  Ta  Ta110  1  0.41213806  0.01322415  0.52059681  1
  Ta  Ta111  1  0.60088426  0.39545621  0.73354060  1
  Ta  Ta112  1  0.68388909  0.68198436  0.87731664  1
  Ta  Ta113  1  0.90217746  0.90736844  0.88309687  1
  Ta  Ta114  1  0.40170203  0.60458269  0.25838746  1
  Ta  Ta115  1  0.00520930  0.60346432  0.24337742  1
  Ta  Ta116  1  0.59245002  0.18751903  0.24448399  1
  Ta  Ta117  1  0.58783802  -0.01655211  0.51538782  1
  Ta  Ta118  1  0.89670590  0.29396780  0.36970131  1
  Ta  Ta119  1  0.70042609  0.10254251  0.12558383  1
  Ti  Ti120  1  0.60336092  0.20245741  0.01213237  1
  Ti  Ti121  1  0.67865409  0.89623977  0.38279235  1
  Ti  Ti122  1  0.40890923  0.79947535  0.01194032  1
  Ti  Ti123  1  0.58693278  0.78814119  0.00551373  1
  Ti  Ti124  1  0.90879507  0.51621936  0.37879067  1
  Ti  Ti125  1  0.29914786  0.90244155  0.88899843  1
  Ti  Ti126  1  0.80268399  0.39773252  0.49289504  1
  Ti  Ti127  1  0.29366252  0.09993262  0.11621347  1
  Ti  Ti128  1  -0.00825423  -0.00526513  0.50891318  1
  Ti  Ti129  1  0.89454131  0.90190198  0.63633303  1
  Ti  Ti130  1  0.79378339  0.19956555  -0.00733399  1
  Ti  Ti131  1  0.89976726  0.10321746  0.86871401  1
  Ti  Ti132  1  0.69127416  0.30453520  0.87983672  1
  Ti  Ti133  1  0.49995646  0.09917732  0.11785634  1
  Ti  Ti134  1  0.09898804  0.29257393  0.86169062  1
  Ti  Ti135  1  0.10060114  0.29739993  0.13267707  1
  Ti  Ti136  1  0.42316795  0.82433467  0.52224262  1
  Ti  Ti137  1  0.59402047  0.20352577  0.74204852  1
  Ti  Ti138  1  0.10923777  0.90218185  0.61471094  1
  Ti  Ti139  1  0.48810031  0.88660463  0.87306639  1
  Ti  Ti140  1  0.59286018  0.00644746  -0.00669019  1
  Ti  Ti141  1  0.19536105  0.59828555  0.26369987  1
  Ti  Ti142  1  0.38957844  0.39561862  0.48043710  1
  Ti  Ti143  1  0.30076696  0.50747440  0.37803887  1
  Ti  Ti144  1  0.68955336  0.10973139  0.87597120  1
  Ti  Ti145  1  -0.00676290  0.20631646  0.49883537  1
  Ti  Ti146  1  0.89060245  0.49247779  0.87429496  1
  Ti  Ti147  1  0.81370880  0.61044124  0.25257658  1
  Ti  Ti148  1  0.19849480  0.39995376  0.28259876  1
  Ti  Ti149  1  0.49792788  0.08294921  0.36997814  1
  Ti  Ti150  1  -0.00325884  0.20223224  0.74132006  1
  Ti  Ti151  1  0.40916253  0.59756455  0.48493062  1
  Ti  Ti152  1  0.79734403  0.01306717  -0.01835797  1
  Ti  Ti153  1  0.40120139  0.40853637  0.26136250  1
  Ti  Ti154  1  0.21458263  0.00069460  0.50407590  1
  Ti  Ti155  1  0.61555250  0.58235094  0.74089550  1
  Ti  Ti156  1  0.39718857  -0.00824131  0.74494366  1
  Ti  Ti157  1  0.31361657  0.09712440  0.38167901  1
  Ti  Ti158  1  0.00811088  0.19047251  0.26114640  1
  Ti  Ti159  1  0.89857660  0.69040733  0.63968846  1
  Mo  Mo160  1  0.11488244  0.70092744  0.85535248  1
  Mo  Mo161  1  0.79734866  0.18659113  0.26941367  1
  Mo  Mo162  1  0.49994748  0.90806842  0.09887367  1
  Mo  Mo163  1  0.50650831  0.70148206  0.60530948  1
  Mo  Mo164  1  0.30300821  0.90840498  0.61064804  1
  Mo  Mo165  1  0.40184172  0.81005379  0.74652449  1
  Mo  Mo166  1  0.68957962  0.48918613  0.88372597  1
  Mo  Mo167  1  0.20255498  0.39860127  -0.01926325  1
  Mo  Mo168  1  0.79349740  0.58904044  0.77118101  1
  Mo  Mo169  1  0.49397854  0.10215183  0.65037889  1
  Mo  Mo170  1  0.50045263  0.91108881  0.37973144  1
  Mo  Mo171  1  0.89453885  0.29721296  0.60330502  1
  Mo  Mo172  1  0.10280695  0.70008241  0.64012255  1
  Mo  Mo173  1  -0.00806216  0.60543392  0.50999695  1
  Mo  Mo174  1  0.09477320  0.29500400  0.38649365  1
  Mo  Mo175  1  0.10795281  0.90728831  0.88328798  1
  Mo  Mo176  1  0.49019299  0.49494823  0.14401721  1
  Mo  Mo177  1  0.10107925  0.50836882  0.37797119  1
  Mo  Mo178  1  0.49377794  0.70551053  0.13756995  1
  Mo  Mo179  1  0.49920116  0.90059081  0.64643107  1
  Mo  Mo180  1  0.39981166  0.80464302  0.23909120  1
  Mo  Mo181  1  0.31276025  0.50704400  0.87127376  1
  Mo  Mo182  1  0.79395879  0.79333346  -0.02066363  1
  Mo  Mo183  1  0.80713101  0.40212988  0.26486257  1
  Mo  Mo184  1  0.39939622  0.19523797  0.48539276  1
  Mo  Mo185  1  0.69832688  0.48999637  0.60398241  1
  Mo  Mo186  1  0.49240350  0.50080141  0.36833943  1
  Mo  Mo187  1  0.90645744  0.69798512  0.36512186  1
  Mo  Mo188  1  0.30417719  0.30356168  0.36157586  1
  Mo  Mo189  1  0.19379151  0.20800940  0.74418557  1
  Mo  Mo190  1  -0.00083500  0.00123916  -0.01284910  1
  Mo  Mo191  1  0.60340230  0.80326818  0.51929028  1
  Mo  Mo192  1  0.81007710  0.59956140  0.48180173  1
  Mo  Mo193  1  0.20687514  0.80053420  -0.01677045  1
  Mo  Mo194  1  0.20670225  0.81029207  0.50953737  1
  Mo  Mo195  1  0.80507393  0.80291527  0.24642255  1
  Mo  Mo196  1  0.20209026  0.00665544  -0.00486901  1
  Mo  Mo197  1  0.70668900  0.49922643  0.14720521  1
  Mo  Mo198  1  0.29695580  0.30468662  0.86455566  1
  Mo  Mo199  1  0.50761072  0.70665473  0.88473706  1
