# generated using pymatgen
data_HfZrTaTiMo
_symmetry_space_group_name_H-M   'P 1'
_cell_length_a   15.83862562
_cell_length_b   15.83341892
_cell_length_c   15.39932133
_cell_angle_alpha   89.98982796
_cell_angle_beta   90.03834013
_cell_angle_gamma   90.06938903
_symmetry_Int_Tables_number   1
_chemical_formula_structural   HfZrTaTiMo
_chemical_formula_sum   'Hf40 Zr40 Ta40 Ti40 Mo40'
_cell_volume   3861.83180324
_cell_formula_units_Z   40
loop_
 _symmetry_equiv_pos_site_id
 _symmetry_equiv_pos_as_xyz
  1  'x, y, z'
loop_
 _atom_site_type_symbol
 _atom_site_label
 _atom_site_symmetry_multiplicity
 _atom_site_fract_x
 _atom_site_fract_y
 _atom_site_fract_z
 _atom_site_occupancy
  Hf  Hf0  1  0.60382322  0.40260991  0.48758898  1
  Hf  Hf1  1  0.30688700  0.67953496  0.37466215  1
  Hf  Hf2  1  0.39369922  0.80489637  0.49454262  1
  Hf  Hf3  1  0.49025644  0.08908124  0.87766652  1
  Hf  Hf4  1  0.61287895  0.20466463  0.24016565  1
  Hf  Hf5  1  0.10488963  0.71011416  0.86145346  1
  Hf  Hf6  1  0.89627933  0.09290354  0.10141258  1
  Hf  Hf7  1  0.09601517  0.50675299  0.36433221  1
  Hf  Hf8  1  0.09173815  0.88778195  0.63068079  1
  Hf  Hf9  1  0.20744246  -0.00580498  0.51770488  1
  Hf  Hf10  1  0.59265148  0.61184170  0.26077438  1
  Hf  Hf11  1  0.48411748  0.51564336  0.38017674  1
  Hf  Hf12  1  0.08420561  0.09279481  0.38611451  1
  Hf  Hf13  1  0.60200693  0.19978054  0.00202077  1
  Hf  Hf14  1  0.30235155  0.50547210  0.88620118  1
  Hf  Hf15  1  0.89821367  0.50078346  0.13534106  1
  Hf  Hf16  1  0.49766500  0.70164949  0.87255721  1
  Hf  Hf17  1  0.19964113  0.79733903  0.49061944  1
  Hf  Hf18  1  0.18973915  0.59843147  0.50923812  1
  Hf  Hf19  1  0.60387111  0.60149114  -0.00417415  1
  Hf  Hf20  1  0.39399779  0.20138689  0.24434680  1
  Hf  Hf21  1  0.49317214  0.50286720  0.12719544  1
  Hf  Hf22  1  0.50876480  0.69573977  0.61111299  1
  Hf  Hf23  1  0.88945367  0.30498177  0.87226914  1
  Hf  Hf24  1  0.90583250  0.72164696  0.62441096  1
  Hf  Hf25  1  0.60308505  0.39541790  0.75625949  1
  Hf  Hf26  1  0.41330774  0.80582603  0.74214314  1
  Hf  Hf27  1  0.20069545  0.39816452  0.24287126  1
  Hf  Hf28  1  0.51043187  0.10384748  0.37717534  1
  Hf  Hf29  1  0.69759683  0.70871642  0.61491984  1
  Hf  Hf30  1  0.70523443  0.71389587  0.12277207  1
  Hf  Hf31  1  0.19236138  0.20154704  0.51094349  1
  Hf  Hf32  1  0.18652357  0.20318049  0.74830929  1
  Hf  Hf33  1  0.60623435  0.80376564  0.26367352  1
  Hf  Hf34  1  0.28955894  0.09065507  0.12521758  1
  Hf  Hf35  1  0.40921359  0.79427512  0.26955693  1
  Hf  Hf36  1  0.89468223  0.89656786  0.11266622  1
  Hf  Hf37  1  0.48977251  0.50033404  0.87828830  1
  Hf  Hf38  1  -0.00343207  0.40606401  -0.00235772  1
  Hf  Hf39  1  0.80281753  0.00034510  0.73790704  1
  Zr  Zr40  1  0.68899229  0.10450374  0.60874094  1
  Zr  Zr41  1  0.80741580  0.59827031  0.49313823  1
  Zr  Zr42  1  0.39611012  0.19542804  0.50659091  1
  Zr  Zr43  1  0.82254460  0.38748682  0.48431419  1
  Zr  Zr44  1  0.50297044  0.31136495  0.13017677  1
  Zr  Zr45  1  0.39466722  0.00082307  0.72664091  1
  Zr  Zr46  1  0.79893417  0.81296177  0.75509670  1
  Zr  Zr47  1  0.39610110  -0.00167100  0.50611630  1
  Zr  Zr48  1  0.70413894  0.50512109  0.62323318  1
  Zr  Zr49  1  0.70380737  0.30109576  0.61635970  1
  Zr  Zr50  1  0.79805422  0.20067008  0.74934618  1
  Zr  Zr51  1  0.29609805  0.30541956  0.88629887  1
  Zr  Zr52  1  0.61011033  0.39518771  -0.01187148  1
  Zr  Zr53  1  0.80611183  0.60422998  0.75070212  1
  Zr  Zr54  1  0.91466010  0.90820307  0.88836278  1
  Zr  Zr55  1  0.00392101  0.39396420  0.75121936  1
  Zr  Zr56  1  0.80123014  0.59402057  -0.00123187  1
  Zr  Zr57  1  0.90606545  0.50143812  0.35414237  1
  Zr  Zr58  1  0.39820625  0.19169420  0.00747676  1
  Zr  Zr59  1  0.09352973  0.30497457  0.38158776  1
  Zr  Zr60  1  0.08997643  0.08677263  0.87782264  1
  Zr  Zr61  1  -0.00127304  0.19465382  0.24493320  1
  Zr  Zr62  1  0.59692704  -0.01429495  0.74553940  1
  Zr  Zr63  1  0.39916155  0.39281920  0.50444196  1
  Zr  Zr64  1  0.49867742  0.89541916  0.13072587  1
  Zr  Zr65  1  0.20406489  0.62164382  0.00255473  1
  Zr  Zr66  1  0.90670060  0.70544874  0.12744350  1
  Zr  Zr67  1  -0.00080650  0.59813823  0.51148377  1
  Zr  Zr68  1  0.80593027  0.17949070  0.25801845  1
  Zr  Zr69  1  0.28887579  0.09129920  0.87230485  1
  Zr  Zr70  1  0.19341750  0.40293300  0.74781026  1
  Zr  Zr71  1  0.62144198  -0.00413891  0.25163676  1
  Zr  Zr72  1  0.29029729  0.09512401  0.36515294  1
  Zr  Zr73  1  0.50529598  0.50361281  0.62124820  1
  Zr  Zr74  1  0.80332046  0.81913178  0.26558553  1
  Zr  Zr75  1  0.39163772  0.79673636  -0.00254639  1
  Zr  Zr76  1  0.90886252  0.70902790  0.88512519  1
  Zr  Zr77  1  0.69842464  0.09558962  0.87995900  1
  Zr  Zr78  1  0.69513028  0.48967881  0.14373949  1
  Zr  Zr79  1  0.09971498  0.30113648  0.11279500  1
  Ta  Ta80  1  0.49067013  0.29842818  0.87299419  1
  Ta  Ta81  1  -0.00556209  0.19800262  0.74439159  1
  Ta  Ta82  1  0.91141740  0.91467759  0.39005579  1
  Ta  Ta83  1  0.81280261  0.00399355  0.51392866  1
  Ta  Ta84  1  0.51950108  0.89304062  0.60640600  1
  Ta  Ta85  1  0.39880341  0.39591851  0.74189173  1
  Ta  Ta86  1  0.00932569  0.80992644  0.25834561  1
  Ta  Ta87  1  0.79276376  0.37842802  0.25698808  1
  Ta  Ta88  1  0.03241247  0.81076199  0.01173466  1
  Ta  Ta89  1  0.10212014  0.50652175  0.88434799  1
  Ta  Ta90  1  0.50036921  0.30358409  0.36498037  1
  Ta  Ta91  1  0.11465845  0.71383752  0.14574803  1
  Ta  Ta92  1  0.49984698  0.09039219  0.12763035  1
  Ta  Ta93  1  0.10739964  0.90244548  0.85521043  1
  Ta  Ta94  1  0.59920967  0.80555530  -0.00490628  1
  Ta  Ta95  1  -0.00431428  0.20253893  -0.00975335  1
  Ta  Ta96  1  -0.01921769  0.20801292  0.51488801  1
  Ta  Ta97  1  0.19525024  0.19905932  0.24454832  1
  Ta  Ta98  1  0.29711097  0.49828141  0.61715155  1
  Ta  Ta99  1  0.30164414  0.49978656  0.11091673  1
  Ta  Ta100  1  0.30625522  0.69888216  0.14371103  1
  Ta  Ta101  1  0.28656850  0.88922354  0.14688804  1
  Ta  Ta102  1  0.20208237  0.59848303  0.74206744  1
  Ta  Ta103  1  0.70435765  0.08732256  0.11354484  1
  Ta  Ta104  1  0.59118506  0.19973814  0.75848595  1
  Ta  Ta105  1  0.29129942  0.49208309  0.38894661  1
  Ta  Ta106  1  0.00733117  0.59629535  0.74487753  1
  Ta  Ta107  1  0.00957216  0.60880412  0.00858043  1
  Ta  Ta108  1  0.38871478  -0.01468210  0.00644395  1
  Ta  Ta109  1  0.29533525  0.90189635  0.86089593  1
  Ta  Ta110  1  0.29863260  0.30737167  0.11312302  1
  Ta  Ta111  1  -0.00999530  0.00145447  0.73230450  1
  Ta  Ta112  1  0.29521816  0.30076694  0.62749030  1
  Ta  Ta113  1  0.10154600  0.50952396  0.12543366  1
  Ta  Ta114  1  -0.01339643  -0.00136880  0.24419934  1
  Ta  Ta115  1  0.39127578  0.40535798  0.25638837  1
  Ta  Ta116  1  0.70599357  0.09735556  0.39471490  1
  Ta  Ta117  1  0.60376865  0.60712217  0.76033407  1
  Ta  Ta118  1  0.88967366  0.29757559  0.11963524  1
  Ta  Ta119  1  0.29403562  0.30108647  0.37636724  1
  Ti  Ti120  1  0.59106256  -0.00794103  0.00258765  1
  Ti  Ti121  1  0.10247052  0.90473171  0.37651858  1
  Ti  Ti122  1  0.19075459  0.19921070  -0.00273280  1
  Ti  Ti123  1  0.70098499  0.70632417  0.87440269  1
  Ti  Ti124  1  0.20879007  0.80757636  -0.00190903  1
  Ti  Ti125  1  0.69807603  0.28826470  0.38349647  1
  Ti  Ti126  1  0.50603931  0.29224262  0.62582081  1
  Ti  Ti127  1  0.79046055  0.20705213  -0.00300083  1
  Ti  Ti128  1  0.91254281  0.70216027  0.36587494  1
  Ti  Ti129  1  0.18983021  -0.01996900  0.00836792  1
  Ti  Ti130  1  0.79290166  0.39538516  0.00246522  1
  Ti  Ti131  1  0.89889148  0.09657871  0.88392395  1
  Ti  Ti132  1  0.60405179  0.79954587  0.47792999  1
  Ti  Ti133  1  0.50691268  0.10357430  0.61612996  1
  Ti  Ti134  1  0.71321513  0.91038450  0.39713477  1
  Ti  Ti135  1  0.00584179  0.79782642  0.48315561  1
  Ti  Ti136  1  0.71200892  0.49501440  0.86449155  1
  Ti  Ti137  1  0.50553250  0.91032754  0.38394985  1
  Ti  Ti138  1  0.39736202  0.20150066  0.74143410  1
  Ti  Ti139  1  0.68731323  0.89450053  0.87533410  1
  Ti  Ti140  1  0.20416462  0.59753411  0.24850304  1
  Ti  Ti141  1  0.79854083  0.60840833  0.25380091  1
  Ti  Ti142  1  0.39729017  0.59657879  0.73803845  1
  Ti  Ti143  1  0.09149028  0.09824984  0.62531113  1
  Ti  Ti144  1  0.39816821  -0.00489004  0.25342469  1
  Ti  Ti145  1  0.70847158  0.69954021  0.38487156  1
  Ti  Ti146  1  -0.00251490  0.39248480  0.23998011  1
  Ti  Ti147  1  0.69957313  0.49950797  0.36551509  1
  Ti  Ti148  1  0.49573713  0.69631531  0.11952319  1
  Ti  Ti149  1  0.09440965  0.09126310  0.11542205  1
  Ti  Ti150  1  0.70674272  0.89211383  0.60602427  1
  Ti  Ti151  1  0.78703046  -0.01269377  -0.00896283  1
  Ti  Ti152  1  0.01007508  0.39979993  0.51863004  1
  Ti  Ti153  1  0.90370114  0.50556477  0.87310511  1
  Ti  Ti154  1  0.30399809  0.69972467  0.86185774  1
  Ti  Ti155  1  0.89761791  0.48929617  0.63640121  1
  Ti  Ti156  1  0.18456389  -0.00440579  0.24962412  1
  Ti  Ti157  1  0.30343601  0.69817696  0.62137339  1
  Ti  Ti158  1  0.09915192  0.70150847  0.63791430  1
  Ti  Ti159  1  0.21222032  0.80094659  0.73902076  1
  Mo  Mo160  1  0.09615881  0.29864146  0.61559194  1
  Mo  Mo161  1  0.49570788  0.90157388  0.88474178  1
  Mo  Mo162  1  0.20262396  0.80023470  0.27441847  1
  Mo  Mo163  1  0.19484421  0.40848364  0.00379030  1
  Mo  Mo164  1  0.60108212  0.40052834  0.27151143  1
  Mo  Mo165  1  0.90539457  0.29638607  0.36341214  1
  Mo  Mo166  1  0.09830176  0.69924835  0.35942997  1
  Mo  Mo167  1  0.10352774  0.90246703  0.14015618  1
  Mo  Mo168  1  0.80376235  0.19993249  0.49001889  1
  Mo  Mo169  1  0.70814710  0.29307189  0.12800812  1
  Mo  Mo170  1  0.00686599  -0.00197761  0.00876106  1
  Mo  Mo171  1  0.90002355  0.10398339  0.61924351  1
  Mo  Mo172  1  0.80072020  0.40452164  0.75610843  1
  Mo  Mo173  1  0.00359676  0.80162304  0.75428895  1
  Mo  Mo174  1  0.60377760  -0.00417450  0.49893690  1
  Mo  Mo175  1  0.29650272  0.90330786  0.35882706  1
  Mo  Mo176  1  0.89944299  0.30314561  0.63920683  1
  Mo  Mo177  1  0.90498161  0.89896765  0.60747548  1
  Mo  Mo178  1  0.09445016  0.29709387  0.89070883  1
  Mo  Mo179  1  0.50430684  0.69993526  0.39260470  1
  Mo  Mo180  1  0.80649441  -0.00146450  0.25744096  1
  Mo  Mo181  1  0.78733490  0.80357167  -0.01289059  1
  Mo  Mo182  1  0.00582957  0.60852630  0.23456740  1
  Mo  Mo183  1  0.69549609  0.30090513  0.87043782  1
  Mo  Mo184  1  0.00566522  0.00107969  0.51568382  1
  Mo  Mo185  1  0.59414577  0.20549026  0.48988038  1
  Mo  Mo186  1  0.60555513  0.60520612  0.47918971  1
  Mo  Mo187  1  0.70191425  0.90207903  0.10967841  1
  Mo  Mo188  1  0.39894394  0.39902187  0.00083912  1
  Mo  Mo189  1  0.60336596  0.79792207  0.75414314  1
  Mo  Mo190  1  0.90134150  0.09754564  0.39388401  1
  Mo  Mo191  1  0.39302865  0.60168358  0.51856596  1
  Mo  Mo192  1  0.29194165  0.10522208  0.63957216  1
  Mo  Mo193  1  0.40038247  0.60610453  0.01269921  1
  Mo  Mo194  1  0.29992439  0.89052547  0.63476099  1
  Mo  Mo195  1  0.39419141  0.59516159  0.23945743  1
  Mo  Mo196  1  0.19564533  0.40015522  0.50711100  1
  Mo  Mo197  1  0.09930978  0.50192774  0.63173833  1
  Mo  Mo198  1  0.80875011  0.80337071  0.48324335  1
  Mo  Mo199  1  0.19481973  -0.00022451  0.73509649  1
