# generated using pymatgen
data_HfZrTaTiMo
_symmetry_space_group_name_H-M   'P 1'
_cell_length_a   15.83041520
_cell_length_b   15.84975689
_cell_length_c   15.41197503
_cell_angle_alpha   89.98786599
_cell_angle_beta   90.01883982
_cell_angle_gamma   89.98351199
_symmetry_Int_Tables_number   1
_chemical_formula_structural   HfZrTaTiMo
_chemical_formula_sum   'Hf40 Zr40 Ta40 Ti40 Mo40'
_cell_volume   3866.99095498
_cell_formula_units_Z   40
loop_
 _symmetry_equiv_pos_site_id
 _symmetry_equiv_pos_as_xyz
  1  'x, y, z'
loop_
 _atom_site_type_symbol
 _atom_site_label
 _atom_site_symmetry_multiplicity
 _atom_site_fract_x
 _atom_site_fract_y
 _atom_site_fract_z
 _atom_site_occupancy
  Hf  Hf0  1  0.09817117  0.10329745  0.12433481  1
  Hf  Hf1  1  0.80443629  0.78683603  0.75578182  1
  Hf  Hf2  1  0.09904387  0.69993297  0.13318765  1
  Hf  Hf3  1  0.20189126  0.19836408  0.76425414  1
  Hf  Hf4  1  -0.01237733  0.79216859  0.26013109  1
  Hf  Hf5  1  0.69114267  0.48896429  0.88829849  1
  Hf  Hf6  1  0.09949125  0.49738118  0.38609770  1
  Hf  Hf7  1  0.58844751  0.60934723  0.23761585  1
  Hf  Hf8  1  0.51773839  0.09904269  0.36595765  1
  Hf  Hf9  1  0.29194131  0.51019607  0.87159755  1
  Hf  Hf10  1  0.90288469  0.08743544  0.86629067  1
  Hf  Hf11  1  0.30059621  0.91526301  0.86807745  1
  Hf  Hf12  1  -0.01098039  0.40945689  0.74942019  1
  Hf  Hf13  1  0.20829919  0.00384622  0.26561119  1
  Hf  Hf14  1  0.70003803  0.90589957  0.38656994  1
  Hf  Hf15  1  0.69776508  0.68727280  0.88680069  1
  Hf  Hf16  1  0.29737230  0.09342474  0.11945328  1
  Hf  Hf17  1  0.10702719  0.11828192  0.61345825  1
  Hf  Hf18  1  0.20180934  0.00591938  0.49441242  1
  Hf  Hf19  1  0.09451525  0.70261022  0.87416278  1
  Hf  Hf20  1  0.21876156  0.79819241  -0.00324673  1
  Hf  Hf21  1  0.50097167  0.09746481  0.12456775  1
  Hf  Hf22  1  0.41285953  0.80580215  0.76462043  1
  Hf  Hf23  1  0.39031804  0.61719472  -0.00080501  1
  Hf  Hf24  1  0.49029581  0.51296869  0.37410135  1
  Hf  Hf25  1  0.11229191  0.89560885  0.13656406  1
  Hf  Hf26  1  0.10401482  0.29730662  0.36752892  1
  Hf  Hf27  1  0.40094928  0.19484841  0.77067995  1
  Hf  Hf28  1  0.39990406  0.40461398  0.50020585  1
  Hf  Hf29  1  0.10117583  0.89590376  0.37961048  1
  Hf  Hf30  1  0.40944210  0.41597926  0.75699075  1
  Hf  Hf31  1  0.40290949  0.40860685  0.00475531  1
  Hf  Hf32  1  0.59489789  0.60027251  0.74712957  1
  Hf  Hf33  1  0.70420779  0.11249799  0.13945272  1
  Hf  Hf34  1  0.00013416  -0.00828048  0.00918121  1
  Hf  Hf35  1  0.51185361  0.30039183  0.12141055  1
  Hf  Hf36  1  0.80254020  0.79814088  -0.00694199  1
  Hf  Hf37  1  0.80505723  0.40670622  0.26021721  1
  Hf  Hf38  1  0.29915618  0.29872330  0.63643286  1
  Hf  Hf39  1  0.60333555  -0.01865729  0.23548105  1
  Zr  Zr40  1  0.22117910  0.79544054  0.49419262  1
  Zr  Zr41  1  0.19501479  0.59397211  0.25031118  1
  Zr  Zr42  1  0.09234215  0.69241243  0.38758128  1
  Zr  Zr43  1  0.40174595  0.19961098  -0.01410488  1
  Zr  Zr44  1  0.69106703  0.07151465  0.86634577  1
  Zr  Zr45  1  0.89103154  0.30205291  0.63697109  1
  Zr  Zr46  1  0.79053994  0.79915568  0.25443456  1
  Zr  Zr47  1  0.79261980  -0.01650910  0.73121514  1
  Zr  Zr48  1  0.61088570  0.20320238  -0.01587463  1
  Zr  Zr49  1  0.40347378  0.40988925  0.24190451  1
  Zr  Zr50  1  0.60771145  0.19751406  0.51112734  1
  Zr  Zr51  1  0.19194478  0.61444594  0.74053792  1
  Zr  Zr52  1  0.32598436  0.90293761  0.62738655  1
  Zr  Zr53  1  -0.00190584  0.00253268  0.26513396  1
  Zr  Zr54  1  0.49468438  0.71461672  0.61366262  1
  Zr  Zr55  1  -0.00425845  0.20211200  0.49175110  1
  Zr  Zr56  1  0.39870926  0.19836457  0.25251109  1
  Zr  Zr57  1  0.29072977  0.32043770  0.87659909  1
  Zr  Zr58  1  0.19413106  0.20376054  -0.00566249  1
  Zr  Zr59  1  0.59661382  0.39396583  0.50824477  1
  Zr  Zr60  1  0.49066632  0.09258830  0.63155233  1
  Zr  Zr61  1  0.79628558  0.39203399  0.48991564  1
  Zr  Zr62  1  -0.00539695  0.39832106  0.50820233  1
  Zr  Zr63  1  0.88130581  0.49473818  0.11297315  1
  Zr  Zr64  1  0.10845156  0.08279373  0.87950839  1
  Zr  Zr65  1  0.69982932  0.69306499  0.61542511  1
  Zr  Zr66  1  0.90082491  0.10488323  0.12955077  1
  Zr  Zr67  1  0.80382934  0.20034793  -0.01754249  1
  Zr  Zr68  1  0.19393417  0.60143405  0.00692933  1
  Zr  Zr69  1  0.10452803  0.89838800  0.86714542  1
  Zr  Zr70  1  0.40468260  0.21092372  0.49118673  1
  Zr  Zr71  1  0.89064715  0.69091204  0.59948440  1
  Zr  Zr72  1  0.90611579  0.89466913  0.87063469  1
  Zr  Zr73  1  0.39954372  -0.00325451  0.47926840  1
  Zr  Zr74  1  0.20225959  0.39701985  0.51036204  1
  Zr  Zr75  1  -0.01257685  0.58845090  0.24521644  1
  Zr  Zr76  1  0.09753819  0.49574781  0.87361647  1
  Zr  Zr77  1  0.00443734  0.79578497  0.72504267  1
  Zr  Zr78  1  0.00207695  0.20316771  0.75759469  1
  Zr  Zr79  1  0.68674568  0.50089283  0.37503528  1
  Ta  Ta80  1  0.49540756  0.50910527  0.62126522  1
  Ta  Ta81  1  0.79333211  0.60763978  0.26233365  1
  Ta  Ta82  1  0.50093024  0.30312135  0.64465749  1
  Ta  Ta83  1  0.79559585  0.19796813  0.49233230  1
  Ta  Ta84  1  -0.00795025  0.59751138  0.00103769  1
  Ta  Ta85  1  0.70630543  0.09828996  0.36291457  1
  Ta  Ta86  1  0.60964752  0.80847818  0.75340048  1
  Ta  Ta87  1  0.38812076  0.60582171  0.49941540  1
  Ta  Ta88  1  0.00465777  -0.00372253  0.71922542  1
  Ta  Ta89  1  0.31207037  0.89223556  0.13812259  1
  Ta  Ta90  1  0.29543534  0.30849573  0.36143319  1
  Ta  Ta91  1  0.69375978  0.28840454  0.35493239  1
  Ta  Ta92  1  0.51432375  0.90342372  0.88739124  1
  Ta  Ta93  1  0.08962746  0.29953883  0.12918911  1
  Ta  Ta94  1  0.20709339  0.00440113  0.72964874  1
  Ta  Ta95  1  0.89099116  0.69442312  0.11709442  1
  Ta  Ta96  1  0.09431092  0.50737431  0.62448767  1
  Ta  Ta97  1  0.50595220  0.70610097  0.88833833  1
  Ta  Ta98  1  -0.01412603  0.60286794  0.74146988  1
  Ta  Ta99  1  0.29791212  0.50451749  0.12628608  1
  Ta  Ta100  1  0.89804357  0.29458973  0.13463632  1
  Ta  Ta101  1  0.40094632  -0.01110366  0.00318041  1
  Ta  Ta102  1  0.60126696  0.19581884  0.75452798  1
  Ta  Ta103  1  0.68594932  0.70541525  0.38824591  1
  Ta  Ta104  1  0.30289011  0.70778042  0.14582356  1
  Ta  Ta105  1  0.70351462  0.68981319  0.11433811  1
  Ta  Ta106  1  0.51181014  0.88698695  0.38858423  1
  Ta  Ta107  1  0.30190047  0.50741791  0.63572119  1
  Ta  Ta108  1  0.60234966  0.80378752  0.01378301  1
  Ta  Ta109  1  0.41576344  0.79676918  0.26226713  1
  Ta  Ta110  1  0.89129415  0.10354586  0.62582670  1
  Ta  Ta111  1  0.29153883  0.30262847  0.12596304  1
  Ta  Ta112  1  0.00091016  0.79199981  0.00719712  1
  Ta  Ta113  1  0.51944861  0.31948261  0.87143560  1
  Ta  Ta114  1  0.90097352  0.89216946  0.12665720  1
  Ta  Ta115  1  0.79456087  -0.00868148  0.01083686  1
  Ta  Ta116  1  0.79462873  0.19999356  0.76368102  1
  Ta  Ta117  1  -0.00597086  0.39214619  0.00177382  1
  Ta  Ta118  1  -0.00520326  0.00092349  0.50630330  1
  Ta  Ta119  1  0.70179946  0.29641984  0.64187946  1
  Ti  Ti120  1  0.30583694  0.70200388  0.62832287  1
  Ti  Ti121  1  0.59240322  -0.01450422  0.73396072  1
  Ti  Ti122  1  0.29728364  0.50232297  0.36695651  1
  Ti  Ti123  1  0.60044945  0.40730369  0.23690640  1
  Ti  Ti124  1  0.50911891  0.51127937  0.89413153  1
  Ti  Ti125  1  0.49114276  0.70886269  0.11427217  1
  Ti  Ti126  1  0.31117153  0.69438994  0.36137888  1
  Ti  Ti127  1  0.60597486  0.00360999  0.51492546  1
  Ti  Ti128  1  -0.00513770  0.19999764  0.26513035  1
  Ti  Ti129  1  0.19242849  0.40206917  0.23519476  1
  Ti  Ti130  1  0.09757340  0.31228287  0.87794351  1
  Ti  Ti131  1  0.80366482  0.58584711  0.75609661  1
  Ti  Ti132  1  0.59939779  0.79777202  0.23629115  1
  Ti  Ti133  1  0.29405655  0.11605565  0.37878641  1
  Ti  Ti134  1  0.40226460  0.61096269  0.75982540  1
  Ti  Ti135  1  0.69233271  0.49952688  0.10910676  1
  Ti  Ti136  1  0.59263363  0.59963913  0.50328628  1
  Ti  Ti137  1  0.19516063  0.19992698  0.25031662  1
  Ti  Ti138  1  0.89360791  0.89959514  0.39134076  1
  Ti  Ti139  1  0.20271000  0.60073668  0.50820537  1
  Ti  Ti140  1  0.71333664  0.49954575  0.61957302  1
  Ti  Ti141  1  0.60625614  -0.00905378  0.01583926  1
  Ti  Ti142  1  0.80446283  -0.00631848  0.24438498  1
  Ti  Ti143  1  0.20395046  0.80320587  0.73859252  1
  Ti  Ti144  1  0.60757621  0.40859291  0.73875866  1
  Ti  Ti145  1  -0.00584307  0.20632205  -0.01122455  1
  Ti  Ti146  1  0.30354627  0.10625314  0.61760196  1
  Ti  Ti147  1  0.70859156  0.30167875  0.13818877  1
  Ti  Ti148  1  0.40704771  -0.01011251  0.25638812  1
  Ti  Ti149  1  0.89123620  0.49893998  0.88608099  1
  Ti  Ti150  1  -0.00420913  0.80023429  0.50230886  1
  Ti  Ti151  1  0.90202776  0.51420897  0.39186909  1
  Ti  Ti152  1  0.79462530  0.38110497  -0.00809148  1
  Ti  Ti153  1  0.50750384  0.30469598  0.36072636  1
  Ti  Ti154  1  0.49832962  0.08372473  0.87448678  1
  Ti  Ti155  1  0.89307555  0.09778120  0.37930743  1
  Ti  Ti156  1  -0.00134304  0.40084243  0.24784588  1
  Ti  Ti157  1  0.70253370  0.88651953  0.60615156  1
  Ti  Ti158  1  0.79802653  0.00757040  0.51204011  1
  Ti  Ti159  1  0.10734614  0.89698594  0.61162715  1
  Mo  Mo160  1  0.40727258  0.00245167  0.76166305  1
  Mo  Mo161  1  0.19190566  0.40168657  0.02168151  1
  Mo  Mo162  1  0.39969926  0.60563315  0.23922637  1
  Mo  Mo163  1  0.90464517  0.68631704  0.87863761  1
  Mo  Mo164  1  0.40284386  0.80320873  -0.00799840  1
  Mo  Mo165  1  0.89818083  0.30090927  0.36067295  1
  Mo  Mo166  1  0.10150057  0.10512951  0.38565727  1
  Mo  Mo167  1  0.88990437  0.69717780  0.38838418  1
  Mo  Mo168  1  0.10421751  0.30721022  0.63833138  1
  Mo  Mo169  1  0.19174732  0.40344404  0.73439833  1
  Mo  Mo170  1  0.80015135  0.59458353  -0.00649566  1
  Mo  Mo171  1  0.59256676  0.60162423  0.01397551  1
  Mo  Mo172  1  0.09234831  0.48989386  0.11681611  1
  Mo  Mo173  1  0.69380704  0.89222934  0.88468354  1
  Mo  Mo174  1  0.69917309  0.30546999  0.85510830  1
  Mo  Mo175  1  0.50067608  0.50723866  0.11481660  1
  Mo  Mo176  1  0.20727970  -0.00732575  0.01953016  1
  Mo  Mo177  1  0.79165219  0.59567778  0.48015522  1
  Mo  Mo178  1  0.50189172  0.69951740  0.38242792  1
  Mo  Mo179  1  0.20694221  0.20630964  0.49135494  1
  Mo  Mo180  1  0.79942769  0.80245158  0.48416177  1
  Mo  Mo181  1  0.70254723  0.10127852  0.63691444  1
  Mo  Mo182  1  0.70526902  0.89619912  0.12145121  1
  Mo  Mo183  1  0.20936826  0.80011822  0.26274255  1
  Mo  Mo184  1  0.60303179  0.19958387  0.24645134  1
  Mo  Mo185  1  0.60081634  0.80315327  0.50653780  1
  Mo  Mo186  1  0.80754163  0.19982904  0.26529798  1
  Mo  Mo187  1  0.89978437  0.30631296  0.87245131  1
  Mo  Mo188  1  0.88945885  0.50531647  0.62083840  1
  Mo  Mo189  1  0.40247177  0.79323764  0.47904219  1
  Mo  Mo190  1  0.30301229  0.70881979  0.85838306  1
  Mo  Mo191  1  0.30855823  0.89694153  0.35732087  1
  Mo  Mo192  1  0.51096389  0.89961983  0.61243730  1
  Mo  Mo193  1  0.10215422  0.70167107  0.60995676  1
  Mo  Mo194  1  0.00116713  0.59714938  0.51298601  1
  Mo  Mo195  1  0.89941487  0.90064417  0.60551658  1
  Mo  Mo196  1  0.30317831  0.09230465  0.88858082  1
  Mo  Mo197  1  0.60540964  0.39672366  0.01372503  1
  Mo  Mo198  1  0.79439542  0.40605431  0.75686041  1
  Mo  Mo199  1  0.49535720  0.89433842  0.11802509  1
