# generated using pymatgen
data_HfZrTaTiMo
_symmetry_space_group_name_H-M   'P 1'
_cell_length_a   15.84086885
_cell_length_b   15.82754473
_cell_length_c   15.42140071
_cell_angle_alpha   90.04575624
_cell_angle_beta   90.08285247
_cell_angle_gamma   90.17091413
_symmetry_Int_Tables_number   1
_chemical_formula_structural   HfZrTaTiMo
_chemical_formula_sum   'Hf40 Zr40 Ta40 Ti40 Mo40'
_cell_volume   3866.46286563
_cell_formula_units_Z   40
loop_
 _symmetry_equiv_pos_site_id
 _symmetry_equiv_pos_as_xyz
  1  'x, y, z'
loop_
 _atom_site_type_symbol
 _atom_site_label
 _atom_site_symmetry_multiplicity
 _atom_site_fract_x
 _atom_site_fract_y
 _atom_site_fract_z
 _atom_site_occupancy
  Hf  Hf0  1  0.79795157  0.01248949  0.26058317  1
  Hf  Hf1  1  0.89734500  0.91238251  0.86453914  1
  Hf  Hf2  1  0.60605572  -0.01308439  0.00082461  1
  Hf  Hf3  1  0.30006592  0.70498035  0.35977340  1
  Hf  Hf4  1  0.10204087  0.71530747  0.12342282  1
  Hf  Hf5  1  0.31628569  0.91992530  0.87341918  1
  Hf  Hf6  1  0.79739715  0.39106789  -0.01854611  1
  Hf  Hf7  1  -0.01058145  0.60565867  0.23542744  1
  Hf  Hf8  1  0.39989733  0.38830792  0.49450832  1
  Hf  Hf9  1  0.09666322  0.10289207  0.88319793  1
  Hf  Hf10  1  0.19420379  0.18535143  0.22592313  1
  Hf  Hf11  1  0.09686654  0.90822120  0.87960694  1
  Hf  Hf12  1  0.48756351  0.08181318  0.88870367  1
  Hf  Hf13  1  -0.00360622  0.40307507  0.50092863  1
  Hf  Hf14  1  -0.01203663  0.19955955  0.01284031  1
  Hf  Hf15  1  0.39673248  0.80380244  0.00062745  1
  Hf  Hf16  1  0.79769840  0.21164549  0.27817565  1
  Hf  Hf17  1  0.39823633  0.60039532  0.50513088  1
  Hf  Hf18  1  0.39484806  0.20070493  0.00332952  1
  Hf  Hf19  1  0.70007607  0.29812892  0.12711780  1
  Hf  Hf20  1  0.41866691  0.60149656  0.23696749  1
  Hf  Hf21  1  0.21080524  0.61607875  -0.00913802  1
  Hf  Hf22  1  0.41920729  0.81208785  0.24224296  1
  Hf  Hf23  1  0.79063305  0.81488361  -0.00275786  1
  Hf  Hf24  1  0.80283162  0.77217832  0.25968146  1
  Hf  Hf25  1  0.39330717  -0.01104757  0.50249122  1
  Hf  Hf26  1  0.61573865  0.39750636  0.27369303  1
  Hf  Hf27  1  0.30730921  0.50598133  0.11904274  1
  Hf  Hf28  1  0.88141602  0.50044214  0.12393706  1
  Hf  Hf29  1  0.68711360  0.09578292  0.60573671  1
  Hf  Hf30  1  0.20633855  0.80836842  0.50561240  1
  Hf  Hf31  1  0.88835243  0.10243555  0.61723374  1
  Hf  Hf32  1  0.10546706  0.90227735  0.36219323  1
  Hf  Hf33  1  0.29000211  0.09369233  0.38171385  1
  Hf  Hf34  1  0.40161450  0.79575282  0.50824378  1
  Hf  Hf35  1  -0.01040409  0.39860638  0.24685493  1
  Hf  Hf36  1  0.10101085  0.71282280  0.36531819  1
  Hf  Hf37  1  0.80861073  0.80086830  0.49743781  1
  Hf  Hf38  1  0.10002125  0.08804728  0.38410015  1
  Hf  Hf39  1  0.61307948  0.59790315  0.25756522  1
  Zr  Zr40  1  0.20563033  0.40455168  0.48625947  1
  Zr  Zr41  1  0.70002893  0.90231389  0.62564119  1
  Zr  Zr42  1  0.79866432  0.59894292  0.74251159  1
  Zr  Zr43  1  0.60533148  0.39485094  -0.01087941  1
  Zr  Zr44  1  0.58864258  0.18217293  0.73843089  1
  Zr  Zr45  1  0.91079689  0.68436253  0.39290745  1
  Zr  Zr46  1  0.20484125  0.20062008  0.75997529  1
  Zr  Zr47  1  0.00039674  0.79237943  0.74943412  1
  Zr  Zr48  1  0.20907264  0.20746071  0.50698622  1
  Zr  Zr49  1  0.19105084  0.40026745  0.24654159  1
  Zr  Zr50  1  0.20304857  0.79145666  0.77639291  1
  Zr  Zr51  1  0.89348123  0.70795145  0.88092497  1
  Zr  Zr52  1  -0.00606445  0.19581342  0.23785209  1
  Zr  Zr53  1  0.39506023  0.00361974  0.23721134  1
  Zr  Zr54  1  0.28676620  0.49310463  0.63932513  1
  Zr  Zr55  1  0.50506674  0.29246761  0.86485863  1
  Zr  Zr56  1  0.59049365  0.79628411  0.74962870  1
  Zr  Zr57  1  0.40175644  0.19568781  0.24562639  1
  Zr  Zr58  1  0.00010184  0.20828862  0.51339740  1
  Zr  Zr59  1  0.89002160  0.10631171  0.86663829  1
  Zr  Zr60  1  0.41431683  0.41281718  -0.00586165  1
  Zr  Zr61  1  0.68841969  0.88604865  0.14406728  1
  Zr  Zr62  1  0.59348597  0.59558776  0.73485955  1
  Zr  Zr63  1  0.89770593  0.89304743  0.13722105  1
  Zr  Zr64  1  0.00369420  0.39513226  0.00753479  1
  Zr  Zr65  1  0.70724425  0.68696469  0.11737075  1
  Zr  Zr66  1  0.69218078  0.69543788  0.87641672  1
  Zr  Zr67  1  0.00653565  0.20644971  0.73512091  1
  Zr  Zr68  1  0.90214343  0.30037933  0.85469630  1
  Zr  Zr69  1  0.70405672  0.69990874  0.61539280  1
  Zr  Zr70  1  0.91678301  0.51321579  0.87288333  1
  Zr  Zr71  1  0.09788541  0.29051093  0.37189942  1
  Zr  Zr72  1  0.60286622  0.19049630  0.26193712  1
  Zr  Zr73  1  0.91403432  0.89700104  0.36424189  1
  Zr  Zr74  1  0.58699935  -0.00841614  0.25874204  1
  Zr  Zr75  1  0.29982446  0.31252970  0.12288546  1
  Zr  Zr76  1  0.49453839  0.48670344  0.62614573  1
  Zr  Zr77  1  0.08769917  0.51780793  0.37647637  1
  Zr  Zr78  1  0.17848125  0.58961584  0.76621392  1
  Zr  Zr79  1  0.30564526  0.50305132  0.35712896  1
  Ta  Ta80  1  0.00367390  -0.00930356  0.51649399  1
  Ta  Ta81  1  0.30373265  0.09796405  0.62230307  1
  Ta  Ta82  1  -0.00364867  0.00287346  0.01842590  1
  Ta  Ta83  1  0.20123029  0.60782838  0.50123780  1
  Ta  Ta84  1  0.50566127  0.30718623  0.13450920  1
  Ta  Ta85  1  0.29445388  0.89961474  0.36127210  1
  Ta  Ta86  1  0.58693169  0.58371704  0.00632092  1
  Ta  Ta87  1  0.49830581  0.09513915  0.39555281  1
  Ta  Ta88  1  0.00779685  0.00888602  0.22847505  1
  Ta  Ta89  1  0.30904218  0.50919820  0.87699720  1
  Ta  Ta90  1  0.69971342  0.10054712  0.87643029  1
  Ta  Ta91  1  0.69253852  0.88823156  0.37544402  1
  Ta  Ta92  1  0.01662364  0.42268351  0.74147841  1
  Ta  Ta93  1  0.70762211  0.28524408  0.85038255  1
  Ta  Ta94  1  0.89932492  0.50313063  0.61912579  1
  Ta  Ta95  1  0.50835568  0.10111343  0.11073273  1
  Ta  Ta96  1  0.40721762  0.80043606  0.74938252  1
  Ta  Ta97  1  0.19273652  0.21000398  0.00410807  1
  Ta  Ta98  1  0.00620014  0.00679089  0.73448958  1
  Ta  Ta99  1  0.59858781  0.59251558  0.50388845  1
  Ta  Ta100  1  0.29626696  0.69992146  0.64039515  1
  Ta  Ta101  1  0.51429095  0.70656378  0.11683098  1
  Ta  Ta102  1  0.20770202  0.00619683  0.01039848  1
  Ta  Ta103  1  0.80223180  -0.00529794  0.48870650  1
  Ta  Ta104  1  0.90707086  0.10143660  0.39084778  1
  Ta  Ta105  1  0.20566172  0.00872882  0.75217362  1
  Ta  Ta106  1  0.10227809  0.69476088  0.62415612  1
  Ta  Ta107  1  0.11806812  0.32189371  0.63477983  1
  Ta  Ta108  1  0.70353873  0.90497674  0.85862776  1
  Ta  Ta109  1  0.88141699  0.29934500  0.12907279  1
  Ta  Ta110  1  0.70292515  0.29806360  0.62144148  1
  Ta  Ta111  1  0.10785498  0.89904116  0.63754300  1
  Ta  Ta112  1  0.70494852  0.68648287  0.39149600  1
  Ta  Ta113  1  0.10449586  0.50570646  0.10820267  1
  Ta  Ta114  1  0.48697394  0.68884549  0.88714168  1
  Ta  Ta115  1  0.30906556  0.29960910  0.64194165  1
  Ta  Ta116  1  0.40013404  0.39734839  0.76246421  1
  Ta  Ta117  1  0.29834045  0.90069819  0.64263988  1
  Ta  Ta118  1  0.89755825  0.89998273  0.63492579  1
  Ta  Ta119  1  0.00744081  0.80389031  0.51574003  1
  Ti  Ti120  1  0.40032085  0.60731611  0.74365387  1
  Ti  Ti121  1  0.29672479  0.30616011  0.87792614  1
  Ti  Ti122  1  0.39324776  0.18721173  0.75686801  1
  Ti  Ti123  1  0.59405311  0.80150289  -0.01569550  1
  Ti  Ti124  1  0.70624091  0.10656191  0.11999898  1
  Ti  Ti125  1  0.79098224  0.01026656  0.74324247  1
  Ti  Ti126  1  0.11161425  0.09604656  0.61740736  1
  Ti  Ti127  1  0.59007173  0.20679103  0.50076034  1
  Ti  Ti128  1  0.58962492  -0.00442189  0.75700487  1
  Ti  Ti129  1  0.69658707  0.09947896  0.39789775  1
  Ti  Ti130  1  -0.00134416  0.80959709  0.00344602  1
  Ti  Ti131  1  0.30461718  0.29740109  0.35761046  1
  Ti  Ti132  1  0.69461409  0.49669916  0.86576848  1
  Ti  Ti133  1  0.50857696  0.70381309  0.37749395  1
  Ti  Ti134  1  0.60532713  0.39727953  0.74199984  1
  Ti  Ti135  1  0.79762729  0.39329202  0.49320069  1
  Ti  Ti136  1  0.40187493  0.19994800  0.50324413  1
  Ti  Ti137  1  0.69977975  0.49020460  0.12860766  1
  Ti  Ti138  1  0.90313508  0.69801265  0.62346880  1
  Ti  Ti139  1  0.89364978  0.30729194  0.63119881  1
  Ti  Ti140  1  0.60086070  0.39692249  0.50027522  1
  Ti  Ti141  1  0.10393360  0.31612154  0.87203642  1
  Ti  Ti142  1  0.19899212  -0.00521946  0.21849311  1
  Ti  Ti143  1  0.30277729  0.70897554  0.13271867  1
  Ti  Ti144  1  0.89790421  0.69756111  0.10745931  1
  Ti  Ti145  1  0.49756719  0.29607002  0.37114586  1
  Ti  Ti146  1  0.80303183  0.01088996  0.00684803  1
  Ti  Ti147  1  0.50191482  0.50492660  0.86178088  1
  Ti  Ti148  1  0.19762612  0.60422823  0.23860730  1
  Ti  Ti149  1  0.79788497  0.40521413  0.74391741  1
  Ti  Ti150  1  0.50526186  0.90689606  0.61972878  1
  Ti  Ti151  1  0.49492985  0.29228990  0.63288872  1
  Ti  Ti152  1  0.50188921  0.49838519  0.37748389  1
  Ti  Ti153  1  0.20444165  0.80925473  -0.00474786  1
  Ti  Ti154  1  0.60625314  0.19928695  -0.00440369  1
  Ti  Ti155  1  0.59403796  0.79959402  0.49871665  1
  Ti  Ti156  1  0.88394073  0.50219549  0.37875900  1
  Ti  Ti157  1  0.40866184  0.00539472  0.73573936  1
  Ti  Ti158  1  0.79152608  0.59029554  -0.01110652  1
  Ti  Ti159  1  0.07588487  0.68642964  0.89253017  1
  Mo  Mo160  1  0.51213104  0.49535584  0.13904057  1
  Mo  Mo161  1  0.89674733  0.30524129  0.37897810  1
  Mo  Mo162  1  0.10163343  0.90101758  0.11502616  1
  Mo  Mo163  1  0.50412549  0.89679824  0.11287163  1
  Mo  Mo164  1  0.70252456  0.48444856  0.61276746  1
  Mo  Mo165  1  0.09832823  0.10162993  0.10840586  1
  Mo  Mo166  1  0.20456222  0.40106497  0.76943149  1
  Mo  Mo167  1  0.10267825  0.50168947  0.89539904  1
  Mo  Mo168  1  0.79936315  0.39985172  0.27006233  1
  Mo  Mo169  1  0.29642293  0.89494431  0.12388913  1
  Mo  Mo170  1  0.80060059  0.59042848  0.51332871  1
  Mo  Mo171  1  0.30224697  0.10218843  0.10860289  1
  Mo  Mo172  1  0.50267672  0.89664186  0.87092463  1
  Mo  Mo173  1  0.60064596  0.78728910  0.26789902  1
  Mo  Mo174  1  0.00191455  0.80103454  0.23576955  1
  Mo  Mo175  1  -0.00139556  0.60434589  0.01854990  1
  Mo  Mo176  1  0.09605579  0.30583046  0.11932005  1
  Mo  Mo177  1  0.20893979  0.80767728  0.23982244  1
  Mo  Mo178  1  0.00296252  0.60332583  0.51515903  1
  Mo  Mo179  1  0.79990746  0.80798538  0.74843659  1
  Mo  Mo180  1  0.29808769  0.10304494  0.88669888  1
  Mo  Mo181  1  0.79800752  0.20370503  0.49799257  1
  Mo  Mo182  1  0.79642846  0.58510484  0.25845567  1
  Mo  Mo183  1  0.70190613  0.49940374  0.40013435  1
  Mo  Mo184  1  0.69494455  0.29584608  0.40407942  1
  Mo  Mo185  1  0.59630267  -0.00882838  0.48619081  1
  Mo  Mo186  1  0.49878251  0.89466728  0.38777364  1
  Mo  Mo187  1  0.49118916  0.09840011  0.61001702  1
  Mo  Mo188  1  -0.00096219  0.60114807  0.73551421  1
  Mo  Mo189  1  0.19963670  -0.00620374  0.51652565  1
  Mo  Mo190  1  0.31136199  0.70017729  0.86516902  1
  Mo  Mo191  1  0.49464778  0.69952700  0.61460933  1
  Mo  Mo192  1  0.78941817  0.19893961  -0.00067915  1
  Mo  Mo193  1  0.88580693  0.10140424  0.12641052  1
  Mo  Mo194  1  0.40625822  0.60682948  0.01487051  1
  Mo  Mo195  1  0.41465960  0.39930730  0.25479045  1
  Mo  Mo196  1  0.40228680  -0.00368105  0.02112907  1
  Mo  Mo197  1  0.79111683  0.20046540  0.72809811  1
  Mo  Mo198  1  0.09926894  0.50427355  0.61047354  1
  Mo  Mo199  1  0.20321704  0.40753231  -0.01522892  1
