# generated using pymatgen
data_HfZrTaTiMo
_symmetry_space_group_name_H-M   'P 1'
_cell_length_a   15.83561091
_cell_length_b   15.84438018
_cell_length_c   15.40730149
_cell_angle_alpha   90.07848595
_cell_angle_beta   89.94228925
_cell_angle_gamma   90.05048633
_symmetry_Int_Tables_number   1
_chemical_formula_structural   HfZrTaTiMo
_chemical_formula_sum   'Hf40 Zr40 Ta40 Ti40 Mo40'
_cell_volume   3865.76866987
_cell_formula_units_Z   40
loop_
 _symmetry_equiv_pos_site_id
 _symmetry_equiv_pos_as_xyz
  1  'x, y, z'
loop_
 _atom_site_type_symbol
 _atom_site_label
 _atom_site_symmetry_multiplicity
 _atom_site_fract_x
 _atom_site_fract_y
 _atom_site_fract_z
 _atom_site_occupancy
  Hf  Hf0  1  0.70107617  0.51010150  0.36838634  1
  Hf  Hf1  1  0.29853141  0.89658015  0.36190408  1
  Hf  Hf2  1  0.60803113  0.19601644  0.25044955  1
  Hf  Hf3  1  0.89267659  0.68848326  0.62318727  1
  Hf  Hf4  1  0.10017836  0.89988983  0.37937469  1
  Hf  Hf5  1  0.19676948  0.19813777  0.51451995  1
  Hf  Hf6  1  0.09879595  0.69565557  0.62534042  1
  Hf  Hf7  1  0.40498596  0.41026210  0.26025574  1
  Hf  Hf8  1  0.00436379  0.80126605  0.76031442  1
  Hf  Hf9  1  0.69836419  0.11451134  0.88644904  1
  Hf  Hf10  1  0.88983436  0.10449713  0.61481820  1
  Hf  Hf11  1  0.50646109  0.50517824  0.63269118  1
  Hf  Hf12  1  0.59426066  0.00551977  0.00282403  1
  Hf  Hf13  1  0.49783153  0.48921692  0.88338011  1
  Hf  Hf14  1  0.79610063  0.79485594  0.76553184  1
  Hf  Hf15  1  0.29832387  0.49879541  0.12613125  1
  Hf  Hf16  1  -0.00217461  0.00067672  0.24053583  1
  Hf  Hf17  1  0.30066093  0.10277500  0.36332535  1
  Hf  Hf18  1  0.31779619  0.10672646  0.85550943  1
  Hf  Hf19  1  0.70950445  0.30196131  0.61222334  1
  Hf  Hf20  1  0.40087478  0.41490447  0.49529048  1
  Hf  Hf21  1  0.21252960  0.79538258  0.49958885  1
  Hf  Hf22  1  0.11199730  0.30306996  0.12232810  1
  Hf  Hf23  1  -0.00851889  0.79483298  0.25223648  1
  Hf  Hf24  1  0.10818159  0.69806702  0.88463691  1
  Hf  Hf25  1  0.88861748  0.29755269  0.13334721  1
  Hf  Hf26  1  0.59011218  0.60748333  0.48874503  1
  Hf  Hf27  1  0.69616047  0.70182614  0.61716170  1
  Hf  Hf28  1  0.48584703  0.09681951  0.65285142  1
  Hf  Hf29  1  0.72212197  0.50434887  0.60636230  1
  Hf  Hf30  1  0.41574249  0.20579891  0.00899628  1
  Hf  Hf31  1  -0.00341895  0.39852933  0.49188737  1
  Hf  Hf32  1  0.00302115  0.00455687  0.00701990  1
  Hf  Hf33  1  0.71225910  0.08830210  0.38449585  1
  Hf  Hf34  1  0.78794780  0.61682206  0.22761821  1
  Hf  Hf35  1  0.69706130  0.10363933  0.61881979  1
  Hf  Hf36  1  0.29562453  0.70306466  0.11928665  1
  Hf  Hf37  1  0.09727579  0.29497691  0.37127035  1
  Hf  Hf38  1  0.89256751  0.50522853  0.35796311  1
  Hf  Hf39  1  0.20117684  -0.01304568  0.75171972  1
  Zr  Zr40  1  0.48936342  0.28540552  0.36466605  1
  Zr  Zr41  1  0.00421847  0.60470116  0.23497741  1
  Zr  Zr42  1  0.09872615  0.30624889  0.87029310  1
  Zr  Zr43  1  0.62900623  0.40515453  0.75710448  1
  Zr  Zr44  1  0.39575711  0.19048669  0.51358981  1
  Zr  Zr45  1  0.69847325  0.89829820  0.61873001  1
  Zr  Zr46  1  0.00449514  0.40287194  0.24607594  1
  Zr  Zr47  1  0.79827533  0.58349062  0.76985506  1
  Zr  Zr48  1  0.10011776  0.10234022  0.86616486  1
  Zr  Zr49  1  0.10410161  0.09585943  0.38257341  1
  Zr  Zr50  1  0.39808124  -0.00360584  0.23934718  1
  Zr  Zr51  1  0.50965686  0.27665399  0.85943271  1
  Zr  Zr52  1  -0.00337740  0.00246868  0.74733869  1
  Zr  Zr53  1  0.59694656  0.40213050  0.48258844  1
  Zr  Zr54  1  0.39756954  0.40762755  0.75215080  1
  Zr  Zr55  1  -0.00387508  0.41507679  0.01789301  1
  Zr  Zr56  1  0.49112769  0.70249197  0.87566990  1
  Zr  Zr57  1  0.30198945  0.30368201  0.63220702  1
  Zr  Zr58  1  0.90099538  0.90728643  0.88365870  1
  Zr  Zr59  1  0.29552233  0.70446096  0.88587397  1
  Zr  Zr60  1  0.20953574  0.19579198  -0.00003351  1
  Zr  Zr61  1  0.70759629  0.30223933  0.89833595  1
  Zr  Zr62  1  0.19640678  0.42312006  0.75091337  1
  Zr  Zr63  1  0.61936613  0.78700536  0.24899342  1
  Zr  Zr64  1  0.60620382  0.40134944  0.24955226  1
  Zr  Zr65  1  0.59669592  0.19860669  0.48880491  1
  Zr  Zr66  1  -0.00288396  0.19203681  0.01401615  1
  Zr  Zr67  1  0.60149641  0.00242022  0.76591031  1
  Zr  Zr68  1  0.87958297  0.89798129  0.38077992  1
  Zr  Zr69  1  0.29283821  0.29997170  0.37062797  1
  Zr  Zr70  1  0.39466847  -0.01045107  0.50084193  1
  Zr  Zr71  1  0.80260243  0.59429720  0.00662002  1
  Zr  Zr72  1  0.40150961  0.59726284  0.00518535  1
  Zr  Zr73  1  0.10030242  0.89395749  0.61506801  1
  Zr  Zr74  1  0.58398348  -0.00560901  0.49434302  1
  Zr  Zr75  1  0.39673415  0.00436800  0.00040680  1
  Zr  Zr76  1  0.90049687  0.10553299  0.38278437  1
  Zr  Zr77  1  0.60808930  0.60347666  0.76777322  1
  Zr  Zr78  1  0.30326338  0.69325158  0.35770429  1
  Zr  Zr79  1  0.89650434  0.30195710  0.88345019  1
  Ta  Ta80  1  0.09790527  0.51202385  0.88909504  1
  Ta  Ta81  1  0.89483941  0.89665499  0.12108635  1
  Ta  Ta82  1  0.37697776  0.60492192  0.73802149  1
  Ta  Ta83  1  0.10167886  0.89547809  0.11792179  1
  Ta  Ta84  1  0.48903522  0.89761546  0.87521334  1
  Ta  Ta85  1  0.90906342  0.69203080  0.88546227  1
  Ta  Ta86  1  0.60701199  0.59476872  0.00327710  1
  Ta  Ta87  1  0.00416846  0.19184042  0.23775831  1
  Ta  Ta88  1  0.49726167  0.49037132  0.11654037  1
  Ta  Ta89  1  0.60362022  0.79998148  0.76911047  1
  Ta  Ta90  1  0.29610448  0.89688598  0.12028799  1
  Ta  Ta91  1  0.31177191  0.30578737  0.12941439  1
  Ta  Ta92  1  0.09332598  0.50175258  0.61527349  1
  Ta  Ta93  1  0.19994245  0.40617673  0.50122615  1
  Ta  Ta94  1  0.50399706  0.89233894  0.12388003  1
  Ta  Ta95  1  -0.00195436  -0.00332480  0.50864687  1
  Ta  Ta96  1  0.58936333  0.79774134  0.48770780  1
  Ta  Ta97  1  0.49646161  0.70887322  0.63717806  1
  Ta  Ta98  1  0.50519547  0.10195680  0.13741435  1
  Ta  Ta99  1  0.09375175  0.30659484  0.62938741  1
  Ta  Ta100  1  0.19928082  0.19573925  0.23672079  1
  Ta  Ta101  1  0.39585153  0.60993075  0.51138386  1
  Ta  Ta102  1  0.70034989  0.90282644  0.88942964  1
  Ta  Ta103  1  -0.00716176  0.20670444  0.73990263  1
  Ta  Ta104  1  0.18778167  0.79603936  0.24036805  1
  Ta  Ta105  1  0.20572836  0.59720383  0.50802758  1
  Ta  Ta106  1  0.20856278  0.40370472  -0.00503374  1
  Ta  Ta107  1  0.49838548  0.89016723  0.64475886  1
  Ta  Ta108  1  -0.00986000  0.79042931  0.48985918  1
  Ta  Ta109  1  0.10888719  0.50666673  0.38036625  1
  Ta  Ta110  1  0.60713025  -0.00824760  0.24564487  1
  Ta  Ta111  1  0.00319588  0.80121996  -0.00064717  1
  Ta  Ta112  1  0.89300079  0.89410512  0.61895342  1
  Ta  Ta113  1  0.50023523  0.88908531  0.35571166  1
  Ta  Ta114  1  -0.00599113  0.59666161  0.49263380  1
  Ta  Ta115  1  0.51019688  0.29823416  0.63585995  1
  Ta  Ta116  1  0.00328672  0.59073609  0.75245678  1
  Ta  Ta117  1  0.79796549  0.79672617  0.00068460  1
  Ta  Ta118  1  0.79635777  0.20708086  0.74841366  1
  Ta  Ta119  1  0.79868063  0.00294623  0.75373259  1
  Ti  Ti120  1  0.10117138  0.69528481  0.38069124  1
  Ti  Ti121  1  0.29161114  0.51209299  0.88478903  1
  Ti  Ti122  1  0.60039662  0.79628101  -0.00689188  1
  Ti  Ti123  1  0.59113134  0.59702620  0.23511856  1
  Ti  Ti124  1  0.31374025  0.89322445  0.63581338  1
  Ti  Ti125  1  0.29886105  0.10050750  0.12723080  1
  Ti  Ti126  1  0.70113103  0.89534576  0.11443757  1
  Ti  Ti127  1  0.79461533  -0.00780987  0.23839527  1
  Ti  Ti128  1  0.50326350  0.70104450  0.11790199  1
  Ti  Ti129  1  0.72353919  0.29937400  0.37166775  1
  Ti  Ti130  1  0.89551305  0.31025784  0.62947263  1
  Ti  Ti131  1  0.18983453  0.60109882  0.23827594  1
  Ti  Ti132  1  0.20815178  0.00244591  0.51688899  1
  Ti  Ti133  1  0.79280147  0.41014017  0.02412560  1
  Ti  Ti134  1  0.90228696  0.49401321  0.88174761  1
  Ti  Ti135  1  0.40888117  0.79680754  0.49873111  1
  Ti  Ti136  1  -0.00624414  0.20904952  0.50678134  1
  Ti  Ti137  1  0.49269173  0.69500190  0.36049139  1
  Ti  Ti138  1  0.72535027  0.70885390  0.38813362  1
  Ti  Ti139  1  0.09566161  0.10242138  0.62836608  1
  Ti  Ti140  1  0.30670655  0.30505011  0.87191357  1
  Ti  Ti141  1  0.29981784  0.51386763  0.36825056  1
  Ti  Ti142  1  0.40306188  0.79470279  0.23617630  1
  Ti  Ti143  1  0.29859192  0.88911891  0.88408783  1
  Ti  Ti144  1  0.70599739  0.10153710  0.12090490  1
  Ti  Ti145  1  0.81507235  0.39784744  0.48622610  1
  Ti  Ti146  1  0.19805150  -0.00279130  -0.00566118  1
  Ti  Ti147  1  0.19956801  0.20216644  0.74128655  1
  Ti  Ti148  1  0.69690269  0.29504771  0.12190490  1
  Ti  Ti149  1  0.80388572  0.00835315  0.00622632  1
  Ti  Ti150  1  0.19272114  -0.00054538  0.23639681  1
  Ti  Ti151  1  0.59061709  0.38824786  0.01094991  1
  Ti  Ti152  1  0.20926195  0.79050866  0.74523956  1
  Ti  Ti153  1  0.49587800  0.09130892  0.35789327  1
  Ti  Ti154  1  0.89222567  0.10967293  0.87316431  1
  Ti  Ti155  1  0.80368896  0.19330645  0.24840805  1
  Ti  Ti156  1  0.70011526  0.89596661  0.38317607  1
  Ti  Ti157  1  0.19860108  0.40670880  0.25093488  1
  Ti  Ti158  1  -0.00831688  0.40826749  0.74589101  1
  Ti  Ti159  1  0.90301986  0.70470467  0.11054889  1
  Mo  Mo160  1  0.60906265  0.20352146  0.73957453  1
  Mo  Mo161  1  0.10767328  0.50220702  0.11519811  1
  Mo  Mo162  1  0.70191952  0.70322422  0.89257863  1
  Mo  Mo163  1  0.39605003  0.80056390  0.74978256  1
  Mo  Mo164  1  0.79889939  -0.00174225  0.51108084  1
  Mo  Mo165  1  0.39560527  0.20498809  0.74158838  1
  Mo  Mo166  1  0.19899163  0.80770235  0.00854265  1
  Mo  Mo167  1  0.89398251  0.50153986  0.14029929  1
  Mo  Mo168  1  0.09818888  0.70306014  0.11092475  1
  Mo  Mo169  1  0.19347570  0.60178884  0.73789511  1
  Mo  Mo170  1  0.79469485  0.40254657  0.23827893  1
  Mo  Mo171  1  0.10913557  0.09400206  0.12530830  1
  Mo  Mo172  1  0.48965829  0.52198853  0.36590400  1
  Mo  Mo173  1  0.39756708  0.19971324  0.23254544  1
  Mo  Mo174  1  0.89200676  0.09286631  0.13814977  1
  Mo  Mo175  1  0.41018844  0.60242911  0.23287232  1
  Mo  Mo176  1  0.80501958  0.59917022  0.49199612  1
  Mo  Mo177  1  0.39526757  0.39467485  -0.01005393  1
  Mo  Mo178  1  0.89746874  0.69769919  0.37977490  1
  Mo  Mo179  1  0.29733755  0.50661281  0.61534253  1
  Mo  Mo180  1  0.80822768  0.21365610  0.49140744  1
  Mo  Mo181  1  0.69080794  0.70662500  0.10709030  1
  Mo  Mo182  1  0.39593437  -0.01062859  0.76275973  1
  Mo  Mo183  1  0.49947808  0.30058609  0.13458577  1
  Mo  Mo184  1  -0.00206074  0.60319715  0.00863541  1
  Mo  Mo185  1  0.69000567  0.49677319  0.12205419  1
  Mo  Mo186  1  0.19331734  0.59756273  0.01380280  1
  Mo  Mo187  1  0.40517303  0.80762529  0.01401211  1
  Mo  Mo188  1  0.90710834  0.49565825  0.62331115  1
  Mo  Mo189  1  0.11128955  0.89569131  0.89092415  1
  Mo  Mo190  1  0.60120509  0.19835767  0.02569684  1
  Mo  Mo191  1  0.81322802  0.39855162  0.75069122  1
  Mo  Mo192  1  0.80113600  0.80380058  0.22807845  1
  Mo  Mo193  1  0.70177483  0.49100389  0.90256318  1
  Mo  Mo194  1  0.30151295  0.70724293  0.62322629  1
  Mo  Mo195  1  0.50370901  0.09866169  0.86799023  1
  Mo  Mo196  1  0.89709209  0.29724354  0.35673630  1
  Mo  Mo197  1  0.79643978  0.79766901  0.50783088  1
  Mo  Mo198  1  0.80120963  0.19221265  0.01784939  1
  Mo  Mo199  1  0.28825741  0.09105048  0.64290764  1
