# generated using pymatgen
data_HfZrTaTiMo
_symmetry_space_group_name_H-M   'P 1'
_cell_length_a   15.85038241
_cell_length_b   15.83268739
_cell_length_c   15.42089965
_cell_angle_alpha   89.99049973
_cell_angle_beta   89.99424984
_cell_angle_gamma   89.86656067
_symmetry_Int_Tables_number   1
_chemical_formula_structural   HfZrTaTiMo
_chemical_formula_sum   'Hf40 Zr40 Ta40 Ti40 Mo40'
_cell_volume   3869.92818973
_cell_formula_units_Z   40
loop_
 _symmetry_equiv_pos_site_id
 _symmetry_equiv_pos_as_xyz
  1  'x, y, z'
loop_
 _atom_site_type_symbol
 _atom_site_label
 _atom_site_symmetry_multiplicity
 _atom_site_fract_x
 _atom_site_fract_y
 _atom_site_fract_z
 _atom_site_occupancy
  Hf  Hf0  1  0.29640163  0.73268757  0.37398473  1
  Hf  Hf1  1  0.59243190  0.57722190  0.02638241  1
  Hf  Hf2  1  0.39666709  0.62311429  0.75048227  1
  Hf  Hf3  1  0.21241060  0.00041599  0.74523115  1
  Hf  Hf4  1  0.49582955  0.70776559  0.90272939  1
  Hf  Hf5  1  0.80750680  0.79402105  0.25463220  1
  Hf  Hf6  1  0.59985433  0.20599048  0.23393225  1
  Hf  Hf7  1  0.00049121  0.20421991  -0.00026116  1
  Hf  Hf8  1  0.29159838  0.30165905  0.12464426  1
  Hf  Hf9  1  0.40444019  0.40142811  0.49593074  1
  Hf  Hf10  1  0.59870051  0.40410895  0.73021333  1
  Hf  Hf11  1  0.70360500  0.49510613  0.36473734  1
  Hf  Hf12  1  0.30234910  0.51030844  0.61060282  1
  Hf  Hf13  1  0.29607266  0.30428205  0.62620455  1
  Hf  Hf14  1  -0.01850532  0.40277585  0.00239911  1
  Hf  Hf15  1  0.47868091  0.71544823  0.60522323  1
  Hf  Hf16  1  0.79153986  0.00111990  0.75190112  1
  Hf  Hf17  1  0.90370752  0.09863299  0.37032602  1
  Hf  Hf18  1  0.01065987  0.79542585  0.26248552  1
  Hf  Hf19  1  0.59300872  0.79478739  0.24092985  1
  Hf  Hf20  1  0.20102661  0.19411470  0.49110205  1
  Hf  Hf21  1  0.39497268  -0.00121586  0.01321824  1
  Hf  Hf22  1  -0.00423752  0.80985331  -0.00981486  1
  Hf  Hf23  1  0.70047702  0.09426194  0.90194247  1
  Hf  Hf24  1  0.50938828  0.09748270  0.62269984  1
  Hf  Hf25  1  0.20411244  0.00059215  0.24416337  1
  Hf  Hf26  1  0.80863376  0.20806393  0.00840213  1
  Hf  Hf27  1  0.69710193  0.69528806  0.37986699  1
  Hf  Hf28  1  0.10986355  0.89206930  0.63039781  1
  Hf  Hf29  1  0.58406103  0.80132604  0.74778727  1
  Hf  Hf30  1  0.07581461  0.49989926  0.85576115  1
  Hf  Hf31  1  0.19647299  -0.00571647  -0.00201447  1
  Hf  Hf32  1  0.19676488  0.20422846  0.26595350  1
  Hf  Hf33  1  0.68986023  0.90188199  0.61585213  1
  Hf  Hf34  1  0.50463782  0.30505700  0.36608099  1
  Hf  Hf35  1  0.28824335  0.51056204  0.12411496  1
  Hf  Hf36  1  -0.00875783  0.38742821  0.51143756  1
  Hf  Hf37  1  0.41537141  -0.01253791  0.76005002  1
  Hf  Hf38  1  0.19371274  0.80475091  0.00255854  1
  Hf  Hf39  1  0.90270135  0.69724556  0.12370996  1
  Zr  Zr40  1  0.20588927  0.59502350  0.75565265  1
  Zr  Zr41  1  0.79869471  0.20884999  0.49642609  1
  Zr  Zr42  1  0.89665532  0.10677065  0.62400839  1
  Zr  Zr43  1  0.79496209  0.79201610  0.76661968  1
  Zr  Zr44  1  0.40241407  0.19529888  0.76916659  1
  Zr  Zr45  1  0.18711706  0.40141500  -0.01085018  1
  Zr  Zr46  1  0.70109739  0.89703583  0.11863212  1
  Zr  Zr47  1  -0.00526838  0.59484805  0.51099965  1
  Zr  Zr48  1  0.69590074  0.90020008  0.36535163  1
  Zr  Zr49  1  0.49544162  0.29212851  0.62095577  1
  Zr  Zr50  1  0.50919830  0.30696231  0.88510477  1
  Zr  Zr51  1  0.83614628  -0.01048664  0.00962094  1
  Zr  Zr52  1  0.39900488  -0.01795552  0.50267629  1
  Zr  Zr53  1  0.80751466  0.78768552  -0.01575044  1
  Zr  Zr54  1  0.61018818  0.19488432  0.76259957  1
  Zr  Zr55  1  0.41222497  0.40866382  0.01221276  1
  Zr  Zr56  1  0.19035326  0.61396027  0.26179173  1
  Zr  Zr57  1  0.68570692  0.89642809  0.89625000  1
  Zr  Zr58  1  0.80908362  0.58676548  -0.01567107  1
  Zr  Zr59  1  0.38891702  0.41182725  0.75486472  1
  Zr  Zr60  1  0.79705735  0.00225262  0.49412907  1
  Zr  Zr61  1  0.49877504  0.51396636  0.86961081  1
  Zr  Zr62  1  0.89284369  0.30237269  0.36422798  1
  Zr  Zr63  1  0.09501753  0.49336410  0.38162371  1
  Zr  Zr64  1  0.09824937  0.09682875  0.87130508  1
  Zr  Zr65  1  0.19952533  0.60957343  0.49437225  1
  Zr  Zr66  1  0.40316217  0.18968114  0.24251669  1
  Zr  Zr67  1  0.80261035  0.60652964  0.74899574  1
  Zr  Zr68  1  0.79867035  0.39557915  0.74113343  1
  Zr  Zr69  1  0.90553037  0.10432265  0.86288019  1
  Zr  Zr70  1  0.69020330  0.49231220  0.87355330  1
  Zr  Zr71  1  0.59162588  0.00855197  0.47646334  1
  Zr  Zr72  1  0.12120182  0.89050596  0.38186084  1
  Zr  Zr73  1  0.01047355  0.39573798  0.25198541  1
  Zr  Zr74  1  0.50387487  0.50572412  0.36844429  1
  Zr  Zr75  1  -0.00512837  0.60705267  0.26479310  1
  Zr  Zr76  1  0.89428059  0.88439072  0.62191858  1
  Zr  Zr77  1  0.60203319  0.60171292  0.50880233  1
  Zr  Zr78  1  0.30744973  0.10389416  0.62377130  1
  Zr  Zr79  1  0.09944542  0.10462779  0.11836500  1
  Ta  Ta80  1  0.80855803  -0.00376608  0.24380930  1
  Ta  Ta81  1  0.30137167  0.69584382  0.90180326  1
  Ta  Ta82  1  0.30456126  0.50202255  0.37165697  1
  Ta  Ta83  1  0.60021450  0.20783485  0.01956047  1
  Ta  Ta84  1  0.89872307  0.29732318  0.14257856  1
  Ta  Ta85  1  0.80110294  0.59405909  0.51628786  1
  Ta  Ta86  1  0.08390297  0.90569313  0.13153636  1
  Ta  Ta87  1  0.09345750  0.30270518  0.85493594  1
  Ta  Ta88  1  0.30652908  0.88882479  0.87478753  1
  Ta  Ta89  1  0.89079206  0.50011324  0.14500229  1
  Ta  Ta90  1  0.10354306  0.69839400  0.62837239  1
  Ta  Ta91  1  0.58755385  0.01122294  0.23895447  1
  Ta  Ta92  1  0.00468030  0.79473368  0.50130119  1
  Ta  Ta93  1  0.09904138  0.69600505  0.11195370  1
  Ta  Ta94  1  0.50884156  0.09184539  0.89930084  1
  Ta  Ta95  1  0.90864825  0.90038150  0.38030557  1
  Ta  Ta96  1  0.01041391  0.00027897  0.50880309  1
  Ta  Ta97  1  0.00814185  0.19745070  0.25485804  1
  Ta  Ta98  1  0.88540233  0.49945362  0.37064598  1
  Ta  Ta99  1  0.30483163  0.30516864  0.37145435  1
  Ta  Ta100  1  0.09315512  0.50696496  0.12307513  1
  Ta  Ta101  1  0.70352814  0.69142438  0.12219145  1
  Ta  Ta102  1  0.19684497  0.39308095  0.48979965  1
  Ta  Ta103  1  0.39615773  0.61021390  0.24947901  1
  Ta  Ta104  1  0.20054100  0.19965595  0.75405502  1
  Ta  Ta105  1  0.70387316  0.10863146  0.34843546  1
  Ta  Ta106  1  0.70842449  0.09841067  0.12596937  1
  Ta  Ta107  1  0.21521773  0.78636459  0.75326092  1
  Ta  Ta108  1  0.60924823  0.39856463  0.50789191  1
  Ta  Ta109  1  0.49557658  0.51106395  0.61823677  1
  Ta  Ta110  1  0.10184183  0.89527334  0.85376393  1
  Ta  Ta111  1  0.60083870  0.40281569  0.22192453  1
  Ta  Ta112  1  0.49221784  0.70804148  0.37279812  1
  Ta  Ta113  1  0.60394916  0.20280478  0.48101897  1
  Ta  Ta114  1  0.59906685  -0.00230218  0.75851254  1
  Ta  Ta115  1  0.00720920  0.00220559  0.72910898  1
  Ta  Ta116  1  0.69947247  0.29121389  0.61879385  1
  Ta  Ta117  1  0.10487064  0.29672109  0.63325324  1
  Ta  Ta118  1  0.10649285  0.48826119  0.63412005  1
  Ta  Ta119  1  0.47635267  0.90138496  0.34583406  1
  Ti  Ti120  1  0.20833164  -0.00542584  0.50644628  1
  Ti  Ti121  1  0.10014230  0.69663684  0.87333092  1
  Ti  Ti122  1  0.91552105  0.90408140  0.85344200  1
  Ti  Ti123  1  0.89369349  0.69871084  0.39315544  1
  Ti  Ti124  1  0.40775774  0.19132340  0.48160877  1
  Ti  Ti125  1  0.29729288  0.50965633  0.89329141  1
  Ti  Ti126  1  0.30412883  0.09786707  0.88115640  1
  Ti  Ti127  1  0.90639195  0.49897310  0.64205565  1
  Ti  Ti128  1  0.40054473  0.20314349  0.00279529  1
  Ti  Ti129  1  0.79785212  0.40513661  0.51664878  1
  Ti  Ti130  1  0.09795080  0.08991124  0.38015090  1
  Ti  Ti131  1  0.69544085  0.10253075  0.62190570  1
  Ti  Ti132  1  0.67774386  0.69201896  0.89037576  1
  Ti  Ti133  1  0.31292292  0.08373999  0.37130921  1
  Ti  Ti134  1  0.00175885  0.20140902  0.73580907  1
  Ti  Ti135  1  0.60329036  0.60971578  0.73121658  1
  Ti  Ti136  1  0.79210303  0.40119226  0.01443815  1
  Ti  Ti137  1  -0.00218531  0.78206146  0.74664814  1
  Ti  Ti138  1  0.29541477  0.10593228  0.11776980  1
  Ti  Ti139  1  0.59929649  0.60081777  0.24045752  1
  Ti  Ti140  1  0.50402812  0.89662823  0.90295676  1
  Ti  Ti141  1  0.90372850  0.31025940  0.86080434  1
  Ti  Ti142  1  0.49389341  0.90067288  0.12992735  1
  Ti  Ti143  1  0.70927376  0.71551229  0.60915628  1
  Ti  Ti144  1  0.39917025  0.40383153  0.24164167  1
  Ti  Ti145  1  0.32285700  0.87507326  0.63913279  1
  Ti  Ti146  1  0.58365420  0.81484558  0.49010799  1
  Ti  Ti147  1  0.49092741  0.69678873  0.12288071  1
  Ti  Ti148  1  -0.00346875  0.59614439  -0.00468616  1
  Ti  Ti149  1  0.10140192  0.30242916  0.12289954  1
  Ti  Ti150  1  0.20140473  0.20482809  -0.01542506  1
  Ti  Ti151  1  0.70152299  0.30232012  0.88763254  1
  Ti  Ti152  1  0.70393265  0.30603743  0.35995121  1
  Ti  Ti153  1  0.29116201  0.70112225  0.12118084  1
  Ti  Ti154  1  0.39222279  0.80534608  0.02093036  1
  Ti  Ti155  1  0.19822730  0.39959791  0.25991144  1
  Ti  Ti156  1  0.91512159  0.09205550  0.13988681  1
  Ti  Ti157  1  0.79672761  0.20343019  0.75176883  1
  Ti  Ti158  1  0.29525566  0.30643524  0.87434244  1
  Ti  Ti159  1  0.00786864  0.19752854  0.50403997  1
  Mo  Mo160  1  0.40048130  0.80884070  0.48759587  1
  Mo  Mo161  1  0.30121516  0.90664662  0.35550249  1
  Mo  Mo162  1  -0.00256476  0.39296668  0.73279009  1
  Mo  Mo163  1  0.70789678  0.50450861  0.13922541  1
  Mo  Mo164  1  0.39383132  0.79841930  0.22762348  1
  Mo  Mo165  1  0.70677947  0.30241373  0.12310988  1
  Mo  Mo166  1  0.79815190  0.60399476  0.25598355  1
  Mo  Mo167  1  0.79634744  0.39935296  0.24243880  1
  Mo  Mo168  1  0.69909389  0.50119542  0.62368131  1
  Mo  Mo169  1  0.10098778  0.29124415  0.38583570  1
  Mo  Mo170  1  0.49206498  0.50619487  0.14776428  1
  Mo  Mo171  1  0.39758424  0.00219424  0.22972138  1
  Mo  Mo172  1  0.09774125  0.70645090  0.39633934  1
  Mo  Mo173  1  0.40001467  0.79846855  0.77003989  1
  Mo  Mo174  1  0.19484705  0.80007629  0.22572961  1
  Mo  Mo175  1  0.39926317  0.60454518  0.47565866  1
  Mo  Mo176  1  0.89922347  0.70090962  0.61463929  1
  Mo  Mo177  1  0.00405784  -0.00022976  0.26918613  1
  Mo  Mo178  1  0.10475856  0.09968165  0.62047064  1
  Mo  Mo179  1  0.90048999  0.29646755  0.62969595  1
  Mo  Mo180  1  0.59494315  0.79118785  0.02532865  1
  Mo  Mo181  1  0.49967306  0.10334591  0.10851264  1
  Mo  Mo182  1  0.92561006  0.68492700  0.86991154  1
  Mo  Mo183  1  0.90991249  0.89920623  0.14408452  1
  Mo  Mo184  1  0.89749431  0.49364535  0.86417018  1
  Mo  Mo185  1  0.00107952  0.60252115  0.73386219  1
  Mo  Mo186  1  0.59628014  0.00035006  0.02401970  1
  Mo  Mo187  1  0.20964604  0.80969957  0.52125195  1
  Mo  Mo188  1  0.50005969  0.10132426  0.36939699  1
  Mo  Mo189  1  0.49449724  0.30385005  0.12201457  1
  Mo  Mo190  1  0.60931904  0.39421002  0.02105779  1
  Mo  Mo191  1  0.20126658  0.39607464  0.75935861  1
  Mo  Mo192  1  0.00586949  -0.00692086  -0.00914745  1
  Mo  Mo193  1  0.80295145  0.19552741  0.23659449  1
  Mo  Mo194  1  0.39140931  0.60318634  0.02089742  1
  Mo  Mo195  1  0.29714434  0.70684640  0.61400770  1
  Mo  Mo196  1  0.50569867  0.90058010  0.62951135  1
  Mo  Mo197  1  0.18637365  0.60065955  -0.00735471  1
  Mo  Mo198  1  0.80020721  0.79576906  0.48712020  1
  Mo  Mo199  1  0.29298801  0.89650722  0.13249148  1
