# generated using pymatgen
data_HfZrTaTiMo
_symmetry_space_group_name_H-M   'P 1'
_cell_length_a   15.83987139
_cell_length_b   15.82768906
_cell_length_c   15.39745931
_cell_angle_alpha   89.98035484
_cell_angle_beta   90.04333257
_cell_angle_gamma   89.98132966
_symmetry_Int_Tables_number   1
_chemical_formula_structural   HfZrTaTiMo
_chemical_formula_sum   'Hf40 Zr40 Ta40 Ti40 Mo40'
_cell_volume   3860.27330335
_cell_formula_units_Z   40
loop_
 _symmetry_equiv_pos_site_id
 _symmetry_equiv_pos_as_xyz
  1  'x, y, z'
loop_
 _atom_site_type_symbol
 _atom_site_label
 _atom_site_symmetry_multiplicity
 _atom_site_fract_x
 _atom_site_fract_y
 _atom_site_fract_z
 _atom_site_occupancy
  Hf  Hf0  1  0.89561017  0.11505168  0.37098418  1
  Hf  Hf1  1  -0.00888566  0.21659288  0.24104242  1
  Hf  Hf2  1  0.57378148  -0.00783746  0.76216489  1
  Hf  Hf3  1  0.91368536  0.10539965  0.87246779  1
  Hf  Hf4  1  0.60877800  0.20401663  -0.00947330  1
  Hf  Hf5  1  0.10495196  0.50834924  0.12563373  1
  Hf  Hf6  1  0.80370381  0.00563187  0.00506717  1
  Hf  Hf7  1  0.70139161  0.70297146  0.86811992  1
  Hf  Hf8  1  0.19622031  0.61384768  0.74544701  1
  Hf  Hf9  1  0.49100637  0.10568743  0.12374496  1
  Hf  Hf10  1  0.80061065  0.20811245  0.00312286  1
  Hf  Hf11  1  0.78884552  0.00112859  0.49687999  1
  Hf  Hf12  1  0.30535962  0.72862659  0.62309515  1
  Hf  Hf13  1  0.09756247  0.10377586  0.61662073  1
  Hf  Hf14  1  0.20123274  0.40598343  -0.01232088  1
  Hf  Hf15  1  0.80554591  0.20300190  0.75098398  1
  Hf  Hf16  1  0.29572389  0.71286970  0.87798198  1
  Hf  Hf17  1  0.59439628  -0.00154066  0.26052505  1
  Hf  Hf18  1  0.80867483  0.79381115  0.50183304  1
  Hf  Hf19  1  0.90446220  0.90065652  0.36573635  1
  Hf  Hf20  1  0.30583554  0.91584104  0.35760085  1
  Hf  Hf21  1  0.39994997  0.79891490  0.24177529  1
  Hf  Hf22  1  0.30520856  0.29994706  0.36783683  1
  Hf  Hf23  1  0.71068021  0.68869266  0.37808303  1
  Hf  Hf24  1  0.40391755  0.19846022  0.51579437  1
  Hf  Hf25  1  0.08319279  0.30469439  0.86848805  1
  Hf  Hf26  1  0.01023052  0.78887855  0.25405967  1
  Hf  Hf27  1  0.09755963  0.09792789  0.12665470  1
  Hf  Hf28  1  0.50000109  0.49886384  0.14191566  1
  Hf  Hf29  1  0.19015905  0.19533436  0.75076866  1
  Hf  Hf30  1  0.10297009  0.30488126  0.11781700  1
  Hf  Hf31  1  0.19097337  0.40320101  0.26099875  1
  Hf  Hf32  1  0.59721304  0.18856682  0.50515019  1
  Hf  Hf33  1  0.70728243  0.48981082  0.62502769  1
  Hf  Hf34  1  0.39801087  0.18642643  0.74648356  1
  Hf  Hf35  1  0.39732314  0.79686507  0.00658923  1
  Hf  Hf36  1  0.89744911  0.31151290  0.39147050  1
  Hf  Hf37  1  0.80322713  0.79771392  0.01002233  1
  Hf  Hf38  1  0.09673268  0.10591276  0.37325779  1
  Hf  Hf39  1  0.70281190  0.67838940  0.12165854  1
  Zr  Zr40  1  0.30837080  0.51247560  0.36780687  1
  Zr  Zr41  1  0.50431676  0.30226430  0.12998938  1
  Zr  Zr42  1  0.58640810  0.58744457  -0.01624624  1
  Zr  Zr43  1  0.59231053  0.79291738  0.49161279  1
  Zr  Zr44  1  0.19524546  0.40583559  0.50837581  1
  Zr  Zr45  1  0.70055310  0.89861367  0.12708063  1
  Zr  Zr46  1  0.81186957  0.59091448  0.75150082  1
  Zr  Zr47  1  -0.00363473  0.00134747  0.50015280  1
  Zr  Zr48  1  0.50690469  0.49661673  0.62740978  1
  Zr  Zr49  1  0.91204325  0.90899640  0.87371974  1
  Zr  Zr50  1  0.89755231  0.51056000  0.12214551  1
  Zr  Zr51  1  0.39845091  0.39963119  0.50959149  1
  Zr  Zr52  1  0.02755257  0.80110201  0.74593470  1
  Zr  Zr53  1  0.69054123  0.08831393  0.64311630  1
  Zr  Zr54  1  0.48087859  0.10198287  0.35677823  1
  Zr  Zr55  1  0.48942720  0.29363734  0.87754921  1
  Zr  Zr56  1  0.48083110  0.08620314  0.89761019  1
  Zr  Zr57  1  0.79500956  0.01131278  0.25019238  1
  Zr  Zr58  1  0.58181346  -0.00501631  0.48970987  1
  Zr  Zr59  1  0.40266846  0.41352776  -0.00873929  1
  Zr  Zr60  1  0.90939537  0.70658855  0.86823562  1
  Zr  Zr61  1  0.80647175  0.19446843  0.52488282  1
  Zr  Zr62  1  0.29347474  0.10661382  0.36934008  1
  Zr  Zr63  1  0.69090151  0.89024434  0.63775840  1
  Zr  Zr64  1  0.40953854  0.62011265  0.74342989  1
  Zr  Zr65  1  0.49723277  0.91009437  0.11233062  1
  Zr  Zr66  1  0.59756617  0.59186624  0.76418947  1
  Zr  Zr67  1  0.59842575  0.38822890  0.49302166  1
  Zr  Zr68  1  0.00218603  0.79669333  0.01534624  1
  Zr  Zr69  1  0.81564040  0.77831255  0.24215755  1
  Zr  Zr70  1  -0.00079202  0.60679176  0.26691818  1
  Zr  Zr71  1  0.69644104  0.69201437  0.62599319  1
  Zr  Zr72  1  0.48860869  0.68653061  0.36831038  1
  Zr  Zr73  1  0.70426007  0.89778899  0.86266831  1
  Zr  Zr74  1  0.70457197  0.28458310  0.37428426  1
  Zr  Zr75  1  0.80362024  0.58456381  -0.02031300  1
  Zr  Zr76  1  0.91068074  0.89699784  0.62528601  1
  Zr  Zr77  1  0.59988137  0.79112665  0.24856402  1
  Zr  Zr78  1  0.47582415  0.89062319  0.62286559  1
  Zr  Zr79  1  0.11499266  0.90276712  0.89416216  1
  Ta  Ta80  1  0.60108232  0.58788814  0.48692509  1
  Ta  Ta81  1  0.59556710  0.19435597  0.75885584  1
  Ta  Ta82  1  0.70138320  0.89385300  0.36945059  1
  Ta  Ta83  1  0.10355631  0.90622023  0.13356580  1
  Ta  Ta84  1  0.60532371  0.39410075  0.77021020  1
  Ta  Ta85  1  0.30100548  0.50473789  0.13630770  1
  Ta  Ta86  1  0.40345360  0.60618191  0.51246669  1
  Ta  Ta87  1  0.29708940  0.09088001  0.62155666  1
  Ta  Ta88  1  0.49856332  0.49127898  0.36285031  1
  Ta  Ta89  1  -0.01027166  0.41156500  0.51631555  1
  Ta  Ta90  1  0.80725931  0.39390845  0.23897287  1
  Ta  Ta91  1  0.79378394  0.20943518  0.22657545  1
  Ta  Ta92  1  0.39735538  0.40396694  0.75065102  1
  Ta  Ta93  1  0.81255286  0.39095554  0.75359709  1
  Ta  Ta94  1  0.19003437  0.40948955  0.74778457  1
  Ta  Ta95  1  0.20030428  -0.00568335  0.50067434  1
  Ta  Ta96  1  0.29225197  0.30189885  0.86176893  1
  Ta  Ta97  1  0.59584419  0.79457842  -0.00955563  1
  Ta  Ta98  1  0.70268530  0.09526779  0.86823271  1
  Ta  Ta99  1  0.19849879  0.79456045  0.24924949  1
  Ta  Ta100  1  0.09712885  0.09684361  0.88160849  1
  Ta  Ta101  1  -0.00528421  0.40277649  0.00423449  1
  Ta  Ta102  1  0.29070146  0.90613273  0.12946288  1
  Ta  Ta103  1  0.91807702  0.68954652  0.61864634  1
  Ta  Ta104  1  0.30199826  0.50932132  0.86257741  1
  Ta  Ta105  1  0.10605123  0.70658111  0.60805113  1
  Ta  Ta106  1  0.81696449  0.58190267  0.49802020  1
  Ta  Ta107  1  -0.00477298  0.40548468  0.25127371  1
  Ta  Ta108  1  0.61353051  0.39879364  -0.01714768  1
  Ta  Ta109  1  0.91390723  0.91017825  0.13560553  1
  Ta  Ta110  1  0.56507929  0.78656357  0.76468111  1
  Ta  Ta111  1  0.01366591  0.59568860  0.75669483  1
  Ta  Ta112  1  0.69814495  0.48736050  0.12472276  1
  Ta  Ta113  1  0.29348462  0.30129976  0.64052251  1
  Ta  Ta114  1  0.49554064  0.29590168  0.35180240  1
  Ta  Ta115  1  0.69521445  0.30057712  0.63750711  1
  Ta  Ta116  1  0.00981718  0.59455907  -0.01666401  1
  Ta  Ta117  1  0.61092998  0.58663174  0.26080296  1
  Ta  Ta118  1  0.20082489  0.20220335  -0.00780069  1
  Ta  Ta119  1  0.30049199  0.30548897  0.13138516  1
  Ti  Ti120  1  0.39666766  0.81127445  0.47992275  1
  Ti  Ti121  1  0.92061772  0.48108717  0.86307965  1
  Ti  Ti122  1  0.50355987  0.29654794  0.64177716  1
  Ti  Ti123  1  -0.00790803  0.21407203  0.73040763  1
  Ti  Ti124  1  0.81325150  0.00213230  0.74439675  1
  Ti  Ti125  1  0.01257804  0.79905168  0.48677277  1
  Ti  Ti126  1  -0.00234529  0.20441243  0.00521361  1
  Ti  Ti127  1  0.28797277  0.09488620  0.87469707  1
  Ti  Ti128  1  0.19657859  -0.01232736  0.74240950  1
  Ti  Ti129  1  0.11097896  0.70594045  0.88742545  1
  Ti  Ti130  1  0.30153514  0.90798287  0.89070495  1
  Ti  Ti131  1  0.20350554  0.60623206  0.50099969  1
  Ti  Ti132  1  0.00254886  0.60079498  0.49074390  1
  Ti  Ti133  1  0.20757945  0.59855120  -0.00609503  1
  Ti  Ti134  1  0.37872152  0.20266245  0.00383511  1
  Ti  Ti135  1  0.10574748  0.91037476  0.35669439  1
  Ti  Ti136  1  0.09520685  0.50045870  0.38386652  1
  Ti  Ti137  1  0.60591210  -0.00458133  -0.00883971  1
  Ti  Ti138  1  0.38442220  -0.01039354  0.74991181  1
  Ti  Ti139  1  0.50020133  0.68698182  0.12299218  1
  Ti  Ti140  1  0.10679846  0.69532958  0.11656874  1
  Ti  Ti141  1  0.01092941  0.00410569  0.73988899  1
  Ti  Ti142  1  0.71410174  0.48335896  0.38000886  1
  Ti  Ti143  1  0.29539776  0.69164031  0.12510966  1
  Ti  Ti144  1  0.29510356  0.10393550  0.13773032  1
  Ti  Ti145  1  0.19496937  0.60946743  0.25997840  1
  Ti  Ti146  1  0.08994406  0.30079884  0.39143272  1
  Ti  Ti147  1  0.81155415  0.79606782  0.73874025  1
  Ti  Ti148  1  0.61405354  0.39196663  0.25418075  1
  Ti  Ti149  1  0.20336019  0.00833757  0.00951972  1
  Ti  Ti150  1  0.19892638  0.20802164  0.50852777  1
  Ti  Ti151  1  0.90628907  0.10006835  0.12541741  1
  Ti  Ti152  1  0.09406054  0.51049895  0.62255891  1
  Ti  Ti153  1  0.19409105  0.20761334  0.24878240  1
  Ti  Ti154  1  0.19945672  0.80971851  0.48376798  1
  Ti  Ti155  1  0.29753064  0.70100423  0.37519078  1
  Ti  Ti156  1  0.80849109  0.58646076  0.26371152  1
  Ti  Ti157  1  0.29781694  0.50671821  0.63251063  1
  Ti  Ti158  1  0.68696212  0.10566950  0.12754116  1
  Ti  Ti159  1  0.80034561  0.39139980  -0.01270053  1
  Mo  Mo160  1  0.49188166  0.49676800  0.86730063  1
  Mo  Mo161  1  0.39837721  0.40140869  0.24985427  1
  Mo  Mo162  1  0.00274338  0.40212947  0.73281716  1
  Mo  Mo163  1  0.37860182  0.00791307  0.01132038  1
  Mo  Mo164  1  0.90843736  0.69488394  0.11610286  1
  Mo  Mo165  1  0.38953081  0.00079792  0.50826818  1
  Mo  Mo166  1  0.90137832  0.30655290  0.11176652  1
  Mo  Mo167  1  0.00775441  0.21238941  0.50967091  1
  Mo  Mo168  1  0.20146450  0.79784835  0.02610959  1
  Mo  Mo169  1  0.00165275  0.00735588  0.00962965  1
  Mo  Mo170  1  0.38904858  0.59795691  0.01212194  1
  Mo  Mo171  1  0.80003208  0.39935842  0.51678891  1
  Mo  Mo172  1  0.69923264  0.30796972  0.12459121  1
  Mo  Mo173  1  0.09955322  0.30594929  0.62377158  1
  Mo  Mo174  1  0.49321470  0.89819055  0.37265624  1
  Mo  Mo175  1  0.19455152  0.00252107  0.24635633  1
  Mo  Mo176  1  0.29173138  0.90409468  0.61779228  1
  Mo  Mo177  1  -0.00157167  0.00422262  0.25141241  1
  Mo  Mo178  1  0.40021250  0.60407488  0.23525178  1
  Mo  Mo179  1  0.90635189  0.09909927  0.63886336  1
  Mo  Mo180  1  0.10497880  0.50464485  0.87345491  1
  Mo  Mo181  1  0.39163883  0.20545853  0.23229238  1
  Mo  Mo182  1  0.90603403  0.30101245  0.88401454  1
  Mo  Mo183  1  0.90701795  0.69614530  0.39797375  1
  Mo  Mo184  1  0.39462666  0.00263411  0.22852293  1
  Mo  Mo185  1  0.48920749  0.89650200  0.89134017  1
  Mo  Mo186  1  0.70912653  0.48981709  0.86995568  1
  Mo  Mo187  1  0.49045032  0.69705866  0.89362881  1
  Mo  Mo188  1  0.11282420  0.70033016  0.39303856  1
  Mo  Mo189  1  0.60608767  0.19705647  0.24753770  1
  Mo  Mo190  1  0.69809811  0.10015496  0.36558053  1
  Mo  Mo191  1  0.90892077  0.50504118  0.63674557  1
  Mo  Mo192  1  0.70536101  0.29414638  0.86199662  1
  Mo  Mo193  1  0.89910658  0.30706869  0.61663094  1
  Mo  Mo194  1  0.20716078  0.81304104  0.74738561  1
  Mo  Mo195  1  0.50052344  0.70234690  0.60731570  1
  Mo  Mo196  1  0.90018585  0.49472864  0.37153317  1
  Mo  Mo197  1  0.48993584  0.09613037  0.63351879  1
  Mo  Mo198  1  0.39569373  0.81541449  0.77187184  1
  Mo  Mo199  1  0.11108769  0.89552131  0.61555900  1
