# generated using pymatgen
data_HfZrTaTiMo
_symmetry_space_group_name_H-M   'P 1'
_cell_length_a   15.83691430
_cell_length_b   15.83616970
_cell_length_c   15.39989900
_cell_angle_alpha   90.00508788
_cell_angle_beta   89.96899682
_cell_angle_gamma   90.04019169
_symmetry_Int_Tables_number   1
_chemical_formula_structural   HfZrTaTiMo
_chemical_formula_sum   'Hf40 Zr40 Ta40 Ti40 Mo40'
_cell_volume   3862.23250132
_cell_formula_units_Z   40
loop_
 _symmetry_equiv_pos_site_id
 _symmetry_equiv_pos_as_xyz
  1  'x, y, z'
loop_
 _atom_site_type_symbol
 _atom_site_label
 _atom_site_symmetry_multiplicity
 _atom_site_fract_x
 _atom_site_fract_y
 _atom_site_fract_z
 _atom_site_occupancy
  Hf  Hf0  1  0.69672481  0.30982325  0.87714414  1
  Hf  Hf1  1  0.59927419  0.20310074  0.74624328  1
  Hf  Hf2  1  -0.00908359  0.59587274  0.74774315  1
  Hf  Hf3  1  0.00631588  0.00579344  0.50581087  1
  Hf  Hf4  1  0.10050291  0.30769474  0.86657548  1
  Hf  Hf5  1  0.78659035  0.78996098  0.25667530  1
  Hf  Hf6  1  0.60448913  0.19830856  0.24531605  1
  Hf  Hf7  1  0.29675852  0.50529062  0.36272913  1
  Hf  Hf8  1  0.19459186  0.40296303  0.23606597  1
  Hf  Hf9  1  0.80759882  0.18664472  0.26624249  1
  Hf  Hf10  1  0.39610996  -0.01181777  0.74584003  1
  Hf  Hf11  1  0.38968711  0.58790080  0.00513579  1
  Hf  Hf12  1  0.09053419  0.10142695  0.12415885  1
  Hf  Hf13  1  0.20082274  0.60791845  0.76668712  1
  Hf  Hf14  1  0.49148634  0.68422335  0.62240556  1
  Hf  Hf15  1  0.20018655  0.00367086  -0.00526862  1
  Hf  Hf16  1  0.90408046  0.50442562  0.38451767  1
  Hf  Hf17  1  0.90252147  0.09104576  0.84788603  1
  Hf  Hf18  1  0.69144435  0.90402067  0.13127688  1
  Hf  Hf19  1  0.20048542  0.00126685  0.51051702  1
  Hf  Hf20  1  0.49032081  0.91489615  0.38849163  1
  Hf  Hf21  1  0.59944591  0.79167859  0.75272913  1
  Hf  Hf22  1  0.69986459  0.50055715  0.88551474  1
  Hf  Hf23  1  0.88980267  0.90299615  0.38846994  1
  Hf  Hf24  1  0.59613071  0.00609405  0.25465434  1
  Hf  Hf25  1  0.90349058  0.30971895  0.85997412  1
  Hf  Hf26  1  0.50138839  0.70834438  0.11814899  1
  Hf  Hf27  1  0.10198836  0.10817196  0.84415538  1
  Hf  Hf28  1  0.88862116  0.91264017  0.13743300  1
  Hf  Hf29  1  -0.01014046  -0.00913031  -0.00746667  1
  Hf  Hf30  1  0.71021637  0.89737168  0.62017346  1
  Hf  Hf31  1  0.50323380  0.50188370  0.37240891  1
  Hf  Hf32  1  0.20210363  0.79902655  0.49493236  1
  Hf  Hf33  1  0.20731013  0.41652717  0.01108465  1
  Hf  Hf34  1  0.88824169  0.09200023  0.62836835  1
  Hf  Hf35  1  0.80339844  0.39766202  0.50442360  1
  Hf  Hf36  1  -0.00424641  0.19916645  -0.00775504  1
  Hf  Hf37  1  0.19721125  0.20666494  0.24915021  1
  Hf  Hf38  1  0.39364738  0.79191390  0.49298390  1
  Hf  Hf39  1  0.80123263  0.19064398  -0.01818467  1
  Zr  Zr40  1  0.40565697  0.18700914  0.51003600  1
  Zr  Zr41  1  0.01041593  0.79235442  0.50141500  1
  Zr  Zr42  1  0.20459136  0.60031624  0.50555204  1
  Zr  Zr43  1  0.40428088  0.58737155  0.77868777  1
  Zr  Zr44  1  0.09906015  0.90649650  0.85586539  1
  Zr  Zr45  1  0.30762790  0.50740193  0.63271449  1
  Zr  Zr46  1  0.50137138  0.30055600  0.37559178  1
  Zr  Zr47  1  0.31021117  0.32566597  0.86935680  1
  Zr  Zr48  1  0.38894508  0.40129457  0.49094202  1
  Zr  Zr49  1  0.50156909  0.08842996  0.10597342  1
  Zr  Zr50  1  0.20114360  0.80103326  -0.00901713  1
  Zr  Zr51  1  0.80175134  0.19811742  0.50265786  1
  Zr  Zr52  1  0.90263429  0.87208962  0.84820182  1
  Zr  Zr53  1  -0.00326252  0.79380448  0.26520450  1
  Zr  Zr54  1  0.19841470  0.21240442  0.50114830  1
  Zr  Zr55  1  0.40460440  0.19888573  0.24109230  1
  Zr  Zr56  1  0.90506734  0.70673470  0.12123182  1
  Zr  Zr57  1  -0.01521299  0.01819010  0.26691152  1
  Zr  Zr58  1  0.92425664  0.30378284  0.37828508  1
  Zr  Zr59  1  0.89706629  0.88960101  0.62427479  1
  Zr  Zr60  1  0.29925016  0.31009278  0.64118604  1
  Zr  Zr61  1  0.80072141  0.41295150  0.73954370  1
  Zr  Zr62  1  0.41006027  0.80332700  0.25672294  1
  Zr  Zr63  1  0.40893651  0.20582862  0.75514221  1
  Zr  Zr64  1  0.30969258  0.09388392  0.37795965  1
  Zr  Zr65  1  0.20156042  0.00616168  0.25024001  1
  Zr  Zr66  1  0.07842990  0.71345298  0.87490134  1
  Zr  Zr67  1  0.58738259  0.01407278  0.52148443  1
  Zr  Zr68  1  0.80410718  0.40197695  0.25053802  1
  Zr  Zr69  1  0.71258812  0.29437081  0.12065498  1
  Zr  Zr70  1  0.30691930  0.90137770  0.12726862  1
  Zr  Zr71  1  0.70886103  0.69678174  0.87392629  1
  Zr  Zr72  1  0.09266436  0.89070852  0.13347246  1
  Zr  Zr73  1  0.80059896  0.80537166  -0.00123142  1
  Zr  Zr74  1  0.69508155  0.90129009  0.38726185  1
  Zr  Zr75  1  0.59874427  0.00041095  0.74746948  1
  Zr  Zr76  1  0.60745388  0.19013329  -0.00454881  1
  Zr  Zr77  1  0.39556933  0.78943267  0.76883316  1
  Zr  Zr78  1  0.61051014  0.60543576  0.24274902  1
  Zr  Zr79  1  0.20373942  0.20410014  -0.00596403  1
  Ta  Ta80  1  -0.00580115  0.59940151  -0.00167086  1
  Ta  Ta81  1  0.69376358  0.30629552  0.37897914  1
  Ta  Ta82  1  0.40311729  0.40344798  0.23213348  1
  Ta  Ta83  1  0.59247628  0.79140646  0.49834794  1
  Ta  Ta84  1  0.60258717  0.80094871  -0.00983418  1
  Ta  Ta85  1  0.69571813  0.30672888  0.62110903  1
  Ta  Ta86  1  0.10483057  0.90225917  0.36932831  1
  Ta  Ta87  1  0.79977137  0.60250364  0.73974029  1
  Ta  Ta88  1  0.80010002  0.59944187  0.24302984  1
  Ta  Ta89  1  0.49767580  0.09572773  0.87695779  1
  Ta  Ta90  1  0.29497481  0.70368246  0.13083768  1
  Ta  Ta91  1  0.60680018  0.59561202  0.01851415  1
  Ta  Ta92  1  0.19509929  0.60207791  0.00377683  1
  Ta  Ta93  1  0.09547468  0.49166843  0.37932658  1
  Ta  Ta94  1  0.28604159  0.10235225  0.64562649  1
  Ta  Ta95  1  0.50452754  0.31211992  0.61752917  1
  Ta  Ta96  1  0.59805026  0.59620584  0.49842789  1
  Ta  Ta97  1  0.70537520  0.69050092  0.39362352  1
  Ta  Ta98  1  0.60227743  0.40544471  0.23268780  1
  Ta  Ta99  1  0.89530534  0.68852015  0.38969059  1
  Ta  Ta100  1  0.79263254  0.20175669  0.74164011  1
  Ta  Ta101  1  0.09469417  0.30214170  0.11523335  1
  Ta  Ta102  1  0.10177725  0.68643629  0.36660804  1
  Ta  Ta103  1  0.70048119  0.69667142  0.61618968  1
  Ta  Ta104  1  0.60075394  0.20034716  0.51035364  1
  Ta  Ta105  1  -0.00030633  0.59062148  0.24687744  1
  Ta  Ta106  1  0.50152938  0.49539468  0.61469765  1
  Ta  Ta107  1  0.09234095  0.50011453  0.88248104  1
  Ta  Ta108  1  0.60147447  0.58864315  0.74665598  1
  Ta  Ta109  1  -0.00457602  0.40539944  0.00479779  1
  Ta  Ta110  1  0.29774834  0.09740500  0.86161781  1
  Ta  Ta111  1  0.29786518  0.69496210  0.35467354  1
  Ta  Ta112  1  0.61283198  -0.00729263  -0.02106098  1
  Ta  Ta113  1  0.09243836  0.11599022  0.38140260  1
  Ta  Ta114  1  0.79166873  0.00007124  -0.02224286  1
  Ta  Ta115  1  0.39996875  0.79702164  -0.01242936  1
  Ta  Ta116  1  0.39883844  0.19966443  -0.00997744  1
  Ta  Ta117  1  0.00554897  0.20626140  0.52240376  1
  Ta  Ta118  1  0.88548726  0.10130992  0.12020293  1
  Ta  Ta119  1  0.19038269  0.59727465  0.23320488  1
  Ti  Ti120  1  0.50294717  0.48332711  0.89870839  1
  Ti  Ti121  1  0.00811747  -0.00278093  0.72596597  1
  Ti  Ti122  1  0.69719283  0.09836650  0.38739429  1
  Ti  Ti123  1  0.21277098  0.80580914  0.75826117  1
  Ti  Ti124  1  0.30660228  0.30037863  0.11720672  1
  Ti  Ti125  1  0.80189731  0.59885226  0.01118700  1
  Ti  Ti126  1  0.30074232  0.70472919  0.63044741  1
  Ti  Ti127  1  0.30421023  0.10198494  0.11701877  1
  Ti  Ti128  1  0.29510552  0.89871563  0.36628168  1
  Ti  Ti129  1  0.29570126  0.30623092  0.36638757  1
  Ti  Ti130  1  0.10320501  0.29569292  0.64958012  1
  Ti  Ti131  1  0.90149941  0.50456121  0.61100972  1
  Ti  Ti132  1  0.39089295  -0.00393986  0.52736582  1
  Ti  Ti133  1  0.70270711  0.49901584  0.38064875  1
  Ti  Ti134  1  0.39689572  -0.00412789  -0.01501299  1
  Ti  Ti135  1  0.59519857  0.79428695  0.26706062  1
  Ti  Ti136  1  0.69230936  0.50124232  0.61596587  1
  Ti  Ti137  1  0.50330254  0.30490888  0.10777541  1
  Ti  Ti138  1  0.89112815  0.69808319  0.61048915  1
  Ti  Ti139  1  0.50107353  0.90041299  0.11188079  1
  Ti  Ti140  1  0.90396240  0.29535716  0.12373111  1
  Ti  Ti141  1  0.90158608  0.49934208  0.12531034  1
  Ti  Ti142  1  -0.00026683  0.41008454  0.73691028  1
  Ti  Ti143  1  0.00788781  0.40200241  0.23644733  1
  Ti  Ti144  1  0.50406607  0.30913893  0.89220268  1
  Ti  Ti145  1  0.19264442  0.41919332  0.75047348  1
  Ti  Ti146  1  0.01151648  0.59497613  0.51038968  1
  Ti  Ti147  1  0.40534556  0.59914592  0.23818367  1
  Ti  Ti148  1  0.00277649  0.20741013  0.24860924  1
  Ti  Ti149  1  0.59217206  0.40492378  0.74920214  1
  Ti  Ti150  1  0.18932016  0.40145278  0.50420528  1
  Ti  Ti151  1  0.01269706  0.39490115  0.52095130  1
  Ti  Ti152  1  0.40568099  0.00560158  0.24670610  1
  Ti  Ti153  1  0.50990020  0.68583233  0.88956038  1
  Ti  Ti154  1  0.11296571  0.89230882  0.63636175  1
  Ti  Ti155  1  0.80724288  0.40594454  0.00435352  1
  Ti  Ti156  1  0.50199196  0.89670277  0.87889537  1
  Ti  Ti157  1  0.10538976  0.69899430  0.63575998  1
  Ti  Ti158  1  0.49337080  0.88575034  0.62399361  1
  Ti  Ti159  1  0.09715517  0.70232691  0.12593827  1
  Mo  Mo160  1  0.29318803  0.49970834  0.87277629  1
  Mo  Mo161  1  0.79591095  0.00450796  0.48971434  1
  Mo  Mo162  1  0.90208122  0.30335507  0.63381682  1
  Mo  Mo163  1  0.49115519  0.10598972  0.63770465  1
  Mo  Mo164  1  0.79998969  0.78408741  0.73923406  1
  Mo  Mo165  1  0.40231238  0.39864778  0.01881899  1
  Mo  Mo166  1  0.20382429  -0.00499262  0.73867263  1
  Mo  Mo167  1  0.69975812  0.10346394  0.63151295  1
  Mo  Mo168  1  0.10170844  0.30801818  0.37373446  1
  Mo  Mo169  1  0.70120635  0.09756294  0.85413509  1
  Mo  Mo170  1  0.79912721  0.59290400  0.51391672  1
  Mo  Mo171  1  0.09106739  0.50606755  0.11285605  1
  Mo  Mo172  1  0.00214924  0.78757321  0.72328310  1
  Mo  Mo173  1  0.79599876  0.79182284  0.49561318  1
  Mo  Mo174  1  0.89733262  0.50491647  0.88431809  1
  Mo  Mo175  1  0.19867517  0.79349939  0.26008403  1
  Mo  Mo176  1  0.29578665  0.69916270  0.89292232  1
  Mo  Mo177  1  0.50341500  0.49888896  0.12492084  1
  Mo  Mo178  1  -0.00245032  0.79898238  0.00848284  1
  Mo  Mo179  1  0.30078585  0.50816799  0.14065929  1
  Mo  Mo180  1  0.70028706  0.89559514  0.85947845  1
  Mo  Mo181  1  0.30381529  0.90473321  0.88057025  1
  Mo  Mo182  1  0.69925210  0.70378466  0.11780425  1
  Mo  Mo183  1  0.89425398  0.68617038  0.87624425  1
  Mo  Mo184  1  0.50067141  0.69412068  0.38105365  1
  Mo  Mo185  1  0.20254691  0.20863957  0.75465325  1
  Mo  Mo186  1  0.09983798  0.10622223  0.63227465  1
  Mo  Mo187  1  0.60440886  0.40017857  0.49840823  1
  Mo  Mo188  1  0.90397340  0.10428640  0.39941974  1
  Mo  Mo189  1  0.79361365  -0.00598730  0.75970883  1
  Mo  Mo190  1  0.42478275  0.40549952  0.75160850  1
  Mo  Mo191  1  -0.00619043  0.20722826  0.73296255  1
  Mo  Mo192  1  0.71489166  0.08379668  0.12730575  1
  Mo  Mo193  1  0.09919158  0.49845397  0.62341319  1
  Mo  Mo194  1  0.40179835  0.60539641  0.48574300  1
  Mo  Mo195  1  0.71059321  0.50059060  0.11702699  1
  Mo  Mo196  1  0.29841882  0.89179651  0.62485788  1
  Mo  Mo197  1  0.50554373  0.10043528  0.37647559  1
  Mo  Mo198  1  0.60350860  0.40306474  0.01617765  1
  Mo  Mo199  1  0.79168082  0.00891610  0.26520975  1
