# generated using pymatgen
data_HfZrTaTiMo
_symmetry_space_group_name_H-M   'P 1'
_cell_length_a   15.84877334
_cell_length_b   15.82788644
_cell_length_c   15.41462381
_cell_angle_alpha   90.03500179
_cell_angle_beta   90.00075813
_cell_angle_gamma   89.86672953
_symmetry_Int_Tables_number   1
_chemical_formula_structural   HfZrTaTiMo
_chemical_formula_sum   'Hf40 Zr40 Ta40 Ti40 Mo40'
_cell_volume   3866.78704241
_cell_formula_units_Z   40
loop_
 _symmetry_equiv_pos_site_id
 _symmetry_equiv_pos_as_xyz
  1  'x, y, z'
loop_
 _atom_site_type_symbol
 _atom_site_label
 _atom_site_symmetry_multiplicity
 _atom_site_fract_x
 _atom_site_fract_y
 _atom_site_fract_z
 _atom_site_occupancy
  Hf  Hf0  1  0.79942552  0.59724979  0.22775889  1
  Hf  Hf1  1  0.80614211  0.40885473  0.73849377  1
  Hf  Hf2  1  0.49084067  0.70320675  0.37003775  1
  Hf  Hf3  1  0.88845882  0.89953549  0.86730258  1
  Hf  Hf4  1  0.41267166  -0.02788964  0.48766224  1
  Hf  Hf5  1  0.60214363  0.20618461  -0.00483643  1
  Hf  Hf6  1  0.69956242  0.70096266  0.37807180  1
  Hf  Hf7  1  0.70219963  0.10190146  0.87236031  1
  Hf  Hf8  1  0.80581766  0.21700685  0.51438636  1
  Hf  Hf9  1  0.19723540  0.18826264  0.75942994  1
  Hf  Hf10  1  0.08663707  0.09766514  0.38425238  1
  Hf  Hf11  1  0.08860155  0.89759758  0.36720228  1
  Hf  Hf12  1  0.40524148  0.59761321  0.00717227  1
  Hf  Hf13  1  0.60679563  0.60160545  0.00988001  1
  Hf  Hf14  1  0.08756209  0.28276759  0.62947890  1
  Hf  Hf15  1  0.29664758  0.30281604  0.13381381  1
  Hf  Hf16  1  0.19623675  0.59873113  0.48993549  1
  Hf  Hf17  1  0.20464527  -0.00915729  0.75640777  1
  Hf  Hf18  1  -0.00101064  0.59899923  0.77235639  1
  Hf  Hf19  1  0.29679838  0.50193022  0.34874056  1
  Hf  Hf20  1  0.90011985  0.09849166  0.37934298  1
  Hf  Hf21  1  0.40115629  0.20846976  0.48258989  1
  Hf  Hf22  1  -0.00158769  0.79909442  0.50297376  1
  Hf  Hf23  1  0.90301343  0.69942709  0.37640890  1
  Hf  Hf24  1  0.31491675  0.08620856  0.88296403  1
  Hf  Hf25  1  0.58891541  0.81058408  0.73788526  1
  Hf  Hf26  1  0.80348880  0.20781313  0.01636539  1
  Hf  Hf27  1  0.69271358  0.70225403  0.61010288  1
  Hf  Hf28  1  0.80289225  0.39802175  0.23872473  1
  Hf  Hf29  1  0.19997702  -0.01200044  0.50510327  1
  Hf  Hf30  1  0.79465810  0.81126995  0.50051022  1
  Hf  Hf31  1  0.70567539  0.10423478  0.37808845  1
  Hf  Hf32  1  0.89279982  0.09802702  0.87545273  1
  Hf  Hf33  1  -0.00218707  0.60638900  0.22663320  1
  Hf  Hf34  1  0.09171429  0.29550808  0.10648299  1
  Hf  Hf35  1  0.90075850  0.50130648  0.37008472  1
  Hf  Hf36  1  0.60867553  0.61383756  0.75639657  1
  Hf  Hf37  1  0.40854682  0.80075840  0.01003493  1
  Hf  Hf38  1  0.09580844  0.49554206  0.36487346  1
  Hf  Hf39  1  0.50029107  0.10439414  0.13365066  1
  Zr  Zr40  1  0.92424170  0.10547406  0.61375386  1
  Zr  Zr41  1  0.09812093  0.09574643  0.11220990  1
  Zr  Zr42  1  0.49593763  0.31883234  0.86603665  1
  Zr  Zr43  1  -0.01006128  0.39495544  0.51000635  1
  Zr  Zr44  1  0.41649747  0.60676808  0.76192150  1
  Zr  Zr45  1  0.30455611  0.49868333  0.63927143  1
  Zr  Zr46  1  0.50049956  0.50844403  0.61420552  1
  Zr  Zr47  1  0.40613308  0.20544133  -0.00732535  1
  Zr  Zr48  1  0.90079773  0.89460573  0.63916292  1
  Zr  Zr49  1  0.31124269  0.49010349  0.87147952  1
  Zr  Zr50  1  0.79975723  0.40487082  0.51340509  1
  Zr  Zr51  1  0.50561267  0.30031883  0.61576032  1
  Zr  Zr52  1  0.28274973  0.69402499  0.11668160  1
  Zr  Zr53  1  0.68760253  0.90988048  0.86319927  1
  Zr  Zr54  1  0.29467261  0.90432266  0.11384954  1
  Zr  Zr55  1  0.19837970  0.19998560  0.50614690  1
  Zr  Zr56  1  0.60193498  0.82690994  0.01756486  1
  Zr  Zr57  1  0.20526935  0.39698047  0.50404673  1
  Zr  Zr58  1  0.60888252  0.41126995  0.74076855  1
  Zr  Zr59  1  0.80460133  0.80211878  0.24350446  1
  Zr  Zr60  1  0.78262739  -0.00502414  0.02113614  1
  Zr  Zr61  1  0.30775197  0.09087483  0.62604934  1
  Zr  Zr62  1  0.50490789  0.09545155  0.61243200  1
  Zr  Zr63  1  0.40335531  -0.00569642  0.25509569  1
  Zr  Zr64  1  0.09504832  0.08790379  0.90002140  1
  Zr  Zr65  1  0.29571399  0.09442604  0.37591011  1
  Zr  Zr66  1  0.09690122  0.69881706  0.63758386  1
  Zr  Zr67  1  0.41117186  0.39134429  0.26520281  1
  Zr  Zr68  1  0.19405301  0.39102802  0.76260759  1
  Zr  Zr69  1  0.19564208  0.79814746  0.76907816  1
  Zr  Zr70  1  0.49908256  0.49378414  0.13251139  1
  Zr  Zr71  1  0.20451291  0.79225795  0.49310856  1
  Zr  Zr72  1  0.78996428  0.40311969  0.01731290  1
  Zr  Zr73  1  0.09835171  0.50261871  0.63543179  1
  Zr  Zr74  1  0.19392887  -0.00347626  0.25033455  1
  Zr  Zr75  1  0.29672294  0.69208562  0.64028269  1
  Zr  Zr76  1  0.10549649  0.49722402  0.10200448  1
  Zr  Zr77  1  0.69451933  0.11171519  0.14802888  1
  Zr  Zr78  1  0.09919546  0.89300953  0.10346362  1
  Zr  Zr79  1  0.60562366  0.19915006  0.74962382  1
  Ta  Ta80  1  0.40347704  0.19546591  0.75977767  1
  Ta  Ta81  1  -0.00158776  0.19917933  0.76742849  1
  Ta  Ta82  1  0.59947615  0.80028999  0.24298176  1
  Ta  Ta83  1  0.39973701  0.19751122  0.26150565  1
  Ta  Ta84  1  0.70666108  0.30867820  0.87171988  1
  Ta  Ta85  1  0.48475750  0.71288117  0.60451372  1
  Ta  Ta86  1  0.59792846  0.60137664  0.24687791  1
  Ta  Ta87  1  0.29801280  0.69576541  0.88548949  1
  Ta  Ta88  1  0.80340702  0.20946592  0.73623590  1
  Ta  Ta89  1  0.70150318  0.70327785  0.11991194  1
  Ta  Ta90  1  0.50879064  0.71257106  0.88748530  1
  Ta  Ta91  1  0.19470776  0.20031705  0.24719865  1
  Ta  Ta92  1  0.10001519  0.90086703  0.63048352  1
  Ta  Ta93  1  0.89566232  0.50162024  0.89091768  1
  Ta  Ta94  1  0.51299025  0.09686310  0.38048628  1
  Ta  Ta95  1  0.31375936  0.88308520  0.62740581  1
  Ta  Ta96  1  0.09493215  0.30033498  0.36707488  1
  Ta  Ta97  1  0.58660486  0.81640285  0.49551091  1
  Ta  Ta98  1  -0.00298905  0.20095052  0.24947504  1
  Ta  Ta99  1  -0.00205156  0.79765895  0.22871305  1
  Ta  Ta100  1  0.20997807  0.20291999  -0.00989549  1
  Ta  Ta101  1  0.31223541  0.29875874  0.64025869  1
  Ta  Ta102  1  0.29561114  0.69550089  0.34872064  1
  Ta  Ta103  1  -0.00514206  0.39913073  0.76577501  1
  Ta  Ta104  1  0.29890700  0.10267619  0.11742414  1
  Ta  Ta105  1  0.79926356  0.60342554  0.75402130  1
  Ta  Ta106  1  0.40158765  0.40522289  0.48407044  1
  Ta  Ta107  1  0.29516557  0.49471374  0.13193883  1
  Ta  Ta108  1  0.60345454  0.39847014  0.48479070  1
  Ta  Ta109  1  -0.00180796  0.39709093  0.23468963  1
  Ta  Ta110  1  0.00831270  0.00040772  0.75152023  1
  Ta  Ta111  1  0.39000883  0.60013647  0.48504185  1
  Ta  Ta112  1  0.60528728  0.40503810  0.26798062  1
  Ta  Ta113  1  0.89750163  0.69537153  0.63297959  1
  Ta  Ta114  1  0.70652807  0.50618491  0.88201328  1
  Ta  Ta115  1  0.09137864  0.29749296  0.89029807  1
  Ta  Ta116  1  0.80879425  0.00044808  0.24481278  1
  Ta  Ta117  1  0.79099552  0.00953030  0.72819938  1
  Ta  Ta118  1  0.70320978  0.50709368  0.37533882  1
  Ta  Ta119  1  0.40387265  0.79459771  0.23360116  1
  Ti  Ti120  1  0.89501702  0.30194425  0.87972797  1
  Ti  Ti121  1  0.70106386  0.90573920  0.36921668  1
  Ti  Ti122  1  0.80682338  0.80587971  0.01717241  1
  Ti  Ti123  1  0.51451059  0.07846935  0.87276824  1
  Ti  Ti124  1  0.80185759  -0.00280545  0.51035288  1
  Ti  Ti125  1  0.41606159  -0.01321886  0.74833203  1
  Ti  Ti126  1  0.80877851  0.59910192  0.50874681  1
  Ti  Ti127  1  0.60985066  -0.00962840  0.50390843  1
  Ti  Ti128  1  0.90580737  0.10638319  0.13199925  1
  Ti  Ti129  1  0.70599315  0.70755960  0.89074362  1
  Ti  Ti130  1  0.00137191  0.61001527  -0.00500346  1
  Ti  Ti131  1  0.40282144  0.80192881  0.76477126  1
  Ti  Ti132  1  0.60256288  0.40121802  0.00543205  1
  Ti  Ti133  1  0.39990946  0.39590342  0.00623140  1
  Ti  Ti134  1  0.90535914  0.50000909  0.10438664  1
  Ti  Ti135  1  0.09340989  0.69761192  0.36806235  1
  Ti  Ti136  1  0.59225726  0.59911224  0.48605224  1
  Ti  Ti137  1  0.51116135  0.50299298  0.88136688  1
  Ti  Ti138  1  0.18587608  0.60260169  0.23828111  1
  Ti  Ti139  1  -0.00363358  0.59781003  0.50775025  1
  Ti  Ti140  1  0.30832739  0.89687189  0.88827495  1
  Ti  Ti141  1  0.69806346  0.51027594  0.61426409  1
  Ti  Ti142  1  0.90583883  0.90936365  0.37186143  1
  Ti  Ti143  1  0.50280775  0.29864450  0.13117722  1
  Ti  Ti144  1  0.89011054  0.70237859  0.88703196  1
  Ti  Ti145  1  0.60241631  -0.00766204  0.25151379  1
  Ti  Ti146  1  0.90106093  0.29697526  0.36437798  1
  Ti  Ti147  1  0.59069792  0.21285169  0.26996596  1
  Ti  Ti148  1  0.69740819  0.10817097  0.61237726  1
  Ti  Ti149  1  0.68880600  0.30202007  0.14135775  1
  Ti  Ti150  1  -0.00058337  0.79696926  0.76730836  1
  Ti  Ti151  1  0.09393827  0.89518695  0.89362795  1
  Ti  Ti152  1  0.42287081  -0.00773889  0.00623038  1
  Ti  Ti153  1  0.30334062  0.88007225  0.36437319  1
  Ti  Ti154  1  0.28652775  0.30276349  0.36224660  1
  Ti  Ti155  1  0.78802030  0.79431570  0.74507926  1
  Ti  Ti156  1  0.20835259  0.39477528  -0.01448306  1
  Ti  Ti157  1  0.70871767  0.29930476  0.37130695  1
  Ti  Ti158  1  -0.02348847  -0.01016950  0.00818795  1
  Ti  Ti159  1  0.18774842  0.79244394  0.24311620  1
  Mo  Mo160  1  -0.00936527  0.79926345  -0.00754935  1
  Mo  Mo161  1  0.90780533  0.30271685  0.64454409  1
  Mo  Mo162  1  0.09824957  0.49814978  0.88775584  1
  Mo  Mo163  1  0.29915124  0.29312166  0.86254931  1
  Mo  Mo164  1  0.10001384  0.08924150  0.62374501  1
  Mo  Mo165  1  0.69431840  0.49976934  0.13648690  1
  Mo  Mo166  1  0.00166592  -0.00893233  0.51157070  1
  Mo  Mo167  1  0.70001207  0.30300217  0.62373442  1
  Mo  Mo168  1  0.19944029  0.59219902  -0.01270932  1
  Mo  Mo169  1  0.09710408  0.70077395  0.10460268  1
  Mo  Mo170  1  0.19342243  0.59734093  0.78376450  1
  Mo  Mo171  1  0.59368392  0.00936301  0.01327291  1
  Mo  Mo172  1  0.60928095  0.20216327  0.48629459  1
  Mo  Mo173  1  0.18988379  0.39418921  0.24333467  1
  Mo  Mo174  1  0.80050117  0.60642519  0.00346216  1
  Mo  Mo175  1  -0.00876939  -0.00239799  0.23676303  1
  Mo  Mo176  1  0.50338285  0.50640281  0.37653190  1
  Mo  Mo177  1  0.39240031  0.79185974  0.48526764  1
  Mo  Mo178  1  0.90176674  0.51314359  0.63659992  1
  Mo  Mo179  1  0.50331657  0.70009987  0.13116281  1
  Mo  Mo180  1  -0.00072980  0.20634988  0.48242011  1
  Mo  Mo181  1  0.49283004  0.89609329  0.62661051  1
  Mo  Mo182  1  0.69684563  0.90706732  0.62470623  1
  Mo  Mo183  1  0.49441029  0.90605183  0.86947451  1
  Mo  Mo184  1  0.09744116  0.70024863  0.89094404  1
  Mo  Mo185  1  0.50700124  0.29834145  0.38474900  1
  Mo  Mo186  1  0.51111656  0.89622420  0.35902480  1
  Mo  Mo187  1  0.80489639  0.20531738  0.24650954  1
  Mo  Mo188  1  -0.00993424  0.19834590  -0.00763395  1
  Mo  Mo189  1  0.40535025  0.39651689  0.74261007  1
  Mo  Mo190  1  0.39693945  0.60153204  0.23968788  1
  Mo  Mo191  1  0.90481374  0.29601425  0.12909387  1
  Mo  Mo192  1  0.70196757  0.90390058  0.14495634  1
  Mo  Mo193  1  0.19893653  0.79679159  -0.01703634  1
  Mo  Mo194  1  -0.00764383  0.39923671  -0.01158499  1
  Mo  Mo195  1  0.50169016  0.90685150  0.14279907  1
  Mo  Mo196  1  0.60193910  0.00456383  0.72776261  1
  Mo  Mo197  1  0.90162008  0.70234764  0.10318620  1
  Mo  Mo198  1  0.90280951  0.90353345  0.12926934  1
  Mo  Mo199  1  0.21465850  -0.00241199  -0.01044714  1
