# generated using pymatgen
data_HfZrTaTiMo
_symmetry_space_group_name_H-M   'P 1'
_cell_length_a   15.83802650
_cell_length_b   15.83338214
_cell_length_c   15.37373994
_cell_angle_alpha   90.00857519
_cell_angle_beta   90.08685801
_cell_angle_gamma   89.84001580
_symmetry_Int_Tables_number   1
_chemical_formula_structural   HfZrTaTiMo
_chemical_formula_sum   'Hf40 Zr40 Ta40 Ti40 Mo40'
_cell_volume   3855.24597605
_cell_formula_units_Z   40
loop_
 _symmetry_equiv_pos_site_id
 _symmetry_equiv_pos_as_xyz
  1  'x, y, z'
loop_
 _atom_site_type_symbol
 _atom_site_label
 _atom_site_symmetry_multiplicity
 _atom_site_fract_x
 _atom_site_fract_y
 _atom_site_fract_z
 _atom_site_occupancy
  Hf  Hf0  1  -0.00044547  0.80143313  0.50458867  1
  Hf  Hf1  1  0.19797890  0.81554926  -0.00639196  1
  Hf  Hf2  1  0.80684357  0.19031681  0.24575392  1
  Hf  Hf3  1  0.29441648  0.70752833  0.63759516  1
  Hf  Hf4  1  0.69372103  0.29868631  0.87150081  1
  Hf  Hf5  1  0.30876394  0.90753687  0.65198049  1
  Hf  Hf6  1  0.19816813  0.20632274  0.50899984  1
  Hf  Hf7  1  0.00286491  0.39041715  0.73521207  1
  Hf  Hf8  1  0.81383136  -0.00647337  0.25051736  1
  Hf  Hf9  1  -0.00364604  0.60035104  0.49833940  1
  Hf  Hf10  1  0.89928080  0.69054236  0.87869112  1
  Hf  Hf11  1  0.69884356  0.49938588  0.60079308  1
  Hf  Hf12  1  0.10668963  0.89950200  0.64965858  1
  Hf  Hf13  1  0.20032535  0.59458561  0.75421356  1
  Hf  Hf14  1  0.19671887  0.21043849  0.74754297  1
  Hf  Hf15  1  0.69756685  0.69309554  0.11911989  1
  Hf  Hf16  1  0.59579214  0.19208226  0.25854158  1
  Hf  Hf17  1  0.19746831  0.19341435  0.24353546  1
  Hf  Hf18  1  0.70870330  0.09897493  0.38685448  1
  Hf  Hf19  1  0.50653228  0.70029857  0.87886837  1
  Hf  Hf20  1  0.29254801  0.31592175  0.61717014  1
  Hf  Hf21  1  0.21265067  -0.00184010  0.50838597  1
  Hf  Hf22  1  0.10909120  0.49492004  0.61577314  1
  Hf  Hf23  1  0.80174594  0.79781765  0.23739085  1
  Hf  Hf24  1  0.71799950  0.89556702  0.88512133  1
  Hf  Hf25  1  0.91640340  0.08481493  0.11152427  1
  Hf  Hf26  1  0.80729015  0.57862110  0.25093185  1
  Hf  Hf27  1  0.29527241  0.30820298  0.12884806  1
  Hf  Hf28  1  0.40433533  0.20833805  0.24257366  1
  Hf  Hf29  1  0.30598190  0.71804794  0.86169138  1
  Hf  Hf30  1  0.69812684  0.08788368  0.61552595  1
  Hf  Hf31  1  0.29381255  0.70416192  0.13836680  1
  Hf  Hf32  1  0.79596436  0.39505394  0.01154715  1
  Hf  Hf33  1  0.09721191  0.29932913  0.37742074  1
  Hf  Hf34  1  0.50270504  0.69224142  0.12809565  1
  Hf  Hf35  1  0.79538537  0.18914237  0.74859281  1
  Hf  Hf36  1  0.00973955  -0.01237177  0.49131348  1
  Hf  Hf37  1  0.49514523  0.49907093  0.36932683  1
  Hf  Hf38  1  0.61335945  0.80010765  0.74835969  1
  Hf  Hf39  1  0.39948609  0.40204084  0.01456903  1
  Zr  Zr40  1  0.80647136  0.79127572  0.51621852  1
  Zr  Zr41  1  0.81098493  -0.01825548  0.50290616  1
  Zr  Zr42  1  0.31531926  0.11082838  0.38867012  1
  Zr  Zr43  1  0.89918957  0.28903696  0.38455634  1
  Zr  Zr44  1  0.49367197  0.28978600  0.87387799  1
  Zr  Zr45  1  0.50215266  0.09560501  0.10965302  1
  Zr  Zr46  1  0.39935991  0.81424856  0.50150952  1
  Zr  Zr47  1  0.50699267  0.49746830  0.88523636  1
  Zr  Zr48  1  -0.01141636  0.40608988  0.24745045  1
  Zr  Zr49  1  0.68921115  0.49490201  0.13641593  1
  Zr  Zr50  1  0.49524197  0.50008275  0.60553518  1
  Zr  Zr51  1  0.09669197  0.69927564  0.35298651  1
  Zr  Zr52  1  0.39330967  0.59929286  0.00380085  1
  Zr  Zr53  1  0.79665303  0.19586939  0.00415193  1
  Zr  Zr54  1  0.92798894  0.68419235  0.12920686  1
  Zr  Zr55  1  -0.00542933  0.20488976  0.75545780  1
  Zr  Zr56  1  0.50005411  0.69727948  0.62827822  1
  Zr  Zr57  1  0.39190292  0.40229841  0.75016975  1
  Zr  Zr58  1  0.61182685  0.59302821  0.75294674  1
  Zr  Zr59  1  0.58896630  0.19720248  0.48958677  1
  Zr  Zr60  1  0.40229255  0.01149217  0.23985667  1
  Zr  Zr61  1  -0.01340611  0.80902186  0.75470081  1
  Zr  Zr62  1  0.18822464  0.61567485  -0.00104411  1
  Zr  Zr63  1  0.08769243  0.50390388  0.87674106  1
  Zr  Zr64  1  0.39916529  0.81395073  0.00825184  1
  Zr  Zr65  1  0.19761524  0.80190078  0.48985108  1
  Zr  Zr66  1  0.30436598  0.90672175  0.35925961  1
  Zr  Zr67  1  0.89849546  0.08212845  0.88360326  1
  Zr  Zr68  1  0.70480049  0.29240692  0.60563678  1
  Zr  Zr69  1  0.70198939  0.89018789  0.37200150  1
  Zr  Zr70  1  0.89675275  0.70057816  0.36504434  1
  Zr  Zr71  1  0.60231835  0.79868549  0.50606920  1
  Zr  Zr72  1  0.09768660  0.09874802  0.63328045  1
  Zr  Zr73  1  0.39173001  0.61445654  0.48053955  1
  Zr  Zr74  1  0.59587900  0.39368069  0.73684421  1
  Zr  Zr75  1  0.19498827  0.81327828  0.24253171  1
  Zr  Zr76  1  0.29074889  0.30044233  0.88927971  1
  Zr  Zr77  1  0.89352777  0.49524409  0.87212754  1
  Zr  Zr78  1  0.60665399  0.00585988  0.75861525  1
  Zr  Zr79  1  0.80310105  0.39601393  0.74069739  1
  Ta  Ta80  1  0.29696263  0.50788217  0.61231389  1
  Ta  Ta81  1  0.80697779  0.59011774  0.01303005  1
  Ta  Ta82  1  0.00543203  0.19111622  0.23929600  1
  Ta  Ta83  1  0.60060067  0.80370552  0.23945912  1
  Ta  Ta84  1  0.09571845  0.30621374  0.89927659  1
  Ta  Ta85  1  0.60053595  0.20263857  0.00994200  1
  Ta  Ta86  1  0.08929029  0.52676645  0.13673152  1
  Ta  Ta87  1  0.20224834  0.00421301  -0.01342457  1
  Ta  Ta88  1  0.09627075  0.92138302  0.12058482  1
  Ta  Ta89  1  0.90377103  0.09310079  0.62119856  1
  Ta  Ta90  1  0.19240843  0.41445675  0.01540686  1
  Ta  Ta91  1  0.90124345  0.29693380  0.12616355  1
  Ta  Ta92  1  0.80030835  0.78803190  0.73844568  1
  Ta  Ta93  1  0.10548332  0.09869683  0.37787061  1
  Ta  Ta94  1  0.39912446  0.59607324  0.75281611  1
  Ta  Ta95  1  0.69590310  0.29508872  0.14204164  1
  Ta  Ta96  1  0.50053268  0.90514418  0.36252662  1
  Ta  Ta97  1  0.71100074  0.30826444  0.37330534  1
  Ta  Ta98  1  0.59800985  -0.00531258  -0.01000679  1
  Ta  Ta99  1  0.81355964  -0.02079643  0.74030550  1
  Ta  Ta100  1  0.58798190  0.19415746  0.73777545  1
  Ta  Ta101  1  0.49769079  0.71384556  0.35845961  1
  Ta  Ta102  1  0.10119771  0.69834815  0.63412342  1
  Ta  Ta103  1  0.01269323  0.79761616  -0.00494396  1
  Ta  Ta104  1  0.49469463  0.49620824  0.14403273  1
  Ta  Ta105  1  0.70008460  0.90257332  0.11594259  1
  Ta  Ta106  1  0.10051390  0.10931576  0.88547238  1
  Ta  Ta107  1  0.70709447  0.69003329  0.89005242  1
  Ta  Ta108  1  0.48462320  0.09662402  0.61320533  1
  Ta  Ta109  1  0.49466562  0.89883131  0.86570344  1
  Ta  Ta110  1  0.39024921  0.60239529  0.25954068  1
  Ta  Ta111  1  0.09711952  0.30563315  0.12093337  1
  Ta  Ta112  1  0.20514697  0.01081074  0.77285644  1
  Ta  Ta113  1  0.20111515  0.60417163  0.48522529  1
  Ta  Ta114  1  0.60616110  -0.00004163  0.25078117  1
  Ta  Ta115  1  0.59578393  0.39198284  0.01522428  1
  Ta  Ta116  1  0.50197115  0.90954739  0.64048143  1
  Ta  Ta117  1  0.60159760  0.80217055  0.00096697  1
  Ta  Ta118  1  0.59825655  0.39898025  0.48121307  1
  Ta  Ta119  1  0.90708891  0.89899525  0.10751866  1
  Ti  Ti120  1  0.69484792  0.69457117  0.37203344  1
  Ti  Ti121  1  0.29640848  0.49993649  0.88165451  1
  Ti  Ti122  1  0.29741625  0.91506006  0.12901727  1
  Ti  Ti123  1  0.50407747  0.90171733  0.12822923  1
  Ti  Ti124  1  0.39398003  0.19782537  0.73707377  1
  Ti  Ti125  1  0.69824911  0.09811189  0.88209056  1
  Ti  Ti126  1  0.30369327  0.11412499  0.88661657  1
  Ti  Ti127  1  -0.00424639  0.41207101  0.01596904  1
  Ti  Ti128  1  0.40106835  0.01674326  0.76413313  1
  Ti  Ti129  1  0.00649949  0.20076433  0.00794671  1
  Ti  Ti130  1  0.80822946  0.79260473  0.00935195  1
  Ti  Ti131  1  0.29400612  0.50646780  0.14123935  1
  Ti  Ti132  1  0.60016740  0.59987283  0.26479033  1
  Ti  Ti133  1  0.19438794  0.40023367  0.75791474  1
  Ti  Ti134  1  0.01105424  0.00292898  0.25836961  1
  Ti  Ti135  1  0.50096584  0.10609562  0.88374206  1
  Ti  Ti136  1  0.70065062  0.09035089  0.11919036  1
  Ti  Ti137  1  0.79553666  0.59569365  0.48505068  1
  Ti  Ti138  1  0.49083025  0.29892547  0.61065074  1
  Ti  Ti139  1  -0.01082635  0.59973089  0.73375224  1
  Ti  Ti140  1  0.59021647  -0.01024953  0.49735246  1
  Ti  Ti141  1  0.69986365  0.50048718  0.88657436  1
  Ti  Ti142  1  0.38881017  0.40340163  0.48654793  1
  Ti  Ti143  1  0.90367174  0.29857859  0.88794966  1
  Ti  Ti144  1  0.88777065  0.48163656  0.38762089  1
  Ti  Ti145  1  0.09748317  0.70581653  0.85689026  1
  Ti  Ti146  1  0.28865910  0.10089092  0.10959250  1
  Ti  Ti147  1  0.00195361  0.39572481  0.50708979  1
  Ti  Ti148  1  0.40224001  0.20541320  0.01339001  1
  Ti  Ti149  1  0.29589393  0.31128837  0.37143723  1
  Ti  Ti150  1  0.90304225  0.28491617  0.60287796  1
  Ti  Ti151  1  0.59374382  0.38984733  0.26027410  1
  Ti  Ti152  1  0.10036592  0.49810449  0.37531534  1
  Ti  Ti153  1  0.91154395  0.10153441  0.38640562  1
  Ti  Ti154  1  0.70580150  0.68360582  0.61944059  1
  Ti  Ti155  1  0.89023876  0.50309885  0.61677350  1
  Ti  Ti156  1  0.39580885  -0.00128179  -0.01005191  1
  Ti  Ti157  1  -0.00163628  0.81723628  0.24485796  1
  Ti  Ti158  1  0.48502276  0.29708053  0.37878005  1
  Ti  Ti159  1  0.19547777  0.40948431  0.24914418  1
  Mo  Mo160  1  0.29016403  0.49804812  0.37028241  1
  Mo  Mo161  1  0.00390833  0.60311352  -0.00802333  1
  Mo  Mo162  1  0.39539632  0.20924949  0.50545681  1
  Mo  Mo163  1  0.89767538  0.68758109  0.62896718  1
  Mo  Mo164  1  0.19717642  0.80444952  0.76346202  1
  Mo  Mo165  1  0.19764449  0.20411942  0.01024796  1
  Mo  Mo166  1  0.90918098  0.89938246  0.36013176  1
  Mo  Mo167  1  0.79679350  0.38968165  0.24393184  1
  Mo  Mo168  1  0.79612115  -0.00646096  0.01017755  1
  Mo  Mo169  1  0.19887702  0.59690518  0.25814506  1
  Mo  Mo170  1  0.60450745  0.60323078  0.47510089  1
  Mo  Mo171  1  0.69814091  0.49418345  0.37599083  1
  Mo  Mo172  1  0.30053218  0.70316326  0.35895058  1
  Mo  Mo173  1  0.69970322  0.89488152  0.63261645  1
  Mo  Mo174  1  0.30708123  0.91493630  0.86768824  1
  Mo  Mo175  1  0.30514373  0.10428870  0.63207133  1
  Mo  Mo176  1  0.79916375  0.60095375  0.74470248  1
  Mo  Mo177  1  0.40822022  -0.00062822  0.50317163  1
  Mo  Mo178  1  0.90183562  0.49488880  0.11940283  1
  Mo  Mo179  1  0.80444318  0.19026242  0.50196682  1
  Mo  Mo180  1  0.19995996  0.40953333  0.48280671  1
  Mo  Mo181  1  0.00311034  0.19070654  0.50310797  1
  Mo  Mo182  1  0.00975536  -0.01057104  -0.01743299  1
  Mo  Mo183  1  0.80409373  0.39877373  0.50475727  1
  Mo  Mo184  1  0.09706806  0.70978916  0.13476763  1
  Mo  Mo185  1  0.09538533  0.30606034  0.61146945  1
  Mo  Mo186  1  -0.00215471  0.58695124  0.27429615  1
  Mo  Mo187  1  0.10267836  0.10195826  0.10916012  1
  Mo  Mo188  1  0.40942469  0.80452146  0.74938448  1
  Mo  Mo189  1  0.90736803  0.89922806  0.63097127  1
  Mo  Mo190  1  0.40642546  0.80590287  0.23798287  1
  Mo  Mo191  1  0.60445689  0.59432712  -0.00213182  1
  Mo  Mo192  1  0.10066687  0.90686707  0.86857552  1
  Mo  Mo193  1  0.10085077  0.91026969  0.36020556  1
  Mo  Mo194  1  0.39567167  0.40241074  0.25272150  1
  Mo  Mo195  1  0.00009481  0.00278089  0.76858943  1
  Mo  Mo196  1  0.50463972  0.30381977  0.13296263  1
  Mo  Mo197  1  0.19487925  0.01310933  0.24201093  1
  Mo  Mo198  1  0.50215785  0.09191524  0.38673172  1
  Mo  Mo199  1  0.89923999  0.88922093  0.89474912  1
