# generated using pymatgen
data_HfZrTaTiMo
_symmetry_space_group_name_H-M   'P 1'
_cell_length_a   15.84388540
_cell_length_b   15.82881469
_cell_length_c   15.38556382
_cell_angle_alpha   90.02180454
_cell_angle_beta   90.01729716
_cell_angle_gamma   89.98941038
_symmetry_Int_Tables_number   1
_chemical_formula_structural   HfZrTaTiMo
_chemical_formula_sum   'Hf40 Zr40 Ta40 Ti40 Mo40'
_cell_volume   3858.54388983
_cell_formula_units_Z   40
loop_
 _symmetry_equiv_pos_site_id
 _symmetry_equiv_pos_as_xyz
  1  'x, y, z'
loop_
 _atom_site_type_symbol
 _atom_site_label
 _atom_site_symmetry_multiplicity
 _atom_site_fract_x
 _atom_site_fract_y
 _atom_site_fract_z
 _atom_site_occupancy
  Hf  Hf0  1  0.38966031  0.80234142  0.25062998  1
  Hf  Hf1  1  0.41215048  0.40823666  0.01607673  1
  Hf  Hf2  1  0.20506272  0.62028334  -0.01265620  1
  Hf  Hf3  1  0.00410561  0.40509580  0.50988625  1
  Hf  Hf4  1  0.90160816  0.70152947  0.13461529  1
  Hf  Hf5  1  0.59133331  0.79656511  0.00902818  1
  Hf  Hf6  1  -0.00120448  0.60582664  -0.00039020  1
  Hf  Hf7  1  0.40000406  0.78746685  0.74959030  1
  Hf  Hf8  1  0.69391488  0.69688400  0.87897407  1
  Hf  Hf9  1  0.79467724  0.80078829  0.26515393  1
  Hf  Hf10  1  0.19061878  0.19766138  -0.00314227  1
  Hf  Hf11  1  0.59520498  0.80040422  0.25308941  1
  Hf  Hf12  1  0.49716281  0.10180257  0.11855049  1
  Hf  Hf13  1  0.39900888  0.20126119  0.26215420  1
  Hf  Hf14  1  0.80581505  0.00298735  -0.00186716  1
  Hf  Hf15  1  0.40130183  -0.00258452  0.25742334  1
  Hf  Hf16  1  0.40859149  0.20535925  0.49413188  1
  Hf  Hf17  1  0.29747277  0.09535037  0.11865846  1
  Hf  Hf18  1  0.49640463  0.89473652  0.86999261  1
  Hf  Hf19  1  0.80791938  0.80372465  -0.00190055  1
  Hf  Hf20  1  0.29214437  0.89764735  0.39057301  1
  Hf  Hf21  1  0.70743446  0.49262389  0.87905490  1
  Hf  Hf22  1  0.28850657  0.69598457  0.13534507  1
  Hf  Hf23  1  0.59635019  0.19818390  0.74978003  1
  Hf  Hf24  1  0.08430853  0.09231993  0.36984487  1
  Hf  Hf25  1  0.69474236  0.10115232  0.13599818  1
  Hf  Hf26  1  0.00431267  0.81120864  0.51185711  1
  Hf  Hf27  1  0.89478499  0.69469368  0.62164375  1
  Hf  Hf28  1  0.49369096  0.68780297  0.37298198  1
  Hf  Hf29  1  0.39070234  0.39562508  0.74936027  1
  Hf  Hf30  1  0.39836641  0.60109025  0.76529771  1
  Hf  Hf31  1  0.61364997  0.38984839  0.00946257  1
  Hf  Hf32  1  0.79393055  0.20844548  0.00238586  1
  Hf  Hf33  1  -0.01138625  0.20934833  0.00002177  1
  Hf  Hf34  1  0.68810234  0.70144691  0.62172892  1
  Hf  Hf35  1  0.91965781  0.89734762  0.86106375  1
  Hf  Hf36  1  0.20675791  0.60282881  0.75400200  1
  Hf  Hf37  1  0.29094353  0.69198851  0.38667055  1
  Hf  Hf38  1  0.59830451  0.40030472  0.75573157  1
  Hf  Hf39  1  0.70458614  0.69594478  0.12041531  1
  Zr  Zr40  1  0.61155410  0.80362220  0.47391373  1
  Zr  Zr41  1  0.58171430  0.59112384  0.00773018  1
  Zr  Zr42  1  0.31230878  0.09916684  0.89171099  1
  Zr  Zr43  1  0.60196157  0.00156694  -0.00924808  1
  Zr  Zr44  1  0.00596270  0.19290544  0.75370836  1
  Zr  Zr45  1  0.40994176  0.80065620  0.49673366  1
  Zr  Zr46  1  0.90302122  0.09993544  0.14155711  1
  Zr  Zr47  1  0.09859524  0.49617962  0.87503755  1
  Zr  Zr48  1  0.60490581  0.59058814  0.25164295  1
  Zr  Zr49  1  0.70978950  0.09488719  0.37555110  1
  Zr  Zr50  1  0.11239463  0.50431826  0.12168363  1
  Zr  Zr51  1  0.70196297  0.89953445  0.86194133  1
  Zr  Zr52  1  0.09028899  0.72021746  0.86062819  1
  Zr  Zr53  1  0.80428063  0.82050069  0.49385351  1
  Zr  Zr54  1  0.38909533  0.78503289  -0.00360435  1
  Zr  Zr55  1  0.90224756  0.50113234  0.36133944  1
  Zr  Zr56  1  0.89712024  0.10730620  0.37472007  1
  Zr  Zr57  1  0.17544030  -0.00469010  0.50778327  1
  Zr  Zr58  1  0.18073158  0.58905186  0.49745712  1
  Zr  Zr59  1  0.49099801  0.28978547  0.88550943  1
  Zr  Zr60  1  0.20148963  -0.00849502  0.25240628  1
  Zr  Zr61  1  0.40597796  0.19377468  0.73235589  1
  Zr  Zr62  1  0.79990101  0.40897521  0.50314974  1
  Zr  Zr63  1  0.51938723  0.89579544  0.63079896  1
  Zr  Zr64  1  0.39938432  0.00751585  0.74394973  1
  Zr  Zr65  1  0.01006331  -0.00097853  0.00419103  1
  Zr  Zr66  1  0.70075706  0.50568621  0.62931494  1
  Zr  Zr67  1  0.29709423  0.30142489  0.12284219  1
  Zr  Zr68  1  0.30517641  0.90226095  0.61590105  1
  Zr  Zr69  1  0.90420218  0.49817935  0.13359957  1
  Zr  Zr70  1  0.91016395  0.30435109  0.36739351  1
  Zr  Zr71  1  0.11041403  0.30857565  0.63718613  1
  Zr  Zr72  1  0.21163367  0.19925353  0.75371724  1
  Zr  Zr73  1  0.09442900  0.31558191  0.87479216  1
  Zr  Zr74  1  0.69788513  0.30667278  0.36880676  1
  Zr  Zr75  1  0.69814595  0.09312048  0.62141345  1
  Zr  Zr76  1  0.80244345  0.79342927  0.74795226  1
  Zr  Zr77  1  0.91275649  0.91930474  0.35767092  1
  Zr  Zr78  1  0.49609343  0.50548719  0.61342805  1
  Zr  Zr79  1  0.29309001  0.49316143  0.61218226  1
  Ta  Ta80  1  0.20808580  0.40288107  0.25859322  1
  Ta  Ta81  1  0.89662439  0.10674860  0.62947555  1
  Ta  Ta82  1  0.19740340  0.00735419  0.73609439  1
  Ta  Ta83  1  0.09286639  0.49359760  0.36052261  1
  Ta  Ta84  1  0.90289627  0.89986265  0.13842223  1
  Ta  Ta85  1  0.60692181  0.58750964  0.47719012  1
  Ta  Ta86  1  0.29859627  0.49441141  0.89107096  1
  Ta  Ta87  1  0.70224693  0.90351485  0.13355365  1
  Ta  Ta88  1  0.00712331  0.80175755  0.01474936  1
  Ta  Ta89  1  0.90013167  0.30303891  0.63537617  1
  Ta  Ta90  1  0.81119730  0.38903834  0.00902625  1
  Ta  Ta91  1  0.60041056  0.20430775  0.50012874  1
  Ta  Ta92  1  0.50605839  0.29708004  0.13543225  1
  Ta  Ta93  1  0.70806179  0.10988657  0.86287180  1
  Ta  Ta94  1  0.09619470  0.69527172  0.63390288  1
  Ta  Ta95  1  0.19095576  0.20486663  0.48738723  1
  Ta  Ta96  1  0.70232476  0.29959947  0.63083513  1
  Ta  Ta97  1  0.29932317  0.30268205  0.60533090  1
  Ta  Ta98  1  0.19791988  0.20315766  0.26418088  1
  Ta  Ta99  1  0.59078504  0.60756496  0.75931013  1
  Ta  Ta100  1  0.60488370  0.20139065  -0.00694161  1
  Ta  Ta101  1  0.20488179  0.80363756  0.73578185  1
  Ta  Ta102  1  0.50143737  0.47720828  0.36258492  1
  Ta  Ta103  1  0.18905252  0.79550034  0.51354253  1
  Ta  Ta104  1  -0.01277277  0.59541463  0.74978081  1
  Ta  Ta105  1  0.30303416  0.30560797  0.37777075  1
  Ta  Ta106  1  0.50767139  0.09789195  0.38168196  1
  Ta  Ta107  1  0.79582010  0.60681089  0.48222066  1
  Ta  Ta108  1  0.10329680  0.10477237  0.13147028  1
  Ta  Ta109  1  -0.01304703  -0.00112710  0.52189909  1
  Ta  Ta110  1  0.38761710  0.58007555  0.26100697  1
  Ta  Ta111  1  0.29769564  0.09919902  0.38869749  1
  Ta  Ta112  1  0.29572705  0.10552970  0.60161813  1
  Ta  Ta113  1  0.29615852  0.30845126  0.89321840  1
  Ta  Ta114  1  0.30488469  0.69009500  0.60913316  1
  Ta  Ta115  1  0.49541605  0.90031215  0.12775287  1
  Ta  Ta116  1  0.59469719  0.00939738  0.75804054  1
  Ta  Ta117  1  0.09807244  0.30770047  0.12778068  1
  Ta  Ta118  1  0.80296805  0.20709420  0.51075318  1
  Ta  Ta119  1  0.01174130  0.61242941  0.24999547  1
  Ti  Ti120  1  0.80619875  0.40362197  0.74616546  1
  Ti  Ti121  1  0.09444317  0.49840027  0.64508295  1
  Ti  Ti122  1  0.49731695  0.49915926  0.87821527  1
  Ti  Ti123  1  0.10497875  0.08664296  0.87909166  1
  Ti  Ti124  1  0.10715599  0.90476122  0.86342746  1
  Ti  Ti125  1  0.48421354  0.68388460  0.13495255  1
  Ti  Ti126  1  0.09144923  0.70662871  0.37883291  1
  Ti  Ti127  1  0.80088656  0.59334313  0.75622907  1
  Ti  Ti128  1  0.80549805  0.59341805  -0.00400514  1
  Ti  Ti129  1  0.40461102  0.40013938  0.48784452  1
  Ti  Ti130  1  0.39572644  -0.01398645  0.00432941  1
  Ti  Ti131  1  0.90116397  0.69864280  0.87277252  1
  Ti  Ti132  1  0.70367344  0.90146364  0.63555886  1
  Ti  Ti133  1  0.50105004  0.68943963  0.61032618  1
  Ti  Ti134  1  0.89121814  0.30251153  0.85970543  1
  Ti  Ti135  1  0.79281783  0.39914436  0.23862209  1
  Ti  Ti136  1  0.19236392  0.39486595  0.47995349  1
  Ti  Ti137  1  0.79463843  0.60194513  0.26480961  1
  Ti  Ti138  1  0.41488316  0.00189423  0.49775644  1
  Ti  Ti139  1  0.19547754  0.81472877  0.00538881  1
  Ti  Ti140  1  0.90792412  0.70410694  0.37445303  1
  Ti  Ti141  1  0.00829138  0.00035410  0.73262249  1
  Ti  Ti142  1  0.10109594  0.89883940  0.13482265  1
  Ti  Ti143  1  0.59954292  0.39539485  0.49612954  1
  Ti  Ti144  1  0.28830439  0.90142609  0.87347309  1
  Ti  Ti145  1  0.00435124  0.20194532  0.50997692  1
  Ti  Ti146  1  0.19788040  0.59742650  0.26137143  1
  Ti  Ti147  1  -0.00607271  0.59667355  0.50160415  1
  Ti  Ti148  1  0.59727341  0.20367549  0.25976942  1
  Ti  Ti149  1  0.90718245  0.48563354  0.88003805  1
  Ti  Ti150  1  0.18638064  0.79605036  0.25482961  1
  Ti  Ti151  1  0.79901303  0.21005377  0.24173112  1
  Ti  Ti152  1  0.60719762  -0.00779723  0.48793275  1
  Ti  Ti153  1  0.00672627  0.21082824  0.24473562  1
  Ti  Ti154  1  0.70508499  0.49784442  0.12329259  1
  Ti  Ti155  1  0.80598151  0.00412395  0.74562306  1
  Ti  Ti156  1  0.30384260  0.50501554  0.11806274  1
  Ti  Ti157  1  0.50278958  0.30419497  0.62034443  1
  Ti  Ti158  1  0.59865311  -0.00590600  0.25852961  1
  Ti  Ti159  1  0.89998885  0.10052215  0.86436992  1
  Mo  Mo160  1  0.69938461  0.29710324  0.13827241  1
  Mo  Mo161  1  0.00749364  0.40124640  0.23810777  1
  Mo  Mo162  1  0.79632639  0.00155230  0.23556288  1
  Mo  Mo163  1  0.49987029  0.90745053  0.36474901  1
  Mo  Mo164  1  0.59556005  0.79556370  0.74680807  1
  Mo  Mo165  1  0.39723694  0.59874905  -0.00607318  1
  Mo  Mo166  1  0.80182339  0.00226425  0.51732225  1
  Mo  Mo167  1  0.10035518  0.29993894  0.36685341  1
  Mo  Mo168  1  0.49935557  0.69479748  0.87602216  1
  Mo  Mo169  1  0.50464277  0.09697348  0.89214968  1
  Mo  Mo170  1  0.80035998  0.20355575  0.74600295  1
  Mo  Mo171  1  0.39749147  0.39961260  0.24417610  1
  Mo  Mo172  1  0.89628668  0.90722906  0.64090612  1
  Mo  Mo173  1  0.50582751  0.09687188  0.59988774  1
  Mo  Mo174  1  0.20903996  0.40237328  0.75507470  1
  Mo  Mo175  1  -0.00936862  0.40687618  0.73966106  1
  Mo  Mo176  1  0.70398435  0.91097019  0.35882527  1
  Mo  Mo177  1  0.90128648  0.30185726  0.13784120  1
  Mo  Mo178  1  0.20186213  0.40341275  0.00781271  1
  Mo  Mo179  1  0.29764533  0.49347593  0.38389107  1
  Mo  Mo180  1  0.40481326  0.20105196  0.01190991  1
  Mo  Mo181  1  0.19892778  -0.00971298  0.00696448  1
  Mo  Mo182  1  0.09762974  0.89812915  0.64312788  1
  Mo  Mo183  1  0.49414021  0.49607740  0.14306738  1
  Mo  Mo184  1  -0.00682196  0.39706762  0.01351116  1
  Mo  Mo185  1  0.90000508  0.50549466  0.62668285  1
  Mo  Mo186  1  0.70885282  0.30001559  0.86112687  1
  Mo  Mo187  1  0.29555755  0.89759708  0.11833513  1
  Mo  Mo188  1  0.70076366  0.49557110  0.36899977  1
  Mo  Mo189  1  0.09731767  0.10531944  0.61601652  1
  Mo  Mo190  1  0.10198852  0.70671784  0.12938468  1
  Mo  Mo191  1  0.70458498  0.69792540  0.37513278  1
  Mo  Mo192  1  0.60295760  0.39686395  0.23262879  1
  Mo  Mo193  1  0.29200665  0.71059609  0.87220295  1
  Mo  Mo194  1  0.09544634  0.89014761  0.36876749  1
  Mo  Mo195  1  0.00092507  0.79861314  0.73538875  1
  Mo  Mo196  1  0.50375722  0.29950804  0.36565860  1
  Mo  Mo197  1  0.00605381  0.79951312  0.24638118  1
  Mo  Mo198  1  0.40492640  0.58857426  0.48158817  1
  Mo  Mo199  1  0.00763618  0.00302162  0.23533760  1
