# generated using pymatgen
data_HfZrTaTiMo
_symmetry_space_group_name_H-M   'P 1'
_cell_length_a   15.82675600
_cell_length_b   15.83512258
_cell_length_c   15.38864530
_cell_angle_alpha   89.97112295
_cell_angle_beta   90.00876575
_cell_angle_gamma   89.95909607
_symmetry_Int_Tables_number   1
_chemical_formula_structural   HfZrTaTiMo
_chemical_formula_sum   'Hf40 Zr40 Ta40 Ti40 Mo40'
_cell_volume   3856.67954986
_cell_formula_units_Z   40
loop_
 _symmetry_equiv_pos_site_id
 _symmetry_equiv_pos_as_xyz
  1  'x, y, z'
loop_
 _atom_site_type_symbol
 _atom_site_label
 _atom_site_symmetry_multiplicity
 _atom_site_fract_x
 _atom_site_fract_y
 _atom_site_fract_z
 _atom_site_occupancy
  Hf  Hf0  1  0.50299556  0.09940254  0.87336372  1
  Hf  Hf1  1  0.19274857  0.19479902  0.51512781  1
  Hf  Hf2  1  0.40593353  0.79664251  0.76188881  1
  Hf  Hf3  1  0.30456699  0.70683223  0.62001742  1
  Hf  Hf4  1  0.78946782  0.20535162  0.76393481  1
  Hf  Hf5  1  0.00393113  0.80008871  0.25603860  1
  Hf  Hf6  1  0.00007904  0.00548261  0.24438155  1
  Hf  Hf7  1  0.09906313  0.90066146  0.11209259  1
  Hf  Hf8  1  0.29371605  0.30021396  0.85835681  1
  Hf  Hf9  1  0.70099304  0.70857505  0.37772199  1
  Hf  Hf10  1  0.19967077  0.18516893  0.23300918  1
  Hf  Hf11  1  0.38031477  -0.00782301  0.49867122  1
  Hf  Hf12  1  0.79899053  0.79826502  0.00701367  1
  Hf  Hf13  1  0.39971568  0.80670174  0.25776844  1
  Hf  Hf14  1  0.29860034  0.27960674  0.36831008  1
  Hf  Hf15  1  0.60782494  0.39533236  -0.00607568  1
  Hf  Hf16  1  0.48692096  0.10268752  0.36727693  1
  Hf  Hf17  1  0.21245644  0.81538322  0.49373854  1
  Hf  Hf18  1  0.39681643  0.20103549  -0.00401451  1
  Hf  Hf19  1  0.62075448  0.58895321  0.50086779  1
  Hf  Hf20  1  0.70024096  0.30338630  0.38607222  1
  Hf  Hf21  1  0.80252109  0.20340481  0.25574606  1
  Hf  Hf22  1  0.90338030  0.31467719  0.11620443  1
  Hf  Hf23  1  0.81049135  0.01287834  0.50947418  1
  Hf  Hf24  1  -0.00712642  0.20753162  0.26530965  1
  Hf  Hf25  1  0.60589728  0.59825737  0.73350348  1
  Hf  Hf26  1  0.30255197  0.49497497  0.13760779  1
  Hf  Hf27  1  0.81609444  0.81500242  0.73969963  1
  Hf  Hf28  1  0.49483914  0.90012458  0.61854873  1
  Hf  Hf29  1  -0.01319287  0.18619745  0.50117961  1
  Hf  Hf30  1  0.90353334  0.10741904  0.11007536  1
  Hf  Hf31  1  0.30240002  0.69998516  0.12977941  1
  Hf  Hf32  1  0.59579445  0.80452857  0.24908552  1
  Hf  Hf33  1  0.39840538  0.80329412  -0.00498114  1
  Hf  Hf34  1  0.29018620  0.09342953  0.87304539  1
  Hf  Hf35  1  0.61047070  0.80989808  0.00659871  1
  Hf  Hf36  1  0.79144758  0.00523843  0.23931437  1
  Hf  Hf37  1  0.89214443  0.08304654  0.88026567  1
  Hf  Hf38  1  0.69311049  0.11456983  0.62158824  1
  Hf  Hf39  1  0.40579227  0.39326597  0.26172181  1
  Zr  Zr40  1  0.00877075  0.59975051  0.26203162  1
  Zr  Zr41  1  0.29296064  0.49448634  0.38317602  1
  Zr  Zr42  1  0.51289116  0.69456309  0.87914881  1
  Zr  Zr43  1  -0.00679581  0.19457830  0.74906947  1
  Zr  Zr44  1  0.08824611  0.87863643  0.63798359  1
  Zr  Zr45  1  0.40460358  0.59599632  0.49896511  1
  Zr  Zr46  1  0.80883823  0.80481793  0.50396464  1
  Zr  Zr47  1  0.28970330  0.68849980  0.87030512  1
  Zr  Zr48  1  0.10007241  0.30702185  0.87048757  1
  Zr  Zr49  1  0.39671698  0.58955686  -0.01006435  1
  Zr  Zr50  1  -0.00308315  0.60162722  0.00144829  1
  Zr  Zr51  1  0.11068610  0.09597166  0.37104831  1
  Zr  Zr52  1  0.39554548  0.19079448  0.50947389  1
  Zr  Zr53  1  0.51005017  0.50216973  0.12762850  1
  Zr  Zr54  1  0.60745414  0.40000035  0.25749013  1
  Zr  Zr55  1  0.30316472  0.30338933  0.63864061  1
  Zr  Zr56  1  0.70835529  0.68753279  0.14030155  1
  Zr  Zr57  1  0.49041085  0.09644557  0.11617037  1
  Zr  Zr58  1  0.10696528  0.50139868  0.87193176  1
  Zr  Zr59  1  0.78598625  0.20863744  -0.00832237  1
  Zr  Zr60  1  0.79834104  0.41368533  -0.01491159  1
  Zr  Zr61  1  0.00437809  0.60444396  0.74494319  1
  Zr  Zr62  1  0.40244685  0.39607739  -0.01058433  1
  Zr  Zr63  1  0.19766365  0.00217349  0.52149455  1
  Zr  Zr64  1  0.00042618  -0.00467108  0.50751095  1
  Zr  Zr65  1  0.68050884  0.31554981  0.62596048  1
  Zr  Zr66  1  0.69404818  0.10011379  0.38792962  1
  Zr  Zr67  1  0.50405136  0.69333074  0.11919194  1
  Zr  Zr68  1  0.10729140  0.69310797  0.61513406  1
  Zr  Zr69  1  0.08885113  0.30383012  0.12105250  1
  Zr  Zr70  1  0.89752354  0.50073673  0.14248747  1
  Zr  Zr71  1  0.88109990  0.29785663  0.61561521  1
  Zr  Zr72  1  0.60083973  0.19509019  0.24190787  1
  Zr  Zr73  1  0.09308598  0.90732393  0.88682287  1
  Zr  Zr74  1  0.70939683  0.70290806  0.86403589  1
  Zr  Zr75  1  0.51125412  0.47490860  0.62048234  1
  Zr  Zr76  1  -0.00093157  0.39677538  0.49661589  1
  Zr  Zr77  1  0.19215506  0.18868321  0.00549371  1
  Zr  Zr78  1  0.50814308  0.70870083  0.60843354  1
  Zr  Zr79  1  0.19844507  0.60044247  0.25216666  1
  Ta  Ta80  1  0.81054041  0.60261123  0.50143908  1
  Ta  Ta81  1  0.39877876  -0.00825515  0.75665172  1
  Ta  Ta82  1  0.49824162  0.29870257  0.12730348  1
  Ta  Ta83  1  -0.01797577  -0.00890676  0.74071745  1
  Ta  Ta84  1  0.00013192  0.59974022  0.48890263  1
  Ta  Ta85  1  0.69552522  0.90607343  0.38111492  1
  Ta  Ta86  1  0.78641624  0.41879443  0.49607480  1
  Ta  Ta87  1  0.89610333  0.49535995  0.36901516  1
  Ta  Ta88  1  0.20035114  0.79502937  0.00315731  1
  Ta  Ta89  1  0.30371060  0.29636421  0.13243592  1
  Ta  Ta90  1  0.29401541  0.90172296  0.87976616  1
  Ta  Ta91  1  0.18904523  -0.00317276  0.74479992  1
  Ta  Ta92  1  0.80158881  0.60107786  -0.00525475  1
  Ta  Ta93  1  0.89537869  0.90687315  0.36868093  1
  Ta  Ta94  1  0.20097267  0.39568209  0.50456334  1
  Ta  Ta95  1  0.09322149  0.49102792  0.11991667  1
  Ta  Ta96  1  0.59475820  -0.00711353  0.24104188  1
  Ta  Ta97  1  0.50162994  0.89907394  0.38690376  1
  Ta  Ta98  1  -0.00385849  0.40331907  0.74017314  1
  Ta  Ta99  1  0.38806818  -0.00054773  0.25056436  1
  Ta  Ta100  1  0.20491663  0.40098423  0.00835739  1
  Ta  Ta101  1  0.41096785  0.60520904  0.27113222  1
  Ta  Ta102  1  0.20266362  0.80534205  0.25033249  1
  Ta  Ta103  1  0.19838896  0.59552629  0.00985565  1
  Ta  Ta104  1  0.90530940  0.70582762  0.87268649  1
  Ta  Ta105  1  0.00218369  0.79860100  0.47728309  1
  Ta  Ta106  1  0.30354368  0.70479271  0.38232239  1
  Ta  Ta107  1  0.80001707  0.40802984  0.75303776  1
  Ta  Ta108  1  0.90068704  0.50422024  0.62108088  1
  Ta  Ta109  1  0.50857526  0.49860102  0.86584999  1
  Ta  Ta110  1  0.70712504  0.91467898  0.86489476  1
  Ta  Ta111  1  0.90022685  0.89952337  0.89408593  1
  Ta  Ta112  1  0.51001964  0.90773751  0.87920181  1
  Ta  Ta113  1  0.60714740  0.80962269  0.74756420  1
  Ta  Ta114  1  0.40267364  0.59116936  0.74251050  1
  Ta  Ta115  1  0.30301086  0.09861312  0.65058182  1
  Ta  Ta116  1  0.40334589  0.40413061  0.75623363  1
  Ta  Ta117  1  0.90311560  0.89841864  0.11450473  1
  Ta  Ta118  1  0.69624767  0.90768332  0.62141924  1
  Ta  Ta119  1  0.50840708  0.49475926  0.38414919  1
  Ti  Ti120  1  0.10120744  0.30369985  0.37663827  1
  Ti  Ti121  1  0.10706540  0.90354147  0.36746575  1
  Ti  Ti122  1  0.60329376  0.20450533  0.00282532  1
  Ti  Ti123  1  0.60718733  0.00103199  0.01286562  1
  Ti  Ti124  1  0.20654218  -0.00346403  0.22809485  1
  Ti  Ti125  1  0.78537600  -0.00284249  0.01697864  1
  Ti  Ti126  1  0.58067014  0.21310007  0.49634819  1
  Ti  Ti127  1  0.49584953  0.10268300  0.63926786  1
  Ti  Ti128  1  0.50987655  0.29487803  0.85977329  1
  Ti  Ti129  1  0.10468672  0.49841498  0.61445380  1
  Ti  Ti130  1  0.70206770  0.50554454  0.85926359  1
  Ti  Ti131  1  0.20008207  0.79975590  0.75818001  1
  Ti  Ti132  1  0.11437841  0.69442479  0.38731707  1
  Ti  Ti133  1  0.59990694  0.60127230  0.26856518  1
  Ti  Ti134  1  0.18711537  0.19247578  0.74653205  1
  Ti  Ti135  1  0.69089108  0.09665253  0.87472604  1
  Ti  Ti136  1  0.49919698  0.28774353  0.64918323  1
  Ti  Ti137  1  0.80053110  0.80920113  0.24640944  1
  Ti  Ti138  1  0.91713673  0.71010358  0.62279744  1
  Ti  Ti139  1  0.71365142  0.50086276  0.14400248  1
  Ti  Ti140  1  0.29391147  0.49295887  0.86382624  1
  Ti  Ti141  1  0.48834934  0.90577496  0.11528799  1
  Ti  Ti142  1  0.20665867  0.59217664  0.73710188  1
  Ti  Ti143  1  0.09843538  0.70109466  0.12086021  1
  Ti  Ti144  1  0.59051015  0.00556876  0.50461386  1
  Ti  Ti145  1  0.09824549  0.30384181  0.63222232  1
  Ti  Ti146  1  0.70596943  0.70926374  0.62082258  1
  Ti  Ti147  1  0.09739023  0.70532135  0.87987941  1
  Ti  Ti148  1  0.61747661  0.59143619  -0.00182728  1
  Ti  Ti149  1  0.30105772  0.49551550  0.61780012  1
  Ti  Ti150  1  0.89691890  0.70144781  0.36779640  1
  Ti  Ti151  1  0.41107908  0.38016462  0.49126438  1
  Ti  Ti152  1  0.90184245  0.70048286  0.13152858  1
  Ti  Ti153  1  0.18744790  0.39735676  0.25288057  1
  Ti  Ti154  1  0.60262114  0.00138005  0.74404855  1
  Ti  Ti155  1  0.90319683  0.50657451  0.86470273  1
  Ti  Ti156  1  0.70591441  0.30776046  0.13195452  1
  Ti  Ti157  1  0.00407149  0.19453967  -0.01766526  1
  Ti  Ti158  1  0.80656510  0.60491704  0.73444107  1
  Ti  Ti159  1  0.90341112  0.31215081  0.87788367  1
  Mo  Mo160  1  0.89659764  0.09633084  0.36696822  1
  Mo  Mo161  1  0.10105346  0.49440374  0.38749188  1
  Mo  Mo162  1  0.59678701  0.19490989  0.75421948  1
  Mo  Mo163  1  0.69479369  0.30289990  0.86668742  1
  Mo  Mo164  1  0.29572959  0.09227405  0.36415524  1
  Mo  Mo165  1  0.80701943  0.39701005  0.26355168  1
  Mo  Mo166  1  0.60602397  0.80918569  0.50033214  1
  Mo  Mo167  1  0.90132784  0.89500373  0.61638881  1
  Mo  Mo168  1  0.19788585  0.40863570  0.72646914  1
  Mo  Mo169  1  -0.00032543  0.00787440  0.00721125  1
  Mo  Mo170  1  0.00605753  0.39817827  0.27284770  1
  Mo  Mo171  1  0.59655603  0.39854822  0.48808676  1
  Mo  Mo172  1  -0.00307624  0.79550889  0.00134793  1
  Mo  Mo173  1  0.30094719  0.90031131  0.11541644  1
  Mo  Mo174  1  0.71314584  0.50411273  0.63601714  1
  Mo  Mo175  1  0.09438734  0.09989395  0.64267977  1
  Mo  Mo176  1  0.40001885  -0.00556229  -0.01691415  1
  Mo  Mo177  1  0.20391707  -0.00257236  0.00993374  1
  Mo  Mo178  1  0.60399836  0.39781994  0.76708522  1
  Mo  Mo179  1  0.00027209  0.79913888  0.76731724  1
  Mo  Mo180  1  0.79474905  0.00226647  0.74003682  1
  Mo  Mo181  1  0.29963499  0.08871329  0.11123160  1
  Mo  Mo182  1  0.69839619  0.90130794  0.13613523  1
  Mo  Mo183  1  0.50301751  0.70195676  0.38624303  1
  Mo  Mo184  1  0.40084650  0.80393724  0.48391497  1
  Mo  Mo185  1  0.20117033  0.59602810  0.50170004  1
  Mo  Mo186  1  0.09249033  0.09360771  0.86255429  1
  Mo  Mo187  1  0.49668494  0.29378984  0.37124651  1
  Mo  Mo188  1  0.39478865  0.19431181  0.23417943  1
  Mo  Mo189  1  0.29345837  0.90594694  0.36012772  1
  Mo  Mo190  1  0.00102526  0.40314391  -0.01723600  1
  Mo  Mo191  1  0.70853772  0.50776221  0.36244796  1
  Mo  Mo192  1  0.79842026  0.20479220  0.49583383  1
  Mo  Mo193  1  0.40104341  0.19538359  0.75681286  1
  Mo  Mo194  1  0.89322483  0.30067257  0.39140993  1
  Mo  Mo195  1  0.89030115  0.09825432  0.64345311  1
  Mo  Mo196  1  0.29967739  0.89561404  0.65200651  1
  Mo  Mo197  1  0.09333579  0.09763796  0.12241373  1
  Mo  Mo198  1  0.69453600  0.10271197  0.11448135  1
  Mo  Mo199  1  0.80343874  0.60660265  0.26556096  1
