# generated using pymatgen
data_HfZrTaTiMo
_symmetry_space_group_name_H-M   'P 1'
_cell_length_a   15.83404054
_cell_length_b   15.82275520
_cell_length_c   15.41662839
_cell_angle_alpha   90.03602719
_cell_angle_beta   90.04134093
_cell_angle_gamma   89.88937813
_symmetry_Int_Tables_number   1
_chemical_formula_structural   HfZrTaTiMo
_chemical_formula_sum   'Hf40 Zr40 Ta40 Ti40 Mo40'
_cell_volume   3862.44454855
_cell_formula_units_Z   40
loop_
 _symmetry_equiv_pos_site_id
 _symmetry_equiv_pos_as_xyz
  1  'x, y, z'
loop_
 _atom_site_type_symbol
 _atom_site_label
 _atom_site_symmetry_multiplicity
 _atom_site_fract_x
 _atom_site_fract_y
 _atom_site_fract_z
 _atom_site_occupancy
  Hf  Hf0  1  0.28047942  0.30624688  0.62389341  1
  Hf  Hf1  1  0.89325062  0.08823636  0.37982012  1
  Hf  Hf2  1  0.68639754  0.07855757  0.38408120  1
  Hf  Hf3  1  0.19290979  0.40489258  0.24047347  1
  Hf  Hf4  1  0.18166966  0.17970487  0.00478804  1
  Hf  Hf5  1  0.20791564  0.81344956  0.74905805  1
  Hf  Hf6  1  0.50204701  0.28873448  0.36541861  1
  Hf  Hf7  1  0.38938330  0.40170743  0.50207115  1
  Hf  Hf8  1  0.90315006  0.50690367  0.37918118  1
  Hf  Hf9  1  0.09613905  0.28641436  0.13128276  1
  Hf  Hf10  1  0.78752037  0.82994991  0.25548845  1
  Hf  Hf11  1  0.39555186  0.19862737  0.49849433  1
  Hf  Hf12  1  0.81959459  0.38837851  0.74793666  1
  Hf  Hf13  1  0.90976659  0.69590058  0.86791416  1
  Hf  Hf14  1  0.49929664  0.29441502  0.64026760  1
  Hf  Hf15  1  0.20052935  0.00711768  0.75312754  1
  Hf  Hf16  1  0.78605040  0.21047050  0.49459214  1
  Hf  Hf17  1  0.58887604  0.00404323  -0.00462422  1
  Hf  Hf18  1  0.29293677  0.29807004  0.35982316  1
  Hf  Hf19  1  0.53773111  0.90395497  0.37840957  1
  Hf  Hf20  1  0.60535244  0.59706869  0.74692201  1
  Hf  Hf21  1  0.40603420  0.60546950  0.50360784  1
  Hf  Hf22  1  0.89669954  0.30026655  0.36721961  1
  Hf  Hf23  1  0.09807917  0.91132696  0.13510895  1
  Hf  Hf24  1  0.79426375  0.40819654  0.24584080  1
  Hf  Hf25  1  0.00289982  0.80465523  -0.00289150  1
  Hf  Hf26  1  0.70009021  0.71972785  0.39666610  1
  Hf  Hf27  1  0.40581306  0.39664276  0.23940462  1
  Hf  Hf28  1  0.80510003  0.80566615  0.75371470  1
  Hf  Hf29  1  0.59542091  0.61982984  0.26583690  1
  Hf  Hf30  1  0.00592692  0.60203052  0.50421663  1
  Hf  Hf31  1  0.00554359  0.38741964  0.49831539  1
  Hf  Hf32  1  0.80132850  0.61423979  0.25771171  1
  Hf  Hf33  1  0.58770612  0.39649128  -0.02018466  1
  Hf  Hf34  1  0.39622905  0.59452698  0.74068299  1
  Hf  Hf35  1  0.60315743  0.59890241  -0.02402656  1
  Hf  Hf36  1  0.59631645  0.19173045  0.76744946  1
  Hf  Hf37  1  0.69057231  0.71310233  0.12102565  1
  Hf  Hf38  1  0.39694002  0.59344750  -0.01560066  1
  Hf  Hf39  1  0.28853878  0.10483849  0.61796728  1
  Zr  Zr40  1  0.51826461  0.88556619  0.13303351  1
  Zr  Zr41  1  0.09964257  0.70103391  0.86334201  1
  Zr  Zr42  1  0.19819529  0.60215474  0.00324677  1
  Zr  Zr43  1  0.41896067  0.00183711  0.25181541  1
  Zr  Zr44  1  0.89950706  0.11251022  0.61791043  1
  Zr  Zr45  1  0.00543970  0.58454158  0.73560001  1
  Zr  Zr46  1  0.09785627  0.70739141  0.62765481  1
  Zr  Zr47  1  0.39974164  0.39664402  0.00015813  1
  Zr  Zr48  1  0.30535226  0.71046205  0.61892737  1
  Zr  Zr49  1  0.48814394  0.70957192  0.85412054  1
  Zr  Zr50  1  0.51300235  0.49061429  0.62806054  1
  Zr  Zr51  1  0.80690723  0.59139093  0.74088346  1
  Zr  Zr52  1  0.68750245  0.29857856  0.11403516  1
  Zr  Zr53  1  0.09986706  0.90648266  0.61359172  1
  Zr  Zr54  1  0.88856954  0.70922693  0.11774461  1
  Zr  Zr55  1  0.08305564  0.30191271  0.89341722  1
  Zr  Zr56  1  -0.00023266  0.00714676  0.75654935  1
  Zr  Zr57  1  0.59213720  0.18680215  0.50657834  1
  Zr  Zr58  1  0.50848268  0.50561027  0.13061822  1
  Zr  Zr59  1  0.79860728  0.41080757  -0.00156582  1
  Zr  Zr60  1  0.19906593  0.79975933  0.48609065  1
  Zr  Zr61  1  0.42108752  0.78772972  0.26823851  1
  Zr  Zr62  1  0.30309714  0.08986407  0.88921499  1
  Zr  Zr63  1  0.10203485  0.70436681  0.13950235  1
  Zr  Zr64  1  0.50348803  0.50283885  0.37588911  1
  Zr  Zr65  1  0.20266625  0.39680508  0.77294611  1
  Zr  Zr66  1  0.41683600  0.00499097  0.49561624  1
  Zr  Zr67  1  0.61232230  0.38584644  0.49417941  1
  Zr  Zr68  1  0.39972304  0.39964347  0.77137230  1
  Zr  Zr69  1  0.60189384  0.79957417  -0.02730449  1
  Zr  Zr70  1  0.88972036  0.28957838  0.11615806  1
  Zr  Zr71  1  0.29378684  0.08706765  0.12945614  1
  Zr  Zr72  1  0.20624922  0.80348586  0.00327066  1
  Zr  Zr73  1  -0.01410979  0.80376802  0.25737618  1
  Zr  Zr74  1  0.78713110  0.18665631  0.25239768  1
  Zr  Zr75  1  -0.02175153  0.20795198  0.76467147  1
  Zr  Zr76  1  0.12609397  0.47993686  0.61217260  1
  Zr  Zr77  1  0.41999598  0.19172710  0.01108232  1
  Zr  Zr78  1  0.20003704  0.40748185  0.00992788  1
  Zr  Zr79  1  0.39953206  0.80240724  0.00343826  1
  Ta  Ta80  1  0.69981670  0.51568740  0.12485856  1
  Ta  Ta81  1  0.30401537  0.51312452  0.14015926  1
  Ta  Ta82  1  0.09667614  0.69625019  0.37055973  1
  Ta  Ta83  1  0.80101447  0.01562082  0.75702003  1
  Ta  Ta84  1  0.29745521  0.28994832  0.12886634  1
  Ta  Ta85  1  0.70324688  0.29825330  0.64719690  1
  Ta  Ta86  1  0.21014184  0.58957316  0.74923735  1
  Ta  Ta87  1  -0.00750719  0.18739315  0.24179161  1
  Ta  Ta88  1  -0.00680727  0.40775091  0.23627002  1
  Ta  Ta89  1  0.79338202  0.00126018  0.52219456  1
  Ta  Ta90  1  0.30541862  0.90231133  0.37870179  1
  Ta  Ta91  1  0.90511786  0.89831463  0.62420742  1
  Ta  Ta92  1  0.59680896  0.80174158  0.74349272  1
  Ta  Ta93  1  0.20450574  0.80468166  0.26344851  1
  Ta  Ta94  1  0.70712890  0.29488822  0.86964589  1
  Ta  Ta95  1  0.39325495  -0.00689370  0.73834721  1
  Ta  Ta96  1  -0.00517223  0.59256657  0.01324774  1
  Ta  Ta97  1  0.09078357  0.90448445  0.37467900  1
  Ta  Ta98  1  0.69934456  0.90647064  0.63688894  1
  Ta  Ta99  1  0.30845433  0.69791815  0.14698443  1
  Ta  Ta100  1  0.09312058  0.29459129  0.35469661  1
  Ta  Ta101  1  0.59468487  0.18586139  0.24013468  1
  Ta  Ta102  1  0.62990116  -0.00463065  0.23256935  1
  Ta  Ta103  1  0.30402653  0.69573605  0.37237699  1
  Ta  Ta104  1  0.89441270  0.09215881  0.10683608  1
  Ta  Ta105  1  0.69181660  0.91260700  0.85800016  1
  Ta  Ta106  1  0.89287560  0.91235314  0.10264660  1
  Ta  Ta107  1  0.29811604  0.50397650  0.36615137  1
  Ta  Ta108  1  0.70472857  0.50503145  0.38433122  1
  Ta  Ta109  1  0.79875242  0.39947300  0.50709885  1
  Ta  Ta110  1  0.79569932  0.80224999  -0.02687051  1
  Ta  Ta111  1  -0.00145957  0.41197090  0.02518529  1
  Ta  Ta112  1  0.18727250  0.20459433  0.48336982  1
  Ta  Ta113  1  0.80029426  0.59915240  0.51399616  1
  Ta  Ta114  1  0.09565512  0.09848674  0.36210872  1
  Ta  Ta115  1  0.38751221  0.19585992  0.75750081  1
  Ta  Ta116  1  0.70437785  0.70276404  0.62872880  1
  Ta  Ta117  1  0.29796484  0.10227556  0.36673223  1
  Ta  Ta118  1  0.79620309  0.60542811  -0.01581314  1
  Ta  Ta119  1  0.59781096  0.80443850  0.52501657  1
  Ti  Ti120  1  0.30435723  0.90411998  0.60326373  1
  Ti  Ti121  1  -0.01904118  -0.00390166  0.24964330  1
  Ti  Ti122  1  0.19789890  0.60324277  0.25505582  1
  Ti  Ti123  1  0.90453345  0.48960262  0.61483988  1
  Ti  Ti124  1  0.49859731  0.69231624  0.11970436  1
  Ti  Ti125  1  0.69631619  0.10333433  0.63936295  1
  Ti  Ti126  1  0.30479578  0.89421800  0.13835531  1
  Ti  Ti127  1  0.71008751  0.09720006  0.10320415  1
  Ti  Ti128  1  0.90260647  0.91131703  0.87976645  1
  Ti  Ti129  1  0.19721169  0.00980654  0.48490987  1
  Ti  Ti130  1  0.49044854  0.08193915  0.86595735  1
  Ti  Ti131  1  0.00145061  0.00312584  0.49949141  1
  Ti  Ti132  1  0.09980078  0.90406477  0.87441493  1
  Ti  Ti133  1  0.29801947  0.28803292  0.89371910  1
  Ti  Ti134  1  0.09971430  0.10778005  0.61998333  1
  Ti  Ti135  1  0.89839606  0.71024182  0.39455832  1
  Ti  Ti136  1  0.10222855  0.49769973  0.37241770  1
  Ti  Ti137  1  0.19967762  -0.00241679  0.26100703  1
  Ti  Ti138  1  0.60730663  0.39692243  0.25350011  1
  Ti  Ti139  1  0.40530813  0.19378404  0.23712583  1
  Ti  Ti140  1  0.19875901  -0.00964833  -0.00051829  1
  Ti  Ti141  1  0.20715983  0.59230967  0.49487584  1
  Ti  Ti142  1  0.00095432  0.19825978  0.49065811  1
  Ti  Ti143  1  0.59914350  0.19669024  -0.01166154  1
  Ti  Ti144  1  0.31687446  0.90183024  0.87837171  1
  Ti  Ti145  1  0.00428354  0.39385172  0.74148948  1
  Ti  Ti146  1  0.70445219  0.49319748  0.86078759  1
  Ti  Ti147  1  0.01197192  0.01766129  -0.00705691  1
  Ti  Ti148  1  -0.00158925  0.59526231  0.24191832  1
  Ti  Ti149  1  0.60624780  0.60200958  0.51286090  1
  Ti  Ti150  1  0.29693763  0.70230908  0.86306164  1
  Ti  Ti151  1  0.91266652  0.49118905  0.87790714  1
  Ti  Ti152  1  0.90785501  0.71365771  0.62239636  1
  Ti  Ti153  1  0.49767432  0.09369137  0.64131997  1
  Ti  Ti154  1  0.88850631  0.89899945  0.40138116  1
  Ti  Ti155  1  0.09506729  0.28603678  0.62676719  1
  Ti  Ti156  1  0.49268038  0.89320640  0.63186680  1
  Ti  Ti157  1  0.09559624  0.50368714  0.87885760  1
  Ti  Ti158  1  0.71414188  0.90634744  0.09891361  1
  Ti  Ti159  1  0.18870147  0.19722286  0.76732714  1
  Mo  Mo160  1  0.09788773  0.09553196  0.87236987  1
  Mo  Mo161  1  0.69480064  0.30270052  0.36251590  1
  Mo  Mo162  1  0.79644970  -0.00140714  -0.02383294  1
  Mo  Mo163  1  0.50407570  0.49817493  0.86295797  1
  Mo  Mo164  1  0.50507263  0.70616584  0.62365881  1
  Mo  Mo165  1  0.19703347  0.19184269  0.25249791  1
  Mo  Mo166  1  0.80420926  -0.00017783  0.24117024  1
  Mo  Mo167  1  0.60117239  -0.00068316  0.53071141  1
  Mo  Mo168  1  0.19592982  0.39471527  0.47190138  1
  Mo  Mo169  1  0.90264602  0.30092160  0.61135515  1
  Mo  Mo170  1  0.89774901  0.10348894  0.89355794  1
  Mo  Mo171  1  0.79513006  0.19639754  -0.01634041  1
  Mo  Mo172  1  0.71152109  0.90484049  0.40309618  1
  Mo  Mo173  1  0.29390947  0.50679575  0.88208368  1
  Mo  Mo174  1  0.89174322  0.51200872  0.12797617  1
  Mo  Mo175  1  0.49285569  0.90820482  0.85531510  1
  Mo  Mo176  1  -0.00053529  0.81179035  0.75914772  1
  Mo  Mo177  1  0.50249333  0.29526356  0.13711533  1
  Mo  Mo178  1  0.80247766  0.80205644  0.52614706  1
  Mo  Mo179  1  0.70631554  0.70294494  0.85291914  1
  Mo  Mo180  1  0.61267235  0.80332579  0.25162818  1
  Mo  Mo181  1  0.40716028  0.80436510  0.48687354  1
  Mo  Mo182  1  -0.00728959  0.19652442  0.00654467  1
  Mo  Mo183  1  0.70868164  0.49609781  0.61880181  1
  Mo  Mo184  1  0.39955522  -0.01165424  0.01729659  1
  Mo  Mo185  1  0.60920803  0.39594318  0.76270607  1
  Mo  Mo186  1  0.40208483  0.60111042  0.26186877  1
  Mo  Mo187  1  0.39376877  0.80895840  0.74447630  1
  Mo  Mo188  1  0.08893406  0.08706832  0.14483857  1
  Mo  Mo189  1  0.51306084  0.09501041  0.12623919  1
  Mo  Mo190  1  0.89728900  0.30635323  0.89832099  1
  Mo  Mo191  1  0.69908754  0.09809085  0.87687729  1
  Mo  Mo192  1  0.29935220  0.49883766  0.61223851  1
  Mo  Mo193  1  0.49711777  0.28808488  0.86468922  1
  Mo  Mo194  1  0.09724726  0.50644987  0.13888216  1
  Mo  Mo195  1  0.50737400  0.70679183  0.40352119  1
  Mo  Mo196  1  0.50207218  0.09760382  0.36126199  1
  Mo  Mo197  1  0.79832158  0.19754406  0.76160021  1
  Mo  Mo198  1  0.59407730  -0.00043909  0.74353324  1
  Mo  Mo199  1  -0.00246695  0.80331086  0.48517562  1
