# generated using pymatgen
data_HfZrTaTiMo
_symmetry_space_group_name_H-M   'P 1'
_cell_length_a   15.83995672
_cell_length_b   15.85493064
_cell_length_c   15.36904567
_cell_angle_alpha   90.05412779
_cell_angle_beta   89.93358831
_cell_angle_gamma   89.99559913
_symmetry_Int_Tables_number   1
_chemical_formula_structural   HfZrTaTiMo
_chemical_formula_sum   'Hf40 Zr40 Ta40 Ti40 Mo40'
_cell_volume   3859.79955391
_cell_formula_units_Z   40
loop_
 _symmetry_equiv_pos_site_id
 _symmetry_equiv_pos_as_xyz
  1  'x, y, z'
loop_
 _atom_site_type_symbol
 _atom_site_label
 _atom_site_symmetry_multiplicity
 _atom_site_fract_x
 _atom_site_fract_y
 _atom_site_fract_z
 _atom_site_occupancy
  Hf  Hf0  1  0.70444914  0.08036501  0.13747400  1
  Hf  Hf1  1  0.09595609  0.69694376  0.62321497  1
  Hf  Hf2  1  0.00210101  0.60891163  0.77228393  1
  Hf  Hf3  1  0.09121822  0.91646902  0.88088344  1
  Hf  Hf4  1  0.20436540  0.01527163  0.00129838  1
  Hf  Hf5  1  0.41335387  0.00619811  -0.01514746  1
  Hf  Hf6  1  0.09512252  0.49561201  0.12583981  1
  Hf  Hf7  1  0.29905244  0.89759460  0.87401284  1
  Hf  Hf8  1  -0.00382445  0.22285459  0.73075326  1
  Hf  Hf9  1  0.60925227  0.59820403  0.50738645  1
  Hf  Hf10  1  0.38757721  0.60195879  0.75196096  1
  Hf  Hf11  1  0.60739517  0.00077981  0.73382521  1
  Hf  Hf12  1  0.19351172  0.78862593  0.76284737  1
  Hf  Hf13  1  0.79880105  0.60064241  0.75156110  1
  Hf  Hf14  1  0.51304112  0.31662410  0.61832506  1
  Hf  Hf15  1  -0.00834481  0.60307382  0.47871362  1
  Hf  Hf16  1  0.59807562  0.38362062  0.25082854  1
  Hf  Hf17  1  0.90992730  0.11033505  0.37971869  1
  Hf  Hf18  1  0.10538789  0.11589064  0.13679804  1
  Hf  Hf19  1  0.81470198  0.18520674  0.01538387  1
  Hf  Hf20  1  0.80509841  0.79076430  0.48761867  1
  Hf  Hf21  1  0.09401501  0.89757739  0.62557045  1
  Hf  Hf22  1  0.70446674  0.29203503  0.37631758  1
  Hf  Hf23  1  0.90504176  0.50430627  0.62448992  1
  Hf  Hf24  1  0.60447024  0.19269511  0.50941848  1
  Hf  Hf25  1  0.60044274  0.58840609  0.01076019  1
  Hf  Hf26  1  0.39193326  0.60214012  0.49738983  1
  Hf  Hf27  1  0.91224358  0.09933712  0.86325960  1
  Hf  Hf28  1  0.60048158  0.79097593  0.74097757  1
  Hf  Hf29  1  0.10064408  0.30535539  0.88725125  1
  Hf  Hf30  1  0.31131989  0.92214308  0.12445241  1
  Hf  Hf31  1  0.40403666  0.00512259  0.50992668  1
  Hf  Hf32  1  -0.01014096  0.81225660  0.75815921  1
  Hf  Hf33  1  0.70514018  0.70402402  0.13380897  1
  Hf  Hf34  1  0.40528590  0.38599503  0.01829242  1
  Hf  Hf35  1  0.49293846  0.08622407  0.14825264  1
  Hf  Hf36  1  0.30754595  0.10246628  0.37272770  1
  Hf  Hf37  1  0.29756125  0.30423201  0.87918304  1
  Hf  Hf38  1  0.29551004  0.11035946  0.85463365  1
  Hf  Hf39  1  0.60681073  0.00393810  0.50059221  1
  Zr  Zr40  1  0.90410058  0.70590867  0.90301920  1
  Zr  Zr41  1  0.80362351  0.40229248  0.49414082  1
  Zr  Zr42  1  0.50768880  0.70432001  0.13539657  1
  Zr  Zr43  1  0.29179998  0.69593216  0.36415530  1
  Zr  Zr44  1  0.38197740  0.39835192  0.73932835  1
  Zr  Zr45  1  0.70050900  0.69181611  0.35280407  1
  Zr  Zr46  1  0.68708237  0.47894197  0.62825730  1
  Zr  Zr47  1  0.40357090  -0.00064775  0.73915783  1
  Zr  Zr48  1  0.28396468  0.28693330  0.13514764  1
  Zr  Zr49  1  0.19616272  0.81079842  0.24232343  1
  Zr  Zr50  1  0.70430052  0.88583053  0.61245958  1
  Zr  Zr51  1  0.88867706  0.91416188  0.12015331  1
  Zr  Zr52  1  0.20332165  0.00614197  0.50222332  1
  Zr  Zr53  1  0.39140446  0.80826980  0.25447759  1
  Zr  Zr54  1  0.39550326  0.59396503  0.00895583  1
  Zr  Zr55  1  0.39849229  0.19107165  0.00790899  1
  Zr  Zr56  1  0.80775968  0.38296481  0.74727080  1
  Zr  Zr57  1  0.80702834  0.19665121  0.51808197  1
  Zr  Zr58  1  0.80646473  0.58138585  0.00504268  1
  Zr  Zr59  1  0.80057209  0.19615995  0.72912339  1
  Zr  Zr60  1  0.50314323  0.69905895  0.36761145  1
  Zr  Zr61  1  0.00235512  0.23411983  0.25364128  1
  Zr  Zr62  1  0.10041486  0.91706887  0.37122734  1
  Zr  Zr63  1  0.09539528  0.10066096  0.63433276  1
  Zr  Zr64  1  0.49531260  0.48700812  0.86666134  1
  Zr  Zr65  1  -0.00671945  0.81410686  0.24680792  1
  Zr  Zr66  1  0.60107904  0.38295710  0.00763195  1
  Zr  Zr67  1  0.28854840  0.49449958  0.36124020  1
  Zr  Zr68  1  0.10376835  0.51028770  0.90379051  1
  Zr  Zr69  1  0.69638788  0.70124774  0.88869999  1
  Zr  Zr70  1  0.50285178  0.49756762  0.37145083  1
  Zr  Zr71  1  0.60631369  -0.01048351  -0.00955960  1
  Zr  Zr72  1  0.09402547  0.50086231  0.62075522  1
  Zr  Zr73  1  0.40255305  0.80457282  0.00352297  1
  Zr  Zr74  1  -0.00007835  0.79774307  0.48068922  1
  Zr  Zr75  1  0.80323677  0.79669913  0.74777141  1
  Zr  Zr76  1  0.70982743  0.09400757  0.86704820  1
  Zr  Zr77  1  0.59362862  0.19212613  0.00594936  1
  Zr  Zr78  1  0.49669119  0.69922188  0.87733185  1
  Zr  Zr79  1  0.69765346  0.48520925  0.86891280  1
  Ta  Ta80  1  0.20034267  0.59623627  0.75868860  1
  Ta  Ta81  1  0.09353367  0.69654421  0.11778497  1
  Ta  Ta82  1  0.29487521  0.88966898  0.62279767  1
  Ta  Ta83  1  0.18905046  0.60287557  0.48916674  1
  Ta  Ta84  1  0.29041155  0.69900906  0.61964231  1
  Ta  Ta85  1  0.50147512  0.90155616  0.37666951  1
  Ta  Ta86  1  0.50025242  0.49150267  0.13872950  1
  Ta  Ta87  1  0.51262929  0.90505794  0.14951483  1
  Ta  Ta88  1  0.20388085  0.22076874  0.72666098  1
  Ta  Ta89  1  -0.00092968  0.40848940  0.76543010  1
  Ta  Ta90  1  0.90105381  0.70229069  0.12523454  1
  Ta  Ta91  1  0.09626827  0.50349249  0.35384248  1
  Ta  Ta92  1  0.39369432  0.79502975  0.74404698  1
  Ta  Ta93  1  0.80942200  0.19555786  0.24624597  1
  Ta  Ta94  1  0.28994420  0.49260870  0.13148033  1
  Ta  Ta95  1  0.69535920  0.89453544  0.15110628  1
  Ta  Ta96  1  0.49294649  0.69946013  0.62010041  1
  Ta  Ta97  1  0.39523295  0.40053380  0.49998791  1
  Ta  Ta98  1  0.82462444  -0.00781188  0.72077185  1
  Ta  Ta99  1  0.09971638  0.11206166  0.86197540  1
  Ta  Ta100  1  0.69829214  0.89463245  0.37148891  1
  Ta  Ta101  1  0.39611237  0.38889556  0.24846385  1
  Ta  Ta102  1  0.39982711  0.20261803  0.72377772  1
  Ta  Ta103  1  0.30070205  0.29953625  0.38165395  1
  Ta  Ta104  1  0.81744142  0.38329417  0.24864446  1
  Ta  Ta105  1  0.80737652  -0.00165538  0.27337392  1
  Ta  Ta106  1  0.49613726  0.88895560  0.61613528  1
  Ta  Ta107  1  0.19959188  0.20589439  0.50476000  1
  Ta  Ta108  1  0.28860039  0.50564536  0.61424453  1
  Ta  Ta109  1  0.20026157  0.79697535  0.48895558  1
  Ta  Ta110  1  0.49305479  0.50169925  0.62262117  1
  Ta  Ta111  1  0.39713517  0.19918844  0.51673720  1
  Ta  Ta112  1  -0.00321939  0.02579743  0.01159229  1
  Ta  Ta113  1  0.70470382  0.48771199  0.14029546  1
  Ta  Ta114  1  0.70353371  0.49734080  0.35727581  1
  Ta  Ta115  1  0.80528541  -0.00084270  0.49797823  1
  Ta  Ta116  1  0.49357415  0.29176900  0.38262671  1
  Ta  Ta117  1  0.59714614  0.59841588  0.73789662  1
  Ta  Ta118  1  0.39577049  0.59381223  0.23819749  1
  Ta  Ta119  1  0.70667924  0.28967518  0.13340641  1
  Ti  Ti120  1  0.78931479  0.81461965  0.00423127  1
  Ti  Ti121  1  0.60505988  0.19074844  0.25625809  1
  Ti  Ti122  1  0.39280917  0.80218071  0.49671423  1
  Ti  Ti123  1  0.00142519  0.01602534  0.25058218  1
  Ti  Ti124  1  0.09802107  0.69144791  0.34559617  1
  Ti  Ti125  1  0.79977448  0.59971823  0.49583858  1
  Ti  Ti126  1  0.59923419  0.80915280  0.00142794  1
  Ti  Ti127  1  0.19457801  0.40183545  0.49643711  1
  Ti  Ti128  1  0.00972593  0.21203556  0.50209486  1
  Ti  Ti129  1  0.20682166  0.00805651  0.25580846  1
  Ti  Ti130  1  0.28925922  0.49414975  0.89510462  1
  Ti  Ti131  1  0.69668984  0.28811624  0.87569802  1
  Ti  Ti132  1  0.50155888  0.29300448  0.85754683  1
  Ti  Ti133  1  0.89471152  0.91582092  0.89064219  1
  Ti  Ti134  1  -0.00409398  0.00490998  0.50087034  1
  Ti  Ti135  1  0.89960467  0.70225095  0.62217074  1
  Ti  Ti136  1  0.10034616  0.91403151  0.12257914  1
  Ti  Ti137  1  0.40063717  0.20146725  0.25061448  1
  Ti  Ti138  1  0.89687161  0.69680334  0.34646992  1
  Ti  Ti139  1  0.18013313  0.38241053  0.25075406  1
  Ti  Ti140  1  0.50520804  0.89494132  0.85972342  1
  Ti  Ti141  1  0.50542511  0.10966978  0.85336641  1
  Ti  Ti142  1  0.71026430  0.90222354  0.86526206  1
  Ti  Ti143  1  0.19094979  0.40467019  0.74201269  1
  Ti  Ti144  1  0.80278404  0.38953870  0.00652745  1
  Ti  Ti145  1  0.59904802  0.79167864  0.49875538  1
  Ti  Ti146  1  0.50388043  0.10005335  0.37110187  1
  Ti  Ti147  1  0.60654080  0.20383456  0.73022854  1
  Ti  Ti148  1  0.19559170  0.80396615  0.00553674  1
  Ti  Ti149  1  0.19264102  0.20151011  0.27391300  1
  Ti  Ti150  1  0.28935473  0.69602352  0.12617218  1
  Ti  Ti151  1  0.00320104  0.81145738  0.00793390  1
  Ti  Ti152  1  0.90001044  0.49939175  0.35710671  1
  Ti  Ti153  1  0.80778081  0.59034101  0.23621757  1
  Ti  Ti154  1  0.28507664  0.69105101  0.89259033  1
  Ti  Ti155  1  0.90983521  0.48873790  0.12722911  1
  Ti  Ti156  1  0.19952107  -0.00073948  0.74449946  1
  Ti  Ti157  1  0.90441796  0.29831643  0.89099074  1
  Ti  Ti158  1  0.19531878  0.19938604  0.00190526  1
  Ti  Ti159  1  0.00177461  0.40019662  0.47951686  1
  Mo  Mo160  1  0.50252753  0.10202322  0.63005263  1
  Mo  Mo161  1  0.90207315  0.30419093  0.38970725  1
  Mo  Mo162  1  0.29618732  0.10263821  0.63335614  1
  Mo  Mo163  1  0.59673011  0.39975753  0.47517468  1
  Mo  Mo164  1  0.70478935  0.09870476  0.36668120  1
  Mo  Mo165  1  0.50150052  0.28840465  0.14776934  1
  Mo  Mo166  1  0.19670286  0.60104005  0.23290462  1
  Mo  Mo167  1  0.30346645  0.90168861  0.39333170  1
  Mo  Mo168  1  0.20268650  0.39679877  0.01166595  1
  Mo  Mo169  1  0.90760380  0.89714976  0.60426204  1
  Mo  Mo170  1  0.60317343  0.00218413  0.27482202  1
  Mo  Mo171  1  -0.00674357  0.60240722  0.24089293  1
  Mo  Mo172  1  0.10129996  0.10930167  0.37648877  1
  Mo  Mo173  1  0.91151946  0.09781414  0.61142851  1
  Mo  Mo174  1  0.90238863  0.30462948  0.11129160  1
  Mo  Mo175  1  0.90008757  0.90708122  0.38169602  1
  Mo  Mo176  1  0.20334612  0.60540634  0.01561321  1
  Mo  Mo177  1  0.00501563  0.20252379  0.00630640  1
  Mo  Mo178  1  0.80359235  0.80241200  0.25638299  1
  Mo  Mo179  1  0.10737120  0.30717183  0.39250644  1
  Mo  Mo180  1  0.59981974  0.80065633  0.26056752  1
  Mo  Mo181  1  0.09348520  0.30858584  0.10418432  1
  Mo  Mo182  1  0.29613125  0.10046320  0.14794867  1
  Mo  Mo183  1  0.39994695  0.00068674  0.27258980  1
  Mo  Mo184  1  0.70567950  0.09253166  0.63202003  1
  Mo  Mo185  1  0.69977614  0.68900351  0.61836937  1
  Mo  Mo186  1  0.10013798  0.31457432  0.61088960  1
  Mo  Mo187  1  0.00149162  0.00314041  0.75010289  1
  Mo  Mo188  1  -0.00453576  0.60441257  0.01309188  1
  Mo  Mo189  1  0.69759377  0.30025706  0.61508520  1
  Mo  Mo190  1  0.80099922  -0.00312099  0.00036021  1
  Mo  Mo191  1  0.60310877  0.58920525  0.23632435  1
  Mo  Mo192  1  0.90088833  0.49178680  0.87803641  1
  Mo  Mo193  1  -0.00271175  0.40380192  0.26018869  1
  Mo  Mo194  1  -0.01349333  0.40414050  -0.00960342  1
  Mo  Mo195  1  0.29643578  0.30948060  0.60583127  1
  Mo  Mo196  1  0.59572458  0.39055090  0.76178500  1
  Mo  Mo197  1  0.10367010  0.71086300  0.90279030  1
  Mo  Mo198  1  0.91521722  0.31444735  0.60864937  1
  Mo  Mo199  1  0.90606067  0.10201546  0.14443265  1
