# generated using pymatgen
data_HfZrTaTiMo
_symmetry_space_group_name_H-M   'P 1'
_cell_length_a   15.83268163
_cell_length_b   15.84072887
_cell_length_c   15.40492859
_cell_angle_alpha   90.04858138
_cell_angle_beta   90.02912797
_cell_angle_gamma   90.12128862
_symmetry_Int_Tables_number   1
_chemical_formula_structural   HfZrTaTiMo
_chemical_formula_sum   'Hf40 Zr40 Ta40 Ti40 Mo40'
_cell_volume   3863.56428817
_cell_formula_units_Z   40
loop_
 _symmetry_equiv_pos_site_id
 _symmetry_equiv_pos_as_xyz
  1  'x, y, z'
loop_
 _atom_site_type_symbol
 _atom_site_label
 _atom_site_symmetry_multiplicity
 _atom_site_fract_x
 _atom_site_fract_y
 _atom_site_fract_z
 _atom_site_occupancy
  Hf  Hf0  1  0.89786961  0.89559106  0.88427706  1
  Hf  Hf1  1  0.00546458  -0.00480615  0.75622604  1
  Hf  Hf2  1  0.79999768  0.20014483  0.49069591  1
  Hf  Hf3  1  0.30080926  0.70187987  0.62114304  1
  Hf  Hf4  1  0.40066294  0.40501188  -0.01211382  1
  Hf  Hf5  1  -0.00968564  0.39754967  0.74945106  1
  Hf  Hf6  1  0.68671134  0.90162349  0.37151532  1
  Hf  Hf7  1  -0.00524375  0.39493255  0.00003476  1
  Hf  Hf8  1  0.20559856  0.59373225  0.26286033  1
  Hf  Hf9  1  0.09675619  0.69624661  0.37856772  1
  Hf  Hf10  1  -0.01020821  0.80152390  0.73816608  1
  Hf  Hf11  1  0.88667005  0.70287649  0.88605911  1
  Hf  Hf12  1  0.39932981  0.19649478  0.74711067  1
  Hf  Hf13  1  0.88637789  0.29683486  0.13000829  1
  Hf  Hf14  1  0.50082671  0.29613525  0.10908314  1
  Hf  Hf15  1  -0.00030194  0.59919860  0.73959839  1
  Hf  Hf16  1  0.19988133  0.19161305  0.74510659  1
  Hf  Hf17  1  0.89656400  0.10543185  0.13559910  1
  Hf  Hf18  1  0.48534515  0.30090246  0.38956269  1
  Hf  Hf19  1  0.40943420  0.59795073  0.26513304  1
  Hf  Hf20  1  0.79409445  0.40385730  0.25854408  1
  Hf  Hf21  1  0.20947913  0.60124294  0.48611753  1
  Hf  Hf22  1  0.31682889  0.90203023  0.87805687  1
  Hf  Hf23  1  0.69747583  0.49914661  0.86201035  1
  Hf  Hf24  1  0.08902425  0.29498104  0.62300128  1
  Hf  Hf25  1  -0.01480017  0.39863326  0.50426091  1
  Hf  Hf26  1  0.50064322  0.90019335  0.36806172  1
  Hf  Hf27  1  0.89975074  0.69007847  0.12182882  1
  Hf  Hf28  1  0.29227520  0.28107747  0.38993757  1
  Hf  Hf29  1  0.89896769  0.90613030  0.36388509  1
  Hf  Hf30  1  0.50164058  0.50947071  0.11550071  1
  Hf  Hf31  1  0.20761091  0.60964181  -0.01159859  1
  Hf  Hf32  1  -0.00717827  0.80305257  0.49220634  1
  Hf  Hf33  1  0.59469152  0.00667966  0.51130870  1
  Hf  Hf34  1  0.50705747  0.90438550  0.14228468  1
  Hf  Hf35  1  0.10392822  0.70018651  0.61060298  1
  Hf  Hf36  1  0.11206571  0.90839259  0.37442970  1
  Hf  Hf37  1  0.19343389  0.38524922  0.25287243  1
  Hf  Hf38  1  0.59729973  0.40523386  0.50130096  1
  Hf  Hf39  1  -0.00048990  0.79044584  0.25279010  1
  Zr  Zr40  1  0.09935018  0.49608219  0.11976033  1
  Zr  Zr41  1  0.37867720  0.18454848  0.24115955  1
  Zr  Zr42  1  0.09345196  0.08945875  0.61890172  1
  Zr  Zr43  1  0.30941213  0.10345407  0.88946227  1
  Zr  Zr44  1  0.09781527  0.29390828  0.87447118  1
  Zr  Zr45  1  0.11116441  0.90418967  0.15163022  1
  Zr  Zr46  1  0.00616898  0.00239838  0.01339693  1
  Zr  Zr47  1  0.40968568  0.79346367  0.00565667  1
  Zr  Zr48  1  0.27786099  0.28429195  0.09509551  1
  Zr  Zr49  1  0.40264764  0.17920498  0.52162530  1
  Zr  Zr50  1  0.81165298  0.00611874  0.74610455  1
  Zr  Zr51  1  0.39631113  0.39091955  0.23819782  1
  Zr  Zr52  1  0.59847091  0.60836745  0.74060516  1
  Zr  Zr53  1  0.70322606  0.30651495  0.62978017  1
  Zr  Zr54  1  0.79076589  0.78926806  0.24525771  1
  Zr  Zr55  1  0.60891931  0.79919063  0.01013344  1
  Zr  Zr56  1  0.29730807  0.50071122  0.11399984  1
  Zr  Zr57  1  0.11565736  0.10390475  0.36777614  1
  Zr  Zr58  1  0.60221254  0.19436672  0.75440532  1
  Zr  Zr59  1  0.89704657  0.50388744  0.88042665  1
  Zr  Zr60  1  0.59558504  0.20421702  0.25203638  1
  Zr  Zr61  1  0.61259857  0.20492342  -0.01215250  1
  Zr  Zr62  1  0.69670263  0.10777321  0.12476532  1
  Zr  Zr63  1  0.08764866  0.28819798  0.38196514  1
  Zr  Zr64  1  0.30386836  0.89436085  0.62695418  1
  Zr  Zr65  1  0.61449419  0.58961448  0.50925317  1
  Zr  Zr66  1  0.31099983  0.50709703  0.62245856  1
  Zr  Zr67  1  0.79786697  0.60790731  0.73425659  1
  Zr  Zr68  1  0.79333738  -0.00756654  0.00724295  1
  Zr  Zr69  1  0.00614539  0.80550579  0.01703809  1
  Zr  Zr70  1  0.49274329  0.70621336  0.61158448  1
  Zr  Zr71  1  0.08765036  0.70185936  0.88052394  1
  Zr  Zr72  1  0.19338122  0.80305202  0.76913807  1
  Zr  Zr73  1  0.10744156  0.89687088  0.60482028  1
  Zr  Zr74  1  0.19865367  -0.00378655  0.00046372  1
  Zr  Zr75  1  0.59453075  0.40981490  0.26114842  1
  Zr  Zr76  1  0.31700933  0.48092268  0.39097844  1
  Zr  Zr77  1  0.70315531  0.70239706  0.39028291  1
  Zr  Zr78  1  0.59524579  0.60878233  -0.00833913  1
  Zr  Zr79  1  0.20102049  0.40024119  0.74354022  1
  Ta  Ta80  1  0.49957224  0.30335588  0.86929106  1
  Ta  Ta81  1  0.70682536  0.09413291  0.87148549  1
  Ta  Ta82  1  0.20063710  0.60279414  0.75434990  1
  Ta  Ta83  1  0.30214814  0.50412250  0.86737640  1
  Ta  Ta84  1  0.19653786  0.39551472  0.50692526  1
  Ta  Ta85  1  0.90102149  0.10762732  0.89152214  1
  Ta  Ta86  1  0.69516978  0.30155507  0.38557251  1
  Ta  Ta87  1  0.09974162  0.50281837  0.61541593  1
  Ta  Ta88  1  0.89993285  0.30116561  0.36947437  1
  Ta  Ta89  1  0.79358122  0.41888601  0.48759285  1
  Ta  Ta90  1  0.10379443  0.49858635  0.87707521  1
  Ta  Ta91  1  0.30816923  0.90430946  0.13336839  1
  Ta  Ta92  1  0.20702718  0.80002855  0.00264898  1
  Ta  Ta93  1  0.49367882  0.09081091  0.36800451  1
  Ta  Ta94  1  0.70983834  0.10211628  0.62892578  1
  Ta  Ta95  1  0.89245568  0.90645833  0.14366275  1
  Ta  Ta96  1  0.78783574  0.38428411  -0.00772603  1
  Ta  Ta97  1  -0.02134430  0.19115934  0.74670305  1
  Ta  Ta98  1  0.11131090  0.69553916  0.13328854  1
  Ta  Ta99  1  0.09250812  0.49226958  0.38317086  1
  Ta  Ta100  1  0.59966486  -0.00577846  -0.00818758  1
  Ta  Ta101  1  0.40228137  0.79406825  0.25509999  1
  Ta  Ta102  1  0.20237516  -0.00191321  0.76032589  1
  Ta  Ta103  1  0.00472689  0.20017853  0.01387503  1
  Ta  Ta104  1  0.70143804  0.90230771  0.62243893  1
  Ta  Ta105  1  0.60709169  0.60614241  0.25252757  1
  Ta  Ta106  1  0.50156168  0.30510957  0.63118970  1
  Ta  Ta107  1  0.50778716  0.70444141  0.38590370  1
  Ta  Ta108  1  0.30394236  0.70162023  0.13361217  1
  Ta  Ta109  1  0.91099733  0.11460191  0.36470120  1
  Ta  Ta110  1  0.40238779  0.40028793  0.75102978  1
  Ta  Ta111  1  0.69813070  0.89641731  0.86161906  1
  Ta  Ta112  1  0.60392152  0.40143313  -0.01382205  1
  Ta  Ta113  1  0.79684960  0.00870869  0.48884012  1
  Ta  Ta114  1  0.49183264  0.09622412  0.11076089  1
  Ta  Ta115  1  0.69942226  0.49397155  0.11899641  1
  Ta  Ta116  1  0.20319263  0.19071517  0.51921432  1
  Ta  Ta117  1  0.79029854  0.01454488  0.26586302  1
  Ta  Ta118  1  0.79848479  0.59132896  0.24927797  1
  Ta  Ta119  1  0.21291333  0.79657504  0.26160701  1
  Ti  Ti120  1  0.40036414  0.61101888  -0.01343088  1
  Ti  Ti121  1  0.00184332  0.59806736  0.00391998  1
  Ti  Ti122  1  0.50683070  0.90290274  0.86941223  1
  Ti  Ti123  1  0.79953399  0.81119763  0.49810424  1
  Ti  Ti124  1  0.59847690  0.19424087  0.50428346  1
  Ti  Ti125  1  0.30745015  0.91632829  0.36152319  1
  Ti  Ti126  1  0.30347166  0.30276646  0.62056200  1
  Ti  Ti127  1  0.70356234  0.71139804  0.61106085  1
  Ti  Ti128  1  0.88492708  0.49287717  0.62723524  1
  Ti  Ti129  1  -0.00603525  0.58803334  0.25349192  1
  Ti  Ti130  1  0.09621881  0.10013701  0.87672202  1
  Ti  Ti131  1  0.78976904  0.20568646  0.26556004  1
  Ti  Ti132  1  0.49932799  0.09189239  0.88422348  1
  Ti  Ti133  1  0.49760298  0.70691272  0.86075917  1
  Ti  Ti134  1  0.60004186  0.80815135  0.73674462  1
  Ti  Ti135  1  0.89325358  0.70178172  0.60746482  1
  Ti  Ti136  1  0.40558598  0.80073126  0.75039713  1
  Ti  Ti137  1  -0.01247814  0.58955243  0.50109210  1
  Ti  Ti138  1  0.49771015  0.50012702  0.63390055  1
  Ti  Ti139  1  0.70090744  0.71231319  0.86834984  1
  Ti  Ti140  1  0.22381095  0.00513558  0.50059815  1
  Ti  Ti141  1  0.49767082  0.50433043  0.86173317  1
  Ti  Ti142  1  0.89241290  0.49708356  0.11786859  1
  Ti  Ti143  1  -0.00451053  0.39972270  0.24703067  1
  Ti  Ti144  1  0.40597625  -0.00284125  0.51535835  1
  Ti  Ti145  1  0.12088757  0.11874409  0.13523466  1
  Ti  Ti146  1  0.41105197  0.00291045  0.73524349  1
  Ti  Ti147  1  0.80150503  0.38510031  0.76283921  1
  Ti  Ti148  1  0.88971990  0.28994570  0.62290011  1
  Ti  Ti149  1  0.59884517  -0.00150773  0.74391291  1
  Ti  Ti150  1  0.79027929  0.80048065  0.01758392  1
  Ti  Ti151  1  0.78638592  0.59937699  0.00650358  1
  Ti  Ti152  1  0.00416573  0.01219151  0.24746805  1
  Ti  Ti153  1  0.69504639  0.90573317  0.14644470  1
  Ti  Ti154  1  0.89676731  0.91163485  0.61217914  1
  Ti  Ti155  1  0.39166558  0.80310697  0.48436039  1
  Ti  Ti156  1  0.29667525  0.30179064  0.88128862  1
  Ti  Ti157  1  -0.00985927  0.01124721  0.48972269  1
  Ti  Ti158  1  0.89404965  0.68578387  0.38180433  1
  Ti  Ti159  1  0.79997461  0.80472868  0.73711796  1
  Mo  Mo160  1  0.70546446  0.49165111  0.64361338  1
  Mo  Mo161  1  0.10416039  0.90354696  0.87875749  1
  Mo  Mo162  1  0.29905687  0.08957243  0.63732857  1
  Mo  Mo163  1  -0.00856175  0.19550828  0.50950991  1
  Mo  Mo164  1  0.70333047  0.50449083  0.36847575  1
  Mo  Mo165  1  0.69984934  0.68766055  0.12660484  1
  Mo  Mo166  1  0.30766593  0.70582944  0.37581112  1
  Mo  Mo167  1  0.89734378  0.09951508  0.60984888  1
  Mo  Mo168  1  0.19748044  0.40382469  -0.01886429  1
  Mo  Mo169  1  0.09221518  0.29778132  0.12394820  1
  Mo  Mo170  1  0.30654829  0.09028292  0.38452049  1
  Mo  Mo171  1  0.59864924  0.80815954  0.51428388  1
  Mo  Mo172  1  0.40332929  0.39454613  0.52392944  1
  Mo  Mo173  1  0.50234595  0.89808084  0.63091486  1
  Mo  Mo174  1  0.70049542  0.29861123  0.86042737  1
  Mo  Mo175  1  0.22080487  0.01264756  0.24249780  1
  Mo  Mo176  1  0.59918966  0.01007290  0.25402114  1
  Mo  Mo177  1  0.21041938  0.80544071  0.47356924  1
  Mo  Mo178  1  0.18849586  0.19572431  -0.01572454  1
  Mo  Mo179  1  0.80288284  0.20228342  -0.01243137  1
  Mo  Mo180  1  0.00157728  0.20780463  0.23359615  1
  Mo  Mo181  1  0.90601896  0.50309906  0.37050161  1
  Mo  Mo182  1  0.39821051  0.60550602  0.76217078  1
  Mo  Mo183  1  0.49950391  0.69902578  0.14041060  1
  Mo  Mo184  1  0.50480744  0.50421402  0.38392360  1
  Mo  Mo185  1  0.20091397  0.20078196  0.24968156  1
  Mo  Mo186  1  0.69791454  0.30980147  0.12431841  1
  Mo  Mo187  1  0.41258906  0.59728003  0.48486451  1
  Mo  Mo188  1  0.30264986  0.09483242  0.10345582  1
  Mo  Mo189  1  0.80761726  0.59811496  0.51139861  1
  Mo  Mo190  1  0.69368854  0.10546200  0.37931873  1
  Mo  Mo191  1  0.30853018  0.70148772  0.86605993  1
  Mo  Mo192  1  0.40125568  0.00094769  0.24044995  1
  Mo  Mo193  1  0.59426630  0.40242972  0.75447004  1
  Mo  Mo194  1  0.89767459  0.29034591  0.88162530  1
  Mo  Mo195  1  0.59571876  0.78861915  0.24160475  1
  Mo  Mo196  1  0.41145529  -0.00633918  0.00818812  1
  Mo  Mo197  1  0.50805004  0.09861898  0.63455810  1
  Mo  Mo198  1  0.80463801  0.19887116  0.75921292  1
  Mo  Mo199  1  0.40658370  0.20090681  -0.01371386  1
