# generated using pymatgen
data_HfZrTaTiMo
_symmetry_space_group_name_H-M   'P 1'
_cell_length_a   15.84537927
_cell_length_b   15.82869491
_cell_length_c   15.40080221
_cell_angle_alpha   89.97807659
_cell_angle_beta   89.95066753
_cell_angle_gamma   90.00520981
_symmetry_Int_Tables_number   1
_chemical_formula_structural   HfZrTaTiMo
_chemical_formula_sum   'Hf40 Zr40 Ta40 Ti40 Mo40'
_cell_volume   3862.69925600
_cell_formula_units_Z   40
loop_
 _symmetry_equiv_pos_site_id
 _symmetry_equiv_pos_as_xyz
  1  'x, y, z'
loop_
 _atom_site_type_symbol
 _atom_site_label
 _atom_site_symmetry_multiplicity
 _atom_site_fract_x
 _atom_site_fract_y
 _atom_site_fract_z
 _atom_site_occupancy
  Hf  Hf0  1  0.71064844  0.70501225  0.86446568  1
  Hf  Hf1  1  0.39767352  0.39642124  0.76207652  1
  Hf  Hf2  1  0.79672556  0.21608098  0.25188546  1
  Hf  Hf3  1  0.20110628  0.80396872  0.50100127  1
  Hf  Hf4  1  0.59413158  0.79057363  -0.00609390  1
  Hf  Hf5  1  0.79290483  0.79617030  0.48905157  1
  Hf  Hf6  1  0.70770207  0.28574474  0.85990197  1
  Hf  Hf7  1  0.08928725  0.49741339  0.12059398  1
  Hf  Hf8  1  0.19707472  0.80242135  0.23318214  1
  Hf  Hf9  1  0.10394929  0.50014865  0.38617528  1
  Hf  Hf10  1  -0.03216912  0.80432693  0.26477456  1
  Hf  Hf11  1  0.20315169  0.40120660  0.74817676  1
  Hf  Hf12  1  0.06501301  0.90248001  0.12675627  1
  Hf  Hf13  1  0.31627676  0.50104022  0.62560657  1
  Hf  Hf14  1  0.09236158  0.89914224  0.62406746  1
  Hf  Hf15  1  0.40349542  0.39617453  -0.00376199  1
  Hf  Hf16  1  0.89964689  0.50991230  0.12313177  1
  Hf  Hf17  1  0.19540649  0.00134243  0.75695148  1
  Hf  Hf18  1  0.59897446  0.00013149  0.74598124  1
  Hf  Hf19  1  0.10446168  0.50683172  0.87316997  1
  Hf  Hf20  1  0.80600136  0.61302957  0.26542451  1
  Hf  Hf21  1  0.09687086  0.69820447  0.36871949  1
  Hf  Hf22  1  0.50406149  0.89853460  0.36991051  1
  Hf  Hf23  1  0.60858022  0.58782358  0.25810356  1
  Hf  Hf24  1  0.30574919  0.49328069  0.38170856  1
  Hf  Hf25  1  0.80139220  0.59829222  -0.01518157  1
  Hf  Hf26  1  0.30453676  0.89780707  0.63113586  1
  Hf  Hf27  1  -0.01494763  0.00762565  -0.01245503  1
  Hf  Hf28  1  0.88862340  0.72518006  0.10955001  1
  Hf  Hf29  1  0.79358883  0.00529511  0.74105719  1
  Hf  Hf30  1  0.60034606  0.59718183  0.49647041  1
  Hf  Hf31  1  0.18625269  0.78877794  0.74732785  1
  Hf  Hf32  1  -0.00155666  0.19504360  0.50623021  1
  Hf  Hf33  1  0.70039168  0.09262814  0.36659651  1
  Hf  Hf34  1  0.89816415  0.50542154  0.40301378  1
  Hf  Hf35  1  0.50083936  0.10020446  0.62501712  1
  Hf  Hf36  1  0.20406999  0.19677705  0.74539872  1
  Hf  Hf37  1  0.89689174  0.09516793  0.37522387  1
  Hf  Hf38  1  0.59709845  0.20704624  0.23799574  1
  Hf  Hf39  1  0.89666034  0.50235353  0.85339497  1
  Zr  Zr40  1  0.00014067  0.18879494  0.73825940  1
  Zr  Zr41  1  0.20637678  0.59598753  0.22927926  1
  Zr  Zr42  1  0.41077655  0.19389946  0.02097974  1
  Zr  Zr43  1  0.88600364  0.89128030  0.88069326  1
  Zr  Zr44  1  0.19792661  0.79367313  0.01363207  1
  Zr  Zr45  1  -0.00481938  0.40403324  -0.01093196  1
  Zr  Zr46  1  0.89058198  0.50410150  0.62424520  1
  Zr  Zr47  1  0.19537530  0.39711583  0.23895491  1
  Zr  Zr48  1  0.50647900  0.27494460  0.86084371  1
  Zr  Zr49  1  0.30105180  0.90022277  0.88161534  1
  Zr  Zr50  1  0.30321355  0.09404269  0.62708722  1
  Zr  Zr51  1  0.89732494  0.89882136  0.61733773  1
  Zr  Zr52  1  0.90676543  0.69296871  0.60986884  1
  Zr  Zr53  1  0.70256288  0.69008431  0.63219661  1
  Zr  Zr54  1  0.40694459  0.60561767  -0.00516030  1
  Zr  Zr55  1  0.20443990  0.00068485  0.01112743  1
  Zr  Zr56  1  0.59637853  0.80556504  0.75299904  1
  Zr  Zr57  1  0.69697776  0.69547724  0.12408817  1
  Zr  Zr58  1  0.40076925  0.39400388  0.22871835  1
  Zr  Zr59  1  0.49425815  0.91546337  0.89665859  1
  Zr  Zr60  1  0.40198422  0.20472503  0.49946554  1
  Zr  Zr61  1  0.09637693  0.11396946  0.11718288  1
  Zr  Zr62  1  0.19153827  0.00642063  0.24591839  1
  Zr  Zr63  1  0.09944520  0.29800791  0.87238256  1
  Zr  Zr64  1  0.00388992  0.20648272  0.26563618  1
  Zr  Zr65  1  0.79764079  0.40861678  0.26428537  1
  Zr  Zr66  1  -0.00443100  0.00438993  0.75504441  1
  Zr  Zr67  1  0.61288469  0.20148661  0.50153273  1
  Zr  Zr68  1  0.39853382  0.79030719  0.50207621  1
  Zr  Zr69  1  0.20557210  0.60034596  0.74685324  1
  Zr  Zr70  1  0.60721392  0.19000020  0.01637705  1
  Zr  Zr71  1  -0.01833667  0.20453442  -0.00836744  1
  Zr  Zr72  1  0.49845874  0.30455069  0.36999106  1
  Zr  Zr73  1  0.41216894  0.59998156  0.50062332  1
  Zr  Zr74  1  0.19954205  0.19604009  0.49961163  1
  Zr  Zr75  1  0.20958134  0.59999201  0.00842013  1
  Zr  Zr76  1  0.30333597  0.70099949  0.35909698  1
  Zr  Zr77  1  0.50398517  0.09385114  0.36688805  1
  Zr  Zr78  1  0.51241455  0.50329037  0.11625226  1
  Zr  Zr79  1  0.20701030  0.61280425  0.51984914  1
  Ta  Ta80  1  0.79030311  0.01239597  0.00307223  1
  Ta  Ta81  1  0.70704685  0.49526867  0.11156944  1
  Ta  Ta82  1  0.30494353  0.10187253  0.36313700  1
  Ta  Ta83  1  0.88929637  0.30325591  0.84557703  1
  Ta  Ta84  1  0.40254469  0.59595585  0.23819012  1
  Ta  Ta85  1  0.90344289  0.30782243  0.12988073  1
  Ta  Ta86  1  0.09310413  0.90853908  0.36784101  1
  Ta  Ta87  1  0.50339741  0.70137595  0.35668572  1
  Ta  Ta88  1  0.89819025  0.09331793  0.14085595  1
  Ta  Ta89  1  0.40227835  0.00095767  0.24055508  1
  Ta  Ta90  1  0.60377213  0.40101775  0.50927464  1
  Ta  Ta91  1  0.59367783  0.79515535  0.50010484  1
  Ta  Ta92  1  0.19894626  0.00038658  0.48840093  1
  Ta  Ta93  1  0.10122476  0.30346566  0.62091927  1
  Ta  Ta94  1  -0.00507619  0.39947666  0.26256884  1
  Ta  Ta95  1  0.70416368  0.08818607  0.14264132  1
  Ta  Ta96  1  0.60371555  0.59433535  -0.02091328  1
  Ta  Ta97  1  0.10095352  0.30856872  0.39105809  1
  Ta  Ta98  1  0.51014789  0.49213939  0.86864608  1
  Ta  Ta99  1  0.30079839  0.90416536  0.36312416  1
  Ta  Ta100  1  0.50811264  0.90393190  0.12181071  1
  Ta  Ta101  1  0.29910554  0.30361883  0.37603054  1
  Ta  Ta102  1  0.89146492  0.30085365  0.62629185  1
  Ta  Ta103  1  0.61400957  0.39392538  0.24237637  1
  Ta  Ta104  1  0.60764472  0.39003634  -0.00121702  1
  Ta  Ta105  1  0.70644848  0.89345149  0.11658635  1
  Ta  Ta106  1  0.80113389  0.39075831  -0.00616896  1
  Ta  Ta107  1  0.39602155  -0.00365705  0.48859521  1
  Ta  Ta108  1  0.07593388  0.69877540  0.12640717  1
  Ta  Ta109  1  0.00180630  0.80174781  0.48422958  1
  Ta  Ta110  1  0.11305193  0.10287614  0.88959817  1
  Ta  Ta111  1  0.51100893  0.49845049  0.64211325  1
  Ta  Ta112  1  0.20921556  0.39890385  -0.00007573  1
  Ta  Ta113  1  0.09244473  0.89281084  0.88111468  1
  Ta  Ta114  1  0.00366923  0.40399916  0.73640903  1
  Ta  Ta115  1  0.19871913  0.20569814  0.26292393  1
  Ta  Ta116  1  0.30435551  0.70145992  0.86861721  1
  Ta  Ta117  1  0.00724390  0.62398647  0.75505492  1
  Ta  Ta118  1  0.49829665  0.90206039  0.61450956  1
  Ta  Ta119  1  0.31785674  0.10161709  0.88176080  1
  Ti  Ti120  1  0.40415454  0.00155176  0.75432611  1
  Ti  Ti121  1  0.69682079  0.90817296  0.88857259  1
  Ti  Ti122  1  0.50265144  0.49373238  0.36927642  1
  Ti  Ti123  1  0.30873051  0.29881397  0.62570256  1
  Ti  Ti124  1  0.69349318  0.90552286  0.37699475  1
  Ti  Ti125  1  0.40254085  0.80120892  0.23975008  1
  Ti  Ti126  1  0.70665369  0.49891598  0.63049608  1
  Ti  Ti127  1  0.89114673  0.90947352  0.39069619  1
  Ti  Ti128  1  0.00664966  0.00555180  0.49922987  1
  Ti  Ti129  1  0.81225795  0.79455171  0.74241180  1
  Ti  Ti130  1  0.79827715  0.20235777  0.01645845  1
  Ti  Ti131  1  -0.00007952  0.61510230  -0.01526177  1
  Ti  Ti132  1  0.50250341  0.29871171  0.63761071  1
  Ti  Ti133  1  0.09761129  0.29848753  0.11638084  1
  Ti  Ti134  1  0.69472987  0.70306855  0.37495545  1
  Ti  Ti135  1  -0.00709882  0.59836571  0.25900284  1
  Ti  Ti136  1  0.00158744  0.39878532  0.51218924  1
  Ti  Ti137  1  0.60898926  0.80427061  0.24905533  1
  Ti  Ti138  1  0.40536646  0.59902578  0.76569608  1
  Ti  Ti139  1  0.78784097  0.01234004  0.51191709  1
  Ti  Ti140  1  0.80684394  -0.02333145  0.24583567  1
  Ti  Ti141  1  0.29106302  0.29105109  0.12182143  1
  Ti  Ti142  1  0.40430701  0.79792837  0.75539165  1
  Ti  Ti143  1  0.49769393  0.69619765  0.63956610  1
  Ti  Ti144  1  0.31203889  0.90305488  0.12273875  1
  Ti  Ti145  1  0.30079475  0.10592080  0.13445743  1
  Ti  Ti146  1  0.70471877  0.48820487  0.86331704  1
  Ti  Ti147  1  0.29941156  0.28745530  0.88093684  1
  Ti  Ti148  1  0.09115302  0.51182622  0.62099517  1
  Ti  Ti149  1  0.60668432  0.39497484  0.74388578  1
  Ti  Ti150  1  0.69287886  0.89830819  0.61487365  1
  Ti  Ti151  1  0.70616513  0.29475722  0.63147443  1
  Ti  Ti152  1  0.68470564  0.10125204  0.87148496  1
  Ti  Ti153  1  0.60053672  0.59761688  0.76103789  1
  Ti  Ti154  1  0.88896070  0.30455553  0.40036356  1
  Ti  Ti155  1  0.41314621  0.39911197  0.50820326  1
  Ti  Ti156  1  0.87364459  0.11537447  0.86850778  1
  Ti  Ti157  1  0.50380655  0.70249330  0.13577988  1
  Ti  Ti158  1  0.39901868  0.79274970  0.00746805  1
  Ti  Ti159  1  0.20489739  0.40068909  0.51406166  1
  Mo  Mo160  1  0.89593802  0.70007224  0.38932434  1
  Mo  Mo161  1  0.69861937  0.09879568  0.62371706  1
  Mo  Mo162  1  0.88520287  0.91007253  0.11392499  1
  Mo  Mo163  1  0.79149555  0.80479994  -0.00858755  1
  Mo  Mo164  1  0.60660612  -0.01019211  0.23768914  1
  Mo  Mo165  1  0.09388988  0.70270713  0.61153828  1
  Mo  Mo166  1  0.31238959  0.70275077  0.64972179  1
  Mo  Mo167  1  0.60077520  -0.01048452  0.50917601  1
  Mo  Mo168  1  0.90510474  0.70422130  0.87565258  1
  Mo  Mo169  1  0.20879992  0.20499849  -0.00354038  1
  Mo  Mo170  1  0.60473444  0.00271137  0.01291180  1
  Mo  Mo171  1  0.30308179  0.49653504  0.11109130  1
  Mo  Mo172  1  0.50071316  0.69763737  0.86363295  1
  Mo  Mo173  1  0.50615441  0.30252875  0.12750584  1
  Mo  Mo174  1  0.00674442  0.60306017  0.49879730  1
  Mo  Mo175  1  0.40354724  0.00501879  0.02468228  1
  Mo  Mo176  1  0.39859427  0.19628626  0.75016374  1
  Mo  Mo177  1  0.70931421  0.30426256  0.11555889  1
  Mo  Mo178  1  0.39017554  0.19926017  0.24245155  1
  Mo  Mo179  1  0.31693946  0.70579017  0.13207134  1
  Mo  Mo180  1  0.10210142  0.70561236  0.89091987  1
  Mo  Mo181  1  0.10000333  0.09364311  0.61206215  1
  Mo  Mo182  1  0.10281346  0.10045055  0.38166423  1
  Mo  Mo183  1  0.78706392  0.39359358  0.50652352  1
  Mo  Mo184  1  0.60434876  0.19425507  0.73297674  1
  Mo  Mo185  1  0.69430287  0.49475325  0.38891171  1
  Mo  Mo186  1  -0.00177411  0.79994848  -0.00951592  1
  Mo  Mo187  1  0.78771711  0.80677489  0.27057878  1
  Mo  Mo188  1  0.70179586  0.30246674  0.38959876  1
  Mo  Mo189  1  0.50007137  0.09513214  0.86686774  1
  Mo  Mo190  1  -0.01171655  0.00168748  0.26274532  1
  Mo  Mo191  1  0.78600469  0.59818867  0.48741907  1
  Mo  Mo192  1  0.80005456  0.60126561  0.75822906  1
  Mo  Mo193  1  -0.00136721  0.79686803  0.76124681  1
  Mo  Mo194  1  0.30562164  0.49597481  0.88091415  1
  Mo  Mo195  1  0.79582603  0.39718559  0.73834183  1
  Mo  Mo196  1  0.89516748  0.09775885  0.60962148  1
  Mo  Mo197  1  0.80133137  0.19756561  0.50872808  1
  Mo  Mo198  1  0.79821912  0.19160733  0.72941990  1
  Mo  Mo199  1  0.50210883  0.09347237  0.14409627  1
