# generated using pymatgen
data_HfZrTaTiMo
_symmetry_space_group_name_H-M   'P 1'
_cell_length_a   15.84474317
_cell_length_b   15.84779226
_cell_length_c   15.37411225
_cell_angle_alpha   90.09274207
_cell_angle_beta   89.95139478
_cell_angle_gamma   89.99789109
_symmetry_Int_Tables_number   1
_chemical_formula_structural   HfZrTaTiMo
_chemical_formula_sum   'Hf40 Zr40 Ta40 Ti40 Mo40'
_cell_volume   3860.49768023
_cell_formula_units_Z   40
loop_
 _symmetry_equiv_pos_site_id
 _symmetry_equiv_pos_as_xyz
  1  'x, y, z'
loop_
 _atom_site_type_symbol
 _atom_site_label
 _atom_site_symmetry_multiplicity
 _atom_site_fract_x
 _atom_site_fract_y
 _atom_site_fract_z
 _atom_site_occupancy
  Hf  Hf0  1  0.69543545  0.69921905  0.11137772  1
  Hf  Hf1  1  0.79730074  0.62087009  0.76462939  1
  Hf  Hf2  1  0.90707867  0.69901660  0.38966722  1
  Hf  Hf3  1  0.39314210  0.39264939  0.75934571  1
  Hf  Hf4  1  0.39804898  0.59052095  0.75605709  1
  Hf  Hf5  1  0.08756168  0.50533753  0.37775112  1
  Hf  Hf6  1  0.40519928  0.80081979  0.00883891  1
  Hf  Hf7  1  0.30519113  0.50450949  0.13000065  1
  Hf  Hf8  1  0.00990861  -0.00745859  -0.00374426  1
  Hf  Hf9  1  0.00249556  0.19146026  0.48493834  1
  Hf  Hf10  1  0.08747930  0.90633603  0.63437950  1
  Hf  Hf11  1  0.19434181  0.59692685  0.74047720  1
  Hf  Hf12  1  0.50469985  0.09478764  0.89049937  1
  Hf  Hf13  1  0.30450859  0.90056636  0.87572834  1
  Hf  Hf14  1  0.39911881  0.60765579  0.25859085  1
  Hf  Hf15  1  0.70885408  0.08397647  0.11849604  1
  Hf  Hf16  1  0.40814346  0.60046305  -0.00547895  1
  Hf  Hf17  1  -0.01252192  0.00420635  0.48806505  1
  Hf  Hf18  1  0.70110686  0.50308567  0.11103568  1
  Hf  Hf19  1  0.19694044  0.41139243  0.25025229  1
  Hf  Hf20  1  0.60230720  0.60667078  0.25937477  1
  Hf  Hf21  1  0.69461501  0.89557690  0.11768980  1
  Hf  Hf22  1  0.09444441  0.69225784  0.38813232  1
  Hf  Hf23  1  0.60795742  0.19462017  0.50588618  1
  Hf  Hf24  1  0.79597878  0.80444855  -0.02814728  1
  Hf  Hf25  1  0.20033630  0.79604738  0.73880628  1
  Hf  Hf26  1  -0.01181036  -0.00327419  0.25531343  1
  Hf  Hf27  1  0.80322932  0.80074807  0.24073952  1
  Hf  Hf28  1  0.79340405  0.20189408  0.76727936  1
  Hf  Hf29  1  0.90763766  0.31009014  0.89539724  1
  Hf  Hf30  1  0.91148179  0.10692729  0.11260217  1
  Hf  Hf31  1  0.20032296  0.19650389  0.00675497  1
  Hf  Hf32  1  0.21752447  0.20706684  0.75756031  1
  Hf  Hf33  1  0.60070193  0.59300826  0.76117474  1
  Hf  Hf34  1  0.81292828  0.60196749  0.24443713  1
  Hf  Hf35  1  0.29546850  0.70450841  0.87233246  1
  Hf  Hf36  1  0.70399288  0.50011921  0.37702806  1
  Hf  Hf37  1  0.31182697  0.10282565  0.89143843  1
  Hf  Hf38  1  0.49699005  0.28638195  0.88596039  1
  Hf  Hf39  1  0.50461113  0.90224834  0.86352757  1
  Zr  Zr40  1  0.78894393  -0.00173726  0.49582996  1
  Zr  Zr41  1  0.79363225  0.41619391  0.77106754  1
  Zr  Zr42  1  0.08811062  0.88536212  0.38136184  1
  Zr  Zr43  1  0.30177273  0.10086271  0.60116960  1
  Zr  Zr44  1  0.69704048  0.50078880  0.62313627  1
  Zr  Zr45  1  -0.00282137  0.79107046  0.23105551  1
  Zr  Zr46  1  0.20562033  0.39875208  0.74892469  1
  Zr  Zr47  1  0.39531543  0.39715411  -0.00311123  1
  Zr  Zr48  1  0.20091119  0.79495093  0.24838496  1
  Zr  Zr49  1  0.20346237  0.79184455  0.51305158  1
  Zr  Zr50  1  0.89584293  0.30024503  0.63592917  1
  Zr  Zr51  1  0.49394351  0.49438667  0.61477921  1
  Zr  Zr52  1  0.60866490  0.79976859  0.50672710  1
  Zr  Zr53  1  0.08096334  0.70003894  0.88019924  1
  Zr  Zr54  1  0.18949095  0.00832070  0.48346974  1
  Zr  Zr55  1  0.19407136  0.60201205  0.01197944  1
  Zr  Zr56  1  0.01097306  0.20368901  0.76142040  1
  Zr  Zr57  1  0.41272163  0.21287674  0.49969902  1
  Zr  Zr58  1  0.10051185  0.10379665  0.63246321  1
  Zr  Zr59  1  0.07980584  0.29400171  0.13548585  1
  Zr  Zr60  1  0.40630340  0.20632146  0.73036306  1
  Zr  Zr61  1  0.80317537  0.19866938  0.49229175  1
  Zr  Zr62  1  0.69279259  0.08640052  0.88773635  1
  Zr  Zr63  1  -0.00416981  0.39216494  0.50742199  1
  Zr  Zr64  1  0.90035568  0.08858522  0.64857822  1
  Zr  Zr65  1  0.90360808  0.31043757  0.35438010  1
  Zr  Zr66  1  0.59541396  0.38745045  0.49510531  1
  Zr  Zr67  1  0.10489722  0.30860832  0.89423249  1
  Zr  Zr68  1  0.79719369  0.20534812  -0.00126263  1
  Zr  Zr69  1  0.09987218  0.30269400  0.36065682  1
  Zr  Zr70  1  0.59627822  -0.00368325  0.50327121  1
  Zr  Zr71  1  0.29528401  0.29782004  0.13760201  1
  Zr  Zr72  1  0.31362076  0.89559916  0.38118087  1
  Zr  Zr73  1  0.30112419  0.90074241  0.13001199  1
  Zr  Zr74  1  0.09851019  0.50095720  0.61134416  1
  Zr  Zr75  1  0.00257208  0.41160645  0.75002789  1
  Zr  Zr76  1  0.70133498  0.31356277  0.12316597  1
  Zr  Zr77  1  0.40294595  0.01017762  0.74023456  1
  Zr  Zr78  1  0.30740411  0.90229329  0.61579193  1
  Zr  Zr79  1  0.80639803  0.19824986  0.24359978  1
  Ta  Ta80  1  0.60245242  0.00164715  0.73415855  1
  Ta  Ta81  1  0.70580433  0.71193504  0.37608347  1
  Ta  Ta82  1  0.10265432  0.89631353  0.86623688  1
  Ta  Ta83  1  0.18975416  0.80500829  0.00553799  1
  Ta  Ta84  1  0.50725560  0.29700134  0.35581886  1
  Ta  Ta85  1  0.29880840  0.09405809  0.13690187  1
  Ta  Ta86  1  0.89260882  0.51176016  0.61771572  1
  Ta  Ta87  1  0.19782790  0.00011599  0.25991566  1
  Ta  Ta88  1  0.40316085  0.40474537  0.25888688  1
  Ta  Ta89  1  0.50054411  0.89074091  0.63389421  1
  Ta  Ta90  1  0.69932012  0.09391536  0.35695693  1
  Ta  Ta91  1  0.40164351  0.60624567  0.49120535  1
  Ta  Ta92  1  0.49843276  0.49977513  0.37823296  1
  Ta  Ta93  1  0.79563343  0.60056981  -0.01987817  1
  Ta  Ta94  1  0.90643467  0.09441673  0.88254168  1
  Ta  Ta95  1  0.69861835  0.30203747  0.63581349  1
  Ta  Ta96  1  0.40673422  -0.00017405  0.25132761  1
  Ta  Ta97  1  0.50583054  0.50201546  0.13025519  1
  Ta  Ta98  1  0.59220100  0.61299182  0.49555814  1
  Ta  Ta99  1  0.79694747  0.39816381  0.49843752  1
  Ta  Ta100  1  0.50651611  0.88790849  0.35990874  1
  Ta  Ta101  1  0.90126329  0.70032282  0.09413926  1
  Ta  Ta102  1  0.59895210  0.19328063  0.23856598  1
  Ta  Ta103  1  0.59111265  0.39309712  0.76069859  1
  Ta  Ta104  1  0.59588679  0.19499011  0.73750855  1
  Ta  Ta105  1  0.20648597  0.60154241  0.50562089  1
  Ta  Ta106  1  0.59259163  0.19697154  0.02342437  1
  Ta  Ta107  1  0.89549084  0.89581751  0.63149356  1
  Ta  Ta108  1  0.10419677  0.09547943  0.13519254  1
  Ta  Ta109  1  0.19236941  0.60566551  0.24497534  1
  Ta  Ta110  1  0.30835352  0.10188657  0.36972546  1
  Ta  Ta111  1  0.79045031  0.60721312  0.50154347  1
  Ta  Ta112  1  0.50178081  0.30883729  0.13561111  1
  Ta  Ta113  1  0.40567577  0.19577145  0.24695688  1
  Ta  Ta114  1  0.88532767  0.88901251  0.38388835  1
  Ta  Ta115  1  0.59742095  -0.00392266  0.24275502  1
  Ta  Ta116  1  0.30464697  0.49258414  0.60611125  1
  Ta  Ta117  1  0.61130513  0.78796610  0.74838900  1
  Ta  Ta118  1  0.20167611  0.00555304  0.75737507  1
  Ta  Ta119  1  0.71254801  0.89085201  0.64309486  1
  Ti  Ti120  1  0.79972826  -0.01410039  0.77084999  1
  Ti  Ti121  1  0.70132045  0.29837489  0.36148627  1
  Ti  Ti122  1  0.09967292  0.90111940  0.12646902  1
  Ti  Ti123  1  0.00005106  0.59701526  0.22573676  1
  Ti  Ti124  1  0.59251346  0.40787542  -0.00973325  1
  Ti  Ti125  1  0.10308819  0.09539584  0.87713391  1
  Ti  Ti126  1  0.91203147  0.89426278  0.86883396  1
  Ti  Ti127  1  0.59252569  0.60214525  -0.01685233  1
  Ti  Ti128  1  0.90120125  0.31625800  0.11505025  1
  Ti  Ti129  1  0.20085426  0.20481624  0.48406508  1
  Ti  Ti130  1  0.29693712  0.50569410  0.38060940  1
  Ti  Ti131  1  0.90253275  0.50597338  0.38705333  1
  Ti  Ti132  1  0.80799048  0.41430470  0.24466263  1
  Ti  Ti133  1  0.19475445  0.40323957  0.01582091  1
  Ti  Ti134  1  0.49468868  0.70746641  0.86210221  1
  Ti  Ti135  1  0.11478976  0.29668019  0.61846415  1
  Ti  Ti136  1  0.50229706  0.09594530  0.37259194  1
  Ti  Ti137  1  0.91334857  0.50963783  0.89379822  1
  Ti  Ti138  1  0.07982736  0.69883907  0.61534771  1
  Ti  Ti139  1  0.09443039  0.50198787  0.88792865  1
  Ti  Ti140  1  0.88879287  0.90870853  0.10795756  1
  Ti  Ti141  1  0.40242694  0.19670815  0.02714214  1
  Ti  Ti142  1  0.28790896  0.49597912  0.88462996  1
  Ti  Ti143  1  0.20061417  0.19239969  0.25791523  1
  Ti  Ti144  1  0.50505253  0.70781474  0.13382704  1
  Ti  Ti145  1  0.88314197  0.71027129  0.61502801  1
  Ti  Ti146  1  0.70887972  0.09742637  0.63565940  1
  Ti  Ti147  1  0.68941816  0.30083827  0.88418974  1
  Ti  Ti148  1  0.41883605  0.78965301  0.50375260  1
  Ti  Ti149  1  0.30291808  0.70291877  0.37737081  1
  Ti  Ti150  1  0.20266978  -0.00268636  0.00187425  1
  Ti  Ti151  1  0.30855703  0.30148854  0.36999174  1
  Ti  Ti152  1  0.31825184  0.69470554  0.62737189  1
  Ti  Ti153  1  0.30090403  0.70270090  0.12669981  1
  Ti  Ti154  1  -0.01554401  0.79128901  0.74542546  1
  Ti  Ti155  1  0.59389755  0.80266931  -0.01323977  1
  Ti  Ti156  1  0.20893345  0.39433044  0.49210464  1
  Ti  Ti157  1  0.41632015  -0.00286491  0.02399356  1
  Ti  Ti158  1  0.60182125  0.40471214  0.25200502  1
  Ti  Ti159  1  -0.01050704  0.60253778  0.74421376  1
  Mo  Mo160  1  -0.00839593  0.60185757  0.51451005  1
  Mo  Mo161  1  0.49735747  0.49636009  0.87634682  1
  Mo  Mo162  1  -0.01306864  0.42434036  0.23575239  1
  Mo  Mo163  1  0.69840509  0.90083018  0.35508935  1
  Mo  Mo164  1  0.90334962  0.69916571  0.88133518  1
  Mo  Mo165  1  0.60391774  0.79612183  0.25417540  1
  Mo  Mo166  1  0.09866326  0.70379370  0.11735836  1
  Mo  Mo167  1  0.00277432  0.41045722  0.01600956  1
  Mo  Mo168  1  0.40603702  0.79362789  0.74186814  1
  Mo  Mo169  1  0.30185741  0.29589227  0.89776697  1
  Mo  Mo170  1  0.00231547  -0.00585274  0.77053584  1
  Mo  Mo171  1  0.50013988  0.09703029  0.12740015  1
  Mo  Mo172  1  0.49894250  0.70321027  0.37209473  1
  Mo  Mo173  1  0.00562619  0.19507442  -0.00556572  1
  Mo  Mo174  1  0.49917044  0.69902756  0.63605306  1
  Mo  Mo175  1  0.29757301  0.30814133  0.60145286  1
  Mo  Mo176  1  -0.01027726  0.80339462  0.51962389  1
  Mo  Mo177  1  -0.00065541  0.60019924  0.00915107  1
  Mo  Mo178  1  0.89433783  0.09547878  0.36338075  1
  Mo  Mo179  1  0.00112635  0.80752044  0.00668945  1
  Mo  Mo180  1  0.00192323  0.18808050  0.25777140  1
  Mo  Mo181  1  0.50290571  0.89203620  0.13881753  1
  Mo  Mo182  1  0.10230367  0.10079140  0.35765475  1
  Mo  Mo183  1  0.69108793  0.89910516  0.86087466  1
  Mo  Mo184  1  0.39628469  0.40212176  0.47454228  1
  Mo  Mo185  1  0.68624563  0.70182596  0.88753667  1
  Mo  Mo186  1  0.50630316  0.30345458  0.62962541  1
  Mo  Mo187  1  0.79759543  0.40799498  -0.01066570  1
  Mo  Mo188  1  0.89504834  0.50348679  0.10668067  1
  Mo  Mo189  1  0.80201400  0.80051637  0.76165759  1
  Mo  Mo190  1  0.80527123  -0.00739865  -0.01913677  1
  Mo  Mo191  1  0.70127469  0.69965026  0.61785852  1
  Mo  Mo192  1  0.40614914  0.79538980  0.24286464  1
  Mo  Mo193  1  0.80004637  -0.00731018  0.25587389  1
  Mo  Mo194  1  0.09622561  0.50161048  0.12963396  1
  Mo  Mo195  1  0.41217789  -0.00398550  0.47894043  1
  Mo  Mo196  1  0.50787117  0.09466031  0.61218650  1
  Mo  Mo197  1  0.69353709  0.49589773  0.88675425  1
  Mo  Mo198  1  0.79571499  0.80371526  0.50037317  1
  Mo  Mo199  1  0.59435432  -0.01132023  0.01426515  1
