# generated using pymatgen
data_HfZrTaTiMo
_symmetry_space_group_name_H-M   'P 1'
_cell_length_a   15.85635883
_cell_length_b   15.83893782
_cell_length_c   15.36248425
_cell_angle_alpha   89.95167110
_cell_angle_beta   89.97493403
_cell_angle_gamma   90.15754774
_symmetry_Int_Tables_number   1
_chemical_formula_structural   HfZrTaTiMo
_chemical_formula_sum   'Hf40 Zr40 Ta40 Ti40 Mo40'
_cell_volume   3858.23904257
_cell_formula_units_Z   40
loop_
 _symmetry_equiv_pos_site_id
 _symmetry_equiv_pos_as_xyz
  1  'x, y, z'
loop_
 _atom_site_type_symbol
 _atom_site_label
 _atom_site_symmetry_multiplicity
 _atom_site_fract_x
 _atom_site_fract_y
 _atom_site_fract_z
 _atom_site_occupancy
  Hf  Hf0  1  0.69225688  0.29164205  0.35227387  1
  Hf  Hf1  1  0.00615231  0.20709245  -0.00243291  1
  Hf  Hf2  1  0.10527662  0.89312396  0.37247033  1
  Hf  Hf3  1  0.70088470  0.30417060  0.87097781  1
  Hf  Hf4  1  0.90574988  0.10165703  0.60770512  1
  Hf  Hf5  1  -0.00766787  0.60025022  0.73996804  1
  Hf  Hf6  1  -0.01019912  0.58630189  0.24570657  1
  Hf  Hf7  1  -0.00356092  0.39790532  0.50011058  1
  Hf  Hf8  1  0.81017352  -0.00842485  -0.01681115  1
  Hf  Hf9  1  0.81499155  -0.00235465  0.76144246  1
  Hf  Hf10  1  0.30602400  0.69432811  0.63051862  1
  Hf  Hf11  1  0.78367004  0.38556055  0.49388069  1
  Hf  Hf12  1  0.79845768  -0.00129559  0.26491164  1
  Hf  Hf13  1  0.19819135  0.00247306  0.24985097  1
  Hf  Hf14  1  0.40590123  0.20216766  0.49756156  1
  Hf  Hf15  1  0.78505063  0.80252734  0.50865891  1
  Hf  Hf16  1  0.10452389  0.89226161  0.86981969  1
  Hf  Hf17  1  0.71355053  0.10927861  0.63750159  1
  Hf  Hf18  1  0.09528574  0.09966712  0.12330035  1
  Hf  Hf19  1  0.59141029  0.40281426  -0.00098216  1
  Hf  Hf20  1  0.10103626  0.70314907  0.87619409  1
  Hf  Hf21  1  0.50445183  0.31650824  0.63620910  1
  Hf  Hf22  1  0.61062089  0.20155178  0.50756961  1
  Hf  Hf23  1  0.68839181  0.50362927  0.38130138  1
  Hf  Hf24  1  0.20568249  0.79309709  0.49362057  1
  Hf  Hf25  1  0.88875457  0.28795679  0.63105757  1
  Hf  Hf26  1  0.31544253  0.89747247  0.35630492  1
  Hf  Hf27  1  0.79155312  0.60390473  0.24061872  1
  Hf  Hf28  1  0.90151275  0.90088233  0.61555546  1
  Hf  Hf29  1  0.89978286  0.90742972  0.13396396  1
  Hf  Hf30  1  0.89710904  0.89258420  0.38334165  1
  Hf  Hf31  1  0.00472301  -0.00037006  0.75495778  1
  Hf  Hf32  1  0.88702032  0.50174103  0.87947369  1
  Hf  Hf33  1  0.18960048  0.41938082  0.49478537  1
  Hf  Hf34  1  0.20127498  0.19852069  0.25705192  1
  Hf  Hf35  1  0.00337116  0.19246893  0.76315738  1
  Hf  Hf36  1  0.66799820  0.50186557  0.61999585  1
  Hf  Hf37  1  0.60158139  0.60711820  0.22736546  1
  Hf  Hf38  1  0.88708333  0.70666907  0.11878724  1
  Hf  Hf39  1  0.30560881  0.30258154  0.61955003  1
  Zr  Zr40  1  0.01574317  0.58971195  0.49798835  1
  Zr  Zr41  1  0.70242738  0.50264322  0.88180466  1
  Zr  Zr42  1  0.20452968  0.00910562  0.74726795  1
  Zr  Zr43  1  0.20492979  0.19933077  0.76847319  1
  Zr  Zr44  1  0.19848558  -0.01461491  0.01113013  1
  Zr  Zr45  1  0.58474513  0.19196999  0.00499941  1
  Zr  Zr46  1  0.30544516  0.70074342  0.13413601  1
  Zr  Zr47  1  0.20214512  0.39973394  0.75394869  1
  Zr  Zr48  1  0.50524751  0.68086168  0.63274457  1
  Zr  Zr49  1  -0.00440127  0.60140689  0.01328776  1
  Zr  Zr50  1  0.30296169  0.89578894  0.87059847  1
  Zr  Zr51  1  0.80713195  0.41119455  0.24073420  1
  Zr  Zr52  1  0.51554290  0.89760750  0.36025691  1
  Zr  Zr53  1  0.51464978  0.10016413  0.36390764  1
  Zr  Zr54  1  0.41242678  0.00753242  -0.00218068  1
  Zr  Zr55  1  0.10739115  0.69225542  0.62211103  1
  Zr  Zr56  1  0.30432231  0.50804534  0.62152732  1
  Zr  Zr57  1  0.09190176  0.50120138  0.86785583  1
  Zr  Zr58  1  0.40685693  0.79954502  0.49916457  1
  Zr  Zr59  1  -0.00559242  0.79477105  0.25620686  1
  Zr  Zr60  1  0.30163365  0.90225388  0.63170075  1
  Zr  Zr61  1  0.19485703  0.38583110  -0.01117147  1
  Zr  Zr62  1  0.60507305  0.79804152  0.51413090  1
  Zr  Zr63  1  0.70829859  0.11230119  0.87392491  1
  Zr  Zr64  1  0.29487116  0.48875239  0.13070591  1
  Zr  Zr65  1  0.40555364  0.80107591  -0.00030617  1
  Zr  Zr66  1  0.69853003  0.30748555  0.65394370  1
  Zr  Zr67  1  0.88647757  0.30117421  0.87540944  1
  Zr  Zr68  1  0.41117161  0.00552482  0.50849921  1
  Zr  Zr69  1  0.50641694  0.31109187  0.36651929  1
  Zr  Zr70  1  0.70399789  0.09011092  0.11350244  1
  Zr  Zr71  1  0.70161742  0.29754307  0.12204024  1
  Zr  Zr72  1  0.50611531  0.90298518  0.13846525  1
  Zr  Zr73  1  0.88049535  0.49719775  0.61917504  1
  Zr  Zr74  1  0.10269480  0.29117930  0.61795753  1
  Zr  Zr75  1  0.19695358  0.59405569  0.01013658  1
  Zr  Zr76  1  0.00262823  0.81176171  0.00453092  1
  Zr  Zr77  1  0.50249283  0.89683026  0.64965155  1
  Zr  Zr78  1  -0.00152935  0.40358177  0.01746955  1
  Zr  Zr79  1  0.39861124  0.19868933  0.24909038  1
  Ta  Ta80  1  0.78772360  0.00178419  0.49053656  1
  Ta  Ta81  1  0.61185329  -0.00351616  0.51527118  1
  Ta  Ta82  1  0.89030294  0.70229777  0.87433812  1
  Ta  Ta83  1  0.09585314  0.30588867  0.36444238  1
  Ta  Ta84  1  0.40173005  0.60252182  0.48374741  1
  Ta  Ta85  1  -0.00795111  0.79913498  0.74341261  1
  Ta  Ta86  1  0.30334941  0.69919334  0.35646017  1
  Ta  Ta87  1  0.50207825  0.70165494  0.35805914  1
  Ta  Ta88  1  0.40748049  0.41214080  0.76678667  1
  Ta  Ta89  1  0.29982061  0.89494571  0.13920822  1
  Ta  Ta90  1  0.20723699  0.20106931  -0.00321969  1
  Ta  Ta91  1  0.60848277  -0.00124021  0.74883133  1
  Ta  Ta92  1  0.50199837  0.50618547  0.37102525  1
  Ta  Ta93  1  0.49297703  0.50001684  0.11716380  1
  Ta  Ta94  1  0.00561657  -0.00126944  0.48774459  1
  Ta  Ta95  1  0.50325024  0.10191605  0.85879017  1
  Ta  Ta96  1  0.10661912  0.70768699  0.13567620  1
  Ta  Ta97  1  0.29517122  0.69959210  0.87695621  1
  Ta  Ta98  1  0.69851672  0.88855099  0.86277658  1
  Ta  Ta99  1  0.30663003  0.09923756  0.12013958  1
  Ta  Ta100  1  0.09917178  0.90064210  0.61547796  1
  Ta  Ta101  1  0.10359328  0.09745486  0.60670618  1
  Ta  Ta102  1  0.29807031  0.30809416  0.38043362  1
  Ta  Ta103  1  0.39741325  0.39461120  -0.00995112  1
  Ta  Ta104  1  -0.00164547  0.39786648  0.74313349  1
  Ta  Ta105  1  0.30187615  0.50194279  0.36885520  1
  Ta  Ta106  1  0.60392097  0.79954136  -0.00087196  1
  Ta  Ta107  1  0.39680260  0.20583701  -0.00569429  1
  Ta  Ta108  1  0.40401719  0.59965344  -0.00282105  1
  Ta  Ta109  1  0.20539612  0.00279712  0.49261343  1
  Ta  Ta110  1  0.49226143  0.30306536  0.13169412  1
  Ta  Ta111  1  0.59008133  0.59258840  0.76632468  1
  Ta  Ta112  1  0.19254680  0.59249229  0.25473545  1
  Ta  Ta113  1  0.89160898  0.50180346  0.38610508  1
  Ta  Ta114  1  0.89918583  0.10566510  0.38384783  1
  Ta  Ta115  1  -0.00120417  0.00762468  0.26135873  1
  Ta  Ta116  1  0.10559341  0.09553361  0.89207511  1
  Ta  Ta117  1  0.80316339  0.19045936  0.25098555  1
  Ta  Ta118  1  0.88890054  0.69067147  0.38715984  1
  Ta  Ta119  1  0.10321980  0.30674254  0.14686329  1
  Ti  Ti120  1  0.30064841  0.50320801  0.88154383  1
  Ti  Ti121  1  0.89892881  0.30017030  0.36743374  1
  Ti  Ti122  1  -0.00405125  0.19837951  0.25271319  1
  Ti  Ti123  1  0.70083826  0.69894606  0.87204414  1
  Ti  Ti124  1  0.30816149  0.09585542  0.37425860  1
  Ti  Ti125  1  0.10184579  0.69234931  0.36919604  1
  Ti  Ti126  1  0.40221376  0.78941440  0.76045607  1
  Ti  Ti127  1  0.40612749  0.59822701  0.24443904  1
  Ti  Ti128  1  0.79666019  0.80200397  -0.01082408  1
  Ti  Ti129  1  0.19724702  0.79693991  0.74033635  1
  Ti  Ti130  1  0.50284262  0.29924114  0.86381804  1
  Ti  Ti131  1  0.60323594  -0.00902403  -0.01307223  1
  Ti  Ti132  1  0.20167783  0.59705229  0.75559543  1
  Ti  Ti133  1  0.79026643  0.60368350  0.74031681  1
  Ti  Ti134  1  0.61342693  0.00572807  0.24860199  1
  Ti  Ti135  1  0.20273074  0.19951678  0.48574466  1
  Ti  Ti136  1  0.50415193  0.70146011  0.87700916  1
  Ti  Ti137  1  0.78552674  0.79890264  0.25879187  1
  Ti  Ti138  1  0.39811244  0.40329095  0.25106994  1
  Ti  Ti139  1  0.68862608  0.70551582  0.37317721  1
  Ti  Ti140  1  0.77854217  0.60971184  0.50531876  1
  Ti  Ti141  1  0.70362961  0.89284049  0.12299739  1
  Ti  Ti142  1  0.29775181  0.29906903  0.12950747  1
  Ti  Ti143  1  0.40697290  0.40880284  0.49575116  1
  Ti  Ti144  1  0.79623899  0.79527592  0.73910290  1
  Ti  Ti145  1  0.09806925  0.10325993  0.38010929  1
  Ti  Ti146  1  0.89442510  0.69820852  0.61432740  1
  Ti  Ti147  1  -0.00328530  -0.00283556  -0.00904179  1
  Ti  Ti148  1  0.39707666  0.01202506  0.75575162  1
  Ti  Ti149  1  0.29903797  0.10716202  0.61834388  1
  Ti  Ti150  1  0.39348149  0.20258931  0.76200393  1
  Ti  Ti151  1  0.00161818  0.20403715  0.48763544  1
  Ti  Ti152  1  0.59970167  0.41294191  0.22955846  1
  Ti  Ti153  1  0.90040145  0.29619339  0.12948281  1
  Ti  Ti154  1  0.59993933  0.60986297  0.00740796  1
  Ti  Ti155  1  0.50771294  0.89856332  0.86208939  1
  Ti  Ti156  1  0.50492733  0.10922810  0.64397690  1
  Ti  Ti157  1  0.90035082  0.10221219  0.12004312  1
  Ti  Ti158  1  0.40239496  0.59469567  0.76961334  1
  Ti  Ti159  1  0.00182021  0.79129068  0.49891266  1
  Mo  Mo160  1  0.80866429  0.19678303  0.75839454  1
  Mo  Mo161  1  0.70307832  0.90236861  0.64653325  1
  Mo  Mo162  1  0.30745136  0.10051666  0.89335954  1
  Mo  Mo163  1  0.69552068  0.89905803  0.37087918  1
  Mo  Mo164  1  0.61219062  0.79659676  0.23508464  1
  Mo  Mo165  1  0.60157844  0.19614052  0.22976337  1
  Mo  Mo166  1  0.20127102  0.79637026  0.01828078  1
  Mo  Mo167  1  0.59191130  0.60626171  0.48714413  1
  Mo  Mo168  1  0.69754302  0.69539299  0.64324041  1
  Mo  Mo169  1  0.90132766  0.88522338  0.86403102  1
  Mo  Mo170  1  0.79970401  0.19963121  0.47849553  1
  Mo  Mo171  1  0.09723493  0.49487666  0.14449460  1
  Mo  Mo172  1  0.58873546  0.40117374  0.49180287  1
  Mo  Mo173  1  0.20293449  0.39672117  0.26203899  1
  Mo  Mo174  1  0.79930626  0.41084844  0.74326291  1
  Mo  Mo175  1  0.09881392  0.29782374  0.87093070  1
  Mo  Mo176  1  0.30971429  0.30053798  0.87188138  1
  Mo  Mo177  1  0.69951040  0.09997330  0.37765410  1
  Mo  Mo178  1  0.79866074  0.40229995  0.01969835  1
  Mo  Mo179  1  -0.00483859  0.39644858  0.25006563  1
  Mo  Mo180  1  0.48967402  0.50049326  0.61586755  1
  Mo  Mo181  1  0.81069677  0.19939198  0.01748186  1
  Mo  Mo182  1  0.20785464  0.60243379  0.47245279  1
  Mo  Mo183  1  0.09936462  0.49820426  0.64039936  1
  Mo  Mo184  1  0.50182352  0.10192804  0.13565252  1
  Mo  Mo185  1  0.49685258  0.50718312  0.89586459  1
  Mo  Mo186  1  0.79128774  0.60976644  0.00536802  1
  Mo  Mo187  1  0.90846247  0.09742737  0.89162217  1
  Mo  Mo188  1  0.70021881  0.71192788  0.11095338  1
  Mo  Mo189  1  0.59299287  0.19835425  0.75098908  1
  Mo  Mo190  1  0.50040664  0.69853813  0.12059928  1
  Mo  Mo191  1  0.89149553  0.50038276  0.11225343  1
  Mo  Mo192  1  0.58822696  0.41047001  0.77084236  1
  Mo  Mo193  1  0.40934234  0.79364769  0.24275603  1
  Mo  Mo194  1  0.09513735  0.49417404  0.35698264  1
  Mo  Mo195  1  0.09868883  0.89864148  0.14349139  1
  Mo  Mo196  1  0.19986551  0.79568150  0.25159610  1
  Mo  Mo197  1  0.40098164  0.00464193  0.23786577  1
  Mo  Mo198  1  0.60240762  0.79102844  0.76392922  1
  Mo  Mo199  1  0.69859510  0.50600843  0.10464393  1
