# generated using pymatgen
data_HfZrTaTiMo
_symmetry_space_group_name_H-M   'P 1'
_cell_length_a   15.83053963
_cell_length_b   15.83582000
_cell_length_c   15.40673377
_cell_angle_alpha   90.00742654
_cell_angle_beta   90.02741568
_cell_angle_gamma   90.03714521
_symmetry_Int_Tables_number   1
_chemical_formula_structural   HfZrTaTiMo
_chemical_formula_sum   'Hf40 Zr40 Ta40 Ti40 Mo40'
_cell_volume   3862.30627214
_cell_formula_units_Z   40
loop_
 _symmetry_equiv_pos_site_id
 _symmetry_equiv_pos_as_xyz
  1  'x, y, z'
loop_
 _atom_site_type_symbol
 _atom_site_label
 _atom_site_symmetry_multiplicity
 _atom_site_fract_x
 _atom_site_fract_y
 _atom_site_fract_z
 _atom_site_occupancy
  Hf  Hf0  1  0.89435797  0.69188315  0.87610724  1
  Hf  Hf1  1  0.20442576  0.61199044  0.49361051  1
  Hf  Hf2  1  0.58465572  0.60757130  -0.00262471  1
  Hf  Hf3  1  0.60580633  0.39833198  0.25995150  1
  Hf  Hf4  1  0.28967839  0.49468088  0.37456067  1
  Hf  Hf5  1  -0.00731220  0.19878339  0.52114045  1
  Hf  Hf6  1  0.29645164  0.09440099  0.88315623  1
  Hf  Hf7  1  0.40899486  0.59280539  0.47754718  1
  Hf  Hf8  1  0.38596159  -0.00664907  0.74231234  1
  Hf  Hf9  1  0.71550245  0.30602409  0.85862448  1
  Hf  Hf10  1  0.00210848  0.40544443  0.23610161  1
  Hf  Hf11  1  0.29901947  0.50579715  0.11278739  1
  Hf  Hf12  1  0.50516275  0.90065083  0.36938314  1
  Hf  Hf13  1  0.30809677  0.51727755  0.62453677  1
  Hf  Hf14  1  0.89781268  0.10919526  0.12959799  1
  Hf  Hf15  1  0.80051578  0.80593479  0.00093214  1
  Hf  Hf16  1  0.09687310  0.29896308  0.37566311  1
  Hf  Hf17  1  -0.00111768  0.79077963  0.49849564  1
  Hf  Hf18  1  0.49709689  0.89452910  0.60844025  1
  Hf  Hf19  1  0.80127443  0.81898263  0.76892389  1
  Hf  Hf20  1  0.39367417  0.19407386  0.73702974  1
  Hf  Hf21  1  0.52830175  0.70616463  0.36608354  1
  Hf  Hf22  1  0.80041402  0.40309323  0.50428749  1
  Hf  Hf23  1  0.19638537  -0.00571000  0.23946671  1
  Hf  Hf24  1  0.80405677  0.00578483  -0.00341488  1
  Hf  Hf25  1  0.90749631  0.11410951  0.86289989  1
  Hf  Hf26  1  0.40505047  0.40547160  0.75154755  1
  Hf  Hf27  1  0.38796663  0.78503078  0.48641606  1
  Hf  Hf28  1  0.49399568  0.89842983  0.88163835  1
  Hf  Hf29  1  0.90610536  0.10782929  0.36995592  1
  Hf  Hf30  1  0.80136452  0.61393700  0.22838799  1
  Hf  Hf31  1  0.70041548  0.52304487  0.37195815  1
  Hf  Hf32  1  0.41083408  0.39782587  0.49613845  1
  Hf  Hf33  1  0.20516892  0.19788783  0.51161265  1
  Hf  Hf34  1  0.00239688  0.59934108  0.51420018  1
  Hf  Hf35  1  0.19468658  0.40043023  0.24321133  1
  Hf  Hf36  1  0.48843657  0.68777140  0.62596002  1
  Hf  Hf37  1  0.89571413  0.89820980  0.38212041  1
  Hf  Hf38  1  0.41242081  0.78829266  0.01876575  1
  Hf  Hf39  1  0.10323137  0.70273047  0.10608954  1
  Zr  Zr40  1  0.79760612  0.01095341  0.49494163  1
  Zr  Zr41  1  0.79279433  -0.00273276  0.24758642  1
  Zr  Zr42  1  0.38610871  0.79373439  0.74760736  1
  Zr  Zr43  1  0.00437819  -0.01263293  0.76308301  1
  Zr  Zr44  1  0.70655818  0.49240274  0.10953824  1
  Zr  Zr45  1  -0.00095336  0.39933369  0.51996059  1
  Zr  Zr46  1  0.21034420  0.39948203  0.75249471  1
  Zr  Zr47  1  0.90957802  0.50780520  0.37744647  1
  Zr  Zr48  1  0.60194861  0.40141982  0.49802693  1
  Zr  Zr49  1  0.09733112  0.10133407  0.37752230  1
  Zr  Zr50  1  0.89479483  0.70392794  0.64304680  1
  Zr  Zr51  1  0.39933424  -0.00333687  0.02128022  1
  Zr  Zr52  1  0.60536391  0.60038885  0.50992853  1
  Zr  Zr53  1  0.69972878  0.70673698  0.64033137  1
  Zr  Zr54  1  0.89831259  0.90588716  0.61906053  1
  Zr  Zr55  1  0.80190001  0.40655468  0.26177576  1
  Zr  Zr56  1  0.20069599  0.79974502  0.24784692  1
  Zr  Zr57  1  0.18711597  0.38012148  -0.00070450  1
  Zr  Zr58  1  0.19387999  0.81958028  0.77101532  1
  Zr  Zr59  1  0.59146327  0.80259301  0.75635962  1
  Zr  Zr60  1  0.39996640  0.60726848  0.25283535  1
  Zr  Zr61  1  0.79530863  0.20035885  -0.01475410  1
  Zr  Zr62  1  0.49894309  0.29384399  0.86743746  1
  Zr  Zr63  1  -0.01029837  0.58345880  0.75061049  1
  Zr  Zr64  1  0.30491437  0.29326068  0.13189621  1
  Zr  Zr65  1  -0.00315905  -0.00742947  0.23471144  1
  Zr  Zr66  1  0.08980309  0.48601370  0.87303127  1
  Zr  Zr67  1  0.29964396  0.70086307  0.89518708  1
  Zr  Zr68  1  0.89485881  0.31278504  0.11779086  1
  Zr  Zr69  1  0.11370079  0.70323500  0.64111923  1
  Zr  Zr70  1  0.59804427  0.00928938  0.00979651  1
  Zr  Zr71  1  0.69763429  0.29722522  0.11525817  1
  Zr  Zr72  1  0.40776237  0.19277468  0.50530561  1
  Zr  Zr73  1  0.00993793  0.20927084  -0.00053745  1
  Zr  Zr74  1  0.39301969  -0.00653355  0.24710086  1
  Zr  Zr75  1  0.40221763  0.39550940  -0.00968129  1
  Zr  Zr76  1  0.40652390  0.40123537  0.25975715  1
  Zr  Zr77  1  0.60404645  0.19037822  0.75407171  1
  Zr  Zr78  1  0.09565909  0.90333481  0.38882890  1
  Zr  Zr79  1  0.68226704  0.10739754  0.37046062  1
  Ta  Ta80  1  0.79768213  0.21003298  0.50848440  1
  Ta  Ta81  1  0.51047215  0.28097152  0.36737461  1
  Ta  Ta82  1  0.40667892  0.19148419  0.00672151  1
  Ta  Ta83  1  0.79415329  0.21222725  0.26190779  1
  Ta  Ta84  1  0.08883928  0.89421432  0.10211535  1
  Ta  Ta85  1  0.10025553  0.90084508  0.61632177  1
  Ta  Ta86  1  0.00017833  0.60195480  0.22996832  1
  Ta  Ta87  1  0.10019860  0.08714894  0.63036116  1
  Ta  Ta88  1  0.89549735  0.70034344  0.36637147  1
  Ta  Ta89  1  0.59489316  0.00526480  0.50032981  1
  Ta  Ta90  1  0.70201812  0.09875218  0.62979769  1
  Ta  Ta91  1  0.69641205  0.90568757  0.61683133  1
  Ta  Ta92  1  0.50009162  0.49486641  0.11887831  1
  Ta  Ta93  1  0.50402777  0.09227691  0.62563524  1
  Ta  Ta94  1  -0.00392770  0.59494290  -0.00332318  1
  Ta  Ta95  1  0.59671230  0.19582781  -0.00991649  1
  Ta  Ta96  1  0.29979221  0.29116887  0.37386544  1
  Ta  Ta97  1  0.60143942  0.40029660  -0.01602142  1
  Ta  Ta98  1  0.70735102  0.30383499  0.63904075  1
  Ta  Ta99  1  0.09108973  0.28456189  0.85089659  1
  Ta  Ta100  1  0.19081224  0.59847247  0.24628187  1
  Ta  Ta101  1  0.00467499  0.80202426  0.77700422  1
  Ta  Ta102  1  0.59361451  0.59534904  0.76255134  1
  Ta  Ta103  1  0.69255217  0.90829024  0.88418013  1
  Ta  Ta104  1  0.90824453  0.70833787  0.11009153  1
  Ta  Ta105  1  0.69563171  0.70058147  0.87872129  1
  Ta  Ta106  1  0.28709465  0.89623163  0.60963286  1
  Ta  Ta107  1  0.50969754  0.30281365  0.63182393  1
  Ta  Ta108  1  0.30033615  0.10435666  0.36471250  1
  Ta  Ta109  1  0.50632409  0.29461429  0.12578319  1
  Ta  Ta110  1  0.20554733  0.18528569  0.73909996  1
  Ta  Ta111  1  0.60400813  0.60208352  0.22897252  1
  Ta  Ta112  1  0.10132143  0.29565437  0.64008598  1
  Ta  Ta113  1  -0.00512969  0.79718473  0.24428683  1
  Ta  Ta114  1  0.80431136  0.60672009  0.50640142  1
  Ta  Ta115  1  0.80523436  0.80383400  0.23341400  1
  Ta  Ta116  1  0.50847313  0.89297127  0.14501234  1
  Ta  Ta117  1  0.40511525  0.59671834  0.77286575  1
  Ta  Ta118  1  0.29778061  0.10457058  0.13209320  1
  Ta  Ta119  1  0.69037886  0.88844668  0.37784782  1
  Ti  Ti120  1  0.90454628  0.29813229  0.37226619  1
  Ti  Ti121  1  0.79960011  0.59943675  0.00249017  1
  Ti  Ti122  1  0.39473331  0.00426607  0.49632590  1
  Ti  Ti123  1  0.78777695  0.79241808  0.49551290  1
  Ti  Ti124  1  0.60493926  0.20250573  0.51256509  1
  Ti  Ti125  1  0.20303467  0.00498431  0.50027776  1
  Ti  Ti126  1  0.69927506  0.90584715  0.12223787  1
  Ti  Ti127  1  0.49616311  0.09164616  0.87001561  1
  Ti  Ti128  1  0.69222302  0.10785643  0.13959704  1
  Ti  Ti129  1  0.60032991  -0.00470931  0.74840034  1
  Ti  Ti130  1  0.19316282  0.59771907  -0.01004542  1
  Ti  Ti131  1  0.10835419  0.49717193  0.63534520  1
  Ti  Ti132  1  0.09590005  0.49724018  0.10824725  1
  Ti  Ti133  1  0.09592704  0.10575156  0.12630007  1
  Ti  Ti134  1  0.09734935  0.50204623  0.37596873  1
  Ti  Ti135  1  0.09273057  0.69335785  0.36395103  1
  Ti  Ti136  1  0.19872034  0.39887278  0.50645730  1
  Ti  Ti137  1  0.29678009  0.90238927  0.38185229  1
  Ti  Ti138  1  0.39235349  0.79728829  0.24683738  1
  Ti  Ti139  1  0.89657670  0.10159381  0.63917888  1
  Ti  Ti140  1  0.60064862  0.79835283  0.00919457  1
  Ti  Ti141  1  0.19466820  0.00267708  0.01650997  1
  Ti  Ti142  1  0.62352932  0.78973733  0.23204408  1
  Ti  Ti143  1  0.30278897  0.30445472  0.62063876  1
  Ti  Ti144  1  0.70878275  0.50595412  0.87451735  1
  Ti  Ti145  1  0.82110610  0.41542561  0.74900791  1
  Ti  Ti146  1  0.29681149  0.69595671  0.11904355  1
  Ti  Ti147  1  0.20719854  0.60629925  0.76324777  1
  Ti  Ti148  1  0.70710028  0.50539015  0.63915586  1
  Ti  Ti149  1  0.49740636  0.09765767  0.36155007  1
  Ti  Ti150  1  0.29476377  0.28609587  0.87540785  1
  Ti  Ti151  1  0.19961053  0.19587246  0.00464822  1
  Ti  Ti152  1  0.20039780  0.79365385  0.49153413  1
  Ti  Ti153  1  0.19378497  0.19988079  0.24726153  1
  Ti  Ti154  1  0.30156928  0.50049448  0.88632059  1
  Ti  Ti155  1  0.60057581  0.41166572  0.75264045  1
  Ti  Ti156  1  0.50385880  0.10759001  0.14634100  1
  Ti  Ti157  1  0.10860992  0.09319202  0.87137181  1
  Ti  Ti158  1  0.79196830  0.00628075  0.76266385  1
  Ti  Ti159  1  0.29274480  0.90504003  0.89946486  1
  Mo  Mo160  1  0.90217163  0.90685720  0.88955761  1
  Mo  Mo161  1  0.71293922  0.70893917  0.37010316  1
  Mo  Mo162  1  0.10348789  0.90834143  0.90002352  1
  Mo  Mo163  1  0.00486703  0.19287650  0.73885463  1
  Mo  Mo164  1  0.70377799  0.29657858  0.38875536  1
  Mo  Mo165  1  0.70212069  0.70387397  0.10372574  1
  Mo  Mo166  1  0.89041427  0.50189803  0.61834997  1
  Mo  Mo167  1  0.69733133  0.09632153  0.86181788  1
  Mo  Mo168  1  0.91222044  0.31136890  0.85597627  1
  Mo  Mo169  1  0.39953198  0.59558010  0.00120563  1
  Mo  Mo170  1  0.50769691  0.49893332  0.35735326  1
  Mo  Mo171  1  0.80410075  0.19953690  0.73892462  1
  Mo  Mo172  1  0.40005936  0.19793723  0.25113782  1
  Mo  Mo173  1  0.60070186  -0.00530546  0.24326189  1
  Mo  Mo174  1  0.60002029  0.20135203  0.24580086  1
  Mo  Mo175  1  0.78836380  0.59594410  0.75908151  1
  Mo  Mo176  1  0.00438601  0.00655881  -0.00285798  1
  Mo  Mo177  1  0.50475622  0.49790556  0.64278877  1
  Mo  Mo178  1  0.20143195  -0.00271613  0.74736891  1
  Mo  Mo179  1  0.09884673  0.29077741  0.13712737  1
  Mo  Mo180  1  0.00150340  0.80072647  -0.01971139  1
  Mo  Mo181  1  -0.00047123  0.20716037  0.24254722  1
  Mo  Mo182  1  0.90404189  0.50607517  0.10584933  1
  Mo  Mo183  1  0.28824252  0.70081670  0.35863321  1
  Mo  Mo184  1  -0.00200827  0.39549317  0.73703127  1
  Mo  Mo185  1  0.90440911  0.89983376  0.11228719  1
  Mo  Mo186  1  0.89299054  0.49227554  0.88963106  1
  Mo  Mo187  1  0.09859348  0.69808626  0.88340159  1
  Mo  Mo188  1  -0.00280273  0.39849066  0.00444442  1
  Mo  Mo189  1  0.29862793  0.08794844  0.61615440  1
  Mo  Mo190  1  0.80172605  0.40269642  -0.02180650  1
  Mo  Mo191  1  0.50429964  0.49897228  0.87961210  1
  Mo  Mo192  1  0.89513075  0.29914152  0.64227397  1
  Mo  Mo193  1  0.29913902  0.69992291  0.63320285  1
  Mo  Mo194  1  0.20464599  0.80509138  0.00312230  1
  Mo  Mo195  1  0.50310917  0.70162544  0.14181787  1
  Mo  Mo196  1  0.60229931  0.80563680  0.50308559  1
  Mo  Mo197  1  -0.00139921  0.00166353  0.51531755  1
  Mo  Mo198  1  0.29579697  0.89574856  0.11685197  1
  Mo  Mo199  1  0.50206063  0.70234102  0.87307137  1
