# generated using pymatgen
data_HfZrTaTiMo
_symmetry_space_group_name_H-M   'P 1'
_cell_length_a   15.82701295
_cell_length_b   15.84566322
_cell_length_c   15.40183546
_cell_angle_alpha   90.01371584
_cell_angle_beta   89.97587540
_cell_angle_gamma   89.95766707
_symmetry_Int_Tables_number   1
_chemical_formula_structural   HfZrTaTiMo
_chemical_formula_sum   'Hf40 Zr40 Ta40 Ti40 Mo40'
_cell_volume   3862.61736669
_cell_formula_units_Z   40
loop_
 _symmetry_equiv_pos_site_id
 _symmetry_equiv_pos_as_xyz
  1  'x, y, z'
loop_
 _atom_site_type_symbol
 _atom_site_label
 _atom_site_symmetry_multiplicity
 _atom_site_fract_x
 _atom_site_fract_y
 _atom_site_fract_z
 _atom_site_occupancy
  Hf  Hf0  1  0.10969550  0.50584554  0.37487835  1
  Hf  Hf1  1  0.59518654  0.20990682  -0.01095494  1
  Hf  Hf2  1  0.40485415  0.79508398  0.48620208  1
  Hf  Hf3  1  0.00569487  0.20225520  0.50642202  1
  Hf  Hf4  1  -0.00890294  0.39856130  0.75563231  1
  Hf  Hf5  1  0.89565964  0.50809373  0.38562774  1
  Hf  Hf6  1  0.30728574  0.88436627  0.62405011  1
  Hf  Hf7  1  0.19274682  0.20085122  0.26342804  1
  Hf  Hf8  1  0.80646846  0.00036176  0.24600347  1
  Hf  Hf9  1  0.89395304  0.31410362  0.39539857  1
  Hf  Hf10  1  0.39461674  0.41415046  0.25194324  1
  Hf  Hf11  1  0.49115033  0.71117670  0.64323102  1
  Hf  Hf12  1  0.71016935  0.68765021  0.37890349  1
  Hf  Hf13  1  0.70113845  0.30998506  0.10300508  1
  Hf  Hf14  1  0.39495067  0.00373617  0.00352701  1
  Hf  Hf15  1  0.49578232  0.88208007  0.12117477  1
  Hf  Hf16  1  0.39142133  -0.01506544  0.24117970  1
  Hf  Hf17  1  0.19980833  0.19948446  0.00182848  1
  Hf  Hf18  1  0.00599101  -0.00657571  0.49371768  1
  Hf  Hf19  1  0.40373033  0.60202852  0.26092512  1
  Hf  Hf20  1  0.58612829  0.00162831  0.50236446  1
  Hf  Hf21  1  0.40302731  0.40585401  0.51929325  1
  Hf  Hf22  1  -0.00715645  0.19320794  0.74038899  1
  Hf  Hf23  1  0.49339599  0.10610113  0.36164117  1
  Hf  Hf24  1  0.49926077  0.51285352  0.11188623  1
  Hf  Hf25  1  0.80038085  0.20746454  0.25427422  1
  Hf  Hf26  1  0.71020942  0.10828419  0.88064845  1
  Hf  Hf27  1  0.21030364  0.59176004  0.23764920  1
  Hf  Hf28  1  0.41208659  0.20785623  0.73651472  1
  Hf  Hf29  1  0.19617373  -0.00522452  0.00443543  1
  Hf  Hf30  1  0.70807804  0.10675311  0.11297154  1
  Hf  Hf31  1  0.21910424  0.59648126  0.00498235  1
  Hf  Hf32  1  -0.00757847  -0.01307780  0.75061086  1
  Hf  Hf33  1  0.19576940  -0.01384538  0.49272406  1
  Hf  Hf34  1  0.29709027  0.88865556  0.87976599  1
  Hf  Hf35  1  0.49669277  0.10888045  0.12934931  1
  Hf  Hf36  1  0.29007006  0.31254687  0.13596174  1
  Hf  Hf37  1  0.79925079  0.40786491  0.24647162  1
  Hf  Hf38  1  0.79685979  0.79752767  0.24006954  1
  Hf  Hf39  1  0.19878259  0.78804601  0.74515806  1
  Zr  Zr40  1  0.40184576  0.00370125  0.74852723  1
  Zr  Zr41  1  0.52070581  0.71441112  0.35952052  1
  Zr  Zr42  1  0.70162868  0.71286183  0.62109910  1
  Zr  Zr43  1  0.59133657  0.59989427  0.51708189  1
  Zr  Zr44  1  -0.01173907  0.18250449  -0.00783827  1
  Zr  Zr45  1  0.38766533  0.59811201  0.50128713  1
  Zr  Zr46  1  0.10563702  0.48452161  0.12487404  1
  Zr  Zr47  1  0.71002893  0.90429609  0.89006389  1
  Zr  Zr48  1  0.60643368  0.41919441  0.24403495  1
  Zr  Zr49  1  0.69141108  0.11178664  0.62412173  1
  Zr  Zr50  1  0.60405690  0.21643130  0.24443819  1
  Zr  Zr51  1  0.50436767  0.89498405  0.87207745  1
  Zr  Zr52  1  -0.00433153  0.19698446  0.27076734  1
  Zr  Zr53  1  0.30067332  0.09857908  0.36842095  1
  Zr  Zr54  1  0.09233872  0.08946235  0.13689075  1
  Zr  Zr55  1  0.80307719  0.60237071  0.76171994  1
  Zr  Zr56  1  0.10985991  0.28693624  0.85960812  1
  Zr  Zr57  1  0.29247966  0.11532949  0.86536713  1
  Zr  Zr58  1  0.70107267  0.89372799  0.10508593  1
  Zr  Zr59  1  0.00436199  0.59506647  0.00076930  1
  Zr  Zr60  1  0.79934514  0.80639331  0.76076310  1
  Zr  Zr61  1  0.10099314  0.87114973  0.35776942  1
  Zr  Zr62  1  0.47872404  0.51380505  0.86585784  1
  Zr  Zr63  1  0.59229060  0.39871779  0.74794662  1
  Zr  Zr64  1  0.80518280  0.40743867  -0.01991310  1
  Zr  Zr65  1  0.89510178  0.89553945  0.61666216  1
  Zr  Zr66  1  0.50255663  0.30639706  0.37755472  1
  Zr  Zr67  1  0.01182948  0.60847536  0.50009681  1
  Zr  Zr68  1  0.60187267  -0.01194972  0.25064564  1
  Zr  Zr69  1  0.19445140  0.20186779  0.49807596  1
  Zr  Zr70  1  0.19055487  -0.00909829  0.74965030  1
  Zr  Zr71  1  0.40691686  0.20221686  0.51582489  1
  Zr  Zr72  1  0.60269588  0.01023755  0.74994088  1
  Zr  Zr73  1  0.69064431  0.88248389  0.38765550  1
  Zr  Zr74  1  0.09404370  0.29955590  0.12392420  1
  Zr  Zr75  1  0.20627992  0.40802551  0.51599652  1
  Zr  Zr76  1  0.89364744  0.09619088  0.39316797  1
  Zr  Zr77  1  0.69530271  0.10943227  0.38617778  1
  Zr  Zr78  1  0.90119240  0.29718280  0.11620808  1
  Zr  Zr79  1  0.29213342  0.09648944  0.62454486  1
  Ta  Ta80  1  0.30069377  0.31060477  0.36924002  1
  Ta  Ta81  1  0.00404853  0.40591482  0.51910894  1
  Ta  Ta82  1  0.89230425  0.10007438  0.61911458  1
  Ta  Ta83  1  0.51074875  0.69893998  0.13421236  1
  Ta  Ta84  1  -0.00228226  0.40422742  0.25971321  1
  Ta  Ta85  1  0.40249598  0.77939146  -0.00912786  1
  Ta  Ta86  1  0.69557265  0.50493523  0.87281589  1
  Ta  Ta87  1  0.48453740  0.30706225  0.87863524  1
  Ta  Ta88  1  0.70299155  0.50169508  0.39151263  1
  Ta  Ta89  1  0.38456274  0.40978004  -0.00316638  1
  Ta  Ta90  1  0.60124160  0.61065736  0.75732978  1
  Ta  Ta91  1  0.89828981  0.88825000  0.37543349  1
  Ta  Ta92  1  0.80127130  0.60569104  -0.00862526  1
  Ta  Ta93  1  0.79611631  0.39844726  0.75396198  1
  Ta  Ta94  1  0.10661724  0.69676631  0.87454726  1
  Ta  Ta95  1  0.29837937  0.10527237  0.13501429  1
  Ta  Ta96  1  0.29904468  0.88540164  0.36992118  1
  Ta  Ta97  1  0.31380346  0.68422647  0.86043020  1
  Ta  Ta98  1  0.82453339  0.00960875  0.01039260  1
  Ta  Ta99  1  0.19531574  0.77896330  0.50768029  1
  Ta  Ta100  1  0.69599197  0.69432357  0.11299590  1
  Ta  Ta101  1  0.90343369  0.50562477  0.63451275  1
  Ta  Ta102  1  0.20415041  0.39901030  -0.02273416  1
  Ta  Ta103  1  0.59238115  0.40789960  -0.01666478  1
  Ta  Ta104  1  -0.00247365  0.59892438  0.24348670  1
  Ta  Ta105  1  0.50451356  0.89453847  0.63420875  1
  Ta  Ta106  1  0.79694233  0.59488467  0.23567527  1
  Ta  Ta107  1  0.89915883  0.69874086  0.12019915  1
  Ta  Ta108  1  0.09955597  0.50889637  0.64854786  1
  Ta  Ta109  1  0.92192816  0.70357126  0.64494408  1
  Ta  Ta110  1  0.00231699  0.39942359  -0.02446933  1
  Ta  Ta111  1  0.90804719  0.70772979  0.88312151  1
  Ta  Ta112  1  0.49168853  0.31168353  0.11444214  1
  Ta  Ta113  1  0.10524337  0.50333155  0.86320471  1
  Ta  Ta114  1  0.90890219  0.70300656  0.35783025  1
  Ta  Ta115  1  0.00391640  -0.00884284  -0.00285020  1
  Ta  Ta116  1  0.09054340  0.87888224  0.62311596  1
  Ta  Ta117  1  0.40228460  -0.00825579  0.49600467  1
  Ta  Ta118  1  0.39113456  0.21087152  0.00303080  1
  Ta  Ta119  1  0.59965368  0.40267556  0.51896078  1
  Ti  Ti120  1  0.27876368  0.70162272  0.36508776  1
  Ti  Ti121  1  0.10311350  0.88965726  0.13130197  1
  Ti  Ti122  1  0.79226265  0.20988263  0.50824116  1
  Ti  Ti123  1  0.59283352  0.60943409  -0.02151000  1
  Ti  Ti124  1  0.90286267  0.89670146  0.88781512  1
  Ti  Ti125  1  0.59940777  0.78732868  -0.01391888  1
  Ti  Ti126  1  0.69785773  0.31426173  0.39115715  1
  Ti  Ti127  1  0.09986043  0.70468776  0.13623060  1
  Ti  Ti128  1  0.89540191  0.09359089  0.86397762  1
  Ti  Ti129  1  0.79904136  0.00201404  0.74193799  1
  Ti  Ti130  1  0.69197271  0.29844075  0.62968752  1
  Ti  Ti131  1  0.79414666  -0.00662908  0.50371956  1
  Ti  Ti132  1  0.20555608  0.79122020  0.00950801  1
  Ti  Ti133  1  0.09667371  0.09301922  0.86676711  1
  Ti  Ti134  1  0.00509011  0.78747109  0.49388778  1
  Ti  Ti135  1  0.81163785  0.60464009  0.51764436  1
  Ti  Ti136  1  0.59543572  0.00526915  -0.00053840  1
  Ti  Ti137  1  0.51204406  0.50482338  0.37830986  1
  Ti  Ti138  1  -0.00016626  -0.00557515  0.26158097  1
  Ti  Ti139  1  0.89385424  0.30236798  0.62364685  1
  Ti  Ti140  1  0.70071755  0.50625731  0.63523563  1
  Ti  Ti141  1  0.69702161  0.51011442  0.10253365  1
  Ti  Ti142  1  0.09518132  0.88588797  0.87907603  1
  Ti  Ti143  1  0.20007249  -0.01162236  0.24658916  1
  Ti  Ti144  1  0.81227583  0.79056285  0.49852268  1
  Ti  Ti145  1  0.91333574  0.89771969  0.12753715  1
  Ti  Ti146  1  0.00513287  0.79802325  0.00688292  1
  Ti  Ti147  1  0.88796314  0.28760257  0.87432253  1
  Ti  Ti148  1  0.31757122  0.70912619  0.13261778  1
  Ti  Ti149  1  0.09814737  0.31315475  0.38098586  1
  Ti  Ti150  1  0.39416546  0.39878692  0.72923843  1
  Ti  Ti151  1  0.79312325  0.20631285  0.74743125  1
  Ti  Ti152  1  0.49736933  0.10828045  0.87822214  1
  Ti  Ti153  1  0.29486962  0.49658079  0.85100692  1
  Ti  Ti154  1  0.79607694  0.40995190  0.52333760  1
  Ti  Ti155  1  0.20201968  0.60345114  0.51738603  1
  Ti  Ti156  1  0.09585881  0.09158541  0.62952566  1
  Ti  Ti157  1  0.69234280  0.89595790  0.62193623  1
  Ti  Ti158  1  0.90287773  0.49712538  0.11949357  1
  Ti  Ti159  1  0.10781221  0.30126919  0.63784580  1
  Mo  Mo160  1  0.30355766  0.50110692  0.11757899  1
  Mo  Mo161  1  -0.00358040  0.79612276  0.23342168  1
  Mo  Mo162  1  0.39794300  0.79678151  0.25751104  1
  Mo  Mo163  1  0.30530090  0.30844189  0.86151293  1
  Mo  Mo164  1  0.00136519  0.60221984  0.76680612  1
  Mo  Mo165  1  0.69525217  0.30477028  0.86761098  1
  Mo  Mo166  1  0.39601029  0.20827614  0.23428812  1
  Mo  Mo167  1  0.19782019  0.40160349  0.26961543  1
  Mo  Mo168  1  0.60412945  0.80275640  0.76008504  1
  Mo  Mo169  1  0.49254953  0.90096961  0.36574783  1
  Mo  Mo170  1  0.60296431  0.21015754  0.49188129  1
  Mo  Mo171  1  0.00269785  0.80136081  0.76892202  1
  Mo  Mo172  1  0.40087054  0.60690214  0.00553432  1
  Mo  Mo173  1  0.29647349  0.89119414  0.11083554  1
  Mo  Mo174  1  0.10093264  0.69499449  0.35480988  1
  Mo  Mo175  1  0.80371440  0.19873972  -0.01010588  1
  Mo  Mo176  1  0.61483848  0.59492672  0.24745280  1
  Mo  Mo177  1  0.09655488  0.69705154  0.63853126  1
  Mo  Mo178  1  0.60749548  0.79391211  0.23466569  1
  Mo  Mo179  1  0.20108309  0.59933476  0.74820142  1
  Mo  Mo180  1  0.20756183  0.79719515  0.22768849  1
  Mo  Mo181  1  0.70143363  0.70149539  0.89046358  1
  Mo  Mo182  1  0.59846006  0.20804078  0.76814857  1
  Mo  Mo183  1  0.39914182  0.79846503  0.76375173  1
  Mo  Mo184  1  0.50303190  0.50386835  0.63931473  1
  Mo  Mo185  1  0.59847747  0.80553405  0.51115917  1
  Mo  Mo186  1  0.29781717  0.69732015  0.63284718  1
  Mo  Mo187  1  0.81331901  0.79967712  0.00835398  1
  Mo  Mo188  1  0.39615922  0.59590076  0.72950461  1
  Mo  Mo189  1  0.29376259  0.30139733  0.64042812  1
  Mo  Mo190  1  0.90188116  0.50207270  0.86515225  1
  Mo  Mo191  1  0.50038399  0.09698562  0.61750135  1
  Mo  Mo192  1  0.29505443  0.50188214  0.64020463  1
  Mo  Mo193  1  0.50073060  0.70186187  0.85912480  1
  Mo  Mo194  1  0.30294013  0.50337029  0.38529317  1
  Mo  Mo195  1  0.09995543  0.08649180  0.36426643  1
  Mo  Mo196  1  0.19802756  0.19870273  0.73621543  1
  Mo  Mo197  1  0.20138444  0.39837763  0.75016852  1
  Mo  Mo198  1  0.51048160  0.29718639  0.62074746  1
  Mo  Mo199  1  0.90283846  0.08995943  0.13503905  1
