# generated using pymatgen
data_HfZrTaTiMo
_symmetry_space_group_name_H-M   'P 1'
_cell_length_a   15.83916670
_cell_length_b   15.84061488
_cell_length_c   15.39236220
_cell_angle_alpha   89.98231199
_cell_angle_beta   90.00988768
_cell_angle_gamma   89.80105376
_symmetry_Int_Tables_number   1
_chemical_formula_structural   HfZrTaTiMo
_chemical_formula_sum   'Hf40 Zr40 Ta40 Ti40 Mo40'
_cell_volume   3861.95308604
_cell_formula_units_Z   40
loop_
 _symmetry_equiv_pos_site_id
 _symmetry_equiv_pos_as_xyz
  1  'x, y, z'
loop_
 _atom_site_type_symbol
 _atom_site_label
 _atom_site_symmetry_multiplicity
 _atom_site_fract_x
 _atom_site_fract_y
 _atom_site_fract_z
 _atom_site_occupancy
  Hf  Hf0  1  0.89680050  0.69538735  0.87941692  1
  Hf  Hf1  1  0.31256202  0.09478055  0.86950019  1
  Hf  Hf2  1  0.70213227  0.89686141  0.63311735  1
  Hf  Hf3  1  0.52152882  0.27404090  0.87907347  1
  Hf  Hf4  1  0.20028359  0.19328520  0.50294583  1
  Hf  Hf5  1  0.00321293  0.18838590  0.49924403  1
  Hf  Hf6  1  0.89282433  0.69931332  0.61879800  1
  Hf  Hf7  1  0.09432728  0.90176684  0.87653671  1
  Hf  Hf8  1  0.10108200  0.69343497  0.61817740  1
  Hf  Hf9  1  0.89308501  0.50295734  0.36115155  1
  Hf  Hf10  1  0.49619181  0.70687318  0.37412949  1
  Hf  Hf11  1  0.29830829  0.10430488  0.14172341  1
  Hf  Hf12  1  0.40411967  0.39904647  0.49549711  1
  Hf  Hf13  1  0.89026751  0.90375659  0.37854943  1
  Hf  Hf14  1  0.09521369  0.31336271  0.12541646  1
  Hf  Hf15  1  0.08735613  0.92431236  0.62183560  1
  Hf  Hf16  1  0.00573927  0.40621842  0.75583657  1
  Hf  Hf17  1  0.19798392  0.00503018  0.01045499  1
  Hf  Hf18  1  0.90228768  0.29615819  0.87466332  1
  Hf  Hf19  1  0.80284721  0.20312108  0.50372001  1
  Hf  Hf20  1  0.20601632  0.60993529  0.02570161  1
  Hf  Hf21  1  0.90051528  0.50046443  0.62038204  1
  Hf  Hf22  1  0.59547152  0.80254020  0.24480633  1
  Hf  Hf23  1  0.20244114  0.20311512  0.74300430  1
  Hf  Hf24  1  0.30179712  0.09895543  0.36804264  1
  Hf  Hf25  1  0.79795296  0.79918017  0.75557140  1
  Hf  Hf26  1  0.39773704  0.79882208  0.00489573  1
  Hf  Hf27  1  0.89768624  0.30424949  0.63184893  1
  Hf  Hf28  1  0.29822318  0.49742258  0.89611345  1
  Hf  Hf29  1  0.91018227  0.08632273  0.63210849  1
  Hf  Hf30  1  0.40348350  0.39830277  0.75582057  1
  Hf  Hf31  1  0.20136233  0.80065025  0.74845092  1
  Hf  Hf32  1  0.49877548  0.68503039  0.12028167  1
  Hf  Hf33  1  0.51054602  0.29047577  0.37787587  1
  Hf  Hf34  1  0.19854668  0.80477122  0.49297534  1
  Hf  Hf35  1  0.79872896  0.00320597  -0.00765283  1
  Hf  Hf36  1  0.80316115  0.19354139  0.00307300  1
  Hf  Hf37  1  0.60903074  0.78959857  0.50550229  1
  Hf  Hf38  1  0.41404152  0.40075786  0.25210632  1
  Hf  Hf39  1  0.70677560  0.09924256  0.37433625  1
  Zr  Zr40  1  0.30663009  0.29664884  0.87791981  1
  Zr  Zr41  1  0.39993274  0.59360702  0.75284466  1
  Zr  Zr42  1  0.49849205  0.09498892  0.37602873  1
  Zr  Zr43  1  0.49544793  0.89224298  0.63000818  1
  Zr  Zr44  1  -0.01536527  0.00920933  0.00015885  1
  Zr  Zr45  1  0.09549378  0.49681478  0.90629583  1
  Zr  Zr46  1  0.60986340  0.40028141  0.49563692  1
  Zr  Zr47  1  0.59386992  0.79621069  -0.01181446  1
  Zr  Zr48  1  0.60048660  0.00214894  0.50896541  1
  Zr  Zr49  1  0.10388889  0.30760632  0.89164239  1
  Zr  Zr50  1  0.09504415  0.10302635  0.86607460  1
  Zr  Zr51  1  -0.00033324  0.79675701  0.49169591  1
  Zr  Zr52  1  0.41559384  0.18609296  0.01266204  1
  Zr  Zr53  1  0.60057328  -0.00469353  0.24324506  1
  Zr  Zr54  1  0.09611304  0.69679205  0.88946875  1
  Zr  Zr55  1  0.60632955  0.40207383  0.76309493  1
  Zr  Zr56  1  0.19704786  0.80598170  0.02021012  1
  Zr  Zr57  1  0.40480807  0.59863185  0.50225511  1
  Zr  Zr58  1  0.60929667  0.19708764  0.23514880  1
  Zr  Zr59  1  0.19887547  0.59912488  0.75609650  1
  Zr  Zr60  1  0.31309014  0.50013690  0.12689501  1
  Zr  Zr61  1  0.19790359  0.79164839  0.24783847  1
  Zr  Zr62  1  0.70188238  0.50209950  0.12681456  1
  Zr  Zr63  1  -0.00297546  0.80338005  0.75007512  1
  Zr  Zr64  1  0.70624155  0.31377334  0.11633517  1
  Zr  Zr65  1  0.07940324  0.91003757  0.14126732  1
  Zr  Zr66  1  0.10359672  0.31002382  0.61702155  1
  Zr  Zr67  1  0.39593907  0.79910673  0.76035573  1
  Zr  Zr68  1  0.20579313  -0.00981161  0.25162440  1
  Zr  Zr69  1  -0.00288717  0.40000130  0.48095920  1
  Zr  Zr70  1  0.09823322  0.30091310  0.35816004  1
  Zr  Zr71  1  0.68490860  0.90589940  0.87059560  1
  Zr  Zr72  1  0.08802961  0.49968590  0.13477336  1
  Zr  Zr73  1  0.20005778  0.20078918  0.01206895  1
  Zr  Zr74  1  0.30722752  0.30441649  0.62397650  1
  Zr  Zr75  1  0.69393763  0.89941639  0.10695215  1
  Zr  Zr76  1  0.30160928  0.70175236  0.37666454  1
  Zr  Zr77  1  0.60795142  0.59244354  0.50686879  1
  Zr  Zr78  1  0.30116109  0.29388938  0.36434782  1
  Zr  Zr79  1  0.70813289  0.69588813  0.36352748  1
  Ta  Ta80  1  0.89517441  0.90143404  0.61457385  1
  Ta  Ta81  1  0.70148298  0.68851325  0.86724903  1
  Ta  Ta82  1  0.29763197  0.50058146  0.36923783  1
  Ta  Ta83  1  0.09061501  0.90557055  0.37038746  1
  Ta  Ta84  1  0.51124862  0.30692060  0.11737192  1
  Ta  Ta85  1  0.10060264  0.50498166  0.61504093  1
  Ta  Ta86  1  0.40790054  -0.01390114  0.23662162  1
  Ta  Ta87  1  0.50221978  0.49586329  0.62952322  1
  Ta  Ta88  1  -0.00759648  0.19750804  0.01914958  1
  Ta  Ta89  1  0.80006836  0.00120331  0.23494131  1
  Ta  Ta90  1  0.79527116  0.41067754  0.76274739  1
  Ta  Ta91  1  0.00232608  0.19661767  0.74226890  1
  Ta  Ta92  1  0.59440739  0.01973131  0.74004080  1
  Ta  Ta93  1  0.09688145  0.10041009  0.35293685  1
  Ta  Ta94  1  -0.00210192  0.59694269  0.75113411  1
  Ta  Ta95  1  -0.00890567  0.20231212  0.23466353  1
  Ta  Ta96  1  0.20210812  0.41052106  0.74784459  1
  Ta  Ta97  1  0.79515423  0.40344132  0.48554085  1
  Ta  Ta98  1  0.41289365  0.39464526  -0.00280255  1
  Ta  Ta99  1  0.79149485  0.59709459  0.50513307  1
  Ta  Ta100  1  0.39654586  0.80544835  0.23124292  1
  Ta  Ta101  1  0.80197213  0.00490266  0.76162219  1
  Ta  Ta102  1  0.89587540  0.50758584  0.87850344  1
  Ta  Ta103  1  0.70617378  0.30623114  0.63283092  1
  Ta  Ta104  1  0.40246851  -0.00687108  0.01540548  1
  Ta  Ta105  1  0.29801645  0.90403720  0.88030505  1
  Ta  Ta106  1  0.40630830  0.19208251  0.51105460  1
  Ta  Ta107  1  0.30195217  0.69835728  0.88939129  1
  Ta  Ta108  1  0.68382566  0.11850604  0.87172439  1
  Ta  Ta109  1  0.29029144  0.50305063  0.61321035  1
  Ta  Ta110  1  0.80092679  0.80327153  0.23395578  1
  Ta  Ta111  1  0.60808535  0.19723141  0.51934123  1
  Ta  Ta112  1  0.39100516  -0.00404708  0.50726928  1
  Ta  Ta113  1  0.51111915  0.49437133  0.11235513  1
  Ta  Ta114  1  0.29710480  0.09138758  0.62639314  1
  Ta  Ta115  1  0.90024484  0.10166500  0.36313739  1
  Ta  Ta116  1  -0.01676152  0.80441658  0.01032124  1
  Ta  Ta117  1  0.70546634  0.89637129  0.37950977  1
  Ta  Ta118  1  0.30400825  0.70180204  0.61281751  1
  Ta  Ta119  1  0.50819482  0.69727493  0.63947375  1
  Ti  Ti120  1  0.79281742  0.19920114  0.75117980  1
  Ti  Ti121  1  0.19939251  -0.00036239  0.74883722  1
  Ti  Ti122  1  0.49382380  0.91313251  0.86846187  1
  Ti  Ti123  1  0.42152559  0.18420735  0.73694662  1
  Ti  Ti124  1  0.08434603  0.70206409  0.13330402  1
  Ti  Ti125  1  0.41187124  0.20083186  0.24053077  1
  Ti  Ti126  1  0.19035086  0.00541870  0.49263016  1
  Ti  Ti127  1  0.50658988  0.50240117  0.88764162  1
  Ti  Ti128  1  0.19644038  0.60292854  0.25188329  1
  Ti  Ti129  1  0.19038611  0.59821081  0.48060012  1
  Ti  Ti130  1  0.60871220  0.40452413  0.26085834  1
  Ti  Ti131  1  0.89613243  0.48236663  0.13427767  1
  Ti  Ti132  1  0.00459908  0.59853755  0.47954658  1
  Ti  Ti133  1  0.79949970  0.00435604  0.50593119  1
  Ti  Ti134  1  0.80449088  0.20181313  0.23377087  1
  Ti  Ti135  1  0.80113840  0.60206583  0.01121219  1
  Ti  Ti136  1  0.50453436  0.50456234  0.37292247  1
  Ti  Ti137  1  0.60732708  0.59608740  -0.00805178  1
  Ti  Ti138  1  0.40086541  0.60114615  0.25184861  1
  Ti  Ti139  1  0.61440406  0.59152016  0.74659178  1
  Ti  Ti140  1  0.79670972  0.40467342  -0.01661377  1
  Ti  Ti141  1  0.50823568  0.29853703  0.62780353  1
  Ti  Ti142  1  0.30448961  0.30426744  0.12995783  1
  Ti  Ti143  1  -0.01516567  0.79696044  0.25121894  1
  Ti  Ti144  1  0.49530277  0.89521544  0.38561161  1
  Ti  Ti145  1  -0.01591475  0.60044514  0.01908038  1
  Ti  Ti146  1  -0.00299696  0.60892860  0.25573930  1
  Ti  Ti147  1  0.59930753  0.59446146  0.25175308  1
  Ti  Ti148  1  0.19745443  0.41005299  0.48510722  1
  Ti  Ti149  1  0.29445256  0.89887416  0.62081763  1
  Ti  Ti150  1  0.58534285  0.02086027  0.00398756  1
  Ti  Ti151  1  0.50452872  0.69283025  0.86717338  1
  Ti  Ti152  1  0.20190633  0.40674628  0.24965957  1
  Ti  Ti153  1  0.69819654  0.69825069  0.12193040  1
  Ti  Ti154  1  0.80653166  0.60719776  0.23550575  1
  Ti  Ti155  1  0.39820227  0.00013063  0.73993952  1
  Ti  Ti156  1  0.80190776  0.79727050  0.00073620  1
  Ti  Ti157  1  0.31196502  0.89711957  0.38155350  1
  Ti  Ti158  1  0.88989065  0.70409371  0.38008782  1
  Ti  Ti159  1  0.71149723  0.29804048  0.36778371  1
  Mo  Mo160  1  0.89586237  0.10466231  0.85761192  1
  Mo  Mo161  1  -0.00945710  0.00157964  0.25850940  1
  Mo  Mo162  1  -0.01152800  -0.00196130  0.76558884  1
  Mo  Mo163  1  0.29837506  0.90054419  0.11916901  1
  Mo  Mo164  1  0.89731512  0.09848264  0.13935419  1
  Mo  Mo165  1  0.19674387  0.20257741  0.23997842  1
  Mo  Mo166  1  0.70773567  0.49504127  0.62790627  1
  Mo  Mo167  1  0.41223403  0.59963129  -0.00999802  1
  Mo  Mo168  1  0.89288190  0.29404374  0.36188891  1
  Mo  Mo169  1  0.89245593  0.89653802  0.12806951  1
  Mo  Mo170  1  0.89630717  0.69633488  0.12337012  1
  Mo  Mo171  1  0.70797525  0.10243695  0.63333657  1
  Mo  Mo172  1  0.89848030  0.30779201  0.12048578  1
  Mo  Mo173  1  0.69973450  0.69313273  0.64477692  1
  Mo  Mo174  1  0.70696165  0.29990045  0.87354992  1
  Mo  Mo175  1  0.70030581  0.10110270  0.11563292  1
  Mo  Mo176  1  0.21531931  0.40010584  0.02427566  1
  Mo  Mo177  1  0.60624519  0.20125464  0.72979592  1
  Mo  Mo178  1  0.00034598  0.00534563  0.47896439  1
  Mo  Mo179  1  0.30505262  0.69570581  0.13332355  1
  Mo  Mo180  1  0.09021960  0.69930022  0.36414176  1
  Mo  Mo181  1  0.60759473  0.19580151  0.01355829  1
  Mo  Mo182  1  0.40210508  0.80338529  0.51210407  1
  Mo  Mo183  1  0.49983425  0.09953135  0.13666103  1
  Mo  Mo184  1  0.10400324  0.09619612  0.63358147  1
  Mo  Mo185  1  0.79945826  0.59530630  0.74243177  1
  Mo  Mo186  1  0.79552081  0.79975687  0.50688679  1
  Mo  Mo187  1  0.49520941  0.09866640  0.61679377  1
  Mo  Mo188  1  0.59619676  0.79251333  0.76229119  1
  Mo  Mo189  1  0.50320420  0.08697583  0.86910999  1
  Mo  Mo190  1  0.09533921  0.10739211  0.14191076  1
  Mo  Mo191  1  0.10375281  0.50652576  0.35835232  1
  Mo  Mo192  1  -0.02223644  0.40085070  0.00152228  1
  Mo  Mo193  1  0.60363542  0.40033489  -0.01559128  1
  Mo  Mo194  1  0.70363959  0.50297362  0.35560291  1
  Mo  Mo195  1  -0.00909563  0.39817130  0.25798369  1
  Mo  Mo196  1  0.70473898  0.50867453  0.88819421  1
  Mo  Mo197  1  0.79845989  0.39437789  0.26203865  1
  Mo  Mo198  1  0.89386016  0.89806448  0.87913792  1
  Mo  Mo199  1  0.50046681  0.89773131  0.11468043  1
