# generated using pymatgen
data_HfZrTaTiMo
_symmetry_space_group_name_H-M   'P 1'
_cell_length_a   15.84714248
_cell_length_b   15.83433166
_cell_length_c   15.39093520
_cell_angle_alpha   89.97747244
_cell_angle_beta   89.92576935
_cell_angle_gamma   89.99389538
_symmetry_Int_Tables_number   1
_chemical_formula_structural   HfZrTaTiMo
_chemical_formula_sum   'Hf40 Zr40 Ta40 Ti40 Mo40'
_cell_volume   3862.02703287
_cell_formula_units_Z   40
loop_
 _symmetry_equiv_pos_site_id
 _symmetry_equiv_pos_as_xyz
  1  'x, y, z'
loop_
 _atom_site_type_symbol
 _atom_site_label
 _atom_site_symmetry_multiplicity
 _atom_site_fract_x
 _atom_site_fract_y
 _atom_site_fract_z
 _atom_site_occupancy
  Hf  Hf0  1  0.49544775  0.29899842  0.12353815  1
  Hf  Hf1  1  0.50618908  0.50498579  0.87888653  1
  Hf  Hf2  1  0.61456977  0.18858631  0.49635684  1
  Hf  Hf3  1  0.29541957  0.10733264  0.38076285  1
  Hf  Hf4  1  0.69024029  0.89691519  0.88029695  1
  Hf  Hf5  1  0.09301518  0.09852387  0.13431512  1
  Hf  Hf6  1  0.29563824  0.50139972  0.62961511  1
  Hf  Hf7  1  0.69428361  0.28599098  0.14058435  1
  Hf  Hf8  1  0.29122893  0.50667538  0.11160737  1
  Hf  Hf9  1  -0.00501510  0.59946196  0.28150356  1
  Hf  Hf10  1  0.39596470  0.01030075  0.51227350  1
  Hf  Hf11  1  0.61799297  0.79100919  0.50112075  1
  Hf  Hf12  1  0.70965949  0.49685619  0.86957670  1
  Hf  Hf13  1  0.60089115  0.80579897  0.24610866  1
  Hf  Hf14  1  0.20102316  0.79786478  -0.02273670  1
  Hf  Hf15  1  0.59371279  0.40314763  0.25271445  1
  Hf  Hf16  1  0.49329312  0.29833509  0.37643337  1
  Hf  Hf17  1  0.40292699  0.81192469  0.75796671  1
  Hf  Hf18  1  0.40238030  0.79398801  0.50799681  1
  Hf  Hf19  1  0.01021172  0.79794898  0.27474785  1
  Hf  Hf20  1  0.90358921  0.50038875  0.87759955  1
  Hf  Hf21  1  0.61406424  0.39978060  0.00653187  1
  Hf  Hf22  1  0.00484173  0.40687561  0.26753325  1
  Hf  Hf23  1  0.51471468  0.29413447  0.87977670  1
  Hf  Hf24  1  0.29259010  0.10420230  0.12630105  1
  Hf  Hf25  1  0.09272687  0.10305577  0.86454508  1
  Hf  Hf26  1  0.19138504  0.80593167  0.74981891  1
  Hf  Hf27  1  0.48537181  0.50069241  0.11960845  1
  Hf  Hf28  1  0.79843171  0.20244671  0.00920146  1
  Hf  Hf29  1  0.09152177  0.89900295  0.11093257  1
  Hf  Hf30  1  0.81274328  0.40676120  0.25247577  1
  Hf  Hf31  1  0.29069490  0.10183282  0.86526062  1
  Hf  Hf32  1  0.89895860  0.71343868  0.61225720  1
  Hf  Hf33  1  0.00381940  0.38623605  0.74890100  1
  Hf  Hf34  1  0.71795314  0.70145133  0.14243905  1
  Hf  Hf35  1  0.00172598  0.40089132  0.00377913  1
  Hf  Hf36  1  0.50500533  0.10017834  0.37380331  1
  Hf  Hf37  1  -0.00915269  0.59479057  0.73498248  1
  Hf  Hf38  1  0.79863582  0.00616740  0.01816752  1
  Hf  Hf39  1  0.10472781  0.29493063  0.14449593  1
  Zr  Zr40  1  0.28898331  0.89099102  0.12250471  1
  Zr  Zr41  1  0.29590109  0.50117774  0.87107483  1
  Zr  Zr42  1  0.50632183  0.09845769  0.87449183  1
  Zr  Zr43  1  0.69712431  0.10848425  0.87367455  1
  Zr  Zr44  1  0.30642238  0.69178232  0.38922282  1
  Zr  Zr45  1  0.79683425  0.60757723  0.49641107  1
  Zr  Zr46  1  0.40537453  0.39925651  0.74507793  1
  Zr  Zr47  1  0.89772895  0.90375733  0.87974154  1
  Zr  Zr48  1  0.40291358  0.79814286  -0.01766837  1
  Zr  Zr49  1  0.81694901  0.01507379  0.50417130  1
  Zr  Zr50  1  0.79788330  0.79380824  0.00053138  1
  Zr  Zr51  1  0.60167543  0.40482839  0.49430136  1
  Zr  Zr52  1  0.50377591  0.90050920  0.38074244  1
  Zr  Zr53  1  0.60209032  0.60976158  0.00969277  1
  Zr  Zr54  1  0.20441545  0.40981595  0.27089615  1
  Zr  Zr55  1  0.80482551  0.20320015  0.74141755  1
  Zr  Zr56  1  0.80302936  -0.00675253  0.72951581  1
  Zr  Zr57  1  0.39463975  -0.00151335  0.74565712  1
  Zr  Zr58  1  0.09627434  0.49376968  0.61619147  1
  Zr  Zr59  1  0.50614989  0.90058581  0.61358631  1
  Zr  Zr60  1  0.19390443  0.59938773  0.26933585  1
  Zr  Zr61  1  0.39607655  0.20826757  0.74208532  1
  Zr  Zr62  1  0.29939657  0.30379703  0.12695678  1
  Zr  Zr63  1  0.90549289  0.89471366  0.12780080  1
  Zr  Zr64  1  0.60485123  -0.00299078  0.73572162  1
  Zr  Zr65  1  0.59298682  0.60286156  0.24130047  1
  Zr  Zr66  1  0.91775404  0.28910706  0.60702518  1
  Zr  Zr67  1  0.60043243  0.60121309  0.50406808  1
  Zr  Zr68  1  0.29350951  0.69433838  0.63180356  1
  Zr  Zr69  1  -0.00556351  0.20158515  -0.00017868  1
  Zr  Zr70  1  0.39736023  -0.00372585  0.25210366  1
  Zr  Zr71  1  0.70393972  0.29774881  0.61768745  1
  Zr  Zr72  1  0.19183663  -0.01072723  0.26079341  1
  Zr  Zr73  1  0.10445567  0.69773087  0.12332298  1
  Zr  Zr74  1  0.70984887  0.28720442  0.36586346  1
  Zr  Zr75  1  0.07855546  0.10608527  0.62931099  1
  Zr  Zr76  1  0.29556901  0.68617350  0.85657029  1
  Zr  Zr77  1  0.80668564  0.59780783  0.00227033  1
  Zr  Zr78  1  0.49041718  0.89684019  0.12525732  1
  Zr  Zr79  1  0.50547143  0.11182435  0.12407246  1
  Ta  Ta80  1  0.09991307  0.28834787  0.38324663  1
  Ta  Ta81  1  0.60939094  0.39920822  0.74525000  1
  Ta  Ta82  1  0.29539637  0.29892659  0.87823777  1
  Ta  Ta83  1  -0.00903929  -0.00510944  0.27269288  1
  Ta  Ta84  1  0.90312501  0.09803958  0.86570504  1
  Ta  Ta85  1  0.08229116  0.90092891  0.61722721  1
  Ta  Ta86  1  0.48968702  0.50704309  0.37584461  1
  Ta  Ta87  1  0.19425160  0.20472971  -0.00739145  1
  Ta  Ta88  1  0.09255085  0.90926448  0.87731317  1
  Ta  Ta89  1  0.50659042  0.11109922  0.62392978  1
  Ta  Ta90  1  0.19110241  0.80170947  0.49982756  1
  Ta  Ta91  1  0.19096832  0.39753105  -0.00799017  1
  Ta  Ta92  1  0.80763296  0.40219792  0.49214989  1
  Ta  Ta93  1  0.61409760  0.00217336  0.23994623  1
  Ta  Ta94  1  0.60291488  -0.00400246  0.01541176  1
  Ta  Ta95  1  0.80779657  0.39437215  0.01741393  1
  Ta  Ta96  1  0.39567515  -0.00259380  -0.01193160  1
  Ta  Ta97  1  0.60868362  0.59608255  0.74055713  1
  Ta  Ta98  1  0.20550638  0.39409289  0.49589285  1
  Ta  Ta99  1  0.39433716  0.19850718  -0.00663008  1
  Ta  Ta100  1  0.71140947  0.90825840  0.37483161  1
  Ta  Ta101  1  0.50078571  0.69721197  0.36921027  1
  Ta  Ta102  1  0.00003954  0.78497666  -0.01785337  1
  Ta  Ta103  1  0.27967527  0.11637794  0.62678346  1
  Ta  Ta104  1  0.81178442  0.40831054  0.73150504  1
  Ta  Ta105  1  0.19814678  0.79618394  0.27696590  1
  Ta  Ta106  1  0.70504688  0.50642210  0.36416314  1
  Ta  Ta107  1  0.51750604  0.70563267  0.85856416  1
  Ta  Ta108  1  -0.00574529  0.80415646  0.75183137  1
  Ta  Ta109  1  0.19058767  0.00232225  0.50711619  1
  Ta  Ta110  1  0.19806619  0.38525657  0.74886208  1
  Ta  Ta111  1  0.09350931  0.70378033  0.61743187  1
  Ta  Ta112  1  0.29778442  0.90058740  0.39091291  1
  Ta  Ta113  1  0.19316535  -0.00330361  0.73951654  1
  Ta  Ta114  1  0.39807487  0.40143590  0.50560405  1
  Ta  Ta115  1  0.59852279  0.79637170  0.01121131  1
  Ta  Ta116  1  0.09598089  0.10142712  0.37443681  1
  Ta  Ta117  1  0.70241975  0.69902591  0.85870126  1
  Ta  Ta118  1  0.50469592  0.69735237  0.63819391  1
  Ta  Ta119  1  0.91407760  0.69517202  0.13196418  1
  Ti  Ti120  1  0.28886300  0.90184099  0.61712888  1
  Ti  Ti121  1  0.80126512  0.60012282  0.73301755  1
  Ti  Ti122  1  0.39189407  0.40948549  0.26161748  1
  Ti  Ti123  1  0.90090586  0.28623692  0.37249385  1
  Ti  Ti124  1  0.18757465  0.60003266  -0.00796999  1
  Ti  Ti125  1  0.89575205  0.69584002  0.86408779  1
  Ti  Ti126  1  0.39459437  0.39749166  -0.00932871  1
  Ti  Ti127  1  0.41114196  0.59841303  0.74753165  1
  Ti  Ti128  1  0.79727476  0.80291559  0.73723631  1
  Ti  Ti129  1  0.61867182  0.00178520  0.50648827  1
  Ti  Ti130  1  0.09566743  0.50775121  0.12175380  1
  Ti  Ti131  1  0.70574108  0.49896261  0.62192940  1
  Ti  Ti132  1  0.19336440  0.59587521  0.49532048  1
  Ti  Ti133  1  0.29981436  0.69922141  0.12687486  1
  Ti  Ti134  1  0.00014631  0.40194111  0.48547263  1
  Ti  Ti135  1  0.39142774  0.59893897  0.25095717  1
  Ti  Ti136  1  0.89542176  0.30195405  0.87438756  1
  Ti  Ti137  1  0.70815951  0.70141651  0.35935587  1
  Ti  Ti138  1  0.90684234  0.29307670  0.14229801  1
  Ti  Ti139  1  0.90839468  0.51163794  0.12541963  1
  Ti  Ti140  1  0.40738215  0.59590408  0.50978082  1
  Ti  Ti141  1  0.50601000  0.49778611  0.62756220  1
  Ti  Ti142  1  -0.00407810  0.59961128  0.49157383  1
  Ti  Ti143  1  0.40343666  0.61386742  -0.00288571  1
  Ti  Ti144  1  0.39451084  0.20386536  0.25206774  1
  Ti  Ti145  1  0.50584687  0.30145199  0.62142908  1
  Ti  Ti146  1  0.39197568  0.20913861  0.51325541  1
  Ti  Ti147  1  0.81302797  0.80515064  0.26273655  1
  Ti  Ti148  1  0.19800287  0.00266427  -0.00751637  1
  Ti  Ti149  1  0.71124611  0.50246186  0.13650132  1
  Ti  Ti150  1  0.09109883  0.68866904  0.86087218  1
  Ti  Ti151  1  -0.01864043  0.17463937  0.48261144  1
  Ti  Ti152  1  -0.01167726  0.81287960  0.48347437  1
  Ti  Ti153  1  0.39215370  0.79369271  0.25706142  1
  Ti  Ti154  1  0.11311732  0.28599064  0.60930556  1
  Ti  Ti155  1  0.61052758  0.80332529  0.73632319  1
  Ti  Ti156  1  0.70620884  0.30329460  0.87063733  1
  Ti  Ti157  1  0.10071416  0.50144258  0.86626056  1
  Ti  Ti158  1  0.90319796  0.09919100  0.14405657  1
  Ti  Ti159  1  0.29871468  0.29691746  0.37979544  1
  Mo  Mo160  1  0.29133646  0.90905846  0.87380028  1
  Mo  Mo161  1  0.89800558  0.49598093  0.60890913  1
  Mo  Mo162  1  0.00456955  0.60273962  -0.00780521  1
  Mo  Mo163  1  0.89374593  0.70561596  0.38758085  1
  Mo  Mo164  1  0.47994378  0.70175504  0.14070013  1
  Mo  Mo165  1  0.79888716  -0.00381845  0.24075042  1
  Mo  Mo166  1  -0.00213481  0.00082074  -0.00442762  1
  Mo  Mo167  1  0.80566908  0.19578098  0.23731500  1
  Mo  Mo168  1  0.70174146  0.09995441  0.13455529  1
  Mo  Mo169  1  0.70077780  0.89639980  0.12635009  1
  Mo  Mo170  1  0.80089184  0.80723625  0.48941298  1
  Mo  Mo171  1  0.09975793  0.90277182  0.39473937  1
  Mo  Mo172  1  0.80621574  0.19752270  0.50123135  1
  Mo  Mo173  1  0.80849214  0.60228130  0.25813022  1
  Mo  Mo174  1  0.09798534  0.70005551  0.40337283  1
  Mo  Mo175  1  0.89756132  0.49658831  0.39012517  1
  Mo  Mo176  1  0.19520771  0.19905644  0.49106546  1
  Mo  Mo177  1  0.60138762  0.20731347  0.73371174  1
  Mo  Mo178  1  0.70513391  0.09389731  0.35538637  1
  Mo  Mo179  1  0.90632889  0.09921237  0.63749209  1
  Mo  Mo180  1  0.89502674  0.90320964  0.37094131  1
  Mo  Mo181  1  0.20241205  0.20048383  0.26654307  1
  Mo  Mo182  1  0.89017096  0.10476183  0.35398690  1
  Mo  Mo183  1  -0.00156189  -0.00575637  0.75338411  1
  Mo  Mo184  1  0.90957620  0.89791118  0.62251717  1
  Mo  Mo185  1  0.19211508  0.20887718  0.75554924  1
  Mo  Mo186  1  0.18080924  0.59432790  0.74174728  1
  Mo  Mo187  1  -0.00182722  -0.00070114  0.48486298  1
  Mo  Mo188  1  0.09969877  0.30389735  0.87840524  1
  Mo  Mo189  1  0.10100205  0.49606994  0.39803503  1
  Mo  Mo190  1  -0.00376891  0.20437915  0.76281498  1
  Mo  Mo191  1  0.29496141  0.30073476  0.61567376  1
  Mo  Mo192  1  0.69968734  0.10116185  0.62875085  1
  Mo  Mo193  1  0.70396636  0.70168736  0.64088552  1
  Mo  Mo194  1  -0.00083579  0.19840388  0.26205763  1
  Mo  Mo195  1  0.71148006  0.89307626  0.60391115  1
  Mo  Mo196  1  0.59832885  0.19378310  0.26688263  1
  Mo  Mo197  1  0.60251666  0.19883984  0.00101898  1
  Mo  Mo198  1  0.50643344  0.89822301  0.88831718  1
  Mo  Mo199  1  0.30848895  0.49882479  0.39720214  1
