# generated using pymatgen
data_HfZrTaTiMo
_symmetry_space_group_name_H-M   'P 1'
_cell_length_a   15.83758856
_cell_length_b   15.84697819
_cell_length_c   15.42139195
_cell_angle_alpha   89.98773951
_cell_angle_beta   89.93658552
_cell_angle_gamma   90.01988950
_symmetry_Int_Tables_number   1
_chemical_formula_structural   HfZrTaTiMo
_chemical_formula_sum   'Hf40 Zr40 Ta40 Ti40 Mo40'
_cell_volume   3870.42618861
_cell_formula_units_Z   40
loop_
 _symmetry_equiv_pos_site_id
 _symmetry_equiv_pos_as_xyz
  1  'x, y, z'
loop_
 _atom_site_type_symbol
 _atom_site_label
 _atom_site_symmetry_multiplicity
 _atom_site_fract_x
 _atom_site_fract_y
 _atom_site_fract_z
 _atom_site_occupancy
  Hf  Hf0  1  0.20156360  0.41463993  0.49575016  1
  Hf  Hf1  1  0.18848202  0.18227482  0.26169775  1
  Hf  Hf2  1  0.50025481  0.90973490  0.11770483  1
  Hf  Hf3  1  0.80494326  0.40149666  0.51722199  1
  Hf  Hf4  1  0.19538809  0.80000943  0.76896820  1
  Hf  Hf5  1  0.01166268  0.60418513  0.48560896  1
  Hf  Hf6  1  0.81818119  -0.01768742  0.25035179  1
  Hf  Hf7  1  0.89682835  0.10515331  0.38711552  1
  Hf  Hf8  1  0.79517892  0.01092441  0.74058128  1
  Hf  Hf9  1  0.08891272  0.11190648  0.86416036  1
  Hf  Hf10  1  0.00168729  0.39593440  0.73942517  1
  Hf  Hf11  1  0.59248551  0.19994318  0.25690932  1
  Hf  Hf12  1  0.59969043  0.39803018  0.23877467  1
  Hf  Hf13  1  0.20424824  0.40712847  0.74190023  1
  Hf  Hf14  1  0.60899750  0.19683673  -0.00516212  1
  Hf  Hf15  1  0.31528929  0.11299524  0.64123980  1
  Hf  Hf16  1  0.70376428  0.87882353  0.13277341  1
  Hf  Hf17  1  0.31227434  0.53016396  0.62139865  1
  Hf  Hf18  1  0.49016862  0.28258257  0.64244139  1
  Hf  Hf19  1  0.59161904  0.79539147  0.51049454  1
  Hf  Hf20  1  0.09267625  0.30540229  0.38761026  1
  Hf  Hf21  1  0.70156910  0.90158175  0.39106560  1
  Hf  Hf22  1  0.47306116  0.68173714  0.62142273  1
  Hf  Hf23  1  0.19973228  -0.00424348  -0.02464637  1
  Hf  Hf24  1  0.40563561  0.41510708  0.74407918  1
  Hf  Hf25  1  0.90151330  0.70072480  0.36585791  1
  Hf  Hf26  1  0.38085072  0.41245057  0.01449368  1
  Hf  Hf27  1  0.10301310  0.49563183  0.88834387  1
  Hf  Hf28  1  0.48481259  0.89219093  0.63666728  1
  Hf  Hf29  1  0.79835709  0.79169036  0.74764624  1
  Hf  Hf30  1  0.00053222  0.39831102  0.23073844  1
  Hf  Hf31  1  0.68857531  0.08229961  0.12721694  1
  Hf  Hf32  1  0.58693794  0.19722761  0.50137600  1
  Hf  Hf33  1  0.20055966  0.40504944  0.23438077  1
  Hf  Hf34  1  0.79831301  0.78908501  0.50664650  1
  Hf  Hf35  1  0.79930668  0.20335507  0.23671811  1
  Hf  Hf36  1  0.20857367  0.61149862  0.76275336  1
  Hf  Hf37  1  0.49229660  0.11022605  0.85691141  1
  Hf  Hf38  1  0.69980103  0.30267016  0.38677873  1
  Hf  Hf39  1  0.90596604  0.29502825  0.87690861  1
  Zr  Zr40  1  0.59236850  0.60293402  0.25665442  1
  Zr  Zr41  1  0.87072390  0.70557397  0.14142674  1
  Zr  Zr42  1  -0.00408109  0.80614000  0.00639481  1
  Zr  Zr43  1  0.01030425  0.00557813  0.49559909  1
  Zr  Zr44  1  0.20621227  0.61269464  0.47751610  1
  Zr  Zr45  1  0.40748814  0.80898748  0.25226295  1
  Zr  Zr46  1  0.29867876  0.29998955  0.37155755  1
  Zr  Zr47  1  0.31111409  0.69721408  0.12177268  1
  Zr  Zr48  1  0.12278381  0.88786715  0.38209613  1
  Zr  Zr49  1  -0.00644189  0.82330988  0.24375478  1
  Zr  Zr50  1  0.61968908  0.19754803  0.74833974  1
  Zr  Zr51  1  0.00092947  0.00333145  0.74508732  1
  Zr  Zr52  1  0.79068308  0.78521254  -0.01912059  1
  Zr  Zr53  1  0.60064350  0.80278757  -0.02352811  1
  Zr  Zr54  1  0.48925563  0.09734055  0.11920378  1
  Zr  Zr55  1  0.90972035  0.08741414  0.12454691  1
  Zr  Zr56  1  0.81033870  0.58820962  0.73926908  1
  Zr  Zr57  1  0.50354118  0.30932740  0.87612305  1
  Zr  Zr58  1  0.09525262  0.69740635  0.13322782  1
  Zr  Zr59  1  0.92069967  0.70087437  0.62156933  1
  Zr  Zr60  1  0.50704069  0.50506756  0.88811117  1
  Zr  Zr61  1  0.70100575  0.09379467  0.38312042  1
  Zr  Zr62  1  0.79652700  0.39440377  0.23663930  1
  Zr  Zr63  1  0.90010202  0.49413989  0.87831762  1
  Zr  Zr64  1  0.22198003  -0.00835936  0.51884242  1
  Zr  Zr65  1  0.49210458  0.29157892  0.11347200  1
  Zr  Zr66  1  0.29787354  0.08359108  0.12292036  1
  Zr  Zr67  1  0.50923019  0.70708552  0.11496171  1
  Zr  Zr68  1  0.80006452  0.39905181  0.01713549  1
  Zr  Zr69  1  0.90110295  0.90093939  0.86441667  1
  Zr  Zr70  1  0.29945295  0.28180119  0.12332841  1
  Zr  Zr71  1  -0.00102018  0.20497663  0.24658245  1
  Zr  Zr72  1  0.09842202  0.88021140  0.62064715  1
  Zr  Zr73  1  0.40180073  0.39563070  0.50474924  1
  Zr  Zr74  1  0.79684836  -0.00870838  -0.00422350  1
  Zr  Zr75  1  0.10743156  0.11544503  0.62435496  1
  Zr  Zr76  1  0.49982461  0.49196130  0.38710533  1
  Zr  Zr77  1  0.61506911  0.40550421  0.01968475  1
  Zr  Zr78  1  0.89976585  0.49681324  0.37060590  1
  Zr  Zr79  1  0.89766389  0.90212481  0.61543602  1
  Ta  Ta80  1  0.59033488  0.00143087  0.51981586  1
  Ta  Ta81  1  0.00044348  0.20095063  0.00693779  1
  Ta  Ta82  1  0.70110687  0.49965640  0.38169193  1
  Ta  Ta83  1  0.60147465  0.59271112  0.50872042  1
  Ta  Ta84  1  0.39349638  0.59891541  0.26627006  1
  Ta  Ta85  1  0.20235599  0.80423098  0.00228192  1
  Ta  Ta86  1  0.48986137  0.51498591  0.12023721  1
  Ta  Ta87  1  0.49315812  0.70247849  0.39146584  1
  Ta  Ta88  1  0.59771123  -0.00198427  0.74490372  1
  Ta  Ta89  1  0.60219854  0.39869378  0.52317619  1
  Ta  Ta90  1  0.37395216  0.80691836  0.50219256  1
  Ta  Ta91  1  0.80083870  0.20075119  0.01040386  1
  Ta  Ta92  1  0.39999813  -0.00090440  -0.02638998  1
  Ta  Ta93  1  0.00335621  0.00019063  -0.00858301  1
  Ta  Ta94  1  0.02404291  0.01246099  0.26654923  1
  Ta  Ta95  1  0.60157115  0.80061724  0.26816023  1
  Ta  Ta96  1  -0.00551317  0.59972250  0.00937344  1
  Ta  Ta97  1  0.70007165  0.69309555  0.37807520  1
  Ta  Ta98  1  0.49388961  0.69354558  0.86958077  1
  Ta  Ta99  1  0.29837637  0.30975536  0.88069686  1
  Ta  Ta100  1  0.59453796  -0.00414012  -0.02970564  1
  Ta  Ta101  1  0.10228661  0.30535534  0.61133497  1
  Ta  Ta102  1  0.40237779  0.40360789  0.24639502  1
  Ta  Ta103  1  0.59015533  0.79048888  0.74648869  1
  Ta  Ta104  1  0.20486430  0.19646416  -0.01713595  1
  Ta  Ta105  1  0.90063946  0.51593345  0.13354345  1
  Ta  Ta106  1  0.10281977  0.50962323  0.62329588  1
  Ta  Ta107  1  0.69676369  0.49024150  0.85703228  1
  Ta  Ta108  1  0.20636015  0.58783948  0.01333331  1
  Ta  Ta109  1  0.19731444  0.21426305  0.75985968  1
  Ta  Ta110  1  0.28829798  0.71984228  0.36031586  1
  Ta  Ta111  1  0.69425139  0.89723788  0.62669755  1
  Ta  Ta112  1  0.20241686  -0.00086480  0.75406532  1
  Ta  Ta113  1  0.21175745  0.82189350  0.22623668  1
  Ta  Ta114  1  0.39791830  0.19143621  0.48834677  1
  Ta  Ta115  1  0.68705518  0.67748757  0.84965858  1
  Ta  Ta116  1  0.40683947  0.00294430  0.51042282  1
  Ta  Ta117  1  0.39845118  0.80696968  -0.01609832  1
  Ta  Ta118  1  0.69077764  0.69054553  0.63288902  1
  Ta  Ta119  1  0.10023431  0.30705285  0.88601980  1
  Ti  Ti120  1  0.70430659  0.09934635  0.61072188  1
  Ti  Ti121  1  0.29324132  0.29534723  0.61941434  1
  Ti  Ti122  1  -0.00275846  0.20989384  0.50580804  1
  Ti  Ti123  1  0.70671666  0.52877573  0.13763854  1
  Ti  Ti124  1  0.30365595  0.89717620  0.86725967  1
  Ti  Ti125  1  0.71042769  0.10156317  0.87424621  1
  Ti  Ti126  1  0.79933328  0.39395511  0.73382842  1
  Ti  Ti127  1  0.09685543  0.50448177  0.35778716  1
  Ti  Ti128  1  0.19898696  0.60139121  0.24766083  1
  Ti  Ti129  1  0.01202428  0.60142093  0.75767698  1
  Ti  Ti130  1  0.89592779  0.11185462  0.61216035  1
  Ti  Ti131  1  0.40132424  0.19605336  0.26844436  1
  Ti  Ti132  1  0.10040666  0.69638506  0.89720311  1
  Ti  Ti133  1  0.10909017  0.69620663  0.62443368  1
  Ti  Ti134  1  0.89763619  0.30328956  0.38930044  1
  Ti  Ti135  1  0.00774093  0.79034330  0.76649983  1
  Ti  Ti136  1  0.70765098  0.29138557  0.62052152  1
  Ti  Ti137  1  0.90205554  0.68925769  0.87413520  1
  Ti  Ti138  1  0.10667296  0.10045850  0.11320912  1
  Ti  Ti139  1  0.81495254  0.20502557  0.74030080  1
  Ti  Ti140  1  0.91590253  0.50044045  0.61751031  1
  Ti  Ti141  1  0.10570768  0.92006772  0.12377080  1
  Ti  Ti142  1  0.69461193  0.89811268  0.85360100  1
  Ti  Ti143  1  0.29255012  0.08721035  0.38022526  1
  Ti  Ti144  1  0.61211197  0.60678130  0.00147015  1
  Ti  Ti145  1  0.49476700  0.08929448  0.37431359  1
  Ti  Ti146  1  0.49394861  0.90172814  0.38975904  1
  Ti  Ti147  1  0.58334108  0.57833186  0.73145332  1
  Ti  Ti148  1  0.38506157  0.78182885  0.75939590  1
  Ti  Ti149  1  0.90368260  0.89912877  0.39583502  1
  Ti  Ti150  1  0.79586888  0.59527434  0.50995332  1
  Ti  Ti151  1  0.79231287  0.59760804  -0.00934733  1
  Ti  Ti152  1  0.38636783  -0.00804040  0.25802086  1
  Ti  Ti153  1  0.10748294  0.29522992  0.10812854  1
  Ti  Ti154  1  0.00306638  0.40321827  0.01884405  1
  Ti  Ti155  1  0.39617450  -0.00344463  0.75498389  1
  Ti  Ti156  1  0.30399288  0.50832740  0.87823529  1
  Ti  Ti157  1  0.59209032  -0.01086814  0.26068614  1
  Ti  Ti158  1  0.89848343  0.10718690  0.87578698  1
  Ti  Ti159  1  0.70952081  0.30464432  0.86867059  1
  Mo  Mo160  1  0.90484446  0.29985619  0.10886869  1
  Mo  Mo161  1  0.29697962  0.50329557  0.35779236  1
  Mo  Mo162  1  0.30905202  0.90520275  0.37611937  1
  Mo  Mo163  1  0.38623566  0.21399339  0.76257427  1
  Mo  Mo164  1  0.90654918  0.90347490  0.12042304  1
  Mo  Mo165  1  0.40137463  0.60412449  -0.00832471  1
  Mo  Mo166  1  0.49862537  0.49630703  0.61409921  1
  Mo  Mo167  1  0.70035814  0.49695135  0.63185046  1
  Mo  Mo168  1  -0.00250271  0.20924165  0.73743713  1
  Mo  Mo169  1  0.20069246  -0.00182851  0.25077015  1
  Mo  Mo170  1  0.10001396  0.89981818  0.87529263  1
  Mo  Mo171  1  0.00402639  0.40704452  0.50953227  1
  Mo  Mo172  1  0.29052075  0.71194104  0.62301707  1
  Mo  Mo173  1  0.30132099  0.89847969  0.65026235  1
  Mo  Mo174  1  0.19606467  0.39900025  0.01040482  1
  Mo  Mo175  1  0.10328224  0.70262194  0.34616020  1
  Mo  Mo176  1  0.20592478  0.20147692  0.49231847  1
  Mo  Mo177  1  0.39700595  0.60227951  0.76630545  1
  Mo  Mo178  1  0.20001165  0.79408185  0.50484980  1
  Mo  Mo179  1  0.69746934  0.28351120  0.12846647  1
  Mo  Mo180  1  0.49761738  0.29347459  0.37474147  1
  Mo  Mo181  1  0.39281463  0.19836826  -0.02267848  1
  Mo  Mo182  1  0.61208727  0.39784144  0.73531059  1
  Mo  Mo183  1  0.00392153  0.59952025  0.24817249  1
  Mo  Mo184  1  0.39382995  0.60531889  0.47581040  1
  Mo  Mo185  1  0.30689063  0.90387283  0.10366240  1
  Mo  Mo186  1  0.29737358  0.10505015  0.85956839  1
  Mo  Mo187  1  0.79736643  -0.00065873  0.51478932  1
  Mo  Mo188  1  0.79352491  0.80269169  0.27364128  1
  Mo  Mo189  1  0.90544048  0.29566875  0.62432097  1
  Mo  Mo190  1  0.49904153  0.09530376  0.64016396  1
  Mo  Mo191  1  0.00601979  0.79170881  0.48500609  1
  Mo  Mo192  1  0.29722480  0.69772142  0.89963456  1
  Mo  Mo193  1  0.49503895  0.89789047  0.85283578  1
  Mo  Mo194  1  0.79413601  0.59731108  0.26393795  1
  Mo  Mo195  1  0.69394357  0.69901492  0.13985037  1
  Mo  Mo196  1  0.80032965  0.20258627  0.50673911  1
  Mo  Mo197  1  0.09914516  0.50373892  0.11920624  1
  Mo  Mo198  1  0.30274575  0.50563627  0.14040302  1
  Mo  Mo199  1  0.10562270  0.10466411  0.39627492  1
