# generated using pymatgen
data_HfZrTaTiMo
_symmetry_space_group_name_H-M   'P 1'
_cell_length_a   15.84228111
_cell_length_b   15.84157307
_cell_length_c   15.38620707
_cell_angle_alpha   89.98495770
_cell_angle_beta   89.94235423
_cell_angle_gamma   89.98551402
_symmetry_Int_Tables_number   1
_chemical_formula_structural   HfZrTaTiMo
_chemical_formula_sum   'Hf40 Zr40 Ta40 Ti40 Mo40'
_cell_volume   3861.42269311
_cell_formula_units_Z   40
loop_
 _symmetry_equiv_pos_site_id
 _symmetry_equiv_pos_as_xyz
  1  'x, y, z'
loop_
 _atom_site_type_symbol
 _atom_site_label
 _atom_site_symmetry_multiplicity
 _atom_site_fract_x
 _atom_site_fract_y
 _atom_site_fract_z
 _atom_site_occupancy
  Hf  Hf0  1  0.20034219  0.20210248  0.48040730  1
  Hf  Hf1  1  0.00022962  0.20393925  0.48243819  1
  Hf  Hf2  1  0.20069744  0.79161563  0.24254597  1
  Hf  Hf3  1  0.39812935  0.40176029  0.51039549  1
  Hf  Hf4  1  0.80414465  0.19728945  0.74415636  1
  Hf  Hf5  1  0.68895506  0.09296595  0.61970185  1
  Hf  Hf6  1  0.47482328  0.89226106  0.11799639  1
  Hf  Hf7  1  0.49756365  0.31472880  0.88972340  1
  Hf  Hf8  1  0.00513485  0.41192484  0.25420919  1
  Hf  Hf9  1  0.81090564  0.59576852  -0.01607839  1
  Hf  Hf10  1  0.79659005  -0.00349132  0.48935471  1
  Hf  Hf11  1  0.51265774  0.08414087  0.13292282  1
  Hf  Hf12  1  0.00981698  -0.01166275  0.74950014  1
  Hf  Hf13  1  0.60804373  0.40607548  0.49489200  1
  Hf  Hf14  1  0.69779987  0.29821615  0.63035536  1
  Hf  Hf15  1  0.20036154  -0.00481242  0.01258358  1
  Hf  Hf16  1  0.40036501  0.20099905  0.02251799  1
  Hf  Hf17  1  0.20520221  0.79496482  -0.00607779  1
  Hf  Hf18  1  0.78982241  -0.01007144  0.74135299  1
  Hf  Hf19  1  0.19665707  0.80318905  0.51307020  1
  Hf  Hf20  1  0.29354122  0.51001123  0.11669483  1
  Hf  Hf21  1  0.10659957  0.30492398  0.88615684  1
  Hf  Hf22  1  0.90368544  0.10144676  0.61328949  1
  Hf  Hf23  1  0.50155061  0.09894716  0.62585395  1
  Hf  Hf24  1  0.89546674  0.89760334  0.87695794  1
  Hf  Hf25  1  0.90669633  0.70518701  0.63261745  1
  Hf  Hf26  1  0.79769050  0.79802295  0.00194002  1
  Hf  Hf27  1  0.80159306  0.59872347  0.75102550  1
  Hf  Hf28  1  0.40927418  0.58349374  0.74584563  1
  Hf  Hf29  1  0.80482282  0.39778096  0.51110847  1
  Hf  Hf30  1  0.19195474  0.81120316  0.75470889  1
  Hf  Hf31  1  0.19542683  0.40189598  0.50479108  1
  Hf  Hf32  1  0.49686673  0.51212506  0.37142537  1
  Hf  Hf33  1  0.29602935  0.69844344  0.63932542  1
  Hf  Hf34  1  0.09652821  0.30612267  0.12303152  1
  Hf  Hf35  1  0.20601588  0.39765436  0.73578257  1
  Hf  Hf36  1  0.79690950  0.78482664  0.24323398  1
  Hf  Hf37  1  0.50026970  0.29215003  0.61444890  1
  Hf  Hf38  1  0.49880630  0.89492935  0.35223784  1
  Hf  Hf39  1  -0.00394736  0.60012965  0.25252051  1
  Zr  Zr40  1  0.79554321  0.40227438  0.00413051  1
  Zr  Zr41  1  0.50243812  0.09060869  0.89743398  1
  Zr  Zr42  1  0.70473357  0.10450902  0.13282329  1
  Zr  Zr43  1  0.80756722  0.20180740  -0.00051619  1
  Zr  Zr44  1  0.68379853  0.90415704  0.12654701  1
  Zr  Zr45  1  0.09194529  0.89231936  0.12938530  1
  Zr  Zr46  1  0.40130339  -0.00221375  0.75942378  1
  Zr  Zr47  1  -0.01322218  0.40909774  -0.00830849  1
  Zr  Zr48  1  0.29784152  0.10289419  0.61710645  1
  Zr  Zr49  1  0.89558271  0.69416074  0.38782522  1
  Zr  Zr50  1  0.09663277  0.10431494  0.88337118  1
  Zr  Zr51  1  0.29969961  0.88824121  0.36992911  1
  Zr  Zr52  1  0.09916666  0.08970151  0.61303862  1
  Zr  Zr53  1  0.40169463  -0.00526291  0.49578664  1
  Zr  Zr54  1  0.90279847  0.09977827  0.87198007  1
  Zr  Zr55  1  0.90305858  0.89127838  0.37431649  1
  Zr  Zr56  1  0.29732591  0.10366005  0.88522743  1
  Zr  Zr57  1  0.89638380  0.31049654  0.36718018  1
  Zr  Zr58  1  0.60046041  -0.00162721  0.47824754  1
  Zr  Zr59  1  0.30194763  0.51602608  0.37671711  1
  Zr  Zr60  1  0.19726443  0.60630993  0.24492775  1
  Zr  Zr61  1  0.60682922  0.41532000  0.24801543  1
  Zr  Zr62  1  0.89550089  0.29674109  0.14077670  1
  Zr  Zr63  1  0.01217871  0.40951730  0.74856726  1
  Zr  Zr64  1  0.60743875  0.79531014  0.50224492  1
  Zr  Zr65  1  0.50636454  0.30295041  0.36308745  1
  Zr  Zr66  1  0.30068598  0.49262968  0.88247729  1
  Zr  Zr67  1  0.59152226  0.60662268  0.52054174  1
  Zr  Zr68  1  0.78657662  0.60295173  0.51868222  1
  Zr  Zr69  1  0.68554454  0.49438681  0.86621750  1
  Zr  Zr70  1  0.52535129  0.90274743  0.64473612  1
  Zr  Zr71  1  0.20521758  0.20290865  0.02402014  1
  Zr  Zr72  1  0.69467659  0.70557912  0.86847253  1
  Zr  Zr73  1  0.39178177  0.21060141  0.75379313  1
  Zr  Zr74  1  0.30484112  0.31175909  0.36254117  1
  Zr  Zr75  1  0.69673164  0.30643240  0.86630201  1
  Zr  Zr76  1  0.92040927  0.89544389  0.60965376  1
  Zr  Zr77  1  0.20177584  0.20257771  0.25104106  1
  Zr  Zr78  1  0.40991379  0.79390299  0.51791432  1
  Zr  Zr79  1  0.59553099  0.19387259  0.76289630  1
  Ta  Ta80  1  -0.00889705  -0.00032486  0.01400025  1
  Ta  Ta81  1  0.80269444  -0.00445642  0.25225600  1
  Ta  Ta82  1  0.70744511  0.29966806  0.35845545  1
  Ta  Ta83  1  0.60331562  0.60709889  0.23614072  1
  Ta  Ta84  1  -0.00526692  0.60131723  -0.02422516  1
  Ta  Ta85  1  0.09123253  0.09613467  0.13794714  1
  Ta  Ta86  1  0.31066321  0.07912767  0.13746013  1
  Ta  Ta87  1  0.50045323  0.50522622  0.11907004  1
  Ta  Ta88  1  0.30608471  0.09145372  0.36123239  1
  Ta  Ta89  1  0.59962874  0.60309359  0.00916283  1
  Ta  Ta90  1  0.10008277  0.50799838  0.39186855  1
  Ta  Ta91  1  0.29786373  0.30584526  0.88847337  1
  Ta  Ta92  1  0.70189000  0.08812747  0.88719462  1
  Ta  Ta93  1  0.49219370  0.69882579  0.36285430  1
  Ta  Ta94  1  0.90366343  0.69096918  0.12188778  1
  Ta  Ta95  1  0.40548800  0.61076518  -0.00220512  1
  Ta  Ta96  1  0.18639039  0.59197661  0.75236241  1
  Ta  Ta97  1  0.89876917  0.89534551  0.13181572  1
  Ta  Ta98  1  0.19546090  -0.00499417  0.25096520  1
  Ta  Ta99  1  0.39569371  0.39805673  0.02021029  1
  Ta  Ta100  1  0.09474906  0.69336345  0.10586655  1
  Ta  Ta101  1  0.69924642  0.29957076  0.14377768  1
  Ta  Ta102  1  0.50938640  0.30200370  0.13067532  1
  Ta  Ta103  1  0.09706081  0.29498978  0.61901014  1
  Ta  Ta104  1  0.10105476  0.70002898  0.39044198  1
  Ta  Ta105  1  0.79527090  0.19975447  0.49031728  1
  Ta  Ta106  1  0.19996098  0.00030003  0.75651449  1
  Ta  Ta107  1  0.40448771  0.80027948  0.75799046  1
  Ta  Ta108  1  0.09322989  0.89707678  0.37464597  1
  Ta  Ta109  1  0.00721933  0.19753694  0.26593665  1
  Ta  Ta110  1  -0.00666671  0.79359556  -0.00777784  1
  Ta  Ta111  1  0.40396756  0.19440800  0.47950419  1
  Ta  Ta112  1  0.90675582  0.49919538  0.63003893  1
  Ta  Ta113  1  0.19342414  0.40937716  0.24670439  1
  Ta  Ta114  1  0.90047355  0.30578495  0.85780613  1
  Ta  Ta115  1  0.50368912  0.69509342  0.86545871  1
  Ta  Ta116  1  0.40576993  0.19590270  0.24507544  1
  Ta  Ta117  1  0.09469583  0.50756849  0.10487343  1
  Ta  Ta118  1  0.69958269  0.10341272  0.35629479  1
  Ta  Ta119  1  0.19702312  0.20543517  0.74488495  1
  Ti  Ti120  1  0.31583864  0.71576427  0.11237329  1
  Ti  Ti121  1  0.58848053  0.79807831  -0.00420110  1
  Ti  Ti122  1  0.30245686  0.69542160  0.38663721  1
  Ti  Ti123  1  0.39268251  0.39432576  0.73454478  1
  Ti  Ti124  1  0.90205309  0.09425840  0.36756489  1
  Ti  Ti125  1  0.60193842  0.19745840  0.47971352  1
  Ti  Ti126  1  0.80155126  -0.00176901  0.01155445  1
  Ti  Ti127  1  0.90427033  0.09606190  0.14428499  1
  Ti  Ti128  1  0.79526020  0.80449136  0.74666739  1
  Ti  Ti129  1  0.40365964  0.60610658  0.51676997  1
  Ti  Ti130  1  0.19765086  0.60215057  -0.01504850  1
  Ti  Ti131  1  0.00622974  0.60017471  0.51162372  1
  Ti  Ti132  1  -0.00609212  0.19766724  0.00707679  1
  Ti  Ti133  1  0.39660662  0.40676471  0.23444558  1
  Ti  Ti134  1  0.00218434  0.40037506  0.50584394  1
  Ti  Ti135  1  0.70062778  0.69483099  0.11810437  1
  Ti  Ti136  1  0.89911284  0.50734927  0.38918592  1
  Ti  Ti137  1  0.30325393  0.69597404  0.86413417  1
  Ti  Ti138  1  0.69165077  0.69437154  0.36683622  1
  Ti  Ti139  1  0.29596573  0.90769963  0.63103127  1
  Ti  Ti140  1  0.00478788  0.20413083  0.74240214  1
  Ti  Ti141  1  0.50207034  0.49940415  0.89446336  1
  Ti  Ti142  1  0.60779355  0.20692259  0.00441541  1
  Ti  Ti143  1  0.71003642  0.51161589  0.37115187  1
  Ti  Ti144  1  0.69426121  0.49706171  0.64197468  1
  Ti  Ti145  1  0.19408369  -0.00026597  0.48491876  1
  Ti  Ti146  1  0.29261265  0.50795782  0.61916389  1
  Ti  Ti147  1  0.69765333  0.89178367  0.35660839  1
  Ti  Ti148  1  0.59069920  0.78699571  0.23621745  1
  Ti  Ti149  1  0.78901506  0.79789019  0.50996329  1
  Ti  Ti150  1  0.09665264  0.70295766  0.87224161  1
  Ti  Ti151  1  0.57363541  0.41343597  0.73836791  1
  Ti  Ti152  1  0.70596534  0.50636331  0.12048849  1
  Ti  Ti153  1  0.40316277  0.61264496  0.23325726  1
  Ti  Ti154  1  0.09357490  0.70548929  0.63142682  1
  Ti  Ti155  1  0.00326138  0.60010510  0.76086080  1
  Ti  Ti156  1  0.00184419  0.78831963  0.24973909  1
  Ti  Ti157  1  0.30982106  0.90106619  0.88601181  1
  Ti  Ti158  1  0.09559816  0.90175289  0.88870166  1
  Ti  Ti159  1  0.80691500  0.42324783  0.24419354  1
  Mo  Mo160  1  0.60149398  -0.00624207  0.25847099  1
  Mo  Mo161  1  0.10111550  0.09228234  0.36424061  1
  Mo  Mo162  1  0.39586524  -0.00505125  0.25457686  1
  Mo  Mo163  1  0.20103369  0.40351723  0.01536154  1
  Mo  Mo164  1  0.50408580  0.89059795  0.88153458  1
  Mo  Mo165  1  0.79438451  0.59696471  0.24699822  1
  Mo  Mo166  1  0.10559474  0.50608897  0.88527179  1
  Mo  Mo167  1  0.50076862  0.70044433  0.12238487  1
  Mo  Mo168  1  0.09881891  0.50946611  0.61385388  1
  Mo  Mo169  1  0.19748523  0.60603482  0.51386720  1
  Mo  Mo170  1  0.00565188  0.00082554  0.47828860  1
  Mo  Mo171  1  -0.00329090  -0.00222217  0.25053987  1
  Mo  Mo172  1  0.89897462  0.49746216  0.84963634  1
  Mo  Mo173  1  0.80827968  0.39861906  0.73252477  1
  Mo  Mo174  1  0.60754015  0.80503482  0.75958579  1
  Mo  Mo175  1  0.70995897  0.89746996  0.62069542  1
  Mo  Mo176  1  0.39139721  0.78649482  0.25087011  1
  Mo  Mo177  1  0.29748232  0.89531994  0.12162934  1
  Mo  Mo178  1  0.09899632  0.31208570  0.37194484  1
  Mo  Mo179  1  0.00469194  0.79707513  0.76642318  1
  Mo  Mo180  1  0.50129842  0.10081327  0.35742445  1
  Mo  Mo181  1  0.39757581  -0.00699514  -0.00235421  1
  Mo  Mo182  1  0.60083251  0.20154755  0.25231416  1
  Mo  Mo183  1  0.40067437  0.79245713  -0.02583092  1
  Mo  Mo184  1  0.69736279  0.71106364  0.64787001  1
  Mo  Mo185  1  0.10842260  0.90274246  0.61663728  1
  Mo  Mo186  1  0.60813009  -0.00730724  0.77496948  1
  Mo  Mo187  1  0.90384585  0.70514366  0.85933680  1
  Mo  Mo188  1  0.90038116  0.51140366  0.12667542  1
  Mo  Mo189  1  0.59541335  0.59997547  0.73956182  1
  Mo  Mo190  1  0.29580006  0.29419771  0.61552971  1
  Mo  Mo191  1  0.49999562  0.70065250  0.65241646  1
  Mo  Mo192  1  0.30518822  0.30604641  0.14127370  1
  Mo  Mo193  1  0.59766861  0.40196602  0.02033540  1
  Mo  Mo194  1  0.60282156  -0.00983076  -0.00579175  1
  Mo  Mo195  1  0.69769552  0.90371896  0.89104693  1
  Mo  Mo196  1  0.00650955  0.79382414  0.49716375  1
  Mo  Mo197  1  0.80621494  0.19649515  0.26119613  1
  Mo  Mo198  1  0.90626868  0.29973292  0.62725195  1
  Mo  Mo199  1  0.49665665  0.49540556  0.61607911  1
