# generated using pymatgen
data_HfZrTaTiMo
_symmetry_space_group_name_H-M   'P 1'
_cell_length_a   15.84835873
_cell_length_b   15.83513061
_cell_length_c   15.36882904
_cell_angle_alpha   89.96883379
_cell_angle_beta   90.05042278
_cell_angle_gamma   90.04258599
_symmetry_Int_Tables_number   1
_chemical_formula_structural   HfZrTaTiMo
_chemical_formula_sum   'Hf40 Zr40 Ta40 Ti40 Mo40'
_cell_volume   3856.97096989
_cell_formula_units_Z   40
loop_
 _symmetry_equiv_pos_site_id
 _symmetry_equiv_pos_as_xyz
  1  'x, y, z'
loop_
 _atom_site_type_symbol
 _atom_site_label
 _atom_site_symmetry_multiplicity
 _atom_site_fract_x
 _atom_site_fract_y
 _atom_site_fract_z
 _atom_site_occupancy
  Hf  Hf0  1  0.40720760  0.20366423  0.24270308  1
  Hf  Hf1  1  0.50066951  0.50496173  0.36052755  1
  Hf  Hf2  1  0.89375199  0.12039933  0.87992437  1
  Hf  Hf3  1  0.59213101  0.58140621  0.00270644  1
  Hf  Hf4  1  0.31179127  0.09309601  0.88482263  1
  Hf  Hf5  1  0.78872048  0.01348002  0.01410705  1
  Hf  Hf6  1  0.41383115  0.20084635  0.00703917  1
  Hf  Hf7  1  0.20702077  0.40030281  0.76551381  1
  Hf  Hf8  1  0.69601554  0.69065318  0.62405227  1
  Hf  Hf9  1  0.29689202  0.09241260  0.36143194  1
  Hf  Hf10  1  0.80491121  0.59823683  0.75517905  1
  Hf  Hf11  1  0.79018572  0.39468848  0.49730451  1
  Hf  Hf12  1  0.30336746  0.70294593  0.88979223  1
  Hf  Hf13  1  0.00216838  0.00660059  -0.00363360  1
  Hf  Hf14  1  0.00853685  0.39386912  0.24310344  1
  Hf  Hf15  1  0.69413259  0.48625023  0.87116468  1
  Hf  Hf16  1  0.70383646  0.50092728  0.35742658  1
  Hf  Hf17  1  0.68689324  0.90954197  0.63104436  1
  Hf  Hf18  1  0.10551808  0.88866841  0.13364998  1
  Hf  Hf19  1  0.60211756  0.59070265  0.49838911  1
  Hf  Hf20  1  0.38333277  0.80411390  0.23098511  1
  Hf  Hf21  1  0.51414538  0.30318717  0.88838574  1
  Hf  Hf22  1  0.10941226  0.90785005  0.37720007  1
  Hf  Hf23  1  0.09461388  0.69917082  0.63561677  1
  Hf  Hf24  1  0.21249745  0.80669155  0.51849006  1
  Hf  Hf25  1  0.40306421  0.20253736  0.76498149  1
  Hf  Hf26  1  0.39538650  -0.00870375  0.49999572  1
  Hf  Hf27  1  0.80873666  0.80502369  0.26066126  1
  Hf  Hf28  1  0.08514883  0.29244536  0.63666395  1
  Hf  Hf29  1  0.79866074  0.80585256  0.49593028  1
  Hf  Hf30  1  0.90708320  0.70450282  0.11952064  1
  Hf  Hf31  1  0.89870167  0.29081729  0.38660636  1
  Hf  Hf32  1  0.40637952  0.38935735  0.48449971  1
  Hf  Hf33  1  0.90933728  0.50829535  0.12812220  1
  Hf  Hf34  1  0.80139367  0.59570693  -0.00510121  1
  Hf  Hf35  1  -0.01326794  0.80276902  0.75135807  1
  Hf  Hf36  1  0.67886863  0.91184323  0.87767952  1
  Hf  Hf37  1  0.09443215  0.69815090  0.12889881  1
  Hf  Hf38  1  0.19573643  -0.00136157  -0.00574672  1
  Hf  Hf39  1  0.19871007  0.19232645  0.50523621  1
  Zr  Zr40  1  0.68673022  0.90558318  0.36040542  1
  Zr  Zr41  1  -0.00329143  0.20529512  0.23014108  1
  Zr  Zr42  1  0.09665258  0.90336262  0.63369469  1
  Zr  Zr43  1  0.68371172  0.70046252  0.87830922  1
  Zr  Zr44  1  0.30084568  0.29913962  0.62870444  1
  Zr  Zr45  1  0.28279761  0.69755638  0.10891825  1
  Zr  Zr46  1  0.58106945  0.78947949  0.74841172  1
  Zr  Zr47  1  0.29957585  0.09915741  0.11743257  1
  Zr  Zr48  1  0.50169917  0.49474798  0.62250797  1
  Zr  Zr49  1  0.60509521  0.20426280  0.47894342  1
  Zr  Zr50  1  0.71230154  0.28844128  0.63097479  1
  Zr  Zr51  1  0.90827714  0.89459181  0.11428832  1
  Zr  Zr52  1  0.90543854  0.49928829  0.61786229  1
  Zr  Zr53  1  0.79991736  0.39699419  0.01183756  1
  Zr  Zr54  1  0.90378333  0.10185353  0.37666684  1
  Zr  Zr55  1  0.58573766  0.01255918  0.49065732  1
  Zr  Zr56  1  0.50498031  0.29390017  0.62894080  1
  Zr  Zr57  1  0.80694140  0.00314396  0.23782266  1
  Zr  Zr58  1  0.79744464  0.01110753  0.74640143  1
  Zr  Zr59  1  0.90202835  0.13322738  0.62120172  1
  Zr  Zr60  1  0.19951322  0.40304516  0.24706297  1
  Zr  Zr61  1  0.69218399  0.70279379  0.13454371  1
  Zr  Zr62  1  0.00539240  0.60225265  0.26748183  1
  Zr  Zr63  1  0.82206182  0.38634673  0.75792895  1
  Zr  Zr64  1  0.00461646  0.40536060  -0.00929827  1
  Zr  Zr65  1  0.10007631  0.49258622  0.63433651  1
  Zr  Zr66  1  0.49610533  0.70188041  0.11700534  1
  Zr  Zr67  1  0.39403624  0.39409288  0.24343120  1
  Zr  Zr68  1  0.20575897  0.00192391  0.75070717  1
  Zr  Zr69  1  0.90139133  0.50138972  0.38264993  1
  Zr  Zr70  1  0.21732456  0.60263406  0.74838656  1
  Zr  Zr71  1  0.79239044  0.01136790  0.49773104  1
  Zr  Zr72  1  0.79640898  0.80428955  0.74797685  1
  Zr  Zr73  1  0.79036242  0.80621122  -0.00301250  1
  Zr  Zr74  1  0.49498774  0.70587900  0.36420818  1
  Zr  Zr75  1  0.69311082  0.69614350  0.36496786  1
  Zr  Zr76  1  0.40890366  0.18705958  0.48664453  1
  Zr  Zr77  1  0.58641782  0.80788078  0.50214929  1
  Zr  Zr78  1  0.48419792  0.89678966  0.88345531  1
  Zr  Zr79  1  0.19905110  0.59782756  0.50506704  1
  Ta  Ta80  1  0.37929692  0.79197452  0.73753820  1
  Ta  Ta81  1  0.30386526  0.70259015  0.38276514  1
  Ta  Ta82  1  0.31492714  0.50100728  0.61449812  1
  Ta  Ta83  1  0.40410622  0.40776615  0.76585493  1
  Ta  Ta84  1  0.89991464  0.69929592  0.61266385  1
  Ta  Ta85  1  0.30116735  0.50319785  0.38418575  1
  Ta  Ta86  1  0.20362262  0.60095462  0.26082473  1
  Ta  Ta87  1  0.10809352  0.70838756  0.38014377  1
  Ta  Ta88  1  0.60498480  0.19410223  0.76310195  1
  Ta  Ta89  1  0.20312663  0.00643547  0.51135287  1
  Ta  Ta90  1  0.69846644  0.49238954  0.63236945  1
  Ta  Ta91  1  0.60286119  0.39132611  0.47820203  1
  Ta  Ta92  1  0.30077908  0.89426671  0.37157617  1
  Ta  Ta93  1  0.40337444  -0.00482352  0.23639788  1
  Ta  Ta94  1  0.10610214  0.10234462  0.36001474  1
  Ta  Ta95  1  0.29353906  0.30457486  0.10281599  1
  Ta  Ta96  1  0.10219172  0.70510311  0.86149628  1
  Ta  Ta97  1  0.19871286  0.21028198  0.23773910  1
  Ta  Ta98  1  0.09856459  0.89973281  0.86208905  1
  Ta  Ta99  1  0.51217397  0.08521628  0.88605716  1
  Ta  Ta100  1  0.00413517  0.60155598  -0.02141521  1
  Ta  Ta101  1  0.48601823  0.90394467  0.63873511  1
  Ta  Ta102  1  0.80688135  0.38919988  0.23941090  1
  Ta  Ta103  1  -0.00406789  0.01283836  0.75751248  1
  Ta  Ta104  1  0.69824375  0.11008124  0.34871011  1
  Ta  Ta105  1  0.10396610  0.10034926  0.12844635  1
  Ta  Ta106  1  0.00256767  -0.00076191  0.24847291  1
  Ta  Ta107  1  0.60177845  0.39252213  0.75513053  1
  Ta  Ta108  1  0.48568535  0.69568082  0.89537617  1
  Ta  Ta109  1  -0.00379494  0.80495675  0.27423614  1
  Ta  Ta110  1  0.48115314  0.69264890  0.61236731  1
  Ta  Ta111  1  0.89610976  0.90935542  0.87784554  1
  Ta  Ta112  1  0.90280789  0.91061773  0.61504630  1
  Ta  Ta113  1  0.38606679  0.59618808  0.24197377  1
  Ta  Ta114  1  0.01037209  0.01130952  0.50099434  1
  Ta  Ta115  1  0.19463514  0.20123952  0.77300706  1
  Ta  Ta116  1  0.71229605  0.28492183  0.88174727  1
  Ta  Ta117  1  0.61642014  0.19310473  0.01573705  1
  Ta  Ta118  1  0.31300809  0.50384877  0.89305466  1
  Ta  Ta119  1  0.59945587  0.38593655  0.24715847  1
  Ti  Ti120  1  0.19192275  0.39950569  -0.01227829  1
  Ti  Ti121  1  0.49969287  0.89842571  0.10874812  1
  Ti  Ti122  1  0.89832454  0.70475107  0.87900201  1
  Ti  Ti123  1  0.18674001  0.59181002  -0.01621546  1
  Ti  Ti124  1  0.40469746  0.59944122  0.75514357  1
  Ti  Ti125  1  0.80349839  0.20411053  0.22781401  1
  Ti  Ti126  1  0.19154210  0.80547655  -0.01186153  1
  Ti  Ti127  1  0.10787593  0.50653727  0.12200576  1
  Ti  Ti128  1  0.41431462  0.40874880  0.00405004  1
  Ti  Ti129  1  -0.00433934  0.59067635  0.76734557  1
  Ti  Ti130  1  0.29526158  0.50142265  0.10791017  1
  Ti  Ti131  1  0.10192131  0.29196293  0.38128935  1
  Ti  Ti132  1  0.00498873  0.80110381  -0.01831333  1
  Ti  Ti133  1  0.69693412  0.10047559  0.87682383  1
  Ti  Ti134  1  0.89768911  0.69696725  0.39270575  1
  Ti  Ti135  1  0.00345753  0.60327309  0.49649448  1
  Ti  Ti136  1  0.01345019  0.20551210  0.00146559  1
  Ti  Ti137  1  0.59756224  0.20263587  0.23789341  1
  Ti  Ti138  1  0.10552352  0.49564305  0.38302716  1
  Ti  Ti139  1  0.30385693  0.30216580  0.89271062  1
  Ti  Ti140  1  0.29333409  0.29578868  0.37463865  1
  Ti  Ti141  1  0.30869961  0.09815747  0.63717516  1
  Ti  Ti142  1  -0.00091891  0.80705191  0.49545638  1
  Ti  Ti143  1  0.68009697  0.90040788  0.13010012  1
  Ti  Ti144  1  0.50225753  0.09468513  0.64286109  1
  Ti  Ti145  1  0.49855686  0.49832674  0.13747246  1
  Ti  Ti146  1  0.49268575  0.90136773  0.35855242  1
  Ti  Ti147  1  0.30194908  0.89597488  0.87550048  1
  Ti  Ti148  1  0.00422176  0.39248262  0.77782843  1
  Ti  Ti149  1  0.20702179  -0.00863510  0.23874191  1
  Ti  Ti150  1  0.09581174  0.10745008  0.64069116  1
  Ti  Ti151  1  0.58698491  0.59079814  0.75479834  1
  Ti  Ti152  1  0.00691288  0.39230130  0.49827207  1
  Ti  Ti153  1  0.60519170  0.38931719  0.02277266  1
  Ti  Ti154  1  0.80773236  0.20381904  0.02824027  1
  Ti  Ti155  1  0.69701893  0.50213236  0.14211757  1
  Ti  Ti156  1  0.80706006  0.60392494  0.24726245  1
  Ti  Ti157  1  0.20129493  0.39478554  0.50165163  1
  Ti  Ti158  1  0.69403772  0.10749342  0.63007169  1
  Ti  Ti159  1  0.51057685  0.09072875  0.12240887  1
  Mo  Mo160  1  0.59149216  0.00244729  0.23820668  1
  Mo  Mo161  1  0.59996873  0.00251240  0.01637603  1
  Mo  Mo162  1  0.38766209  0.80379369  0.00912620  1
  Mo  Mo163  1  0.59304836  0.00817216  0.74871860  1
  Mo  Mo164  1  0.79226697  0.19944117  0.48527136  1
  Mo  Mo165  1  0.50292446  0.29627439  0.36386117  1
  Mo  Mo166  1  0.19772094  0.79551709  0.26181215  1
  Mo  Mo167  1  0.30197965  0.90386733  0.63168930  1
  Mo  Mo168  1  0.11131091  0.29971475  0.10370624  1
  Mo  Mo169  1  0.91051306  0.90349932  0.39272874  1
  Mo  Mo170  1  0.50220120  0.09085777  0.34750221  1
  Mo  Mo171  1  0.01558110  0.19684911  0.49091092  1
  Mo  Mo172  1  0.19817189  0.20290180  -0.00699820  1
  Mo  Mo173  1  0.90957122  0.10268395  0.11631996  1
  Mo  Mo174  1  0.70151071  0.29900813  0.13373930  1
  Mo  Mo175  1  0.58836592  0.80924355  0.24003159  1
  Mo  Mo176  1  0.90067035  0.50391293  0.87520224  1
  Mo  Mo177  1  0.39970726  0.59773574  0.48703356  1
  Mo  Mo178  1  0.79736811  0.20244349  0.75840203  1
  Mo  Mo179  1  0.50236514  0.30003066  0.11399457  1
  Mo  Mo180  1  0.90724445  0.30301351  0.11424620  1
  Mo  Mo181  1  0.59215456  0.79969595  0.00336286  1
  Mo  Mo182  1  0.59410264  0.59243951  0.23750991  1
  Mo  Mo183  1  0.09752185  0.10254189  0.87022587  1
  Mo  Mo184  1  0.10741363  0.50471650  0.86485923  1
  Mo  Mo185  1  0.39995062  -0.00286352  0.01749346  1
  Mo  Mo186  1  0.70509273  0.29623932  0.34996802  1
  Mo  Mo187  1  0.39640920  0.59007220  0.01310869  1
  Mo  Mo188  1  0.79998250  0.59827645  0.51188876  1
  Mo  Mo189  1  0.30531699  0.69455051  0.61700202  1
  Mo  Mo190  1  0.39772242  0.80237750  0.50761396  1
  Mo  Mo191  1  0.70042331  0.10247254  0.13925039  1
  Mo  Mo192  1  0.50039368  0.49900122  0.87195551  1
  Mo  Mo193  1  0.39976775  -0.00063759  0.74687300  1
  Mo  Mo194  1  -0.00311627  0.21225041  0.77061036  1
  Mo  Mo195  1  0.90758092  0.30169262  0.60789931  1
  Mo  Mo196  1  0.90110456  0.29761627  0.89764859  1
  Mo  Mo197  1  0.29607119  0.89837611  0.11571291  1
  Mo  Mo198  1  0.10379309  0.29690668  0.88009673  1
  Mo  Mo199  1  0.19951985  0.79954885  0.75365189  1
