# generated using pymatgen
data_HfZrTaTiMo
_symmetry_space_group_name_H-M   'P 1'
_cell_length_a   15.82008734
_cell_length_b   15.84791286
_cell_length_c   15.40780299
_cell_angle_alpha   90.02975916
_cell_angle_beta   89.95612819
_cell_angle_gamma   90.16263833
_symmetry_Int_Tables_number   1
_chemical_formula_structural   HfZrTaTiMo
_chemical_formula_sum   'Hf40 Zr40 Ta40 Ti40 Mo40'
_cell_volume   3862.95574877
_cell_formula_units_Z   40
loop_
 _symmetry_equiv_pos_site_id
 _symmetry_equiv_pos_as_xyz
  1  'x, y, z'
loop_
 _atom_site_type_symbol
 _atom_site_label
 _atom_site_symmetry_multiplicity
 _atom_site_fract_x
 _atom_site_fract_y
 _atom_site_fract_z
 _atom_site_occupancy
  Hf  Hf0  1  0.41078369  0.61117466  0.50616538  1
  Hf  Hf1  1  0.40480857  0.39262424  0.74460603  1
  Hf  Hf2  1  0.51975914  0.51091686  0.63068002  1
  Hf  Hf3  1  0.19919941  0.60360571  0.74821036  1
  Hf  Hf4  1  0.30093632  0.49588064  0.62650786  1
  Hf  Hf5  1  0.20331073  0.80769654  0.24974301  1
  Hf  Hf6  1  0.39546216  0.00970617  0.23869473  1
  Hf  Hf7  1  0.30046199  0.50550339  0.86764914  1
  Hf  Hf8  1  -0.00601803  0.00553732  0.74875578  1
  Hf  Hf9  1  0.00895628  0.39398922  0.75484907  1
  Hf  Hf10  1  0.70810526  0.27919012  0.87135307  1
  Hf  Hf11  1  0.69109589  0.68451666  0.62215751  1
  Hf  Hf12  1  0.40164890  0.81492970  0.51549032  1
  Hf  Hf13  1  -0.00638081  0.79537250  0.50252743  1
  Hf  Hf14  1  0.80966400  0.59836587  -0.00130204  1
  Hf  Hf15  1  0.39977209  0.39651520  -0.01103828  1
  Hf  Hf16  1  0.50432960  0.50515061  0.86237153  1
  Hf  Hf17  1  0.69922460  0.70148207  0.13558985  1
  Hf  Hf18  1  0.90950458  0.49934805  0.37373256  1
  Hf  Hf19  1  0.79338789  0.59125341  0.75322237  1
  Hf  Hf20  1  0.89294764  0.10099680  0.61515574  1
  Hf  Hf21  1  0.09698528  0.90307950  0.62072338  1
  Hf  Hf22  1  0.20313404  0.00508907  0.74173535  1
  Hf  Hf23  1  0.60154099  0.60908179  -0.01090324  1
  Hf  Hf24  1  0.00171624  0.39780080  -0.00764440  1
  Hf  Hf25  1  0.79578296  0.80041070  0.01133367  1
  Hf  Hf26  1  0.08910949  0.69575470  0.36674496  1
  Hf  Hf27  1  0.09222897  0.10093214  0.11970897  1
  Hf  Hf28  1  0.49608677  0.70533868  0.84628131  1
  Hf  Hf29  1  0.60750778  -0.00745766  0.74101066  1
  Hf  Hf30  1  0.88726874  0.11211354  0.86988274  1
  Hf  Hf31  1  0.79630586  0.20003224  0.24901863  1
  Hf  Hf32  1  -0.00928750  0.80273250  0.73876944  1
  Hf  Hf33  1  0.59037902  -0.00846543  0.25950954  1
  Hf  Hf34  1  0.51156526  0.70987086  0.13458312  1
  Hf  Hf35  1  0.20204600  0.79785845  0.50323776  1
  Hf  Hf36  1  0.70546049  0.69556736  0.38586980  1
  Hf  Hf37  1  0.70021417  0.48904460  0.10821260  1
  Hf  Hf38  1  -0.00118046  0.19881359  0.25564670  1
  Hf  Hf39  1  0.69580951  0.72359145  0.85563396  1
  Zr  Zr40  1  0.09966250  0.89953657  0.87468240  1
  Zr  Zr41  1  0.29833179  0.10475604  0.61607651  1
  Zr  Zr42  1  0.29836114  0.11080277  0.10927180  1
  Zr  Zr43  1  0.10662077  0.31372559  0.37897362  1
  Zr  Zr44  1  -0.01349578  0.00056204  0.00014957  1
  Zr  Zr45  1  0.89920564  0.70061029  0.86167342  1
  Zr  Zr46  1  0.41040447  0.80339791  0.00688918  1
  Zr  Zr47  1  0.68922748  0.10209940  0.38007318  1
  Zr  Zr48  1  0.27406103  0.29933702  0.85603339  1
  Zr  Zr49  1  0.21127936  0.20509091  0.25084329  1
  Zr  Zr50  1  0.87298129  0.90021586  0.86842224  1
  Zr  Zr51  1  0.79691933  -0.00710537  0.25397584  1
  Zr  Zr52  1  0.09373337  0.50850606  0.13147939  1
  Zr  Zr53  1  0.60148187  0.58599520  0.25601456  1
  Zr  Zr54  1  0.29931915  0.69713803  0.13025696  1
  Zr  Zr55  1  0.80213661  0.59130369  0.24702543  1
  Zr  Zr56  1  0.52324856  0.28636084  0.63312633  1
  Zr  Zr57  1  0.50093899  0.70760397  0.36441672  1
  Zr  Zr58  1  0.70180229  0.08841353  0.88506791  1
  Zr  Zr59  1  0.69092368  0.11465555  0.61618864  1
  Zr  Zr60  1  0.19765167  0.00308284  0.25256212  1
  Zr  Zr61  1  0.29827102  0.09796236  0.87965871  1
  Zr  Zr62  1  0.69126125  0.29240607  0.12339900  1
  Zr  Zr63  1  0.40903751  0.21160725  -0.00843428  1
  Zr  Zr64  1  0.30086801  0.48595166  0.39370906  1
  Zr  Zr65  1  0.79404084  0.21558947  0.49262225  1
  Zr  Zr66  1  0.09615725  0.11377850  0.61129967  1
  Zr  Zr67  1  0.90344031  0.50542339  0.62923756  1
  Zr  Zr68  1  0.10729242  0.11230406  0.88586731  1
  Zr  Zr69  1  0.59110274  0.39653977  0.25140226  1
  Zr  Zr70  1  -0.00285773  0.79451360  0.00780980  1
  Zr  Zr71  1  0.40403442  0.58615439  0.25421325  1
  Zr  Zr72  1  0.20021266  0.59371839  0.26575076  1
  Zr  Zr73  1  0.50345317  0.09531880  0.87108678  1
  Zr  Zr74  1  0.19684458  0.60136834  0.49882696  1
  Zr  Zr75  1  -0.00797209  -0.00582358  0.49142004  1
  Zr  Zr76  1  0.31273505  0.89816907  0.86339520  1
  Zr  Zr77  1  0.59133701  0.79923848  0.50661154  1
  Zr  Zr78  1  0.30162678  0.49886846  0.11360007  1
  Zr  Zr79  1  0.20077387  0.79438921  0.00337844  1
  Ta  Ta80  1  0.09600511  0.30812959  0.13369852  1
  Ta  Ta81  1  0.10215376  0.10392256  0.38581640  1
  Ta  Ta82  1  0.00393195  0.20736786  0.75718835  1
  Ta  Ta83  1  0.40513555  0.82050602  0.24351141  1
  Ta  Ta84  1  0.58562779  -0.00691443  0.49801365  1
  Ta  Ta85  1  0.10076053  0.49839441  0.62984621  1
  Ta  Ta86  1  0.30977656  0.90778967  0.38120198  1
  Ta  Ta87  1  0.10587207  0.49853630  0.86841904  1
  Ta  Ta88  1  0.59469596  0.38312801  -0.01888919  1
  Ta  Ta89  1  0.30759636  0.29695032  0.39670898  1
  Ta  Ta90  1  0.39836051  0.19559201  0.74669833  1
  Ta  Ta91  1  0.30495454  0.10542649  0.38905291  1
  Ta  Ta92  1  0.40981297  0.38986626  0.51842153  1
  Ta  Ta93  1  0.09258065  0.90043562  0.13218123  1
  Ta  Ta94  1  0.81062464  0.38836967  -0.00783221  1
  Ta  Ta95  1  0.40284603  0.60587713  -0.00496543  1
  Ta  Ta96  1  0.80788053  0.19781539  0.01853375  1
  Ta  Ta97  1  0.00541045  0.59977438  -0.00985968  1
  Ta  Ta98  1  0.08987961  0.69079592  0.63128326  1
  Ta  Ta99  1  0.20145692  0.80054747  0.73731634  1
  Ta  Ta100  1  0.80770326  0.39845785  0.50467418  1
  Ta  Ta101  1  0.40621414  -0.00793832  0.01421183  1
  Ta  Ta102  1  0.49748930  0.09379960  0.62502567  1
  Ta  Ta103  1  0.20453992  -0.00332451  0.49548202  1
  Ta  Ta104  1  0.69037753  0.09547096  0.12224066  1
  Ta  Ta105  1  0.40655448  0.20698107  0.24995932  1
  Ta  Ta106  1  -0.00941727  0.21338546  0.00123150  1
  Ta  Ta107  1  0.00613154  0.40095032  0.50709000  1
  Ta  Ta108  1  0.39657577  0.38982894  0.24982304  1
  Ta  Ta109  1  0.70420219  0.49397324  0.39624600  1
  Ta  Ta110  1  0.20750984  0.39788527  0.24731163  1
  Ta  Ta111  1  -0.00954486  0.80658492  0.25384648  1
  Ta  Ta112  1  0.90517173  0.29723546  0.62969475  1
  Ta  Ta113  1  0.89524438  0.69879731  0.37575112  1
  Ta  Ta114  1  0.89740663  0.10082077  0.38171636  1
  Ta  Ta115  1  0.61760630  0.39826772  0.75643198  1
  Ta  Ta116  1  0.68249788  0.89244924  0.12472922  1
  Ta  Ta117  1  0.90387924  0.49690904  0.86999378  1
  Ta  Ta118  1  0.50614704  0.48622728  0.39780683  1
  Ta  Ta119  1  0.50891999  0.89325738  0.85730077  1
  Ti  Ti120  1  -0.00046249  0.59694747  0.49798101  1
  Ti  Ti121  1  0.50011555  0.29821573  0.12513409  1
  Ti  Ti122  1  0.40736472  0.20134852  0.50940996  1
  Ti  Ti123  1  0.70538390  0.49243131  0.88274088  1
  Ti  Ti124  1  0.79265844  0.80444489  0.25544827  1
  Ti  Ti125  1  0.19597603  0.40071910  0.00498153  1
  Ti  Ti126  1  0.49166403  0.10288033  0.38417780  1
  Ti  Ti127  1  0.51134677  0.10854501  0.12029935  1
  Ti  Ti128  1  -0.00249568  0.21140535  0.49171750  1
  Ti  Ti129  1  0.69046925  0.30159162  0.36629346  1
  Ti  Ti130  1  0.79724614  0.40116490  0.25405182  1
  Ti  Ti131  1  0.09984775  0.90017902  0.37486463  1
  Ti  Ti132  1  0.50092277  0.29443223  0.38200840  1
  Ti  Ti133  1  0.70523859  0.49435191  0.61465755  1
  Ti  Ti134  1  0.90922426  0.69299878  0.14037101  1
  Ti  Ti135  1  0.50298042  0.49558026  0.10867744  1
  Ti  Ti136  1  0.89216104  0.69570313  0.62512631  1
  Ti  Ti137  1  0.30734762  0.70282640  0.86172929  1
  Ti  Ti138  1  0.89751171  0.09700148  0.13147637  1
  Ti  Ti139  1  0.90335510  0.31051307  0.13843452  1
  Ti  Ti140  1  0.89743698  0.89969528  0.13426066  1
  Ti  Ti141  1  -0.00401040  -0.00151090  0.26160481  1
  Ti  Ti142  1  0.59231794  -0.01359148  0.00292150  1
  Ti  Ti143  1  0.09314912  0.69891976  0.13589640  1
  Ti  Ti144  1  0.19783482  0.60576120  -0.01028933  1
  Ti  Ti145  1  0.90707950  0.49619500  0.12932161  1
  Ti  Ti146  1  0.19280778  0.22150383  0.01152462  1
  Ti  Ti147  1  0.30741539  0.70886201  0.37145149  1
  Ti  Ti148  1  0.61345167  0.38399879  0.50699029  1
  Ti  Ti149  1  0.88579207  0.89706980  0.38073842  1
  Ti  Ti150  1  0.30698653  0.70210388  0.63550659  1
  Ti  Ti151  1  0.70362694  0.90322843  0.60855655  1
  Ti  Ti152  1  0.79316718  -0.00434094  0.01438149  1
  Ti  Ti153  1  0.79649389  -0.00613456  0.73601225  1
  Ti  Ti154  1  0.09848074  0.69951065  0.86335841  1
  Ti  Ti155  1  0.11582474  0.30047838  0.62048461  1
  Ti  Ti156  1  0.90105855  0.30789794  0.37017763  1
  Ti  Ti157  1  0.80578082  0.38936634  0.75230195  1
  Ti  Ti158  1  0.20487616  -0.01225407  0.01021559  1
  Ti  Ti159  1  0.80156132  0.80159405  0.50821388  1
  Mo  Mo160  1  0.09744180  0.49668486  0.37870556  1
  Mo  Mo161  1  0.50908610  0.29533207  0.85488965  1
  Mo  Mo162  1  0.88774881  0.89946261  0.61983172  1
  Mo  Mo163  1  0.30098603  0.30773476  0.12347444  1
  Mo  Mo164  1  0.60217637  0.19489965  0.75656197  1
  Mo  Mo165  1  0.29678792  0.90419250  0.12199285  1
  Mo  Mo166  1  -0.00036757  0.40051933  0.24877753  1
  Mo  Mo167  1  0.59235858  0.20299450  0.48552251  1
  Mo  Mo168  1  0.29766156  0.90322426  0.62386982  1
  Mo  Mo169  1  0.89847279  0.29715012  0.86709822  1
  Mo  Mo170  1  0.40241445  0.00138698  0.74096727  1
  Mo  Mo171  1  0.71174037  0.30712072  0.63812807  1
  Mo  Mo172  1  -0.00403785  0.60465731  0.25299128  1
  Mo  Mo173  1  0.19108198  0.20343955  0.74150433  1
  Mo  Mo174  1  0.79120626  -0.00590526  0.49050979  1
  Mo  Mo175  1  0.49896357  0.69968865  0.64164394  1
  Mo  Mo176  1  0.80475073  0.19973227  0.73591356  1
  Mo  Mo177  1  0.49714087  0.90578479  0.63985062  1
  Mo  Mo178  1  0.59949184  0.80713336  -0.00624796  1
  Mo  Mo179  1  0.30230480  0.29558799  0.62109593  1
  Mo  Mo180  1  0.09680934  0.30205678  0.88338225  1
  Mo  Mo181  1  0.60754802  0.80725848  0.26946553  1
  Mo  Mo182  1  0.49270055  0.90854259  0.37286607  1
  Mo  Mo183  1  0.58528251  0.19489202  0.25362323  1
  Mo  Mo184  1  0.40282984  0.00323768  0.50014998  1
  Mo  Mo185  1  0.50349947  0.90463005  0.12980299  1
  Mo  Mo186  1  0.60925619  0.59225507  0.76217236  1
  Mo  Mo187  1  0.00203705  0.60008095  0.76210507  1
  Mo  Mo188  1  0.39663812  0.80572059  0.73180893  1
  Mo  Mo189  1  0.20379252  0.39640991  0.51644326  1
  Mo  Mo190  1  0.60086859  0.80535914  0.72519829  1
  Mo  Mo191  1  0.20158220  0.20222304  0.49167200  1
  Mo  Mo192  1  0.39891310  0.60339489  0.74006934  1
  Mo  Mo193  1  0.19662825  0.39890808  0.73517841  1
  Mo  Mo194  1  0.69162745  0.90071870  0.88385762  1
  Mo  Mo195  1  0.80727838  0.59871157  0.50272519  1
  Mo  Mo196  1  0.60192124  0.59016739  0.49137257  1
  Mo  Mo197  1  0.60180803  0.19598873  0.00607641  1
  Mo  Mo198  1  0.79204084  0.81048108  0.72130288  1
  Mo  Mo199  1  0.69988189  0.89566758  0.39099009  1
