# generated using pymatgen
data_HfZrTaTiMo
_symmetry_space_group_name_H-M   'P 1'
_cell_length_a   15.85473743
_cell_length_b   15.82359106
_cell_length_c   15.38779773
_cell_angle_alpha   90.00748436
_cell_angle_beta   90.01992138
_cell_angle_gamma   90.27758206
_symmetry_Int_Tables_number   1
_chemical_formula_structural   HfZrTaTiMo
_chemical_formula_sum   'Hf40 Zr40 Ta40 Ti40 Mo40'
_cell_volume   3860.42791212
_cell_formula_units_Z   40
loop_
 _symmetry_equiv_pos_site_id
 _symmetry_equiv_pos_as_xyz
  1  'x, y, z'
loop_
 _atom_site_type_symbol
 _atom_site_label
 _atom_site_symmetry_multiplicity
 _atom_site_fract_x
 _atom_site_fract_y
 _atom_site_fract_z
 _atom_site_occupancy
  Hf  Hf0  1  0.49823408  0.69714414  0.37039111  1
  Hf  Hf1  1  0.19922426  0.40362024  0.49368893  1
  Hf  Hf2  1  0.19862944  0.19941397  0.73754388  1
  Hf  Hf3  1  0.58944444  0.80146965  0.75507370  1
  Hf  Hf4  1  0.68583615  0.10176207  0.12052696  1
  Hf  Hf5  1  0.42177060  0.20187903  0.25015042  1
  Hf  Hf6  1  0.59230821  0.59219885  -0.00378985  1
  Hf  Hf7  1  0.00808205  -0.00103887  0.76748748  1
  Hf  Hf8  1  0.20276290  -0.00841068  0.74880700  1
  Hf  Hf9  1  0.39866896  0.58964776  0.76349085  1
  Hf  Hf10  1  0.00760394  0.80363290  0.75434321  1
  Hf  Hf11  1  0.31276440  0.30197049  0.37153239  1
  Hf  Hf12  1  0.09128941  0.29685021  0.35648662  1
  Hf  Hf13  1  0.61444231  0.19426822  0.50294360  1
  Hf  Hf14  1  0.78889259  0.79819551  0.00098837  1
  Hf  Hf15  1  0.48950567  0.47793165  0.12268593  1
  Hf  Hf16  1  0.21304309  0.41112784  0.24234152  1
  Hf  Hf17  1  0.29558156  0.30539115  0.87225319  1
  Hf  Hf18  1  0.89624661  0.69102044  0.11631319  1
  Hf  Hf19  1  0.08993393  0.10338815  0.36589363  1
  Hf  Hf20  1  0.39812151  0.79959319  0.74444297  1
  Hf  Hf21  1  0.60446026  0.37082717  0.23833934  1
  Hf  Hf22  1  0.78720379  0.37979444  0.50550715  1
  Hf  Hf23  1  0.21174129  0.19903881  0.24416599  1
  Hf  Hf24  1  0.49448698  0.28262995  0.63134783  1
  Hf  Hf25  1  0.80198081  0.58811855  0.49363356  1
  Hf  Hf26  1  0.69288636  0.91047974  0.63349240  1
  Hf  Hf27  1  0.60033266  0.58503789  0.24620197  1
  Hf  Hf28  1  0.90497516  0.89590497  0.88604185  1
  Hf  Hf29  1  0.79967945  0.80315317  0.51195696  1
  Hf  Hf30  1  0.30023185  0.50838963  0.60910727  1
  Hf  Hf31  1  0.20521606  0.41582866  0.74139126  1
  Hf  Hf32  1  0.69141755  0.69962102  0.62581335  1
  Hf  Hf33  1  0.79216454  0.59921743  0.25474310  1
  Hf  Hf34  1  -0.00279845  0.79987231  0.24161776  1
  Hf  Hf35  1  0.79745741  0.40465969  0.75737022  1
  Hf  Hf36  1  0.28861749  0.69734605  0.87280305  1
  Hf  Hf37  1  0.59877749  0.79684352  0.00708318  1
  Hf  Hf38  1  0.58930386  0.40833598  0.75416279  1
  Hf  Hf39  1  0.10403662  0.90894505  0.12838342  1
  Zr  Zr40  1  0.89349559  0.28407539  0.64173428  1
  Zr  Zr41  1  0.90340880  0.50199754  0.63339350  1
  Zr  Zr42  1  0.10437300  0.90398230  0.36271206  1
  Zr  Zr43  1  0.90720333  0.30397257  0.87512743  1
  Zr  Zr44  1  0.20710268  0.20056631  0.49390699  1
  Zr  Zr45  1  0.47994683  0.68203876  0.12836039  1
  Zr  Zr46  1  0.29500684  0.69617086  0.62592220  1
  Zr  Zr47  1  0.42154539  0.00113649  0.75687231  1
  Zr  Zr48  1  0.90827497  0.69676609  0.62915889  1
  Zr  Zr49  1  0.89293534  0.10683459  0.35438473  1
  Zr  Zr50  1  0.89913350  0.10258616  0.12409678  1
  Zr  Zr51  1  0.80065247  0.41098374  0.26090684  1
  Zr  Zr52  1  0.69756179  0.89690098  0.38714015  1
  Zr  Zr53  1  0.70961580  0.48366790  0.10396666  1
  Zr  Zr54  1  0.60448535  0.79824924  0.23187573  1
  Zr  Zr55  1  0.79098033  0.79858132  0.23410775  1
  Zr  Zr56  1  0.33122116  0.32465028  0.13148809  1
  Zr  Zr57  1  0.41296497  0.20958293  -0.00349457  1
  Zr  Zr58  1  0.09714018  0.49626992  0.35789238  1
  Zr  Zr59  1  0.20858129  0.20708073  0.02170981  1
  Zr  Zr60  1  0.01255408  0.79738260  0.49660960  1
  Zr  Zr61  1  0.21653597  0.00451349  0.48796954  1
  Zr  Zr62  1  0.10294167  0.30642653  0.88022144  1
  Zr  Zr63  1  0.09276994  0.30353820  0.62144196  1
  Zr  Zr64  1  0.78831178  -0.00973388  0.23770592  1
  Zr  Zr65  1  0.91036412  0.91706160  0.62328759  1
  Zr  Zr66  1  0.10973717  0.51027137  0.88021583  1
  Zr  Zr67  1  0.89551009  0.70753050  0.37394422  1
  Zr  Zr68  1  0.32639309  0.10423308  0.62732404  1
  Zr  Zr69  1  0.79896734  0.02907806  0.50857566  1
  Zr  Zr70  1  0.67413723  0.48289895  0.39365808  1
  Zr  Zr71  1  0.79486789  0.60369104  0.76152510  1
  Zr  Zr72  1  -0.01052760  0.40507157  0.49818150  1
  Zr  Zr73  1  0.79415443  0.20122049  -0.00781479  1
  Zr  Zr74  1  0.20783117  0.80182651  0.48979242  1
  Zr  Zr75  1  0.90095119  0.29529398  0.36365742  1
  Zr  Zr76  1  0.20476939  0.61086776  0.02692962  1
  Zr  Zr77  1  0.30386026  0.10010600  0.87436881  1
  Zr  Zr78  1  0.08407257  0.09045849  0.61085595  1
  Zr  Zr79  1  0.10464381  0.10337846  0.89125084  1
  Ta  Ta80  1  0.49932882  0.89618497  0.38182428  1
  Ta  Ta81  1  0.10132573  0.51901890  0.62095925  1
  Ta  Ta82  1  0.90270052  0.91095081  0.38309622  1
  Ta  Ta83  1  0.49219749  0.89191769  0.88970718  1
  Ta  Ta84  1  -0.00619261  0.59741679  0.25208193  1
  Ta  Ta85  1  0.29658212  0.89459321  0.88538514  1
  Ta  Ta86  1  0.00907225  0.79751344  0.00758760  1
  Ta  Ta87  1  0.20942194  0.41344517  0.01840708  1
  Ta  Ta88  1  0.68936047  0.69955102  0.38991948  1
  Ta  Ta89  1  0.89307889  0.31310782  0.11923578  1
  Ta  Ta90  1  0.78818888  -0.00375095  -0.01071529  1
  Ta  Ta91  1  0.50135131  0.90257455  0.60988292  1
  Ta  Ta92  1  0.00298557  0.20521065  0.01326362  1
  Ta  Ta93  1  0.19466829  0.60924769  0.47605959  1
  Ta  Ta94  1  0.39911398  0.40107692  0.75373664  1
  Ta  Ta95  1  0.50303275  0.09651622  0.11949038  1
  Ta  Ta96  1  0.30389629  0.70203459  0.35710395  1
  Ta  Ta97  1  0.58545137  0.60301537  0.50820455  1
  Ta  Ta98  1  0.77834049  0.21862385  0.23270802  1
  Ta  Ta99  1  0.90624985  0.50518546  0.88972046  1
  Ta  Ta100  1  0.19859591  0.80161843  0.01579410  1
  Ta  Ta101  1  0.79843718  0.00324879  0.76760575  1
  Ta  Ta102  1  0.59602947  0.00686862  0.49425240  1
  Ta  Ta103  1  0.39891027  -0.00403425  0.00514776  1
  Ta  Ta104  1  0.10137314  0.70860677  0.87744545  1
  Ta  Ta105  1  0.10138428  0.10086254  0.13219343  1
  Ta  Ta106  1  0.40497227  0.79329545  0.50192664  1
  Ta  Ta107  1  0.79980778  0.80476136  0.75834204  1
  Ta  Ta108  1  0.69399254  0.28710597  0.65076498  1
  Ta  Ta109  1  0.60024839  -0.00170283  -0.01673553  1
  Ta  Ta110  1  0.51884609  0.30409202  0.39046830  1
  Ta  Ta111  1  0.69416057  0.29288541  0.86250211  1
  Ta  Ta112  1  0.58954492  -0.00235006  0.25387961  1
  Ta  Ta113  1  0.00667352  0.60229277  0.48194041  1
  Ta  Ta114  1  0.00698221  0.40657808  0.01118609  1
  Ta  Ta115  1  0.59168287  0.38244895  -0.01578576  1
  Ta  Ta116  1  0.49193092  0.50299830  0.61568828  1
  Ta  Ta117  1  0.09550403  0.30792560  0.13522423  1
  Ta  Ta118  1  0.38843458  0.79469879  0.01118940  1
  Ta  Ta119  1  0.40683221  0.39802026  0.49637617  1
  Ti  Ti120  1  0.40870813  0.18598762  0.48697485  1
  Ti  Ti121  1  -0.00048175  0.19136478  0.75510277  1
  Ti  Ti122  1  0.32033891  0.90670435  0.36697593  1
  Ti  Ti123  1  0.10615938  0.69620694  0.63156193  1
  Ti  Ti124  1  0.00948763  0.60562037  0.00697050  1
  Ti  Ti125  1  0.69780188  0.10350199  0.65079144  1
  Ti  Ti126  1  0.30395989  0.90234823  0.12907927  1
  Ti  Ti127  1  0.89739329  0.90353827  0.11031063  1
  Ti  Ti128  1  0.31154393  0.50764880  0.37303695  1
  Ti  Ti129  1  0.20529092  -0.00137588  0.00525673  1
  Ti  Ti130  1  0.59627666  0.19662143  -0.01897021  1
  Ti  Ti131  1  0.00425006  0.00146474  -0.00007466  1
  Ti  Ti132  1  0.79385768  0.60227890  -0.00934761  1
  Ti  Ti133  1  0.69769042  0.49710166  0.88062658  1
  Ti  Ti134  1  0.89975689  0.50006349  0.10951382  1
  Ti  Ti135  1  0.49470427  0.08835181  0.37107073  1
  Ti  Ti136  1  -0.02757162  0.18507344  0.50676121  1
  Ti  Ti137  1  0.09588851  0.50653104  0.13651902  1
  Ti  Ti138  1  0.49945304  0.90653306  0.11880964  1
  Ti  Ti139  1  0.10588206  0.90251486  0.61160818  1
  Ti  Ti140  1  0.40553937  0.41227651  -0.02880254  1
  Ti  Ti141  1  0.21645731  0.00464960  0.25575939  1
  Ti  Ti142  1  -0.00634446  -0.00141930  0.24389568  1
  Ti  Ti143  1  0.69712823  0.10812877  0.36134819  1
  Ti  Ti144  1  0.30765988  0.30105001  0.62157349  1
  Ti  Ti145  1  0.58818529  0.60185882  0.74873962  1
  Ti  Ti146  1  0.30642055  0.90286884  0.61845790  1
  Ti  Ti147  1  0.20179490  0.79509183  0.24138138  1
  Ti  Ti148  1  0.31189361  0.09206379  0.13160057  1
  Ti  Ti149  1  0.58086406  0.17586590  0.76603830  1
  Ti  Ti150  1  0.00699376  0.60229839  0.75969126  1
  Ti  Ti151  1  0.90592514  0.69797270  0.88145018  1
  Ti  Ti152  1  0.48871758  0.69673853  0.88746859  1
  Ti  Ti153  1  0.68959590  0.49711988  0.62303807  1
  Ti  Ti154  1  0.19472966  0.80787426  0.75024554  1
  Ti  Ti155  1  0.69219814  0.70037259  0.87108833  1
  Ti  Ti156  1  0.31849136  0.52395445  0.14039317  1
  Ti  Ti157  1  0.00590823  0.40955239  0.75236826  1
  Ti  Ti158  1  0.40220209  0.80698118  0.24188178  1
  Ti  Ti159  1  0.90022873  0.10213761  0.88199054  1
  Mo  Mo160  1  0.89427339  0.10037885  0.64959225  1
  Mo  Mo161  1  0.31134064  0.09556213  0.36185386  1
  Mo  Mo162  1  0.30035354  0.70798766  0.14394585  1
  Mo  Mo163  1  0.89849573  0.50146014  0.37839687  1
  Mo  Mo164  1  0.39494424  0.60161237  0.48431280  1
  Mo  Mo165  1  0.41668711  0.40370197  0.27242622  1
  Mo  Mo166  1  0.40152315  0.20367961  0.75759533  1
  Mo  Mo167  1  0.29730798  0.50102497  0.88216304  1
  Mo  Mo168  1  0.68951268  0.90836076  0.11349598  1
  Mo  Mo169  1  0.79426812  0.19745962  0.50943279  1
  Mo  Mo170  1  0.49790148  0.29643040  0.85519008  1
  Mo  Mo171  1  0.49803490  0.09421785  0.89287049  1
  Mo  Mo172  1  0.40775376  -0.00393270  0.49671232  1
  Mo  Mo173  1  0.50292323  0.50185052  0.87454964  1
  Mo  Mo174  1  0.10499571  0.69784700  0.35475301  1
  Mo  Mo175  1  0.69772386  0.68779323  0.11246470  1
  Mo  Mo176  1  0.49693326  0.49310731  0.38902858  1
  Mo  Mo177  1  0.39268559  0.59489043  -0.01277665  1
  Mo  Mo178  1  0.69806282  0.29476062  0.09797791  1
  Mo  Mo179  1  0.51552182  0.09112235  0.61922313  1
  Mo  Mo180  1  -0.00106261  0.00329854  0.48893330  1
  Mo  Mo181  1  0.51474294  0.29074009  0.11588106  1
  Mo  Mo182  1  0.49435680  0.69679711  0.62009084  1
  Mo  Mo183  1  -0.00666125  0.40872142  0.22758977  1
  Mo  Mo184  1  0.09592424  0.70086188  0.13678793  1
  Mo  Mo185  1  0.59546922  0.80000211  0.50786982  1
  Mo  Mo186  1  0.60026353  0.18968492  0.25827725  1
  Mo  Mo187  1  0.19215323  0.60704395  0.74757550  1
  Mo  Mo188  1  0.40466223  -0.00573046  0.23475298  1
  Mo  Mo189  1  0.70071788  0.28815624  0.38157146  1
  Mo  Mo190  1  0.20100056  0.60669511  0.24991921  1
  Mo  Mo191  1  0.69604848  0.09601789  0.86916995  1
  Mo  Mo192  1  0.69742139  0.89343481  0.86634206  1
  Mo  Mo193  1  0.80064975  0.40348552  -0.02176770  1
  Mo  Mo194  1  -0.00539947  0.20342363  0.22570562  1
  Mo  Mo195  1  0.11042630  0.89686385  0.89750881  1
  Mo  Mo196  1  0.40183989  0.59449875  0.26639051  1
  Mo  Mo197  1  0.60052805  -0.00564780  0.76698356  1
  Mo  Mo198  1  0.59720270  0.39371795  0.53127019  1
  Mo  Mo199  1  0.79596356  0.19313879  0.76896895  1
