# generated using pymatgen
data_HfZrTaTiMo
_symmetry_space_group_name_H-M   'P 1'
_cell_length_a   15.83486050
_cell_length_b   15.83794687
_cell_length_c   15.38752362
_cell_angle_alpha   89.97555415
_cell_angle_beta   90.01023098
_cell_angle_gamma   89.95132218
_symmetry_Int_Tables_number   1
_chemical_formula_structural   HfZrTaTiMo
_chemical_formula_sum   'Hf40 Zr40 Ta40 Ti40 Mo40'
_cell_volume   3859.06108341
_cell_formula_units_Z   40
loop_
 _symmetry_equiv_pos_site_id
 _symmetry_equiv_pos_as_xyz
  1  'x, y, z'
loop_
 _atom_site_type_symbol
 _atom_site_label
 _atom_site_symmetry_multiplicity
 _atom_site_fract_x
 _atom_site_fract_y
 _atom_site_fract_z
 _atom_site_occupancy
  Hf  Hf0  1  0.40385016  0.00367483  0.24091711  1
  Hf  Hf1  1  -0.00292211  0.60662098  0.74649898  1
  Hf  Hf2  1  0.90201214  0.29357976  0.87181174  1
  Hf  Hf3  1  0.39635354  0.80072631  0.74811813  1
  Hf  Hf4  1  0.88721316  0.29388227  0.61378316  1
  Hf  Hf5  1  0.27575133  0.71404417  0.38296640  1
  Hf  Hf6  1  0.38636178  0.40377294  0.01941433  1
  Hf  Hf7  1  0.69958188  0.89499761  0.60752626  1
  Hf  Hf8  1  0.49087859  0.50247465  0.37758278  1
  Hf  Hf9  1  0.01151747  0.78636697  0.25746061  1
  Hf  Hf10  1  0.49952129  0.51480767  0.12506586  1
  Hf  Hf11  1  0.50832529  0.90394964  0.61458078  1
  Hf  Hf12  1  0.48838086  0.29134946  0.61596587  1
  Hf  Hf13  1  0.59408288  0.79545111  0.25116478  1
  Hf  Hf14  1  0.60476677  -0.00221051  0.76160575  1
  Hf  Hf15  1  0.59031487  0.18213001  0.25622025  1
  Hf  Hf16  1  0.19745328  0.79617902  -0.00671058  1
  Hf  Hf17  1  0.61025464  -0.00331242  0.00452232  1
  Hf  Hf18  1  0.71413759  0.69599562  0.61463731  1
  Hf  Hf19  1  0.71450806  0.08197237  0.14296189  1
  Hf  Hf20  1  0.10246245  0.30062215  0.12165407  1
  Hf  Hf21  1  -0.00100251  0.39220375  0.74458357  1
  Hf  Hf22  1  0.69811082  0.49994792  0.87624428  1
  Hf  Hf23  1  0.28520478  0.30809273  0.87407267  1
  Hf  Hf24  1  0.70244059  0.29091923  0.38507695  1
  Hf  Hf25  1  0.50591860  0.49694365  0.62026794  1
  Hf  Hf26  1  0.81049396  0.59901930  0.26759910  1
  Hf  Hf27  1  0.70191855  0.10373107  0.59467740  1
  Hf  Hf28  1  0.60149122  0.40300649  0.25860724  1
  Hf  Hf29  1  0.09941178  0.10349589  0.61321655  1
  Hf  Hf30  1  0.40384417  0.60198077  0.74977116  1
  Hf  Hf31  1  0.89903219  0.70223726  0.10886962  1
  Hf  Hf32  1  0.11382671  0.48183999  0.87043440  1
  Hf  Hf33  1  0.40576683  0.00785566  0.74502896  1
  Hf  Hf34  1  0.91065294  0.88508769  0.38718135  1
  Hf  Hf35  1  0.01017197  -0.00382673  0.26479159  1
  Hf  Hf36  1  0.20327826  0.40722964  0.51495151  1
  Hf  Hf37  1  0.09493268  0.69589434  0.10919834  1
  Hf  Hf38  1  -0.00833115  -0.00092201  0.74303212  1
  Hf  Hf39  1  0.19555249  0.61691308  0.24373254  1
  Zr  Zr40  1  0.80071883  -0.00339586  0.73844727  1
  Zr  Zr41  1  0.89346380  0.90322435  0.12595941  1
  Zr  Zr42  1  0.59713580  0.18991863  0.76287550  1
  Zr  Zr43  1  0.50633551  0.10813613  0.60515358  1
  Zr  Zr44  1  0.80063759  0.78749237  0.26632008  1
  Zr  Zr45  1  0.80106501  0.18762805  0.75109511  1
  Zr  Zr46  1  0.59232487  0.39268775  0.00932480  1
  Zr  Zr47  1  -0.00894861  0.41398707  0.50952427  1
  Zr  Zr48  1  0.10093825  0.30577199  0.36659254  1
  Zr  Zr49  1  0.20439233  0.61401248  0.75795702  1
  Zr  Zr50  1  0.38437481  0.39461687  0.50083068  1
  Zr  Zr51  1  0.40077778  0.20484890  0.02063031  1
  Zr  Zr52  1  0.00549801  0.20113905  0.48503868  1
  Zr  Zr53  1  0.30165121  0.90659073  0.87797026  1
  Zr  Zr54  1  0.70166969  0.69472228  0.11285332  1
  Zr  Zr55  1  0.70652043  0.28775375  0.13836243  1
  Zr  Zr56  1  0.80787062  0.39177509  0.00713324  1
  Zr  Zr57  1  0.00962880  0.60588045  -0.03129538  1
  Zr  Zr58  1  0.60541820  0.60676096  0.26871915  1
  Zr  Zr59  1  0.19344834  -0.00188156  0.01433968  1
  Zr  Zr60  1  0.38759732  0.79559794  0.23710751  1
  Zr  Zr61  1  0.69152443  0.29682220  0.60567202  1
  Zr  Zr62  1  0.60959643  0.80393193  -0.00223866  1
  Zr  Zr63  1  0.20050813  0.00177471  0.73782010  1
  Zr  Zr64  1  0.80841001  0.40777862  0.25965229  1
  Zr  Zr65  1  0.39495704  0.00585460  0.49210855  1
  Zr  Zr66  1  0.91163752  0.29267789  0.14286950  1
  Zr  Zr67  1  0.18986781  0.61962841  0.52981981  1
  Zr  Zr68  1  0.48714389  0.30363415  0.87499326  1
  Zr  Zr69  1  0.59657241  0.40090089  0.74814939  1
  Zr  Zr70  1  0.09777796  0.52039697  0.38452510  1
  Zr  Zr71  1  0.37935830  0.80703110  0.51305800  1
  Zr  Zr72  1  0.70519431  0.50708207  0.11731440  1
  Zr  Zr73  1  0.51408186  0.70448352  0.61846307  1
  Zr  Zr74  1  0.29711332  0.10997094  0.88900906  1
  Zr  Zr75  1  0.20311728  0.41240980  0.24235209  1
  Zr  Zr76  1  0.09872320  0.10177762  0.87828327  1
  Zr  Zr77  1  0.70112168  0.29335204  0.88210749  1
  Zr  Zr78  1  0.70367071  0.70142018  0.86844639  1
  Zr  Zr79  1  0.38457836  0.59947147  0.51423651  1
  Ta  Ta80  1  0.39648203  0.40403981  0.24469342  1
  Ta  Ta81  1  0.08853108  0.90014731  0.11839490  1
  Ta  Ta82  1  -0.00805368  0.60585897  0.53273221  1
  Ta  Ta83  1  0.19761786  0.19323915  0.24353429  1
  Ta  Ta84  1  0.01055424  -0.00826203  0.49436035  1
  Ta  Ta85  1  0.49542976  0.09327115  0.89753423  1
  Ta  Ta86  1  0.49803045  0.89980576  0.11639586  1
  Ta  Ta87  1  0.00103648  0.39911059  -0.00674210  1
  Ta  Ta88  1  0.49253417  0.89454436  0.37172811  1
  Ta  Ta89  1  0.10052741  0.50248907  0.10852153  1
  Ta  Ta90  1  -0.00299845  0.80823725  0.74739236  1
  Ta  Ta91  1  0.21477090  0.20668029  0.50064484  1
  Ta  Ta92  1  0.19993618  -0.00593656  0.24093339  1
  Ta  Ta93  1  -0.00322087  0.19599203  -0.00146649  1
  Ta  Ta94  1  0.30854952  0.49220712  0.86761434  1
  Ta  Ta95  1  0.89953172  0.09549922  0.59872540  1
  Ta  Ta96  1  0.60367701  0.19025790  0.01183125  1
  Ta  Ta97  1  0.60129098  0.00096325  0.46791943  1
  Ta  Ta98  1  0.49379164  0.69476597  0.10631768  1
  Ta  Ta99  1  0.19786930  0.20510901  0.73783689  1
  Ta  Ta100  1  0.89464317  0.70818589  0.86436947  1
  Ta  Ta101  1  0.00019277  0.19418019  0.74669688  1
  Ta  Ta102  1  0.20542068  -0.00593000  0.50635856  1
  Ta  Ta103  1  0.49674350  0.90003582  0.88824846  1
  Ta  Ta104  1  0.90579097  0.09759762  0.14430305  1
  Ta  Ta105  1  0.89432543  0.49829545  0.86343672  1
  Ta  Ta106  1  0.88490892  0.90384892  0.88291964  1
  Ta  Ta107  1  0.48864754  0.70215173  0.38492123  1
  Ta  Ta108  1  0.89788566  0.89121400  0.60314037  1
  Ta  Ta109  1  0.29570264  0.10307400  0.36730500  1
  Ta  Ta110  1  0.91347105  0.50741919  0.11599351  1
  Ta  Ta111  1  0.49214773  0.29503749  0.37501675  1
  Ta  Ta112  1  0.81017263  0.17904317  0.00573685  1
  Ta  Ta113  1  0.29678933  0.10163971  0.12551573  1
  Ta  Ta114  1  0.10505050  0.29255954  0.88367442  1
  Ta  Ta115  1  0.71004321  0.50049963  0.61373843  1
  Ta  Ta116  1  0.49858998  0.69903534  0.88608422  1
  Ta  Ta117  1  0.21322753  0.60205452  -0.01719470  1
  Ta  Ta118  1  0.80171999  -0.00385520  0.48141764  1
  Ta  Ta119  1  0.39596391  0.20033791  0.24820476  1
  Ti  Ti120  1  0.59683702  0.40004040  0.49109056  1
  Ti  Ti121  1  0.00063866  0.41603576  0.25206406  1
  Ti  Ti122  1  0.59660602  -0.00853181  0.25462458  1
  Ti  Ti123  1  0.19987505  0.80683537  0.22622896  1
  Ti  Ti124  1  0.80790763  0.18983621  0.26746829  1
  Ti  Ti125  1  0.09309464  0.90304858  0.87414543  1
  Ti  Ti126  1  0.70456922  0.89618874  0.36944420  1
  Ti  Ti127  1  0.29614838  0.50938530  0.37073899  1
  Ti  Ti128  1  0.29358207  0.90476150  0.36572572  1
  Ti  Ti129  1  0.60418920  0.60136888  0.74969179  1
  Ti  Ti130  1  0.30790612  0.11414582  0.61740380  1
  Ti  Ti131  1  0.90091455  0.30557957  0.37674126  1
  Ti  Ti132  1  0.90868080  0.69013784  0.40081730  1
  Ti  Ti133  1  -0.01476621  0.00784179  -0.00262491  1
  Ti  Ti134  1  0.60010301  0.80520550  0.75893217  1
  Ti  Ti135  1  0.70984077  0.89444868  0.13612299  1
  Ti  Ti136  1  -0.00078646  0.59979455  0.25310057  1
  Ti  Ti137  1  0.71478101  0.08678644  0.88864589  1
  Ti  Ti138  1  0.10158353  0.29782332  0.62358189  1
  Ti  Ti139  1  0.60319784  0.79932062  0.47860394  1
  Ti  Ti140  1  0.60501749  0.60144111  0.49060715  1
  Ti  Ti141  1  0.80237077  0.80302584  0.74398404  1
  Ti  Ti142  1  0.71467149  0.49927125  0.39758876  1
  Ti  Ti143  1  0.80765680  0.59965336  -0.01345111  1
  Ti  Ti144  1  0.49978955  0.29873052  0.14140527  1
  Ti  Ti145  1  0.09037194  0.10330905  0.12912619  1
  Ti  Ti146  1  0.29749988  0.51739972  0.11956929  1
  Ti  Ti147  1  0.39296730  0.60898202  0.25103957  1
  Ti  Ti148  1  0.19647171  0.80619241  0.73813795  1
  Ti  Ti149  1  0.49832733  0.50419587  0.88269557  1
  Ti  Ti150  1  0.90267425  0.09662483  0.37439123  1
  Ti  Ti151  1  0.79598167  0.40197509  0.74187756  1
  Ti  Ti152  1  0.10341262  0.49906752  0.64134586  1
  Ti  Ti153  1  0.11271937  0.09688910  0.37814752  1
  Ti  Ti154  1  0.01614567  0.78859452  0.51910590  1
  Ti  Ti155  1  0.39611130  0.19925263  0.75680902  1
  Ti  Ti156  1  0.39053094  0.79874973  0.00571287  1
  Ti  Ti157  1  -0.00372471  0.80651580  -0.01783014  1
  Ti  Ti158  1  0.29737014  0.30071879  0.36072369  1
  Ti  Ti159  1  0.11696460  0.88195275  0.38452459  1
  Mo  Mo160  1  0.49463231  0.09724659  0.37340429  1
  Mo  Mo161  1  0.09511328  0.70973785  0.64626673  1
  Mo  Mo162  1  0.59611463  0.59834988  -0.01307427  1
  Mo  Mo163  1  0.50353773  0.09486746  0.11705102  1
  Mo  Mo164  1  0.09221729  0.70653736  0.38338656  1
  Mo  Mo165  1  0.09900322  0.71779489  0.86291429  1
  Mo  Mo166  1  0.80491745  0.80144080  -0.00783476  1
  Mo  Mo167  1  0.39744112  0.60137682  -0.01373234  1
  Mo  Mo168  1  0.29930080  0.29443198  0.63831802  1
  Mo  Mo169  1  0.79754425  0.59619479  0.75022637  1
  Mo  Mo170  1  0.89592255  0.70682237  0.63060834  1
  Mo  Mo171  1  0.70454172  0.08925931  0.36460325  1
  Mo  Mo172  1  0.81184833  0.59288534  0.49654630  1
  Mo  Mo173  1  0.29590952  0.90001326  0.12237587  1
  Mo  Mo174  1  0.29949603  0.70795150  0.63321560  1
  Mo  Mo175  1  0.70104149  0.89867388  0.86361257  1
  Mo  Mo176  1  0.30165838  0.69598268  0.10955078  1
  Mo  Mo177  1  0.39066491  0.20286751  0.47722280  1
  Mo  Mo178  1  0.19485719  0.20135584  0.02127033  1
  Mo  Mo179  1  0.19877735  0.39531846  0.73416362  1
  Mo  Mo180  1  0.00449872  0.19361195  0.26609204  1
  Mo  Mo181  1  0.39722214  0.40140051  0.74377124  1
  Mo  Mo182  1  0.29801007  0.30131109  0.14209622  1
  Mo  Mo183  1  0.80557840  -0.00700575  0.27152599  1
  Mo  Mo184  1  0.80488417  0.19365022  0.47885432  1
  Mo  Mo185  1  0.29955945  0.91097687  0.63674714  1
  Mo  Mo186  1  0.09518544  0.90293714  0.62090824  1
  Mo  Mo187  1  0.30674747  0.70300692  0.87925799  1
  Mo  Mo188  1  0.29950220  0.49461364  0.65155210  1
  Mo  Mo189  1  0.20056302  0.40508798  0.01172650  1
  Mo  Mo190  1  0.59327557  0.19505178  0.47412561  1
  Mo  Mo191  1  0.70094330  0.69741776  0.39460389  1
  Mo  Mo192  1  0.40345397  -0.00392975  0.01653378  1
  Mo  Mo193  1  0.90211759  0.09641378  0.87960848  1
  Mo  Mo194  1  0.80150568  -0.00392665  0.00242592  1
  Mo  Mo195  1  0.19319705  0.81433823  0.52073167  1
  Mo  Mo196  1  0.88773646  0.50204406  0.64455534  1
  Mo  Mo197  1  0.90823889  0.50389549  0.37999788  1
  Mo  Mo198  1  0.80156925  0.40101490  0.49709599  1
  Mo  Mo199  1  0.80111983  0.79555088  0.49018098  1
