# generated using pymatgen
data_HfZrTaTiMo
_symmetry_space_group_name_H-M   'P 1'
_cell_length_a   15.82800553
_cell_length_b   15.84501331
_cell_length_c   15.42238074
_cell_angle_alpha   89.94587860
_cell_angle_beta   89.99559052
_cell_angle_gamma   89.95858038
_symmetry_Int_Tables_number   1
_chemical_formula_structural   HfZrTaTiMo
_chemical_formula_sum   'Hf40 Zr40 Ta40 Ti40 Mo40'
_cell_volume   3867.85258419
_cell_formula_units_Z   40
loop_
 _symmetry_equiv_pos_site_id
 _symmetry_equiv_pos_as_xyz
  1  'x, y, z'
loop_
 _atom_site_type_symbol
 _atom_site_label
 _atom_site_symmetry_multiplicity
 _atom_site_fract_x
 _atom_site_fract_y
 _atom_site_fract_z
 _atom_site_occupancy
  Hf  Hf0  1  0.69951613  0.30746100  0.89097467  1
  Hf  Hf1  1  0.20700483  0.19852293  0.00811828  1
  Hf  Hf2  1  0.20457722  -0.01740471  0.48383416  1
  Hf  Hf3  1  0.61453696  0.82059696  0.75038520  1
  Hf  Hf4  1  0.80006577  0.60057762  0.47886910  1
  Hf  Hf5  1  0.90322612  0.70788911  0.35972157  1
  Hf  Hf6  1  0.20774097  0.80643951  0.23266793  1
  Hf  Hf7  1  0.30000280  0.49701127  0.88190559  1
  Hf  Hf8  1  0.90509360  0.70870687  0.12766035  1
  Hf  Hf9  1  0.60834840  0.81426199  0.50933428  1
  Hf  Hf10  1  0.10226452  0.69001273  0.87048169  1
  Hf  Hf11  1  0.50944769  0.69470068  0.62997409  1
  Hf  Hf12  1  0.40952796  0.58903776  0.75271943  1
  Hf  Hf13  1  0.60165105  0.79573681  0.01121840  1
  Hf  Hf14  1  0.70200592  0.09596003  0.88989259  1
  Hf  Hf15  1  0.78882348  0.40611380  0.75213826  1
  Hf  Hf16  1  0.71432589  0.69973251  0.62643297  1
  Hf  Hf17  1  0.19406009  0.20185406  0.22879285  1
  Hf  Hf18  1  0.40034355  0.59645737  0.49608304  1
  Hf  Hf19  1  0.00486550  0.00497621  0.25323367  1
  Hf  Hf20  1  0.28745264  0.69900380  0.63453926  1
  Hf  Hf21  1  0.30584989  0.49164255  0.63349358  1
  Hf  Hf22  1  0.09188295  0.90086674  0.10688085  1
  Hf  Hf23  1  0.59251536  0.20530645  0.49805901  1
  Hf  Hf24  1  0.30932304  0.91429352  0.11601363  1
  Hf  Hf25  1  0.20188541  0.79517665  -0.00584831  1
  Hf  Hf26  1  0.10292607  0.29629358  0.38300277  1
  Hf  Hf27  1  0.10830683  0.29309095  0.61486953  1
  Hf  Hf28  1  0.88657523  0.08344506  0.63068955  1
  Hf  Hf29  1  0.89695749  0.89918616  0.36445865  1
  Hf  Hf30  1  0.89502292  0.29704003  0.89189952  1
  Hf  Hf31  1  -0.00673509  -0.00889752  0.76609875  1
  Hf  Hf32  1  0.79708843  0.20050387  0.74624303  1
  Hf  Hf33  1  0.48474630  0.09072280  0.12328659  1
  Hf  Hf34  1  0.61246552  0.58575127  0.75691985  1
  Hf  Hf35  1  0.69297330  0.29704907  0.35801861  1
  Hf  Hf36  1  0.00793433  0.79711450  0.50650576  1
  Hf  Hf37  1  0.30935031  0.29290795  0.88746019  1
  Hf  Hf38  1  0.79268964  0.59592473  0.25357880  1
  Hf  Hf39  1  0.10570026  0.49232708  0.37368847  1
  Zr  Zr40  1  0.59547783  0.20578626  0.01399049  1
  Zr  Zr41  1  0.21149624  0.60156411  0.23292489  1
  Zr  Zr42  1  0.41258066  0.80592287  0.74443332  1
  Zr  Zr43  1  0.78745136  0.19114164  0.50707477  1
  Zr  Zr44  1  0.48309170  0.10590743  0.88939475  1
  Zr  Zr45  1  0.30771540  0.90572648  0.87178743  1
  Zr  Zr46  1  0.29370898  0.10875827  0.37414208  1
  Zr  Zr47  1  0.28147118  0.90472290  0.63633165  1
  Zr  Zr48  1  -0.00322714  0.58320154  0.23781492  1
  Zr  Zr49  1  0.70526790  0.10318254  0.35001110  1
  Zr  Zr50  1  -0.00306304  0.20137267  0.23780056  1
  Zr  Zr51  1  0.10331769  0.50445029  0.63672147  1
  Zr  Zr52  1  0.88594478  0.50378834  0.89196277  1
  Zr  Zr53  1  0.60025614  0.59881943  0.00692878  1
  Zr  Zr54  1  -0.00046230  0.39286512  0.23180775  1
  Zr  Zr55  1  0.60074169  0.00551933  0.48093635  1
  Zr  Zr56  1  -0.00195844  -0.00838635  0.49718320  1
  Zr  Zr57  1  0.60027054  0.60468661  0.48295342  1
  Zr  Zr58  1  0.40455107  0.81362660  0.51100760  1
  Zr  Zr59  1  -0.00905514  0.39890292  0.75414869  1
  Zr  Zr60  1  0.56888905  0.60209612  0.25114065  1
  Zr  Zr61  1  0.40553767  0.00757338  0.74153779  1
  Zr  Zr62  1  0.40171482  0.20984241  0.24311638  1
  Zr  Zr63  1  0.29714750  0.31326999  0.36856364  1
  Zr  Zr64  1  0.40893725  0.00121356  0.49372971  1
  Zr  Zr65  1  0.40208618  0.20657285  0.49417368  1
  Zr  Zr66  1  -0.00660551  0.19476710  0.50752227  1
  Zr  Zr67  1  0.00236353  0.20288003  0.75459916  1
  Zr  Zr68  1  0.10998949  0.09114020  0.62822379  1
  Zr  Zr69  1  0.40740784  0.77636364  0.23629544  1
  Zr  Zr70  1  0.81079127  0.80110021  0.76541582  1
  Zr  Zr71  1  0.00119680  0.59872501  0.50148857  1
  Zr  Zr72  1  0.10109106  0.70069573  0.36266180  1
  Zr  Zr73  1  0.29696168  0.71257753  0.38678929  1
  Zr  Zr74  1  0.19904358  0.38124506  0.75914713  1
  Zr  Zr75  1  0.00282595  0.59687498  0.01056262  1
  Zr  Zr76  1  0.59269597  0.20669198  0.75972397  1
  Zr  Zr77  1  0.40536682  0.79494875  -0.00267419  1
  Zr  Zr78  1  0.70944232  0.69188756  0.87618760  1
  Zr  Zr79  1  0.90448945  0.90473882  0.11648012  1
  Ta  Ta80  1  0.50405498  0.70010859  0.86871530  1
  Ta  Ta81  1  0.88784577  0.31010285  0.61220650  1
  Ta  Ta82  1  0.50095179  0.10873993  0.63043208  1
  Ta  Ta83  1  0.80930677  0.40150205  0.24741490  1
  Ta  Ta84  1  0.10160837  0.49554614  0.87899930  1
  Ta  Ta85  1  0.19922326  0.59929841  0.50326218  1
  Ta  Ta86  1  0.80766569  0.59229490  0.74483447  1
  Ta  Ta87  1  -0.00141889  0.79971097  0.76183771  1
  Ta  Ta88  1  0.89081530  0.49903800  0.61200342  1
  Ta  Ta89  1  0.59607245  0.40378496  0.75948168  1
  Ta  Ta90  1  0.79470795  0.79707099  0.00769339  1
  Ta  Ta91  1  0.09962821  0.10661472  0.88164061  1
  Ta  Ta92  1  0.19943782  0.00202671  0.25022335  1
  Ta  Ta93  1  0.39540087  -0.00761549  0.26722773  1
  Ta  Ta94  1  0.00332928  0.39905631  0.01318051  1
  Ta  Ta95  1  0.59554070  -0.00085276  0.24334639  1
  Ta  Ta96  1  0.20905343  0.40433298  0.50469258  1
  Ta  Ta97  1  0.70240441  0.09938696  0.12559109  1
  Ta  Ta98  1  0.89689179  0.10387739  0.37430842  1
  Ta  Ta99  1  0.89379203  0.30422269  0.38450908  1
  Ta  Ta100  1  0.68895310  0.30932585  0.62166530  1
  Ta  Ta101  1  0.89335153  0.89080375  0.62649246  1
  Ta  Ta102  1  0.68524399  0.08239174  0.63847462  1
  Ta  Ta103  1  0.70109343  0.49313121  0.60669128  1
  Ta  Ta104  1  0.00434765  0.20580442  0.00321871  1
  Ta  Ta105  1  0.09720144  0.08958035  0.10752744  1
  Ta  Ta106  1  0.70099322  0.89786830  0.35111320  1
  Ta  Ta107  1  0.31333639  0.50197029  0.11305655  1
  Ta  Ta108  1  0.68840811  0.48403962  0.36681038  1
  Ta  Ta109  1  0.50759959  0.88221926  0.35588652  1
  Ta  Ta110  1  0.20654532  0.00559305  -0.01226181  1
  Ta  Ta111  1  0.49631296  0.30725610  0.62958244  1
  Ta  Ta112  1  0.41076300  0.42025584  0.24829338  1
  Ta  Ta113  1  0.51106771  0.48749688  0.61516179  1
  Ta  Ta114  1  0.69121399  0.49357704  0.14192901  1
  Ta  Ta115  1  -0.00922711  0.60079778  0.75059844  1
  Ta  Ta116  1  0.20181472  0.40245719  0.22508108  1
  Ta  Ta117  1  0.89839607  0.09817771  0.10256101  1
  Ta  Ta118  1  0.10034392  0.10219538  0.37989601  1
  Ta  Ta119  1  0.70008605  0.90468205  0.12821340  1
  Ti  Ti120  1  0.68358878  0.71738244  0.35782434  1
  Ti  Ti121  1  0.51077447  0.90804181  0.87941069  1
  Ti  Ti122  1  0.19492536  0.00799212  0.76854279  1
  Ti  Ti123  1  0.29955283  0.50393641  0.36961295  1
  Ti  Ti124  1  0.09723658  0.89327006  0.63524784  1
  Ti  Ti125  1  0.19175728  0.80602470  0.76649298  1
  Ti  Ti126  1  0.19576633  0.39898196  0.00847583  1
  Ti  Ti127  1  0.89735215  0.90124178  0.89886667  1
  Ti  Ti128  1  0.59874826  -0.00599927  0.00865659  1
  Ti  Ti129  1  0.41003253  0.39399004  0.75618925  1
  Ti  Ti130  1  0.09662833  0.70735810  0.12257415  1
  Ti  Ti131  1  0.38967596  0.20422112  0.74499243  1
  Ti  Ti132  1  0.50030786  0.89896602  0.13148238  1
  Ti  Ti133  1  0.60012904  0.40701813  0.01189170  1
  Ti  Ti134  1  0.30170431  0.69268954  0.86262940  1
  Ti  Ti135  1  0.79715975  0.40227334  0.02411019  1
  Ti  Ti136  1  0.79080443  0.59836424  0.02498097  1
  Ti  Ti137  1  0.49414546  0.30562977  0.89321338  1
  Ti  Ti138  1  0.50091527  0.31235370  0.12774976  1
  Ti  Ti139  1  0.40945759  0.39846803  0.48802500  1
  Ti  Ti140  1  0.89444302  0.09830971  0.89207119  1
  Ti  Ti141  1  0.31274186  0.30817085  0.11573638  1
  Ti  Ti142  1  0.10430959  0.70168108  0.64184210  1
  Ti  Ti143  1  0.29153424  0.10931720  0.62106244  1
  Ti  Ti144  1  0.50131430  0.49349844  0.88824740  1
  Ti  Ti145  1  0.79892602  0.80196191  0.49266355  1
  Ti  Ti146  1  0.90419056  0.69912592  0.62610654  1
  Ti  Ti147  1  0.81303096  0.20606995  0.23367133  1
  Ti  Ti148  1  0.69985893  0.29873949  0.13570264  1
  Ti  Ti149  1  0.30106745  0.29555579  0.62103986  1
  Ti  Ti150  1  0.90235116  0.69711480  0.88952280  1
  Ti  Ti151  1  0.79136160  -0.00941815  0.49482006  1
  Ti  Ti152  1  0.10500528  0.88832567  0.36606805  1
  Ti  Ti153  1  0.20402875  0.59994963  0.00772400  1
  Ti  Ti154  1  0.79233140  0.79938759  0.23538407  1
  Ti  Ti155  1  0.78742359  -0.01412268  0.76643076  1
  Ti  Ti156  1  0.50807278  0.11397600  0.35333598  1
  Ti  Ti157  1  0.40317883  0.60411712  -0.00277804  1
  Ti  Ti158  1  0.80597600  0.00607857  0.23908909  1
  Ti  Ti159  1  -0.00280992  0.40326551  0.50103886  1
  Mo  Mo160  1  0.60116576  0.79859800  0.23176215  1
  Mo  Mo161  1  0.49365244  0.69367205  0.11067056  1
  Mo  Mo162  1  0.59624404  0.39557401  0.49604326  1
  Mo  Mo163  1  0.19053227  0.79740775  0.50851105  1
  Mo  Mo164  1  0.59620207  0.39873769  0.23901198  1
  Mo  Mo165  1  0.89497018  0.48844549  0.38699809  1
  Mo  Mo166  1  0.00115090  0.00419832  -0.01953550  1
  Mo  Mo167  1  0.40123206  0.00017241  -0.00554956  1
  Mo  Mo168  1  0.79495971  0.39809905  0.48817913  1
  Mo  Mo169  1  0.29973443  0.89761310  0.36333416  1
  Mo  Mo170  1  0.89051928  0.49950691  0.11748274  1
  Mo  Mo171  1  0.69931859  0.70002082  0.13714956  1
  Mo  Mo172  1  -0.00137979  0.79781386  -0.02028829  1
  Mo  Mo173  1  0.70009844  0.49330839  0.89252681  1
  Mo  Mo174  1  0.89354583  0.29786979  0.11252681  1
  Mo  Mo175  1  0.79880384  0.20255849  0.01321490  1
  Mo  Mo176  1  0.50753760  0.31134890  0.35700097  1
  Mo  Mo177  1  0.60369329  0.00321389  0.76443099  1
  Mo  Mo178  1  0.10972364  0.49966754  0.11038867  1
  Mo  Mo179  1  0.00525550  0.80463895  0.24863633  1
  Mo  Mo180  1  0.39662541  0.20265165  0.02026608  1
  Mo  Mo181  1  0.10075546  0.30418900  0.89428727  1
  Mo  Mo182  1  0.53232470  0.93015776  0.63334512  1
  Mo  Mo183  1  0.40614153  0.40161411  0.00349752  1
  Mo  Mo184  1  0.20748803  0.19311944  0.76113817  1
  Mo  Mo185  1  0.60116342  0.20025785  0.22963442  1
  Mo  Mo186  1  0.39485137  0.59415296  0.25641316  1
  Mo  Mo187  1  0.50098560  0.70596812  0.38950117  1
  Mo  Mo188  1  0.49557635  0.49410514  0.38607915  1
  Mo  Mo189  1  0.49454331  0.49784213  0.11132797  1
  Mo  Mo190  1  0.70183580  0.90244480  0.90244996  1
  Mo  Mo191  1  0.20179257  0.19899996  0.50027467  1
  Mo  Mo192  1  0.10415484  0.29928415  0.11181947  1
  Mo  Mo193  1  0.29902432  0.69382798  0.11031842  1
  Mo  Mo194  1  0.09796740  0.89998705  0.88027881  1
  Mo  Mo195  1  0.71859232  0.90925783  0.62168011  1
  Mo  Mo196  1  0.79437676  -0.00179438  0.00315624  1
  Mo  Mo197  1  0.19960941  0.59730168  0.75967864  1
  Mo  Mo198  1  0.29671426  0.09332843  0.13476977  1
  Mo  Mo199  1  0.29607196  0.10550171  0.86791138  1
