# generated using pymatgen
data_HfZrTaTiMo
_symmetry_space_group_name_H-M   'P 1'
_cell_length_a   15.83470889
_cell_length_b   15.83870656
_cell_length_c   15.41738320
_cell_angle_alpha   89.90895745
_cell_angle_beta   89.91248993
_cell_angle_gamma   89.78466485
_symmetry_Int_Tables_number   1
_chemical_formula_structural   HfZrTaTiMo
_chemical_formula_sum   'Hf40 Zr40 Ta40 Ti40 Mo40'
_cell_volume   3866.66320220
_cell_formula_units_Z   40
loop_
 _symmetry_equiv_pos_site_id
 _symmetry_equiv_pos_as_xyz
  1  'x, y, z'
loop_
 _atom_site_type_symbol
 _atom_site_label
 _atom_site_symmetry_multiplicity
 _atom_site_fract_x
 _atom_site_fract_y
 _atom_site_fract_z
 _atom_site_occupancy
  Hf  Hf0  1  0.60724714  -0.00055000  0.47490408  1
  Hf  Hf1  1  0.29665713  0.10063403  0.12314890  1
  Hf  Hf2  1  0.79562184  0.01404846  0.26947445  1
  Hf  Hf3  1  0.29751341  0.30212121  0.87936234  1
  Hf  Hf4  1  -0.00356423  0.19304872  0.52769668  1
  Hf  Hf5  1  0.39379367  0.59583668  -0.00300986  1
  Hf  Hf6  1  0.91785918  0.28467331  0.37948321  1
  Hf  Hf7  1  0.90889388  0.88218578  0.86702243  1
  Hf  Hf8  1  0.50492637  0.89734139  0.87483526  1
  Hf  Hf9  1  0.21766506  0.40911336  0.52193897  1
  Hf  Hf10  1  0.81307699  0.78779358  0.73693826  1
  Hf  Hf11  1  0.80470068  0.00558333  -0.01390657  1
  Hf  Hf12  1  0.89676734  0.49671566  0.11773141  1
  Hf  Hf13  1  0.49074616  0.50013029  0.62860482  1
  Hf  Hf14  1  0.10652873  0.10824618  0.86308869  1
  Hf  Hf15  1  0.50761089  0.08529663  0.14196451  1
  Hf  Hf16  1  0.71483833  0.69399491  0.88392767  1
  Hf  Hf17  1  0.50509534  0.28662533  0.13228949  1
  Hf  Hf18  1  0.49190375  0.28217439  0.88371954  1
  Hf  Hf19  1  0.00854068  0.80759734  0.01848092  1
  Hf  Hf20  1  0.70056817  0.90796207  0.61832083  1
  Hf  Hf21  1  0.69043308  0.49046097  0.61519419  1
  Hf  Hf22  1  0.60768094  0.59202281  0.75973299  1
  Hf  Hf23  1  0.59984374  0.39594640  -0.00595492  1
  Hf  Hf24  1  0.30849609  0.10906667  0.88953223  1
  Hf  Hf25  1  0.50048064  0.48769324  0.14639630  1
  Hf  Hf26  1  0.60819323  0.19236617  0.74908830  1
  Hf  Hf27  1  0.38645880  0.19927593  0.24997308  1
  Hf  Hf28  1  0.59196157  0.39838525  0.48126974  1
  Hf  Hf29  1  0.70416981  0.10301306  0.11735294  1
  Hf  Hf30  1  0.70396776  0.29428128  0.11919045  1
  Hf  Hf31  1  0.29291837  0.89980242  0.88838132  1
  Hf  Hf32  1  0.59910257  0.59905139  0.00205509  1
  Hf  Hf33  1  0.78877053  0.39323391  0.26251165  1
  Hf  Hf34  1  0.70999530  0.28117090  0.88811837  1
  Hf  Hf35  1  0.39816847  0.79576859  0.74601075  1
  Hf  Hf36  1  0.40483422  0.20321454  0.73478923  1
  Hf  Hf37  1  0.08822711  0.71705944  0.87456683  1
  Hf  Hf38  1  -0.00142599  0.00873156  0.26511360  1
  Hf  Hf39  1  0.90588438  0.30457438  0.85885879  1
  Zr  Zr40  1  0.49845632  0.69026369  0.61895822  1
  Zr  Zr41  1  0.80329896  0.59594667  0.50329540  1
  Zr  Zr42  1  0.29696012  0.68725814  0.61739790  1
  Zr  Zr43  1  0.19822090  0.21947424  0.50755125  1
  Zr  Zr44  1  0.49834596  0.68992294  0.14380755  1
  Zr  Zr45  1  0.50024937  0.90894604  0.62362678  1
  Zr  Zr46  1  0.30616340  0.09185074  0.60521843  1
  Zr  Zr47  1  0.20249711  -0.01674639  0.48429043  1
  Zr  Zr48  1  0.60706152  0.79831234  0.74942547  1
  Zr  Zr49  1  0.90382557  0.30757510  0.64042538  1
  Zr  Zr50  1  0.40155990  0.79625571  0.01817550  1
  Zr  Zr51  1  0.69331757  0.69809502  0.60993447  1
  Zr  Zr52  1  0.50563987  0.10394117  0.60120539  1
  Zr  Zr53  1  0.09801196  0.10715546  0.13003802  1
  Zr  Zr54  1  0.38558555  0.80642554  0.50239806  1
  Zr  Zr55  1  0.78812919  0.40582463  0.74990422  1
  Zr  Zr56  1  0.20578789  0.81097896  0.73758840  1
  Zr  Zr57  1  0.79385728  0.00665291  0.75419649  1
  Zr  Zr58  1  0.41593069  -0.00050616  0.00722875  1
  Zr  Zr59  1  0.80130445  0.59119207  0.25779490  1
  Zr  Zr60  1  0.89848721  0.90829976  0.13851139  1
  Zr  Zr61  1  0.90522497  0.71260784  0.37369332  1
  Zr  Zr62  1  0.10847727  0.48712556  0.38021283  1
  Zr  Zr63  1  0.80648038  0.78999110  0.01132550  1
  Zr  Zr64  1  0.70265834  0.70349041  0.37066544  1
  Zr  Zr65  1  0.48399944  0.70607566  0.36288074  1
  Zr  Zr66  1  0.00521280  0.38817587  0.24049190  1
  Zr  Zr67  1  0.90609320  0.48752345  0.38648372  1
  Zr  Zr68  1  -0.00159714  0.20638154  -0.00420701  1
  Zr  Zr69  1  0.39371881  0.00264994  0.75262695  1
  Zr  Zr70  1  0.69252104  0.90546802  0.13242330  1
  Zr  Zr71  1  0.10590788  0.09090496  0.63791619  1
  Zr  Zr72  1  0.19707764  0.62046189  0.25229816  1
  Zr  Zr73  1  0.09660364  0.50688414  0.63437780  1
  Zr  Zr74  1  0.00725918  0.59808039  0.25376070  1
  Zr  Zr75  1  0.49426815  0.11081736  0.37536905  1
  Zr  Zr76  1  0.39363074  0.40070471  0.00897346  1
  Zr  Zr77  1  0.09411732  0.11954845  0.37510306  1
  Zr  Zr78  1  0.20184040  0.60352923  0.76696879  1
  Zr  Zr79  1  0.49484205  0.49067681  0.86410045  1
  Ta  Ta80  1  0.69937484  0.89516551  0.88332875  1
  Ta  Ta81  1  0.89872250  0.10688892  0.12231756  1
  Ta  Ta82  1  -0.00477862  0.00326967  0.75576519  1
  Ta  Ta83  1  0.80620922  0.59925344  0.73747806  1
  Ta  Ta84  1  0.09612199  0.70445170  0.62076832  1
  Ta  Ta85  1  0.29911327  0.90064601  0.13734298  1
  Ta  Ta86  1  0.10127943  0.90665063  0.86850458  1
  Ta  Ta87  1  -0.00233568  -0.00432080  0.49361084  1
  Ta  Ta88  1  0.19052681  -0.00451610  0.00373798  1
  Ta  Ta89  1  0.20437216  0.00382419  0.26042820  1
  Ta  Ta90  1  0.09721218  0.50786002  0.10954622  1
  Ta  Ta91  1  0.19465949  0.41036661  -0.00650742  1
  Ta  Ta92  1  0.29280741  0.31724499  0.36185488  1
  Ta  Ta93  1  0.58716302  0.59225252  0.47619516  1
  Ta  Ta94  1  0.19546228  0.60560035  -0.00662864  1
  Ta  Ta95  1  0.00523844  0.80774438  0.50694207  1
  Ta  Ta96  1  0.79932184  0.38769288  0.50266867  1
  Ta  Ta97  1  0.10061468  0.30651285  0.85895807  1
  Ta  Ta98  1  0.29187735  0.30035084  0.12119559  1
  Ta  Ta99  1  0.80710957  0.80955092  0.50723030  1
  Ta  Ta100  1  0.30197099  0.88021500  0.34845693  1
  Ta  Ta101  1  0.00551999  0.60466528  0.49908100  1
  Ta  Ta102  1  0.70150280  0.69356810  0.13758250  1
  Ta  Ta103  1  0.20820783  0.40750239  0.75193275  1
  Ta  Ta104  1  0.01365448  0.79173206  0.24009202  1
  Ta  Ta105  1  0.49336533  0.30956928  0.35331213  1
  Ta  Ta106  1  0.59764909  0.79999539  0.01244744  1
  Ta  Ta107  1  0.79848992  0.19577840  0.50687565  1
  Ta  Ta108  1  0.90837632  0.90584578  0.62720626  1
  Ta  Ta109  1  0.38912198  0.58383147  0.47859226  1
  Ta  Ta110  1  0.20181608  0.60520541  0.48740550  1
  Ta  Ta111  1  0.60551033  0.57874810  0.26884665  1
  Ta  Ta112  1  0.59409831  0.80549945  0.48347122  1
  Ta  Ta113  1  0.10374365  0.88364398  0.36462559  1
  Ta  Ta114  1  0.69880743  0.49553162  0.12134843  1
  Ta  Ta115  1  0.71100907  0.89044596  0.36928350  1
  Ta  Ta116  1  0.00139326  0.00362706  -0.01050846  1
  Ta  Ta117  1  0.00147154  0.40598654  -0.01132920  1
  Ta  Ta118  1  0.50141877  0.70026097  0.87753905  1
  Ta  Ta119  1  0.19961488  0.40922934  0.23314920  1
  Ti  Ti120  1  0.59728106  0.80224273  0.25091608  1
  Ti  Ti121  1  0.81033123  0.19635528  0.26228536  1
  Ti  Ti122  1  0.10737124  0.90664406  0.13783368  1
  Ti  Ti123  1  0.60261188  0.00978924  0.76510375  1
  Ti  Ti124  1  0.09912356  0.30704544  0.11275391  1
  Ti  Ti125  1  0.01363672  0.39022519  0.50721599  1
  Ti  Ti126  1  -0.01133910  0.60909768  -0.00439687  1
  Ti  Ti127  1  0.21341137  0.20513519  0.73881875  1
  Ti  Ti128  1  0.19677028  0.20705887  -0.00027852  1
  Ti  Ti129  1  0.50867348  0.30296920  0.61584292  1
  Ti  Ti130  1  0.39756031  0.40440953  0.49523568  1
  Ti  Ti131  1  0.79760069  0.19262220  0.72943197  1
  Ti  Ti132  1  0.89694097  0.29473360  0.12185886  1
  Ti  Ti133  1  0.81023582  0.00397120  0.49148297  1
  Ti  Ti134  1  -0.01574055  0.61753353  0.74820523  1
  Ti  Ti135  1  0.29606409  0.10567764  0.37734667  1
  Ti  Ti136  1  0.89885392  0.69514534  0.13613538  1
  Ti  Ti137  1  0.38406881  0.59474912  0.25981568  1
  Ti  Ti138  1  0.39186142  0.39793562  0.74280379  1
  Ti  Ti139  1  0.59820771  -0.00404871  0.27210349  1
  Ti  Ti140  1  0.60065084  0.38502833  0.75266782  1
  Ti  Ti141  1  0.61634173  0.19511624  0.26445745  1
  Ti  Ti142  1  0.39025726  0.59728148  0.76594842  1
  Ti  Ti143  1  0.40129813  -0.01291594  0.47267350  1
  Ti  Ti144  1  0.29332607  0.50836765  0.12633641  1
  Ti  Ti145  1  0.09716205  0.30755447  0.65616532  1
  Ti  Ti146  1  0.29642586  0.70889698  0.88808923  1
  Ti  Ti147  1  0.08992246  0.50594847  0.87273225  1
  Ti  Ti148  1  0.90251443  0.89454367  0.36943725  1
  Ti  Ti149  1  0.80722405  0.39671390  -0.00257915  1
  Ti  Ti150  1  0.89758375  0.11347047  0.86758448  1
  Ti  Ti151  1  0.10333765  0.90582551  0.63263121  1
  Ti  Ti152  1  0.90736368  0.49904788  0.62404016  1
  Ti  Ti153  1  0.69924867  0.28965570  0.38462360  1
  Ti  Ti154  1  0.39663739  0.22431138  0.49336339  1
  Ti  Ti155  1  0.59122378  0.17215376  -0.00973950  1
  Ti  Ti156  1  0.89363412  0.51377062  0.87792543  1
  Ti  Ti157  1  0.71022009  0.49955450  0.88712478  1
  Ti  Ti158  1  0.18647358  0.21686116  0.25335809  1
  Ti  Ti159  1  0.69672523  0.10151004  0.60734304  1
  Mo  Mo160  1  0.60659828  0.39062574  0.26006456  1
  Mo  Mo161  1  0.90688756  0.69862484  0.61022905  1
  Mo  Mo162  1  0.29157010  0.69848095  0.11121420  1
  Mo  Mo163  1  0.69322690  0.29255804  0.61378660  1
  Mo  Mo164  1  -0.00485479  0.20341386  0.23461261  1
  Mo  Mo165  1  0.80486555  0.80212858  0.24102818  1
  Mo  Mo166  1  0.29250372  0.50142106  0.87407127  1
  Mo  Mo167  1  0.38828374  0.39841983  0.23524961  1
  Mo  Mo168  1  0.90101872  0.10049794  0.39099799  1
  Mo  Mo169  1  0.59963238  0.20770937  0.49156561  1
  Mo  Mo170  1  0.39186929  0.79243122  0.23526639  1
  Mo  Mo171  1  0.90420742  0.69253368  0.87549403  1
  Mo  Mo172  1  0.50377639  0.09651925  0.87290146  1
  Mo  Mo173  1  0.00367934  0.80389194  0.73082062  1
  Mo  Mo174  1  0.49802241  0.89761574  0.35836344  1
  Mo  Mo175  1  0.70129739  0.09574118  0.88431996  1
  Mo  Mo176  1  0.80057241  0.59442037  0.01569853  1
  Mo  Mo177  1  0.50053011  0.89718137  0.14945242  1
  Mo  Mo178  1  0.30825923  0.50364465  0.63368089  1
  Mo  Mo179  1  0.20113954  0.00328148  0.76205861  1
  Mo  Mo180  1  0.60475517  -0.00906481  -0.00677117  1
  Mo  Mo181  1  0.19389290  0.80237488  0.50849444  1
  Mo  Mo182  1  0.40153034  0.19741813  0.02144935  1
  Mo  Mo183  1  0.29129343  0.70240085  0.38101064  1
  Mo  Mo184  1  0.09716227  0.69716098  0.10678642  1
  Mo  Mo185  1  0.69949134  0.49124406  0.38966803  1
  Mo  Mo186  1  0.00111637  0.41748779  0.76716074  1
  Mo  Mo187  1  0.19750305  0.80540465  0.01587208  1
  Mo  Mo188  1  0.70423627  0.10485000  0.38385544  1
  Mo  Mo189  1  0.39448095  -0.00247039  0.25943196  1
  Mo  Mo190  1  0.80729189  0.20058474  0.00014290  1
  Mo  Mo191  1  0.10639790  0.30440567  0.37633885  1
  Mo  Mo192  1  0.89636339  0.09139739  0.62392698  1
  Mo  Mo193  1  0.48978703  0.49344169  0.35929938  1
  Mo  Mo194  1  0.29408454  0.90847806  0.62434170  1
  Mo  Mo195  1  0.29816373  0.49750235  0.36271914  1
  Mo  Mo196  1  0.30934479  0.30526260  0.63208857  1
  Mo  Mo197  1  0.19544081  0.79931970  0.23190244  1
  Mo  Mo198  1  -0.00051232  0.19918820  0.74492238  1
  Mo  Mo199  1  0.10100255  0.70920558  0.39300426  1
