# generated using pymatgen
data_HfZrTaTiMo
_symmetry_space_group_name_H-M   'P 1'
_cell_length_a   15.82837055
_cell_length_b   15.85000103
_cell_length_c   15.40593950
_cell_angle_alpha   90.05039287
_cell_angle_beta   89.97981797
_cell_angle_gamma   90.05068808
_symmetry_Int_Tables_number   1
_chemical_formula_structural   HfZrTaTiMo
_chemical_formula_sum   'Hf40 Zr40 Ta40 Ti40 Mo40'
_cell_volume   3865.03407135
_cell_formula_units_Z   40
loop_
 _symmetry_equiv_pos_site_id
 _symmetry_equiv_pos_as_xyz
  1  'x, y, z'
loop_
 _atom_site_type_symbol
 _atom_site_label
 _atom_site_symmetry_multiplicity
 _atom_site_fract_x
 _atom_site_fract_y
 _atom_site_fract_z
 _atom_site_occupancy
  Hf  Hf0  1  0.50215838  0.88476842  0.62893130  1
  Hf  Hf1  1  0.70966078  0.70678188  0.38615485  1
  Hf  Hf2  1  0.10860262  0.70818956  0.62178512  1
  Hf  Hf3  1  0.09549717  0.70111956  0.38376374  1
  Hf  Hf4  1  0.51140267  0.28734871  0.12481274  1
  Hf  Hf5  1  0.70138015  0.89940278  0.38749597  1
  Hf  Hf6  1  0.90312341  0.10536276  0.12094515  1
  Hf  Hf7  1  0.70900480  0.09083726  0.37194866  1
  Hf  Hf8  1  0.49173683  0.89048443  0.87860667  1
  Hf  Hf9  1  0.79828986  0.61120827  0.75256217  1
  Hf  Hf10  1  0.89674873  0.30696147  0.36241844  1
  Hf  Hf11  1  0.40108389  0.40040822  0.01716387  1
  Hf  Hf12  1  0.30879438  0.70196645  0.88533391  1
  Hf  Hf13  1  0.09754687  0.10468564  0.63585018  1
  Hf  Hf14  1  0.29427210  0.69535061  0.13509635  1
  Hf  Hf15  1  0.40556893  0.19114989  0.25519743  1
  Hf  Hf16  1  0.29066429  0.09328972  0.89216514  1
  Hf  Hf17  1  0.50934059  0.89574596  0.38289724  1
  Hf  Hf18  1  0.19121836  0.58818730  -0.00200538  1
  Hf  Hf19  1  0.41530450  0.58815787  0.24459483  1
  Hf  Hf20  1  0.29955494  0.88405882  0.12355339  1
  Hf  Hf21  1  0.69251229  0.51132036  0.62625410  1
  Hf  Hf22  1  0.29776663  0.29283603  0.62677674  1
  Hf  Hf23  1  0.70000867  0.88679358  0.63962246  1
  Hf  Hf24  1  0.00204312  0.61036206  0.75631477  1
  Hf  Hf25  1  0.40066771  -0.00501313  0.23789795  1
  Hf  Hf26  1  0.09758439  0.30210922  0.86129119  1
  Hf  Hf27  1  0.50725775  0.89461683  0.10817712  1
  Hf  Hf28  1  0.89617910  0.10438719  0.87557368  1
  Hf  Hf29  1  0.79628625  -0.02283878  0.22767685  1
  Hf  Hf30  1  0.40299906  0.39550649  0.75563373  1
  Hf  Hf31  1  0.29465611  0.69202774  0.36464005  1
  Hf  Hf32  1  0.28952440  0.30353987  0.35243886  1
  Hf  Hf33  1  0.10742291  0.50807353  0.62970855  1
  Hf  Hf34  1  0.60692366  0.61129787  0.24140451  1
  Hf  Hf35  1  0.81073481  0.39931018  0.01079438  1
  Hf  Hf36  1  0.00439458  0.40860588  0.00769580  1
  Hf  Hf37  1  0.70149096  0.90361735  0.86778896  1
  Hf  Hf38  1  0.70783757  0.50198543  0.87399722  1
  Hf  Hf39  1  0.09874354  0.30665152  0.64341163  1
  Zr  Zr40  1  0.29644502  0.28937296  0.14019048  1
  Zr  Zr41  1  0.09533315  0.91317771  0.37654066  1
  Zr  Zr42  1  0.68833793  0.11140962  0.11166231  1
  Zr  Zr43  1  0.59253538  0.20777168  0.75625956  1
  Zr  Zr44  1  -0.02268779  0.79889300  0.23866848  1
  Zr  Zr45  1  0.50394581  0.09582431  0.89621524  1
  Zr  Zr46  1  0.70495624  0.31008849  0.36716748  1
  Zr  Zr47  1  0.80476780  -0.00756170  0.00419389  1
  Zr  Zr48  1  0.09147159  0.89299992  0.86651364  1
  Zr  Zr49  1  0.29678240  0.30187524  0.87680422  1
  Zr  Zr50  1  0.59782605  0.40513531  0.75484773  1
  Zr  Zr51  1  0.38189328  -0.00572247  0.51453834  1
  Zr  Zr52  1  0.60395516  0.20614819  0.49355582  1
  Zr  Zr53  1  0.50040175  0.50454435  0.88380203  1
  Zr  Zr54  1  0.49755131  0.51139143  0.61406851  1
  Zr  Zr55  1  0.59272344  0.41017970  0.24000885  1
  Zr  Zr56  1  -0.00667730  0.40051569  0.50051804  1
  Zr  Zr57  1  0.19563659  0.39841611  0.49085831  1
  Zr  Zr58  1  0.39977581  0.79130743  0.50244656  1
  Zr  Zr59  1  0.48972693  0.10822725  0.61545429  1
  Zr  Zr60  1  0.39795753  0.40039494  0.48066099  1
  Zr  Zr61  1  0.50643040  0.08973357  0.38185697  1
  Zr  Zr62  1  0.70821905  0.50777821  0.37829972  1
  Zr  Zr63  1  0.39240341  0.00165730  0.74720175  1
  Zr  Zr64  1  0.90962611  0.09235925  0.35965319  1
  Zr  Zr65  1  0.89344011  0.89587885  0.38162384  1
  Zr  Zr66  1  0.29436664  0.88835257  0.36114138  1
  Zr  Zr67  1  0.61050671  0.39372230  0.00563116  1
  Zr  Zr68  1  0.08251874  0.68664524  0.11510740  1
  Zr  Zr69  1  0.80649631  0.20225987  0.50631879  1
  Zr  Zr70  1  0.59842063  0.00536175  0.74429465  1
  Zr  Zr71  1  0.39901011  0.59348484  0.01647183  1
  Zr  Zr72  1  0.19662473  0.39951056  0.01426347  1
  Zr  Zr73  1  0.49949354  0.30571012  0.61206376  1
  Zr  Zr74  1  0.09301605  0.09965877  0.11070601  1
  Zr  Zr75  1  0.29975162  0.68675238  0.61662603  1
  Zr  Zr76  1  0.00229837  0.19891990  0.49621266  1
  Zr  Zr77  1  0.28430134  0.08514664  0.37583016  1
  Zr  Zr78  1  0.19971847  0.00075611  0.74851550  1
  Zr  Zr79  1  0.89629821  0.51056938  0.37467470  1
  Ta  Ta80  1  0.19477061  0.19549479  0.49175560  1
  Ta  Ta81  1  0.89574555  0.30143725  0.64557178  1
  Ta  Ta82  1  -0.00506213  0.00212144  0.52093910  1
  Ta  Ta83  1  0.40921390  0.60216552  0.75197801  1
  Ta  Ta84  1  0.61327236  0.80476681  0.24050967  1
  Ta  Ta85  1  0.91277057  0.71410989  0.88289925  1
  Ta  Ta86  1  0.70651448  0.70724596  0.10982807  1
  Ta  Ta87  1  0.90428956  0.90028137  0.64480726  1
  Ta  Ta88  1  0.51243027  0.69752831  0.38357800  1
  Ta  Ta89  1  0.80670265  0.00314599  0.52427027  1
  Ta  Ta90  1  0.19534747  -0.00376225  0.22768796  1
  Ta  Ta91  1  0.61278144  -0.00020284  0.52023986  1
  Ta  Ta92  1  0.29694615  0.49941893  0.63115670  1
  Ta  Ta93  1  0.19302406  0.79542868  -0.00234245  1
  Ta  Ta94  1  0.40435238  0.78543671  0.74919522  1
  Ta  Ta95  1  -0.00230444  0.40742500  0.24204168  1
  Ta  Ta96  1  0.81093865  0.60470621  -0.01029897  1
  Ta  Ta97  1  0.42071685  0.78846334  0.24936880  1
  Ta  Ta98  1  0.20609024  0.60759859  0.76494762  1
  Ta  Ta99  1  -0.00510519  0.21326544  -0.00918485  1
  Ta  Ta100  1  0.10217997  0.50328455  0.36365614  1
  Ta  Ta101  1  0.80557990  0.60417651  0.51985776  1
  Ta  Ta102  1  0.80287423  0.41155723  0.22575358  1
  Ta  Ta103  1  0.10231253  0.49412784  0.85842299  1
  Ta  Ta104  1  0.90603451  0.70691621  0.62648106  1
  Ta  Ta105  1  0.71127044  0.29826189  0.86566349  1
  Ta  Ta106  1  0.50011783  0.09688969  0.11201635  1
  Ta  Ta107  1  0.70291874  0.10632008  0.88178997  1
  Ta  Ta108  1  0.91232447  0.52245376  0.12227894  1
  Ta  Ta109  1  0.60666694  0.79516786  -0.01420621  1
  Ta  Ta110  1  0.28480075  0.88099046  0.64090181  1
  Ta  Ta111  1  0.38920015  -0.00479359  0.00876893  1
  Ta  Ta112  1  0.70768789  0.51401575  0.11653409  1
  Ta  Ta113  1  0.09155832  0.09694135  0.88247437  1
  Ta  Ta114  1  0.89679038  0.30814708  0.85788730  1
  Ta  Ta115  1  0.19360987  0.20015208  0.00283444  1
  Ta  Ta116  1  0.09369820  0.29480960  0.13995437  1
  Ta  Ta117  1  0.39807415  0.19736260  0.76303617  1
  Ta  Ta118  1  0.38962072  0.20321366  0.47983177  1
  Ta  Ta119  1  0.60163347  -0.00405994  0.23497464  1
  Ti  Ti120  1  0.80188324  0.79222305  0.75707478  1
  Ti  Ti121  1  0.28780972  0.49312623  0.15385199  1
  Ti  Ti122  1  0.50676451  0.50039868  0.37971853  1
  Ti  Ti123  1  -0.00748715  0.19481516  0.75468176  1
  Ti  Ti124  1  0.18665607  0.18013361  0.25153825  1
  Ti  Ti125  1  0.09461739  0.89425308  0.64221420  1
  Ti  Ti126  1  0.39639625  0.19975593  0.00218788  1
  Ti  Ti127  1  0.52437363  0.69498234  0.61964321  1
  Ti  Ti128  1  0.60624584  0.60544252  -0.00317674  1
  Ti  Ti129  1  0.80383892  0.80186922  0.52027594  1
  Ti  Ti130  1  0.20828099  0.19315830  0.75566026  1
  Ti  Ti131  1  0.79582319  0.20332412  0.24203639  1
  Ti  Ti132  1  0.60687495  0.40239438  0.49353731  1
  Ti  Ti133  1  0.09373523  0.29435788  0.35490233  1
  Ti  Ti134  1  -0.00278411  0.81458141  0.00848473  1
  Ti  Ti135  1  0.90541330  0.90545106  0.86139572  1
  Ti  Ti136  1  0.70710042  0.11337993  0.63409001  1
  Ti  Ti137  1  0.00606448  -0.00638509  0.23249127  1
  Ti  Ti138  1  0.79724908  0.21574491  0.00422657  1
  Ti  Ti139  1  0.29781332  0.49765359  0.86727315  1
  Ti  Ti140  1  0.60118326  0.19752969  0.25972969  1
  Ti  Ti141  1  0.89722915  0.70311561  0.39149356  1
  Ti  Ti142  1  0.70933696  0.31237603  0.63139568  1
  Ti  Ti143  1  0.29255531  0.50081509  0.35570018  1
  Ti  Ti144  1  0.19871338  0.80789151  0.49703736  1
  Ti  Ti145  1  0.80616664  0.80369546  -0.00000721  1
  Ti  Ti146  1  0.81015204  0.62117379  0.23488363  1
  Ti  Ti147  1  0.19134308  -0.01198890  0.00801717  1
  Ti  Ti148  1  0.89820947  0.49506319  0.63409087  1
  Ti  Ti149  1  0.90606481  0.49572965  0.86639496  1
  Ti  Ti150  1  -0.00202672  0.80991366  0.50986143  1
  Ti  Ti151  1  -0.00005091  0.60008893  0.50637396  1
  Ti  Ti152  1  0.90555172  0.29648723  0.13637592  1
  Ti  Ti153  1  0.17780552  0.80011061  0.23970700  1
  Ti  Ti154  1  0.50418315  0.70426408  0.11142935  1
  Ti  Ti155  1  -0.00312190  0.60625710  0.25583915  1
  Ti  Ti156  1  0.18889119  -0.00154062  0.51674425  1
  Ti  Ti157  1  0.39532374  0.59380668  0.48759431  1
  Ti  Ti158  1  0.80436540  0.01138381  0.74353236  1
  Ti  Ti159  1  0.29698027  0.89107757  0.87530350  1
  Mo  Mo160  1  0.60683428  0.79824027  0.50418026  1
  Mo  Mo161  1  0.09957721  0.69872534  0.88699110  1
  Mo  Mo162  1  0.60078473  -0.00224904  -0.00125250  1
  Mo  Mo163  1  0.90213706  0.89839297  0.11890620  1
  Mo  Mo164  1  0.60554844  0.20607328  -0.01425754  1
  Mo  Mo165  1  0.59805116  0.61683261  0.76437367  1
  Mo  Mo166  1  0.70997876  0.70323561  0.88887475  1
  Mo  Mo167  1  0.29651058  0.09418846  0.11288643  1
  Mo  Mo168  1  0.09841640  0.09211785  0.37536374  1
  Mo  Mo169  1  0.49752807  0.30481977  0.36549355  1
  Mo  Mo170  1  0.70222696  0.70309639  0.61860575  1
  Mo  Mo171  1  0.19065296  0.60148139  0.25409293  1
  Mo  Mo172  1  0.80176272  0.40376717  0.52401805  1
  Mo  Mo173  1  0.51031492  0.50597055  0.11541485  1
  Mo  Mo174  1  0.20577434  0.40650257  0.74619835  1
  Mo  Mo175  1  0.49924350  0.29443616  0.89268289  1
  Mo  Mo176  1  0.80070087  0.40646270  0.74439058  1
  Mo  Mo177  1  0.20219926  0.79257376  0.76359623  1
  Mo  Mo178  1  0.09821535  0.89537941  0.11680314  1
  Mo  Mo179  1  -0.00257491  0.79738379  0.74775787  1
  Mo  Mo180  1  0.60053109  0.78107177  0.76714475  1
  Mo  Mo181  1  0.09739640  0.50082829  0.14359047  1
  Mo  Mo182  1  0.50394268  0.69779195  0.87997512  1
  Mo  Mo183  1  0.60172327  0.60056083  0.48820248  1
  Mo  Mo184  1  0.20072273  0.59274150  0.48318723  1
  Mo  Mo185  1  0.89917403  0.10213908  0.64034914  1
  Mo  Mo186  1  0.89536266  0.70106889  0.10140985  1
  Mo  Mo187  1  0.00034694  0.59489333  -0.02374045  1
  Mo  Mo188  1  0.40465345  0.40145566  0.25144386  1
  Mo  Mo189  1  -0.00179925  0.40654709  0.74703666  1
  Mo  Mo190  1  -0.00477519  0.00354702  0.74669417  1
  Mo  Mo191  1  0.69569518  0.89535216  0.10791838  1
  Mo  Mo192  1  -0.00061557  0.19958434  0.25481043  1
  Mo  Mo193  1  -0.00210556  -0.00011855  -0.00532190  1
  Mo  Mo194  1  0.70930808  0.30160418  0.13721996  1
  Mo  Mo195  1  0.39809402  0.79738513  0.00017001  1
  Mo  Mo196  1  0.79124808  0.79138723  0.23600811  1
  Mo  Mo197  1  0.19044885  0.39862145  0.24922753  1
  Mo  Mo198  1  0.79485279  0.20063064  0.74810409  1
  Mo  Mo199  1  0.29241255  0.10625518  0.61214588  1
