# generated using pymatgen
data_HfZrTaTiMo
_symmetry_space_group_name_H-M   'P 1'
_cell_length_a   15.84155392
_cell_length_b   15.83303311
_cell_length_c   15.41398966
_cell_angle_alpha   90.03562532
_cell_angle_beta   90.06518731
_cell_angle_gamma   90.00327471
_symmetry_Int_Tables_number   1
_chemical_formula_structural   HfZrTaTiMo
_chemical_formula_sum   'Hf40 Zr40 Ta40 Ti40 Mo40'
_cell_volume   3866.13128420
_cell_formula_units_Z   40
loop_
 _symmetry_equiv_pos_site_id
 _symmetry_equiv_pos_as_xyz
  1  'x, y, z'
loop_
 _atom_site_type_symbol
 _atom_site_label
 _atom_site_symmetry_multiplicity
 _atom_site_fract_x
 _atom_site_fract_y
 _atom_site_fract_z
 _atom_site_occupancy
  Hf  Hf0  1  0.50097380  0.30101762  0.35788438  1
  Hf  Hf1  1  0.10775992  0.10349816  0.64968835  1
  Hf  Hf2  1  0.19750293  -0.00589175  0.22992170  1
  Hf  Hf3  1  0.30609818  0.30068031  0.88036269  1
  Hf  Hf4  1  0.09510613  0.51850293  0.14570344  1
  Hf  Hf5  1  0.79374614  0.20270430  0.76452576  1
  Hf  Hf6  1  0.80664294  -0.00263173  0.50031528  1
  Hf  Hf7  1  0.59470034  0.20368134  0.50865950  1
  Hf  Hf8  1  0.41109660  0.39328225  0.74397538  1
  Hf  Hf9  1  0.19846321  0.00088323  -0.01182000  1
  Hf  Hf10  1  0.92388414  0.49203020  0.37841139  1
  Hf  Hf11  1  0.69171140  0.30103319  0.14383552  1
  Hf  Hf12  1  0.79597114  -0.00040404  0.24711651  1
  Hf  Hf13  1  0.50748420  0.49544593  0.87716918  1
  Hf  Hf14  1  0.39625417  0.40073568  0.23698556  1
  Hf  Hf15  1  0.49058526  0.09833850  0.63966791  1
  Hf  Hf16  1  0.37036915  -0.01169284  0.50910462  1
  Hf  Hf17  1  0.19390600  0.20713785  0.23512015  1
  Hf  Hf18  1  0.50343894  0.27435365  0.13181241  1
  Hf  Hf19  1  0.49327748  0.10378377  0.36355386  1
  Hf  Hf20  1  0.90204805  0.49405527  0.61371458  1
  Hf  Hf21  1  0.20045001  0.40091381  0.74460389  1
  Hf  Hf22  1  0.81011436  0.38972609  0.26368891  1
  Hf  Hf23  1  0.59593002  0.40513997  0.49644584  1
  Hf  Hf24  1  0.30006268  0.30052290  0.10344672  1
  Hf  Hf25  1  0.88947516  0.69660030  0.61768053  1
  Hf  Hf26  1  0.39998646  0.80106350  0.76757473  1
  Hf  Hf27  1  0.62239024  0.60041716  0.00178897  1
  Hf  Hf28  1  0.38824039  0.79608180  0.25862389  1
  Hf  Hf29  1  0.90347271  0.49678284  0.14435499  1
  Hf  Hf30  1  0.29520137  0.48991315  0.37641646  1
  Hf  Hf31  1  0.20761151  0.82883696  0.50712081  1
  Hf  Hf32  1  0.31282033  0.71560285  0.61772905  1
  Hf  Hf33  1  0.49159941  0.90245006  0.37891297  1
  Hf  Hf34  1  0.89351894  0.89256620  0.88059835  1
  Hf  Hf35  1  0.61325109  0.60584506  0.75964878  1
  Hf  Hf36  1  0.29563709  0.29778808  0.37395587  1
  Hf  Hf37  1  0.79911086  0.80533604  0.24809305  1
  Hf  Hf38  1  0.61773421  0.39245721  -0.00560787  1
  Hf  Hf39  1  0.68407871  0.90281027  0.12594194  1
  Zr  Zr40  1  0.48734764  0.89027119  0.62280373  1
  Zr  Zr41  1  0.29472130  0.49472959  0.89671382  1
  Zr  Zr42  1  0.29738674  0.69156783  0.88726937  1
  Zr  Zr43  1  0.69473636  0.89374473  0.61433677  1
  Zr  Zr44  1  0.71092771  0.50523761  0.62329396  1
  Zr  Zr45  1  -0.00689038  0.00013549  0.76045385  1
  Zr  Zr46  1  0.41706100  0.59901239  0.01909702  1
  Zr  Zr47  1  0.19626614  0.19150259  0.50334678  1
  Zr  Zr48  1  0.77785075  0.21111632  -0.00648532  1
  Zr  Zr49  1  0.28332310  0.70662201  0.11579751  1
  Zr  Zr50  1  0.40277344  0.59922951  0.75070568  1
  Zr  Zr51  1  0.79046321  0.78051522  0.00812248  1
  Zr  Zr52  1  -0.00193298  0.20229122  -0.00734836  1
  Zr  Zr53  1  0.90192261  0.70966392  0.38663095  1
  Zr  Zr54  1  0.31771812  0.10140906  0.12061167  1
  Zr  Zr55  1  0.00385036  0.40997256  0.00832474  1
  Zr  Zr56  1  0.91589369  0.68919668  0.13776181  1
  Zr  Zr57  1  0.20248784  0.60941493  0.49479447  1
  Zr  Zr58  1  0.00659727  0.81364834  0.51704365  1
  Zr  Zr59  1  0.89264527  0.68533208  0.86557802  1
  Zr  Zr60  1  0.30207040  0.49672789  0.61174816  1
  Zr  Zr61  1  0.89382993  0.11017216  0.62420561  1
  Zr  Zr62  1  0.09180324  0.10393979  0.36452927  1
  Zr  Zr63  1  0.00940970  0.79332989  0.00217057  1
  Zr  Zr64  1  0.49262188  0.90846499  0.11821929  1
  Zr  Zr65  1  0.89563102  0.09641136  0.11154273  1
  Zr  Zr66  1  0.29297249  0.09147113  0.36559599  1
  Zr  Zr67  1  0.69956620  0.70152209  0.60500765  1
  Zr  Zr68  1  0.79876383  0.60211233  0.26484173  1
  Zr  Zr69  1  0.71704552  0.29943522  0.61728315  1
  Zr  Zr70  1  0.41374115  0.60084778  0.48206512  1
  Zr  Zr71  1  0.80308855  0.19141416  0.24766103  1
  Zr  Zr72  1  0.39886564  0.19662770  0.50976752  1
  Zr  Zr73  1  0.77953469  -0.00376503  -0.00737609  1
  Zr  Zr74  1  -0.00446734  0.21327388  0.76511133  1
  Zr  Zr75  1  0.40653561  0.60176867  0.25255147  1
  Zr  Zr76  1  0.90868352  0.09951770  0.37677141  1
  Zr  Zr77  1  0.09536860  0.69452659  0.85920309  1
  Zr  Zr78  1  0.60242288  0.79865774  -0.00888852  1
  Zr  Zr79  1  0.10114149  0.71035356  0.36719222  1
  Ta  Ta80  1  0.19844813  0.19566241  -0.01199077  1
  Ta  Ta81  1  0.51022096  0.50475270  0.62748856  1
  Ta  Ta82  1  0.59646911  0.20462322  0.74613295  1
  Ta  Ta83  1  0.69819913  0.89985915  0.38263371  1
  Ta  Ta84  1  0.59165342  0.00305508  0.50210397  1
  Ta  Ta85  1  0.29299194  0.09851981  0.65441313  1
  Ta  Ta86  1  0.59943981  -0.00384163  0.75205636  1
  Ta  Ta87  1  0.01002058  -0.00465251  -0.01068861  1
  Ta  Ta88  1  0.70093596  0.29152430  0.37543039  1
  Ta  Ta89  1  0.50451643  0.90596173  0.88030552  1
  Ta  Ta90  1  0.78836298  -0.00164897  0.75733535  1
  Ta  Ta91  1  0.91171729  0.90568259  0.37379495  1
  Ta  Ta92  1  0.09896823  0.50195044  0.86526724  1
  Ta  Ta93  1  0.91211855  0.29342271  0.38907831  1
  Ta  Ta94  1  0.29924734  0.28830399  0.63601708  1
  Ta  Ta95  1  0.88251063  0.32474126  0.88424389  1
  Ta  Ta96  1  0.78777835  0.79687882  0.75801118  1
  Ta  Ta97  1  -0.00349839  0.80218976  0.74083686  1
  Ta  Ta98  1  0.10373750  0.70193631  0.63003807  1
  Ta  Ta99  1  0.39285471  -0.00249972  0.76698910  1
  Ta  Ta100  1  0.40809669  0.39260629  0.50869020  1
  Ta  Ta101  1  0.69182144  0.70579704  0.37533636  1
  Ta  Ta102  1  0.29264074  0.50159616  0.11896817  1
  Ta  Ta103  1  0.20014331  0.80832466  0.75163344  1
  Ta  Ta104  1  0.01614202  -0.00156768  0.51721815  1
  Ta  Ta105  1  0.69680511  0.09924139  0.38818926  1
  Ta  Ta106  1  0.70216350  0.49975050  0.14192758  1
  Ta  Ta107  1  0.00173170  0.21987070  0.23312356  1
  Ta  Ta108  1  0.69712265  0.09714434  0.62314494  1
  Ta  Ta109  1  0.72796369  0.48951936  0.86349089  1
  Ta  Ta110  1  0.10629263  0.31239862  0.88242899  1
  Ta  Ta111  1  0.50710519  0.69946733  0.61770688  1
  Ta  Ta112  1  0.90710982  0.50092183  0.86117235  1
  Ta  Ta113  1  0.10012860  0.49617331  0.61693156  1
  Ta  Ta114  1  0.60024114  0.79843203  0.76134294  1
  Ta  Ta115  1  0.10130678  0.91164189  0.36613088  1
  Ta  Ta116  1  0.61078075  0.39568014  0.74819069  1
  Ta  Ta117  1  0.19110022  0.39631613  0.23438790  1
  Ta  Ta118  1  0.20220296  0.60043476  0.73910508  1
  Ta  Ta119  1  0.41629254  0.18467135  -0.01779605  1
  Ti  Ti120  1  0.89017950  0.89804778  0.63132483  1
  Ti  Ti121  1  -0.00144862  0.59970223  -0.00320428  1
  Ti  Ti122  1  0.59682766  0.59712482  0.47957019  1
  Ti  Ti123  1  0.09778500  0.31148624  0.38319013  1
  Ti  Ti124  1  -0.00002253  0.39889428  0.74522858  1
  Ti  Ti125  1  -0.00239815  -0.00063697  0.23060293  1
  Ti  Ti126  1  0.00505089  0.80707557  0.24269865  1
  Ti  Ti127  1  0.41577110  0.39905043  0.00904918  1
  Ti  Ti128  1  0.80395768  0.58687341  0.00764374  1
  Ti  Ti129  1  0.00305182  0.59603180  0.73275323  1
  Ti  Ti130  1  0.20770902  0.61059159  0.25892297  1
  Ti  Ti131  1  0.39796121  0.00156714  -0.01872989  1
  Ti  Ti132  1  0.66833434  0.10460477  0.11936249  1
  Ti  Ti133  1  0.09597514  0.10366869  0.11566765  1
  Ti  Ti134  1  0.59998526  0.00222121  0.25915997  1
  Ti  Ti135  1  0.79320969  0.59357883  0.47782552  1
  Ti  Ti136  1  0.19516881  0.81131893  -0.02277669  1
  Ti  Ti137  1  0.17997084  0.60240431  0.00505505  1
  Ti  Ti138  1  0.58771600  0.79604995  0.48793119  1
  Ti  Ti139  1  0.90066689  0.90002905  0.11269604  1
  Ti  Ti140  1  0.50978618  0.29311317  0.87488990  1
  Ti  Ti141  1  0.00537774  0.19927986  0.50823761  1
  Ti  Ti142  1  0.80162305  0.39789176  0.48189748  1
  Ti  Ti143  1  0.40060506  0.80078941  -0.00543270  1
  Ti  Ti144  1  0.29870126  0.89586918  0.11168867  1
  Ti  Ti145  1  0.10451471  0.88751344  0.12332295  1
  Ti  Ti146  1  0.10697279  0.49010448  0.37667994  1
  Ti  Ti147  1  0.89612174  0.30559080  0.11478929  1
  Ti  Ti148  1  0.68546203  0.49330791  0.35869388  1
  Ti  Ti149  1  0.10444171  0.30139322  0.62527950  1
  Ti  Ti150  1  0.39607981  -0.00581389  0.24643803  1
  Ti  Ti151  1  0.90566111  0.30391551  0.60904340  1
  Ti  Ti152  1  0.59481667  0.79846646  0.25727243  1
  Ti  Ti153  1  0.01002822  0.60010970  0.49974053  1
  Ti  Ti154  1  0.89245697  0.09918609  0.88468385  1
  Ti  Ti155  1  0.51447501  0.70423979  0.13108494  1
  Ti  Ti156  1  0.19739610  -0.00197679  0.78111967  1
  Ti  Ti157  1  0.67815012  0.10078485  0.87431174  1
  Ti  Ti158  1  0.50303337  0.69614132  0.88201268  1
  Ti  Ti159  1  0.51897852  0.49124856  0.13704767  1
  Mo  Mo160  1  0.60122458  0.39826557  0.25537290  1
  Mo  Mo161  1  0.09480013  0.89767672  0.86653945  1
  Mo  Mo162  1  0.70488963  0.69243775  0.87081759  1
  Mo  Mo163  1  0.29923314  0.70815837  0.38167181  1
  Mo  Mo164  1  0.01077725  0.38849522  0.24826607  1
  Mo  Mo165  1  0.69513269  0.89975345  0.86822143  1
  Mo  Mo166  1  0.10228535  0.30237963  0.10499491  1
  Mo  Mo167  1  0.49877289  0.10133317  0.85570308  1
  Mo  Mo168  1  0.20338895  0.39219047  0.51257542  1
  Mo  Mo169  1  0.50122247  0.49471904  0.36433823  1
  Mo  Mo170  1  0.09802468  0.10666368  0.87244093  1
  Mo  Mo171  1  0.20015097  0.80919818  0.25213051  1
  Mo  Mo172  1  0.39457634  0.19679222  0.24480597  1
  Mo  Mo173  1  0.50330419  0.09206100  0.13526947  1
  Mo  Mo174  1  0.19584002  0.40717102  0.01061290  1
  Mo  Mo175  1  0.81541553  0.39616963  0.74043648  1
  Mo  Mo176  1  0.80143015  0.20045060  0.49222548  1
  Mo  Mo177  1  0.69238520  0.69622027  0.14945260  1
  Mo  Mo178  1  0.69798328  0.30508780  0.86164262  1
  Mo  Mo179  1  0.30142743  0.89779038  0.87999836  1
  Mo  Mo180  1  0.80107318  0.80575677  0.48272992  1
  Mo  Mo181  1  0.01028552  0.59942201  0.27620404  1
  Mo  Mo182  1  0.39751798  0.79740395  0.48321951  1
  Mo  Mo183  1  0.29921039  0.10386675  0.87053211  1
  Mo  Mo184  1  0.58403247  0.01350831  -0.01546073  1
  Mo  Mo185  1  0.10427222  0.70461911  0.14023316  1
  Mo  Mo186  1  0.79824453  0.41234762  0.01166905  1
  Mo  Mo187  1  0.50247932  0.30444952  0.63316107  1
  Mo  Mo188  1  0.29304195  0.91101063  0.65259424  1
  Mo  Mo189  1  0.18734536  0.00063414  0.51179114  1
  Mo  Mo190  1  0.50459961  0.70350045  0.37500204  1
  Mo  Mo191  1  0.28867986  0.90274673  0.36335512  1
  Mo  Mo192  1  0.19918740  0.20443854  0.76963176  1
  Mo  Mo193  1  0.39981701  0.20103993  0.76154194  1
  Mo  Mo194  1  0.01211273  0.39089320  0.50749777  1
  Mo  Mo195  1  0.59816451  0.60276573  0.25264411  1
  Mo  Mo196  1  0.59476880  0.19826196  -0.01444157  1
  Mo  Mo197  1  0.10128455  0.90553891  0.64996349  1
  Mo  Mo198  1  0.80729481  0.59843585  0.74420248  1
  Mo  Mo199  1  0.60482117  0.18784429  0.26403782  1
