# generated using pymatgen
data_HfZrTaTiMo
_symmetry_space_group_name_H-M   'P 1'
_cell_length_a   15.83709166
_cell_length_b   15.83766990
_cell_length_c   15.43928448
_cell_angle_alpha   89.95282129
_cell_angle_beta   90.03385316
_cell_angle_gamma   89.95690649
_symmetry_Int_Tables_number   1
_chemical_formula_structural   HfZrTaTiMo
_chemical_formula_sum   'Hf40 Zr40 Ta40 Ti40 Mo40'
_cell_volume   3872.51885306
_cell_formula_units_Z   40
loop_
 _symmetry_equiv_pos_site_id
 _symmetry_equiv_pos_as_xyz
  1  'x, y, z'
loop_
 _atom_site_type_symbol
 _atom_site_label
 _atom_site_symmetry_multiplicity
 _atom_site_fract_x
 _atom_site_fract_y
 _atom_site_fract_z
 _atom_site_occupancy
  Hf  Hf0  1  0.41819150  0.00849879  0.49613105  1
  Hf  Hf1  1  0.81890311  -0.00039877  0.75638738  1
  Hf  Hf2  1  0.40005527  0.59130058  0.24894727  1
  Hf  Hf3  1  0.59008593  0.60759440  0.74126403  1
  Hf  Hf4  1  0.80412134  0.19227971  0.50073336  1
  Hf  Hf5  1  0.40164795  0.80289920  0.50475797  1
  Hf  Hf6  1  0.79733233  0.40269415  0.23202905  1
  Hf  Hf7  1  0.09639646  0.70663329  0.88654937  1
  Hf  Hf8  1  0.81285446  0.78678614  0.75281188  1
  Hf  Hf9  1  0.40675755  0.40055934  0.75026793  1
  Hf  Hf10  1  0.60256897  -0.00123370  0.76749703  1
  Hf  Hf11  1  0.59850558  0.40321114  0.23999180  1
  Hf  Hf12  1  -0.00117986  0.39601426  0.22974310  1
  Hf  Hf13  1  0.29594357  0.69215530  0.38693356  1
  Hf  Hf14  1  0.89654099  0.90501440  0.10661065  1
  Hf  Hf15  1  0.29951427  0.89342516  0.86670380  1
  Hf  Hf16  1  0.51037702  0.10291824  0.63533824  1
  Hf  Hf17  1  0.29858093  0.69744561  0.87070353  1
  Hf  Hf18  1  0.31365806  0.12001387  0.37273135  1
  Hf  Hf19  1  0.18892104  0.80249000  0.73943762  1
  Hf  Hf20  1  0.30695191  0.91198933  0.36949642  1
  Hf  Hf21  1  0.70058147  0.70282202  0.11454881  1
  Hf  Hf22  1  -0.00391816  0.19495801  0.75738331  1
  Hf  Hf23  1  0.41053666  0.20791816  0.75423669  1
  Hf  Hf24  1  0.69363157  0.29613661  0.61343439  1
  Hf  Hf25  1  0.61005012  0.19288319  0.25489269  1
  Hf  Hf26  1  0.89505593  0.70379895  0.11386190  1
  Hf  Hf27  1  0.51176659  0.29092503  0.11211800  1
  Hf  Hf28  1  0.09747460  0.10503094  0.12698845  1
  Hf  Hf29  1  0.19171189  0.40118877  0.01280032  1
  Hf  Hf30  1  0.19800822  0.01493649  0.49728483  1
  Hf  Hf31  1  0.59424588  0.59713306  0.24050203  1
  Hf  Hf32  1  0.39415921  0.38788905  0.23920441  1
  Hf  Hf33  1  0.09702660  0.91072164  0.36784180  1
  Hf  Hf34  1  0.40240758  0.78890184  0.25065638  1
  Hf  Hf35  1  0.88028160  0.91098078  0.36780044  1
  Hf  Hf36  1  0.09424418  0.90342870  0.12003429  1
  Hf  Hf37  1  0.51747861  0.30878329  0.89206991  1
  Hf  Hf38  1  -0.00656037  0.80114512  0.24838673  1
  Hf  Hf39  1  0.90425683  0.51033441  0.61893199  1
  Zr  Zr40  1  -0.01070667  0.80255405  0.49376965  1
  Zr  Zr41  1  0.30046939  0.09277781  0.86456833  1
  Zr  Zr42  1  0.80652401  0.20423984  0.76011259  1
  Zr  Zr43  1  0.79166471  0.59893885  0.75661918  1
  Zr  Zr44  1  0.77695237  0.01569832  -0.00524348  1
  Zr  Zr45  1  0.20396624  -0.00168777  0.00073811  1
  Zr  Zr46  1  0.89500954  0.49791165  0.88908452  1
  Zr  Zr47  1  0.19474964  0.80670986  0.50297271  1
  Zr  Zr48  1  0.69415644  0.71081258  0.36819058  1
  Zr  Zr49  1  0.19368190  0.59958663  0.24439373  1
  Zr  Zr50  1  0.39639892  0.40353361  0.00897578  1
  Zr  Zr51  1  0.59130253  0.18165364  0.48719717  1
  Zr  Zr52  1  0.29903987  0.10710802  0.62858693  1
  Zr  Zr53  1  0.48145054  0.28876358  0.38242694  1
  Zr  Zr54  1  0.79156747  0.39590643  0.74798281  1
  Zr  Zr55  1  0.19172355  0.57314047  0.49384513  1
  Zr  Zr56  1  0.90398120  0.11477611  0.10619729  1
  Zr  Zr57  1  0.10456470  0.49900544  0.65645690  1
  Zr  Zr58  1  0.20014168  0.20262234  0.00199937  1
  Zr  Zr59  1  0.91026068  0.30759203  0.38996950  1
  Zr  Zr60  1  0.89997180  0.50541309  0.38194102  1
  Zr  Zr61  1  0.59428794  0.80507352  0.50454569  1
  Zr  Zr62  1  0.70382500  0.30956475  0.38808533  1
  Zr  Zr63  1  0.19657062  0.79507130  0.25300453  1
  Zr  Zr64  1  0.30786926  0.90171542  0.13313006  1
  Zr  Zr65  1  0.88737499  0.69981925  0.36262918  1
  Zr  Zr66  1  0.51614389  0.08489215  0.11869678  1
  Zr  Zr67  1  0.07935853  0.69121610  0.61791395  1
  Zr  Zr68  1  0.29324865  0.68494255  0.62308311  1
  Zr  Zr69  1  0.68825320  0.49042456  0.89666236  1
  Zr  Zr70  1  0.41609443  0.78906423  0.73676272  1
  Zr  Zr71  1  0.81023414  0.20543359  0.25255877  1
  Zr  Zr72  1  0.70146653  0.50529635  0.39016869  1
  Zr  Zr73  1  0.10731838  0.29783217  0.63906985  1
  Zr  Zr74  1  0.09610658  0.50276699  0.87019122  1
  Zr  Zr75  1  0.02365819  0.40609249  0.50288247  1
  Zr  Zr76  1  0.49833821  0.51111404  0.88289232  1
  Zr  Zr77  1  0.38773902  0.60772517  0.01220071  1
  Zr  Zr78  1  0.69811414  0.89957231  0.64077937  1
  Zr  Zr79  1  0.70179058  0.88399963  0.87660702  1
  Ta  Ta80  1  0.90752221  0.10118090  0.38006282  1
  Ta  Ta81  1  0.40202873  0.19251983  0.00021016  1
  Ta  Ta82  1  0.70484933  0.09719873  0.63416004  1
  Ta  Ta83  1  0.50320646  0.09772419  0.88038605  1
  Ta  Ta84  1  0.00216729  0.00691205  0.49371327  1
  Ta  Ta85  1  0.58492546  0.40155469  0.50950301  1
  Ta  Ta86  1  0.09649708  0.30259842  0.87021375  1
  Ta  Ta87  1  0.69551528  0.70102198  0.62397895  1
  Ta  Ta88  1  0.89042529  0.50449727  0.10789610  1
  Ta  Ta89  1  0.01838496  0.19480895  0.49789721  1
  Ta  Ta90  1  0.00139862  0.38866711  0.01289325  1
  Ta  Ta91  1  0.61925430  -0.01493077  0.24798619  1
  Ta  Ta92  1  0.80222460  -0.00184591  0.51195843  1
  Ta  Ta93  1  0.29223237  0.49637249  0.13334166  1
  Ta  Ta94  1  0.30090738  0.30329825  0.87894557  1
  Ta  Ta95  1  0.40421280  0.19501967  0.22990519  1
  Ta  Ta96  1  0.10688397  0.11332475  0.36142128  1
  Ta  Ta97  1  0.09555711  0.70264462  0.11319229  1
  Ta  Ta98  1  0.71031571  0.29228353  0.10430118  1
  Ta  Ta99  1  0.50926217  0.89781409  0.35727333  1
  Ta  Ta100  1  0.90414324  0.30131211  0.61143591  1
  Ta  Ta101  1  0.09783598  0.49193514  0.35464265  1
  Ta  Ta102  1  0.59122415  0.60155336  0.50654858  1
  Ta  Ta103  1  -0.01604641  0.61980088  0.76194364  1
  Ta  Ta104  1  0.48996309  0.50070207  0.62007155  1
  Ta  Ta105  1  0.50525506  0.89663243  0.12748354  1
  Ta  Ta106  1  0.62335710  0.18250117  -0.01429306  1
  Ta  Ta107  1  0.29039369  0.50294613  0.86586212  1
  Ta  Ta108  1  0.71418663  0.08151625  0.37072790  1
  Ta  Ta109  1  -0.00588990  0.01076679  0.25244239  1
  Ta  Ta110  1  0.49876034  0.70548336  0.11555221  1
  Ta  Ta111  1  0.40553690  -0.00632521  -0.00327145  1
  Ta  Ta112  1  0.49835006  0.89151623  0.88215302  1
  Ta  Ta113  1  0.29922504  0.91217077  0.63234515  1
  Ta  Ta114  1  0.19921449  0.19828796  0.76360926  1
  Ta  Ta115  1  0.60909857  0.20929565  0.76286157  1
  Ta  Ta116  1  0.38219282  0.39382128  0.50869719  1
  Ta  Ta117  1  0.91186828  0.09844924  0.61898471  1
  Ta  Ta118  1  0.79615031  0.80562022  0.51050586  1
  Ta  Ta119  1  0.12094575  0.30560144  0.36235792  1
  Ti  Ti120  1  0.90913836  0.90309024  0.62374506  1
  Ti  Ti121  1  0.39728262  0.58708664  0.49853339  1
  Ti  Ti122  1  0.60958168  -0.00430824  0.48939757  1
  Ti  Ti123  1  0.50603373  0.90213010  0.63438064  1
  Ti  Ti124  1  0.90829612  0.09965655  0.89102168  1
  Ti  Ti125  1  0.09864430  0.09375927  0.87789616  1
  Ti  Ti126  1  0.00478433  0.59436845  0.00643697  1
  Ti  Ti127  1  0.09912103  0.89999700  0.88338151  1
  Ti  Ti128  1  0.49856892  0.69486054  0.38022201  1
  Ti  Ti129  1  0.69113179  0.69345934  0.89232994  1
  Ti  Ti130  1  0.29578580  0.30420580  0.63807619  1
  Ti  Ti131  1  0.39904827  0.59998211  0.74667745  1
  Ti  Ti132  1  0.69736343  0.50042601  0.61295649  1
  Ti  Ti133  1  0.30885221  0.09578826  0.12713501  1
  Ti  Ti134  1  0.20300353  0.01231423  0.25008180  1
  Ti  Ti135  1  0.00715008  -0.00508239  0.75853635  1
  Ti  Ti136  1  -0.00489924  0.80498399  0.75195308  1
  Ti  Ti137  1  0.80100138  0.61414832  0.50950819  1
  Ti  Ti138  1  0.28761601  0.47328355  0.36499366  1
  Ti  Ti139  1  0.29061613  0.49319127  0.64242217  1
  Ti  Ti140  1  -0.00415524  0.59672181  0.23575161  1
  Ti  Ti141  1  0.77394997  0.82444062  0.23536948  1
  Ti  Ti142  1  -0.01633294  0.39380629  0.75595132  1
  Ti  Ti143  1  0.10279014  0.09680278  0.63468128  1
  Ti  Ti144  1  0.89425480  0.70432783  0.90362268  1
  Ti  Ti145  1  0.79921585  0.00966444  0.23017309  1
  Ti  Ti146  1  0.08594283  0.68587226  0.37874808  1
  Ti  Ti147  1  0.09666972  0.91280033  0.62414521  1
  Ti  Ti148  1  0.00227049  0.20638007  0.25234629  1
  Ti  Ti149  1  0.59672058  0.39890450  0.73623585  1
  Ti  Ti150  1  0.40439822  -0.00350670  0.75173860  1
  Ti  Ti151  1  0.50550995  0.70653274  0.89251732  1
  Ti  Ti152  1  0.79267169  0.59306117  0.23886179  1
  Ti  Ti153  1  0.59925036  0.80857668  0.00867509  1
  Ti  Ti154  1  0.21457475  0.21619648  0.23418520  1
  Ti  Ti155  1  0.19726907  0.59730202  0.01262366  1
  Ti  Ti156  1  0.20994594  0.21812903  0.49764753  1
  Ti  Ti157  1  0.49396058  0.49330198  0.38523055  1
  Ti  Ti158  1  0.21320567  0.79262583  0.01101211  1
  Ti  Ti159  1  0.91239983  0.89607668  0.89519410  1
  Mo  Mo160  1  0.49628508  0.30086889  0.61754005  1
  Mo  Mo161  1  0.00682067  0.20306205  -0.01706420  1
  Mo  Mo162  1  0.30421103  0.29057656  0.10951758  1
  Mo  Mo163  1  0.60208322  0.40126835  0.02157354  1
  Mo  Mo164  1  0.90140817  0.29853045  0.10831087  1
  Mo  Mo165  1  0.09062711  0.50532049  0.12676325  1
  Mo  Mo166  1  0.80435846  0.20543122  -0.01980320  1
  Mo  Mo167  1  0.49831497  0.50181388  0.12091187  1
  Mo  Mo168  1  0.00455043  0.80050409  -0.00031301  1
  Mo  Mo169  1  0.59691535  0.79845268  0.24071178  1
  Mo  Mo170  1  0.09916248  0.29340351  0.13471891  1
  Mo  Mo171  1  0.29536404  0.69887985  0.12323631  1
  Mo  Mo172  1  0.79444084  0.40276394  0.51939824  1
  Mo  Mo173  1  0.50659267  0.08594413  0.35439956  1
  Mo  Mo174  1  0.69877373  0.50217666  0.11302957  1
  Mo  Mo175  1  0.19511784  0.60335827  0.75589933  1
  Mo  Mo176  1  0.39565147  0.20566107  0.52188246  1
  Mo  Mo177  1  0.59877088  0.78974051  0.75299423  1
  Mo  Mo178  1  0.70322478  0.90207315  0.37890364  1
  Mo  Mo179  1  0.40986261  0.00364885  0.25171887  1
  Mo  Mo180  1  0.69420829  0.90514447  0.10966943  1
  Mo  Mo181  1  0.80237312  0.39675419  0.00988383  1
  Mo  Mo182  1  0.70342236  0.30227028  0.88844189  1
  Mo  Mo183  1  0.79639285  0.60154695  -0.00389707  1
  Mo  Mo184  1  0.40150326  0.80373266  0.00430209  1
  Mo  Mo185  1  0.20679563  0.39384900  0.76928442  1
  Mo  Mo186  1  0.49560400  0.69080991  0.61147859  1
  Mo  Mo187  1  0.19829864  0.39500468  0.22976859  1
  Mo  Mo188  1  0.89267058  0.70408476  0.62294706  1
  Mo  Mo189  1  0.59378003  0.60285633  0.01532986  1
  Mo  Mo190  1  0.79804459  0.80134105  -0.00702547  1
  Mo  Mo191  1  0.18956307  -0.00262401  0.74733830  1
  Mo  Mo192  1  -0.00319212  0.59903598  0.48601653  1
  Mo  Mo193  1  0.00469011  0.00190882  -0.01382309  1
  Mo  Mo194  1  0.29794778  0.29877929  0.37301238  1
  Mo  Mo195  1  0.70236012  0.10442894  0.13461990  1
  Mo  Mo196  1  0.90553035  0.30163012  0.89107322  1
  Mo  Mo197  1  0.70481147  0.10034640  0.85299962  1
  Mo  Mo198  1  0.59531376  -0.00278502  -0.01242699  1
  Mo  Mo199  1  0.20734708  0.39591692  0.50168806  1
