# generated using pymatgen
data_HfZrTaTiMo
_symmetry_space_group_name_H-M   'P 1'
_cell_length_a   15.84269885
_cell_length_b   15.83207686
_cell_length_c   15.39800343
_cell_angle_alpha   89.96618957
_cell_angle_beta   89.96659308
_cell_angle_gamma   90.20065306
_symmetry_Int_Tables_number   1
_chemical_formula_structural   HfZrTaTiMo
_chemical_formula_sum   'Hf40 Zr40 Ta40 Ti40 Mo40'
_cell_volume   3862.14571617
_cell_formula_units_Z   40
loop_
 _symmetry_equiv_pos_site_id
 _symmetry_equiv_pos_as_xyz
  1  'x, y, z'
loop_
 _atom_site_type_symbol
 _atom_site_label
 _atom_site_symmetry_multiplicity
 _atom_site_fract_x
 _atom_site_fract_y
 _atom_site_fract_z
 _atom_site_occupancy
  Hf  Hf0  1  0.12431437  0.51593785  0.12115317  1
  Hf  Hf1  1  0.39422055  0.19604876  -0.01249166  1
  Hf  Hf2  1  0.69440325  0.89779317  0.12473776  1
  Hf  Hf3  1  0.49795392  0.51343919  0.12724154  1
  Hf  Hf4  1  0.00344271  -0.00295190  0.49955107  1
  Hf  Hf5  1  0.40284587  0.40468674  0.75192505  1
  Hf  Hf6  1  0.39310433  0.80059535  0.74924944  1
  Hf  Hf7  1  0.89972111  0.09937921  0.37461447  1
  Hf  Hf8  1  0.58597041  0.79816371  -0.00912459  1
  Hf  Hf9  1  0.60704085  0.20986652  0.24742003  1
  Hf  Hf10  1  0.80417964  0.39895899  0.51976360  1
  Hf  Hf11  1  0.29280120  0.50311711  0.63075407  1
  Hf  Hf12  1  0.11403637  0.69370950  0.62214343  1
  Hf  Hf13  1  0.80118437  0.00582111  0.24999450  1
  Hf  Hf14  1  0.49167050  0.09629396  0.12649174  1
  Hf  Hf15  1  0.10759300  0.09568497  0.63282153  1
  Hf  Hf16  1  0.69533722  0.89953537  0.38407262  1
  Hf  Hf17  1  0.89980019  0.49836238  0.37950142  1
  Hf  Hf18  1  0.09356533  0.89591866  0.86262292  1
  Hf  Hf19  1  0.79731870  0.79451952  0.25697273  1
  Hf  Hf20  1  0.10414020  0.49502911  0.36368019  1
  Hf  Hf21  1  0.70127772  0.49792123  0.38102129  1
  Hf  Hf22  1  0.58115137  0.80479107  0.25787458  1
  Hf  Hf23  1  -0.00422082  0.40975604  0.22694998  1
  Hf  Hf24  1  0.01411309  0.20700997  0.49355237  1
  Hf  Hf25  1  0.68074791  0.09580364  0.62354919  1
  Hf  Hf26  1  0.18765238  0.39246944  0.49696658  1
  Hf  Hf27  1  0.28530329  0.68002413  0.12229566  1
  Hf  Hf28  1  0.80081822  0.58932572  0.23847102  1
  Hf  Hf29  1  0.70250485  0.11107029  0.38787784  1
  Hf  Hf30  1  -0.00259162  0.78674860  0.74174545  1
  Hf  Hf31  1  0.39842774  0.80289991  0.00498170  1
  Hf  Hf32  1  0.70385920  0.30896778  0.86692869  1
  Hf  Hf33  1  0.50819308  0.31552453  0.37187605  1
  Hf  Hf34  1  0.89934769  0.30385070  0.36560415  1
  Hf  Hf35  1  0.31633052  0.30035610  0.39309069  1
  Hf  Hf36  1  0.09774828  0.09751966  0.13214761  1
  Hf  Hf37  1  0.68699280  0.88187616  0.62031435  1
  Hf  Hf38  1  0.90212074  0.70311965  0.11809625  1
  Hf  Hf39  1  0.80475436  0.20067039  0.74276703  1
  Zr  Zr40  1  0.00109110  0.79688763  0.49895623  1
  Zr  Zr41  1  0.00461609  0.59093014  0.50357896  1
  Zr  Zr42  1  0.21682793  0.19169970  0.77534481  1
  Zr  Zr43  1  0.09886946  0.08553695  0.86958292  1
  Zr  Zr44  1  0.49751366  0.90485630  0.62320959  1
  Zr  Zr45  1  0.01168061  0.61945517  0.24556836  1
  Zr  Zr46  1  0.10344856  0.29564178  0.65587124  1
  Zr  Zr47  1  0.69464520  0.90196746  0.86391800  1
  Zr  Zr48  1  0.91396724  0.49648183  0.88370724  1
  Zr  Zr49  1  0.59015167  0.00106692  0.25648542  1
  Zr  Zr50  1  0.11092924  0.29644228  0.13015455  1
  Zr  Zr51  1  0.70554904  0.53123664  0.61587962  1
  Zr  Zr52  1  0.40165072  0.60485295  0.50284926  1
  Zr  Zr53  1  0.79824839  -0.00284055  0.73134516  1
  Zr  Zr54  1  0.59609323  0.60390245  -0.01671603  1
  Zr  Zr55  1  0.39431025  -0.00372628  0.48454757  1
  Zr  Zr56  1  0.30334813  0.10478563  0.60808407  1
  Zr  Zr57  1  0.88044475  0.68474195  0.61947794  1
  Zr  Zr58  1  0.23379358  0.40202686  0.24974776  1
  Zr  Zr59  1  0.19660536  0.80123600  0.00735376  1
  Zr  Zr60  1  0.79196032  0.59943254  0.77506852  1
  Zr  Zr61  1  0.81253960  0.40664999  0.73564232  1
  Zr  Zr62  1  0.49159164  0.11598595  0.38133880  1
  Zr  Zr63  1  0.00340931  0.80988960  0.00829695  1
  Zr  Zr64  1  0.81061623  0.19496979  -0.01885030  1
  Zr  Zr65  1  0.81264728  0.40073897  0.01069880  1
  Zr  Zr66  1  0.30207800  0.29586138  0.62506667  1
  Zr  Zr67  1  0.59754295  0.20438769  -0.01013271  1
  Zr  Zr68  1  0.80913798  -0.00148270  -0.00022884  1
  Zr  Zr69  1  0.71108267  0.10912255  0.12398361  1
  Zr  Zr70  1  0.50482832  0.29873665  0.63636210  1
  Zr  Zr71  1  0.48951753  0.31383892  0.12264599  1
  Zr  Zr72  1  0.49850689  0.49997456  0.37569735  1
  Zr  Zr73  1  0.90237745  0.26693547  0.13587827  1
  Zr  Zr74  1  0.38457846  0.20595256  0.23996529  1
  Zr  Zr75  1  0.39427393  0.01155207  0.75765424  1
  Zr  Zr76  1  0.80848317  0.20479823  0.52039189  1
  Zr  Zr77  1  0.68816799  0.69721471  0.12441633  1
  Zr  Zr78  1  0.37752894  0.58917843  0.26381186  1
  Zr  Zr79  1  0.58742691  -0.00143540  -0.00080716  1
  Ta  Ta80  1  0.61101843  0.41330614  0.23387024  1
  Ta  Ta81  1  0.79838894  0.40163630  0.23182538  1
  Ta  Ta82  1  0.51491962  0.71045135  0.62749349  1
  Ta  Ta83  1  0.60679735  0.62580715  0.48614944  1
  Ta  Ta84  1  0.89436718  0.88901590  0.62388605  1
  Ta  Ta85  1  0.69602664  0.09571915  0.86213749  1
  Ta  Ta86  1  0.90430037  0.90105166  0.14051744  1
  Ta  Ta87  1  -0.00197695  0.39352460  0.51959002  1
  Ta  Ta88  1  0.90351381  0.90025548  0.85816033  1
  Ta  Ta89  1  0.20394574  0.39637641  -0.00869880  1
  Ta  Ta90  1  0.78623439  0.78326651  0.48917280  1
  Ta  Ta91  1  0.92277993  0.29902396  0.85920986  1
  Ta  Ta92  1  0.70126351  0.30252880  0.12005938  1
  Ta  Ta93  1  0.29735524  0.69831689  0.87706498  1
  Ta  Ta94  1  0.00552713  0.19429913  -0.01355529  1
  Ta  Ta95  1  0.20019585  0.19881465  0.26707824  1
  Ta  Ta96  1  0.39338191  -0.00659238  0.25737989  1
  Ta  Ta97  1  0.79112929  0.78848806  0.75811875  1
  Ta  Ta98  1  0.79703096  0.59836072  -0.00144644  1
  Ta  Ta99  1  0.29148253  0.89920868  0.14467867  1
  Ta  Ta100  1  0.09889632  0.68728340  0.87812300  1
  Ta  Ta101  1  0.30370764  0.50585079  0.87619456  1
  Ta  Ta102  1  0.38877347  -0.00730636  0.00317732  1
  Ta  Ta103  1  0.89917607  0.89619355  0.37542786  1
  Ta  Ta104  1  0.80389911  -0.00708746  0.50884313  1
  Ta  Ta105  1  0.50934871  0.51694723  0.63215170  1
  Ta  Ta106  1  0.60632938  0.41053771  -0.00070336  1
  Ta  Ta107  1  -0.00377038  0.00116567  0.01266333  1
  Ta  Ta108  1  0.28517276  0.70541664  0.38004726  1
  Ta  Ta109  1  0.19985264  0.19870665  -0.00655518  1
  Ta  Ta110  1  0.60237277  0.40907099  0.51652077  1
  Ta  Ta111  1  0.29765105  0.88338543  0.36746319  1
  Ta  Ta112  1  0.80044117  0.80124036  -0.00897885  1
  Ta  Ta113  1  0.90600353  0.70163585  0.88395487  1
  Ta  Ta114  1  0.90926565  0.08811012  0.85513339  1
  Ta  Ta115  1  0.19376299  -0.00795995  0.48143797  1
  Ta  Ta116  1  0.28865693  0.89357326  0.61179007  1
  Ta  Ta117  1  0.40623507  0.19733211  0.77559017  1
  Ta  Ta118  1  0.10475485  0.49076634  0.86834522  1
  Ta  Ta119  1  0.20690035  -0.01246211  0.74694544  1
  Ti  Ti120  1  0.29968835  0.70483254  0.61599480  1
  Ti  Ti121  1  0.10266154  0.89609602  0.62810197  1
  Ti  Ti122  1  0.01051766  0.39131024  0.00846092  1
  Ti  Ti123  1  0.70515261  0.30922837  0.37238944  1
  Ti  Ti124  1  0.59784505  0.60760253  0.26202802  1
  Ti  Ti125  1  0.19963655  0.00522274  0.26625812  1
  Ti  Ti126  1  0.10323502  0.49417900  0.64291827  1
  Ti  Ti127  1  0.17906033  0.78211588  0.24054229  1
  Ti  Ti128  1  0.40844409  0.40664057  0.51770826  1
  Ti  Ti129  1  0.59190874  -0.00163394  0.49146708  1
  Ti  Ti130  1  0.90289086  0.70011002  0.37376824  1
  Ti  Ti131  1  0.48380464  0.70284478  0.13857330  1
  Ti  Ti132  1  0.01182130  0.19383575  0.26798852  1
  Ti  Ti133  1  0.59787781  0.21602624  0.50176690  1
  Ti  Ti134  1  0.40260895  0.60856193  0.74872908  1
  Ti  Ti135  1  0.00551019  -0.00778614  0.25380155  1
  Ti  Ti136  1  0.19287559  -0.00782283  0.01022966  1
  Ti  Ti137  1  0.50856685  0.30963768  0.86914720  1
  Ti  Ti138  1  0.19644443  0.18981798  0.47422252  1
  Ti  Ti139  1  0.29038266  0.09831527  0.12350745  1
  Ti  Ti140  1  -0.00315994  0.59153336  0.74739861  1
  Ti  Ti141  1  0.58993551  0.18875101  0.76104981  1
  Ti  Ti142  1  0.31230314  0.48943200  0.10121331  1
  Ti  Ti143  1  0.61057843  0.42235564  0.74982329  1
  Ti  Ti144  1  0.91606950  0.09828790  0.63318427  1
  Ti  Ti145  1  0.20435225  0.60162719  0.75871344  1
  Ti  Ti146  1  0.29228217  0.90101395  0.87824624  1
  Ti  Ti147  1  0.10071398  0.88378019  0.36418539  1
  Ti  Ti148  1  0.47955630  0.71812054  0.37826062  1
  Ti  Ti149  1  0.40811493  0.40399609  -0.01586745  1
  Ti  Ti150  1  0.20108504  0.59383888  0.48970741  1
  Ti  Ti151  1  0.40480255  0.60737456  -0.01398622  1
  Ti  Ti152  1  0.60545422  0.62222296  0.76501797  1
  Ti  Ti153  1  0.69121044  0.30071396  0.63766051  1
  Ti  Ti154  1  0.20212305  0.79435198  0.75256786  1
  Ti  Ti155  1  0.00672739  0.59557315  0.00648787  1
  Ti  Ti156  1  0.49560012  0.90583010  0.86228697  1
  Ti  Ti157  1  0.50335015  0.50696872  0.86296698  1
  Ti  Ti158  1  0.30011621  0.30996161  0.87724792  1
  Ti  Ti159  1  0.49526975  0.10715245  0.61900205  1
  Mo  Mo160  1  0.90839113  0.50136212  0.62043068  1
  Mo  Mo161  1  -0.00099650  0.80527617  0.25333357  1
  Mo  Mo162  1  0.48853517  0.89575741  0.38033862  1
  Mo  Mo163  1  0.09796402  0.09068786  0.36839404  1
  Mo  Mo164  1  0.29491359  0.08521586  0.89586481  1
  Mo  Mo165  1  0.00265172  -0.01099118  0.72814163  1
  Mo  Mo166  1  0.91132454  0.29514889  0.63995333  1
  Mo  Mo167  1  0.59116298  0.00657144  0.74891829  1
  Mo  Mo168  1  0.70173990  0.70523008  0.89063563  1
  Mo  Mo169  1  0.00556899  0.40434923  0.74182791  1
  Mo  Mo170  1  0.49946308  0.09397690  0.88237269  1
  Mo  Mo171  1  0.10447486  0.70155708  0.38718762  1
  Mo  Mo172  1  0.20727318  0.40588872  0.76805813  1
  Mo  Mo173  1  0.49215604  0.70472062  0.85669815  1
  Mo  Mo174  1  0.69825510  0.50174264  0.11871252  1
  Mo  Mo175  1  0.39330543  0.79631870  0.51143045  1
  Mo  Mo176  1  0.79690730  0.20654055  0.26060974  1
  Mo  Mo177  1  0.91346829  0.09387892  0.13845631  1
  Mo  Mo178  1  0.69548848  0.69722078  0.35636208  1
  Mo  Mo179  1  0.90812509  0.50365400  0.10914242  1
  Mo  Mo180  1  0.10138853  0.70076732  0.10912516  1
  Mo  Mo181  1  0.00401294  0.19333037  0.76123122  1
  Mo  Mo182  1  0.10253510  0.30200825  0.87897218  1
  Mo  Mo183  1  0.59480756  0.80111757  0.76438219  1
  Mo  Mo184  1  0.40528199  0.40325860  0.24236024  1
  Mo  Mo185  1  0.20271599  0.59462146  -0.02023537  1
  Mo  Mo186  1  0.58848221  0.80026031  0.48158151  1
  Mo  Mo187  1  0.10082801  0.30074820  0.36340982  1
  Mo  Mo188  1  0.69665296  0.49731830  0.87791365  1
  Mo  Mo189  1  0.48239715  0.89896492  0.13252814  1
  Mo  Mo190  1  0.30124890  0.49782126  0.39966967  1
  Mo  Mo191  1  0.40821984  0.20623427  0.49962566  1
  Mo  Mo192  1  0.19692505  0.80181499  0.49846468  1
  Mo  Mo193  1  0.79937366  0.60588766  0.47999157  1
  Mo  Mo194  1  0.19835121  0.60177342  0.26720786  1
  Mo  Mo195  1  0.29843193  0.30007411  0.10153709  1
  Mo  Mo196  1  0.69025734  0.70676476  0.62644219  1
  Mo  Mo197  1  0.38715186  0.79707056  0.23891856  1
  Mo  Mo198  1  0.29461527  0.09584504  0.37501673  1
  Mo  Mo199  1  0.10236510  0.90383353  0.14690256  1
