# generated using pymatgen
data_HfZrTaTiMo
_symmetry_space_group_name_H-M   'P 1'
_cell_length_a   15.82423560
_cell_length_b   15.83988628
_cell_length_c   15.41880286
_cell_angle_alpha   89.95182762
_cell_angle_beta   90.04426426
_cell_angle_gamma   89.86350272
_symmetry_Int_Tables_number   1
_chemical_formula_structural   HfZrTaTiMo
_chemical_formula_sum   'Hf40 Zr40 Ta40 Ti40 Mo40'
_cell_volume   3864.77254193
_cell_formula_units_Z   40
loop_
 _symmetry_equiv_pos_site_id
 _symmetry_equiv_pos_as_xyz
  1  'x, y, z'
loop_
 _atom_site_type_symbol
 _atom_site_label
 _atom_site_symmetry_multiplicity
 _atom_site_fract_x
 _atom_site_fract_y
 _atom_site_fract_z
 _atom_site_occupancy
  Hf  Hf0  1  0.79619612  -0.00693944  0.00272069  1
  Hf  Hf1  1  0.59796748  -0.02796781  0.75942505  1
  Hf  Hf2  1  0.20311517  0.00111022  0.76239582  1
  Hf  Hf3  1  0.29464972  0.70957871  0.61459058  1
  Hf  Hf4  1  0.20092543  0.60115375  -0.01609628  1
  Hf  Hf5  1  0.40532232  0.40325250  0.50355877  1
  Hf  Hf6  1  0.19711893  0.80011218  -0.00800822  1
  Hf  Hf7  1  0.70890204  0.09442147  0.86577495  1
  Hf  Hf8  1  0.30246440  0.08066958  0.39346877  1
  Hf  Hf9  1  0.20534263  0.20946792  -0.00358678  1
  Hf  Hf10  1  -0.00965623  -0.00689142  0.49737893  1
  Hf  Hf11  1  0.50469173  0.70726463  0.13369461  1
  Hf  Hf12  1  0.80134943  0.19795301  0.50325831  1
  Hf  Hf13  1  0.09862567  0.30874587  0.36890163  1
  Hf  Hf14  1  0.10371907  0.09936098  0.61357639  1
  Hf  Hf15  1  0.40769035  0.40673145  0.74346553  1
  Hf  Hf16  1  -0.00693407  -0.00312462  0.00264936  1
  Hf  Hf17  1  0.09088049  0.49511487  0.85968468  1
  Hf  Hf18  1  0.60536343  0.58486251  0.24930704  1
  Hf  Hf19  1  -0.01158937  0.40865705  0.23673316  1
  Hf  Hf20  1  0.19209337  0.40756661  0.51186009  1
  Hf  Hf21  1  0.09208737  0.30133797  0.64673017  1
  Hf  Hf22  1  0.19885443  -0.00199303  0.24054873  1
  Hf  Hf23  1  -0.00903397  0.40564952  0.52220688  1
  Hf  Hf24  1  0.60206805  0.19642615  0.00216815  1
  Hf  Hf25  1  0.60824004  0.19862669  0.24611116  1
  Hf  Hf26  1  0.60722789  -0.00065365  0.48982843  1
  Hf  Hf27  1  -0.00178322  0.02100430  0.77138046  1
  Hf  Hf28  1  0.30270457  0.29356277  0.63584350  1
  Hf  Hf29  1  0.71628776  0.69956152  0.36652564  1
  Hf  Hf30  1  0.89357640  0.89680146  0.64695994  1
  Hf  Hf31  1  0.20001849  0.20817140  0.49429891  1
  Hf  Hf32  1  0.29048375  0.49577096  0.37494855  1
  Hf  Hf33  1  0.21167962  0.19239527  0.25017595  1
  Hf  Hf34  1  0.89060833  0.69363906  0.87804945  1
  Hf  Hf35  1  0.21000904  0.80094066  0.76535102  1
  Hf  Hf36  1  0.51065062  0.52256402  0.63028120  1
  Hf  Hf37  1  0.49403284  0.09678260  0.62702875  1
  Hf  Hf38  1  0.50178732  0.10177999  0.86651233  1
  Hf  Hf39  1  0.30070025  0.69640571  0.12514804  1
  Zr  Zr40  1  0.40314279  0.59330596  0.00303076  1
  Zr  Zr41  1  0.39491112  -0.00296875  0.75160947  1
  Zr  Zr42  1  0.00618190  0.77690257  0.51245722  1
  Zr  Zr43  1  0.89191842  0.50069130  0.38580624  1
  Zr  Zr44  1  0.40683412  0.01147749  0.01356598  1
  Zr  Zr45  1  0.70149744  0.88620038  0.14684449  1
  Zr  Zr46  1  0.09276555  0.89847047  0.87886724  1
  Zr  Zr47  1  0.18351858  0.80173526  0.23745532  1
  Zr  Zr48  1  0.50771000  0.50288509  0.87224677  1
  Zr  Zr49  1  0.20240998  0.18884614  0.76087552  1
  Zr  Zr50  1  0.80605975  0.58943653  0.23184184  1
  Zr  Zr51  1  0.70101036  0.50217260  0.88270447  1
  Zr  Zr52  1  0.10764044  0.89148071  0.38467909  1
  Zr  Zr53  1  0.31720675  0.30521536  0.13881023  1
  Zr  Zr54  1  0.09719161  0.10723198  0.11607276  1
  Zr  Zr55  1  0.60829898  0.20358499  0.50291764  1
  Zr  Zr56  1  0.70100133  0.88947367  0.62718878  1
  Zr  Zr57  1  0.70680527  0.08868450  0.63896973  1
  Zr  Zr58  1  0.70123608  0.48714004  0.38926418  1
  Zr  Zr59  1  0.39925196  0.59533114  0.25968201  1
  Zr  Zr60  1  0.49697546  0.91225573  0.36030962  1
  Zr  Zr61  1  0.29868153  0.91406877  0.59490722  1
  Zr  Zr62  1  0.40510687  0.60634713  0.48941005  1
  Zr  Zr63  1  0.08726054  0.51794593  0.37293592  1
  Zr  Zr64  1  0.70734980  0.29300807  0.11708111  1
  Zr  Zr65  1  0.40907039  0.80570987  0.74505525  1
  Zr  Zr66  1  0.79114794  0.59644673  0.75241446  1
  Zr  Zr67  1  0.50745694  0.31696674  0.36116041  1
  Zr  Zr68  1  0.28957432  0.51186354  0.63291194  1
  Zr  Zr69  1  0.27344664  0.70450332  0.37990231  1
  Zr  Zr70  1  0.30149147  0.89908857  0.11289828  1
  Zr  Zr71  1  0.89873722  0.88743200  0.35481724  1
  Zr  Zr72  1  0.10068501  0.89471013  0.63124851  1
  Zr  Zr73  1  0.90305487  0.10191977  0.62820317  1
  Zr  Zr74  1  0.10474518  0.49895332  0.11696486  1
  Zr  Zr75  1  -0.00363455  0.19580713  0.25226298  1
  Zr  Zr76  1  0.89194718  0.30572649  0.37312126  1
  Zr  Zr77  1  0.68363827  0.69733433  0.61542222  1
  Zr  Zr78  1  0.60382568  -0.00264453  0.01157654  1
  Zr  Zr79  1  0.21283795  0.40095330  -0.00749749  1
  Ta  Ta80  1  0.70246141  0.29877581  0.86959068  1
  Ta  Ta81  1  0.40551082  0.20507517  0.49036075  1
  Ta  Ta82  1  0.91383131  0.69274469  0.37161101  1
  Ta  Ta83  1  0.60123284  0.79857788  0.47682863  1
  Ta  Ta84  1  0.80640564  0.80005741  0.49676507  1
  Ta  Ta85  1  0.90451604  0.30318853  0.86853316  1
  Ta  Ta86  1  0.49556971  0.88420744  0.89556860  1
  Ta  Ta87  1  0.49979724  0.29440089  0.63446082  1
  Ta  Ta88  1  -0.00417474  0.59934616  -0.00801125  1
  Ta  Ta89  1  0.80157104  0.39509570  -0.01011760  1
  Ta  Ta90  1  0.41003615  0.62170804  0.75379670  1
  Ta  Ta91  1  0.70434150  0.30419111  0.36745586  1
  Ta  Ta92  1  0.60508991  0.20380486  0.74731552  1
  Ta  Ta93  1  0.60250102  0.39503089  0.51928652  1
  Ta  Ta94  1  0.50221883  0.89438275  0.13912469  1
  Ta  Ta95  1  0.19742456  0.61602343  0.76498946  1
  Ta  Ta96  1  0.09045772  0.70525253  0.10735988  1
  Ta  Ta97  1  0.00218797  -0.00644769  0.23625884  1
  Ta  Ta98  1  0.39200199  0.01506729  0.23684952  1
  Ta  Ta99  1  0.49896928  0.48259359  0.13093794  1
  Ta  Ta100  1  0.70459949  0.69803903  0.12303830  1
  Ta  Ta101  1  0.50502151  0.88898746  0.60640672  1
  Ta  Ta102  1  0.40563285  0.21480640  -0.00983871  1
  Ta  Ta103  1  0.88772220  0.89644434  0.86563399  1
  Ta  Ta104  1  0.40276440  0.80442986  0.48092180  1
  Ta  Ta105  1  0.09810528  0.30228515  0.12519903  1
  Ta  Ta106  1  0.09802148  0.30467416  0.85915014  1
  Ta  Ta107  1  0.30557087  0.10336042  0.88859606  1
  Ta  Ta108  1  0.89852112  0.69787062  0.64283017  1
  Ta  Ta109  1  0.49889574  0.10605380  0.36829294  1
  Ta  Ta110  1  0.89504196  0.49652558  0.10075718  1
  Ta  Ta111  1  0.09564968  0.09525356  0.37928431  1
  Ta  Ta112  1  0.80662324  0.39939461  0.74498076  1
  Ta  Ta113  1  0.88915777  0.10950451  0.11308167  1
  Ta  Ta114  1  0.79967120  -0.00790698  0.48769434  1
  Ta  Ta115  1  0.90392126  0.29550678  0.10653028  1
  Ta  Ta116  1  -0.00653345  0.61236917  0.22433441  1
  Ta  Ta117  1  0.30324542  0.50257206  0.85611743  1
  Ta  Ta118  1  0.70270426  0.50287936  0.61772179  1
  Ta  Ta119  1  0.61234695  0.40098757  0.73703378  1
  Ti  Ti120  1  0.70595773  0.89685166  0.35661472  1
  Ti  Ti121  1  0.79153713  0.40099268  0.23050531  1
  Ti  Ti122  1  0.30645672  0.49514797  0.13496456  1
  Ti  Ti123  1  0.79580772  0.38467552  0.52797860  1
  Ti  Ti124  1  0.00044372  0.19984415  -0.01894154  1
  Ti  Ti125  1  0.00221137  0.39599287  -0.00468668  1
  Ti  Ti126  1  0.18736459  0.60259050  0.24163516  1
  Ti  Ti127  1  0.60297499  0.00880410  0.24117006  1
  Ti  Ti128  1  0.70706042  0.09760275  0.36614581  1
  Ti  Ti129  1  0.50553570  0.70547442  0.35873894  1
  Ti  Ti130  1  0.79258114  0.79716472  -0.00431428  1
  Ti  Ti131  1  0.08703951  0.51279573  0.64944367  1
  Ti  Ti132  1  0.59677968  0.39435190  0.00464577  1
  Ti  Ti133  1  0.89970434  0.88605841  0.13333898  1
  Ti  Ti134  1  0.00627645  0.78364427  0.75987881  1
  Ti  Ti135  1  0.30617879  0.30182035  0.36710167  1
  Ti  Ti136  1  0.90030804  0.09482680  0.37153894  1
  Ti  Ti137  1  0.60360057  0.59738845  0.01421373  1
  Ti  Ti138  1  0.19627527  0.00706414  0.00040733  1
  Ti  Ti139  1  -0.00446750  0.20617693  0.49467259  1
  Ti  Ti140  1  0.60394686  0.79498077  -0.00153445  1
  Ti  Ti141  1  0.49780094  0.30401610  0.13867666  1
  Ti  Ti142  1  0.31063128  0.90488622  0.89408677  1
  Ti  Ti143  1  0.49203510  0.11616993  0.13584849  1
  Ti  Ti144  1  0.58986713  0.77417010  0.76724300  1
  Ti  Ti145  1  0.50637255  0.30234758  0.86188163  1
  Ti  Ti146  1  0.19819795  0.40151690  0.24656204  1
  Ti  Ti147  1  0.80397910  0.19829044  0.24901066  1
  Ti  Ti148  1  -0.01049374  0.79987781  -0.00143365  1
  Ti  Ti149  1  0.16545752  0.61669204  0.51153796  1
  Ti  Ti150  1  0.32316874  0.70899805  0.88567562  1
  Ti  Ti151  1  0.81339637  0.19958957  0.75565371  1
  Ti  Ti152  1  0.30536982  0.30559364  0.85701507  1
  Ti  Ti153  1  0.59540973  0.60083307  0.48145583  1
  Ti  Ti154  1  0.40431689  0.39814354  -0.01091852  1
  Ti  Ti155  1  0.30473547  0.10301982  0.61279095  1
  Ti  Ti156  1  0.38607599  0.81008278  0.26083563  1
  Ti  Ti157  1  0.81222205  0.60669811  0.51168461  1
  Ti  Ti158  1  0.80538238  0.00858197  0.24081727  1
  Ti  Ti159  1  0.77803156  0.79552997  0.76660026  1
  Mo  Mo160  1  0.70498993  0.29735948  0.64281549  1
  Mo  Mo161  1  0.09153322  0.69928148  0.88049079  1
  Mo  Mo162  1  0.60275239  0.79626935  0.26087106  1
  Mo  Mo163  1  0.89469491  0.70206995  0.10140902  1
  Mo  Mo164  1  0.60770316  0.40080222  0.23626150  1
  Mo  Mo165  1  0.19210199  0.00409873  0.49957628  1
  Mo  Mo166  1  -0.00786195  0.60034269  0.75679467  1
  Mo  Mo167  1  0.40542246  0.20347984  0.76558770  1
  Mo  Mo168  1  0.89345790  0.50496991  0.62004275  1
  Mo  Mo169  1  0.50482780  0.50154734  0.37986858  1
  Mo  Mo170  1  0.41199063  0.00566236  0.50209771  1
  Mo  Mo171  1  0.30139696  0.90015003  0.37726500  1
  Mo  Mo172  1  0.80782129  0.78649266  0.24761979  1
  Mo  Mo173  1  0.40156182  0.19755917  0.26804339  1
  Mo  Mo174  1  -0.00044478  0.20148527  0.76791382  1
  Mo  Mo175  1  0.08999473  0.90111945  0.10914940  1
  Mo  Mo176  1  0.80004774  -0.00756767  0.76643859  1
  Mo  Mo177  1  0.40060376  0.40495470  0.26151137  1
  Mo  Mo178  1  0.50369736  0.69816885  0.89571854  1
  Mo  Mo179  1  0.69500414  0.88744751  0.87716527  1
  Mo  Mo180  1  -0.00702906  0.59915707  0.52229852  1
  Mo  Mo181  1  0.69558121  0.49309181  0.10542253  1
  Mo  Mo182  1  0.90056648  0.29706107  0.64292153  1
  Mo  Mo183  1  0.30729330  0.10919173  0.11086630  1
  Mo  Mo184  1  0.50220672  0.71127338  0.60713391  1
  Mo  Mo185  1  0.20100707  0.40747738  0.74702138  1
  Mo  Mo186  1  0.10468645  0.10466873  0.89444127  1
  Mo  Mo187  1  0.59682941  0.60576742  0.75394738  1
  Mo  Mo188  1  0.89966948  0.49230586  0.88921799  1
  Mo  Mo189  1  0.40710610  0.80079350  0.01122207  1
  Mo  Mo190  1  0.08619060  0.69414217  0.36357315  1
  Mo  Mo191  1  0.69232067  0.69668629  0.89471598  1
  Mo  Mo192  1  -0.01078635  0.40407164  0.74319230  1
  Mo  Mo193  1  0.79562068  0.59916677  0.00683489  1
  Mo  Mo194  1  0.80518102  0.20049628  -0.01488679  1
  Mo  Mo195  1  0.10042741  0.69532233  0.65146814  1
  Mo  Mo196  1  -0.00226037  0.79450155  0.23070884  1
  Mo  Mo197  1  0.89720414  0.10308614  0.88915696  1
  Mo  Mo198  1  0.70757581  0.09729460  0.13424789  1
  Mo  Mo199  1  0.19672145  0.79678319  0.49973617  1
