# generated using pymatgen
data_HfZrTaTiMo
_symmetry_space_group_name_H-M   'P 1'
_cell_length_a   15.83258372
_cell_length_b   15.84499283
_cell_length_c   15.41059943
_cell_angle_alpha   89.96427752
_cell_angle_beta   90.00844872
_cell_angle_gamma   89.92044418
_symmetry_Int_Tables_number   1
_chemical_formula_structural   HfZrTaTiMo
_chemical_formula_sum   'Hf40 Zr40 Ta40 Ti40 Mo40'
_cell_volume   3866.00902836
_cell_formula_units_Z   40
loop_
 _symmetry_equiv_pos_site_id
 _symmetry_equiv_pos_as_xyz
  1  'x, y, z'
loop_
 _atom_site_type_symbol
 _atom_site_label
 _atom_site_symmetry_multiplicity
 _atom_site_fract_x
 _atom_site_fract_y
 _atom_site_fract_z
 _atom_site_occupancy
  Hf  Hf0  1  0.50481636  0.89782311  0.63198953  1
  Hf  Hf1  1  0.29467040  0.09569082  0.86867621  1
  Hf  Hf2  1  0.60046623  0.80694001  0.49332587  1
  Hf  Hf3  1  0.30329203  0.69548144  0.63544222  1
  Hf  Hf4  1  0.09937705  0.69164937  0.36388424  1
  Hf  Hf5  1  0.51342856  0.09089034  0.61815167  1
  Hf  Hf6  1  0.09704264  0.69958732  0.64695585  1
  Hf  Hf7  1  0.60029787  0.59558949  0.23954195  1
  Hf  Hf8  1  0.18684936  0.59556745  0.50296065  1
  Hf  Hf9  1  0.50860810  0.89981170  0.14319446  1
  Hf  Hf10  1  0.69933019  0.29652838  0.88207703  1
  Hf  Hf11  1  0.09051438  0.07693745  0.61558347  1
  Hf  Hf12  1  0.29774640  0.30210434  0.38592012  1
  Hf  Hf13  1  0.59752145  0.60833768  0.49102090  1
  Hf  Hf14  1  0.80175847  0.20477078  0.50864047  1
  Hf  Hf15  1  0.90851173  0.69214248  0.62400229  1
  Hf  Hf16  1  0.79133980  0.60567654  0.76159226  1
  Hf  Hf17  1  0.00533496  0.80407285  0.49586045  1
  Hf  Hf18  1  0.59923962  0.80324216  0.76360274  1
  Hf  Hf19  1  0.57816837  0.39803631  0.76879828  1
  Hf  Hf20  1  0.28526470  0.71892226  0.88250474  1
  Hf  Hf21  1  0.69552271  0.31433308  0.63213225  1
  Hf  Hf22  1  0.00118096  0.80874020  0.00989837  1
  Hf  Hf23  1  0.60113465  0.20855870  0.49820257  1
  Hf  Hf24  1  0.88875945  0.49689772  0.63906381  1
  Hf  Hf25  1  0.69021820  0.49750473  0.10328466  1
  Hf  Hf26  1  0.40889330  0.00078052  0.75862066  1
  Hf  Hf27  1  0.09916206  0.69837785  0.87459859  1
  Hf  Hf28  1  0.79892722  0.80717918  0.50108906  1
  Hf  Hf29  1  0.09840748  0.48851730  0.12903724  1
  Hf  Hf30  1  0.20147181  -0.01300548  0.49231937  1
  Hf  Hf31  1  0.19660407  0.19731709  0.50987542  1
  Hf  Hf32  1  0.11091564  0.69051843  0.11433190  1
  Hf  Hf33  1  0.68979514  0.50352605  0.63445298  1
  Hf  Hf34  1  0.19909568  0.38229501  -0.01868125  1
  Hf  Hf35  1  0.69880314  0.70312095  0.89761657  1
  Hf  Hf36  1  0.20622776  -0.00389966  0.26577140  1
  Hf  Hf37  1  0.70908571  0.69768227  0.35406464  1
  Hf  Hf38  1  0.81001832  0.00262950  0.01689022  1
  Hf  Hf39  1  0.49428813  0.72304512  0.34982527  1
  Zr  Zr40  1  0.68387107  0.29191984  0.12021554  1
  Zr  Zr41  1  -0.00760932  0.40780433  0.50198383  1
  Zr  Zr42  1  0.38914523  0.60681161  0.22473132  1
  Zr  Zr43  1  0.59835901  0.18998331  0.75255020  1
  Zr  Zr44  1  0.29384341  0.48967149  0.10983167  1
  Zr  Zr45  1  -0.00537041  0.59146476  -0.00489549  1
  Zr  Zr46  1  0.89970189  0.70262602  0.36523884  1
  Zr  Zr47  1  0.80935282  0.80709613  0.01667709  1
  Zr  Zr48  1  0.09660318  0.30154988  0.37456554  1
  Zr  Zr49  1  0.41123244  0.00607456  0.00278786  1
  Zr  Zr50  1  0.52859280  0.10674837  0.14122133  1
  Zr  Zr51  1  -0.00167645  0.38483244  -0.00698007  1
  Zr  Zr52  1  0.79627438  0.18470166  0.73129251  1
  Zr  Zr53  1  0.70440156  0.92904083  0.63396051  1
  Zr  Zr54  1  0.48994834  0.50014483  0.62332464  1
  Zr  Zr55  1  0.48777279  0.51833884  0.37674912  1
  Zr  Zr56  1  0.69543124  0.70470623  0.63108159  1
  Zr  Zr57  1  0.30019898  0.31553535  0.61831055  1
  Zr  Zr58  1  0.40777266  0.21120833  0.74705101  1
  Zr  Zr59  1  0.80793915  0.81075443  0.75349091  1
  Zr  Zr60  1  0.49060804  0.30418552  0.12011348  1
  Zr  Zr61  1  0.89025833  0.29677202  0.85527270  1
  Zr  Zr62  1  0.38970544  0.20808058  -0.01125648  1
  Zr  Zr63  1  0.09676713  0.28913068  0.14623305  1
  Zr  Zr64  1  0.20280328  0.79733826  0.50460145  1
  Zr  Zr65  1  0.18198329  0.18676635  -0.01047835  1
  Zr  Zr66  1  0.20188388  0.18682335  0.73118105  1
  Zr  Zr67  1  0.71270560  0.09858154  0.37005311  1
  Zr  Zr68  1  0.30316282  0.10977800  0.13765318  1
  Zr  Zr69  1  0.39828918  0.59423681  0.76950086  1
  Zr  Zr70  1  0.01618423  0.00616284  -0.00675213  1
  Zr  Zr71  1  0.09163702  0.50374758  0.63555536  1
  Zr  Zr72  1  0.40893343  0.00387625  0.26298826  1
  Zr  Zr73  1  0.89854212  0.51008162  0.36135735  1
  Zr  Zr74  1  0.10540356  0.10023197  0.14778563  1
  Zr  Zr75  1  0.39937630  0.60614074  -0.00174622  1
  Zr  Zr76  1  0.08641044  0.27430208  0.85130642  1
  Zr  Zr77  1  0.78915875  0.40855588  0.24234073  1
  Zr  Zr78  1  0.31588674  0.87959793  0.36739034  1
  Zr  Zr79  1  0.89986172  0.29577509  0.36238024  1
  Ta  Ta80  1  0.21192842  0.78594933  0.23898792  1
  Ta  Ta81  1  0.09222381  0.30462345  0.62742191  1
  Ta  Ta82  1  0.41179748  -0.00830083  0.48791150  1
  Ta  Ta83  1  0.29198340  0.50353548  0.38634678  1
  Ta  Ta84  1  0.69736898  0.30100423  0.36500798  1
  Ta  Ta85  1  0.30716749  0.68851110  0.37998545  1
  Ta  Ta86  1  0.50136304  0.49290893  0.10910850  1
  Ta  Ta87  1  -0.00314774  -0.00427446  0.76029330  1
  Ta  Ta88  1  0.78744371  0.40671474  0.48833607  1
  Ta  Ta89  1  0.69590474  0.70136398  0.12074861  1
  Ta  Ta90  1  0.60461593  -0.00425046  0.47874564  1
  Ta  Ta91  1  0.89625055  0.90347243  0.36153516  1
  Ta  Ta92  1  0.10994698  0.90155468  0.13484328  1
  Ta  Ta93  1  0.90784138  0.10853330  0.88284954  1
  Ta  Ta94  1  0.89197449  0.07464784  0.60374401  1
  Ta  Ta95  1  0.20081475  0.39953379  0.76043273  1
  Ta  Ta96  1  0.39778974  0.40462163  0.26006240  1
  Ta  Ta97  1  0.70380170  0.89593571  0.35007707  1
  Ta  Ta98  1  0.70695717  0.09732572  0.89457165  1
  Ta  Ta99  1  0.00272743  0.80094339  0.23572512  1
  Ta  Ta100  1  0.89144496  0.49815318  0.87005657  1
  Ta  Ta101  1  0.91492379  0.11136793  0.12690817  1
  Ta  Ta102  1  0.30436642  0.10541103  0.38646915  1
  Ta  Ta103  1  0.79788930  0.19518229  0.23532043  1
  Ta  Ta104  1  0.40385761  0.40361576  0.49211798  1
  Ta  Ta105  1  -0.00483884  0.19628191  0.50961676  1
  Ta  Ta106  1  0.39735241  0.80783238  0.00974938  1
  Ta  Ta107  1  0.80378265  0.39789809  0.00126684  1
  Ta  Ta108  1  0.09452742  0.10091806  0.37834655  1
  Ta  Ta109  1  0.79696371  0.59519289  0.49966379  1
  Ta  Ta110  1  0.69626550  0.49859826  0.88870868  1
  Ta  Ta111  1  0.20377885  0.40424167  0.26225149  1
  Ta  Ta112  1  0.40842424  0.79355043  0.50739473  1
  Ta  Ta113  1  0.59031611  0.60100607  0.77447401  1
  Ta  Ta114  1  0.40925949  0.21146139  0.27008571  1
  Ta  Ta115  1  0.49777001  0.69867929  0.63593985  1
  Ta  Ta116  1  0.58763621  0.40012412  0.26245521  1
  Ta  Ta117  1  0.11947982  0.89053718  0.86813151  1
  Ta  Ta118  1  0.70106987  0.90868610  0.88474806  1
  Ta  Ta119  1  0.20821595  -0.01176265  -0.00327611  1
  Ti  Ti120  1  0.80955388  0.20337376  0.01495536  1
  Ti  Ti121  1  0.80568907  0.00796249  0.76255058  1
  Ti  Ti122  1  0.19701489  0.58962748  0.76139586  1
  Ti  Ti123  1  0.90862339  0.30021275  0.13664012  1
  Ti  Ti124  1  0.50610345  0.90626337  0.88468629  1
  Ti  Ti125  1  0.09658264  0.89221771  0.36080994  1
  Ti  Ti126  1  0.59643371  0.80783966  0.01029166  1
  Ti  Ti127  1  0.90387421  0.09452383  0.38052177  1
  Ti  Ti128  1  0.89760237  0.30985146  0.63462845  1
  Ti  Ti129  1  0.90223531  0.90452272  0.87863001  1
  Ti  Ti130  1  0.29523628  0.50004147  0.61801085  1
  Ti  Ti131  1  0.09212398  0.50010079  0.36720534  1
  Ti  Ti132  1  -0.00212653  0.80584296  0.75870264  1
  Ti  Ti133  1  0.40014699  0.39559925  -0.02389900  1
  Ti  Ti134  1  0.20610135  -0.01356198  0.74828976  1
  Ti  Ti135  1  0.90069746  0.70176250  0.87584913  1
  Ti  Ti136  1  0.89892309  0.49671443  0.12639984  1
  Ti  Ti137  1  -0.00630398  0.60267681  0.23234937  1
  Ti  Ti138  1  0.28965781  0.50298561  0.88443335  1
  Ti  Ti139  1  0.00019580  0.40669458  0.75766009  1
  Ti  Ti140  1  0.80652991  0.60069563  0.00754386  1
  Ti  Ti141  1  0.30167000  0.89881137  0.13076864  1
  Ti  Ti142  1  0.20399428  0.59457864  0.24954014  1
  Ti  Ti143  1  0.91127481  0.90478540  0.62037059  1
  Ti  Ti144  1  0.80607568  0.00524078  0.23279590  1
  Ti  Ti145  1  0.69347402  0.91428001  0.13253401  1
  Ti  Ti146  1  0.09989486  0.89334068  0.63700484  1
  Ti  Ti147  1  0.80872210  0.80270370  0.22479406  1
  Ti  Ti148  1  0.50807626  0.10606572  0.37449897  1
  Ti  Ti149  1  0.30749123  0.89763012  0.62498622  1
  Ti  Ti150  1  0.59893274  0.40592685  0.48450884  1
  Ti  Ti151  1  -0.01013542  0.18117630  0.72412600  1
  Ti  Ti152  1  0.31137695  0.08617184  0.61274797  1
  Ti  Ti153  1  0.58974927  0.19092031  -0.01338482  1
  Ti  Ti154  1  0.49896537  0.70919118  0.88775312  1
  Ti  Ti155  1  0.39200713  0.40090775  0.76975222  1
  Ti  Ti156  1  0.29256376  0.29699114  0.14477891  1
  Ti  Ti157  1  -0.00248233  -0.00040790  0.25502593  1
  Ti  Ti158  1  0.40973289  0.20296843  0.50345110  1
  Ti  Ti159  1  0.39627124  0.80630536  0.76172385  1
  Mo  Mo160  1  0.59643369  0.60615313  -0.00303474  1
  Mo  Mo161  1  0.50793403  0.09525652  0.87754315  1
  Mo  Mo162  1  0.29441965  0.70185564  0.10512350  1
  Mo  Mo163  1  0.80018734  0.60352342  0.22243955  1
  Mo  Mo164  1  0.91186040  0.91021833  0.14262497  1
  Mo  Mo165  1  0.79040642  0.40340215  0.76468895  1
  Mo  Mo166  1  0.49887460  0.30537625  0.38220936  1
  Mo  Mo167  1  0.20559875  0.80692569  0.73868906  1
  Mo  Mo168  1  -0.00635056  0.60316332  0.49375073  1
  Mo  Mo169  1  0.60167981  0.20608444  0.26533412  1
  Mo  Mo170  1  -0.00796846  0.19632256  -0.00054367  1
  Mo  Mo171  1  0.39445844  0.60965661  0.50614987  1
  Mo  Mo172  1  0.19497216  0.59190528  -0.01561346  1
  Mo  Mo173  1  0.20023193  0.80797679  0.01642645  1
  Mo  Mo174  1  0.69762117  0.50231924  0.37586591  1
  Mo  Mo175  1  -0.00046759  -0.00959386  0.47915577  1
  Mo  Mo176  1  0.49964299  0.30756574  0.60472729  1
  Mo  Mo177  1  0.50900752  0.90180289  0.36408033  1
  Mo  Mo178  1  0.39707558  0.79515059  0.22471320  1
  Mo  Mo179  1  0.09654629  0.49521391  0.86508070  1
  Mo  Mo180  1  0.60758957  -0.00140871  -0.00495201  1
  Mo  Mo181  1  0.20811230  0.19934752  0.27311735  1
  Mo  Mo182  1  0.90157620  0.69723393  0.12950735  1
  Mo  Mo183  1  0.61026474  0.80009070  0.23519731  1
  Mo  Mo184  1  0.49727812  0.50164065  0.89280358  1
  Mo  Mo185  1  0.30508748  0.90061922  0.87994380  1
  Mo  Mo186  1  -0.00834416  0.60116380  0.77153321  1
  Mo  Mo187  1  0.49694744  0.29790203  0.88618554  1
  Mo  Mo188  1  0.70782895  0.10261373  0.11804241  1
  Mo  Mo189  1  0.61107714  0.00371838  0.26553055  1
  Mo  Mo190  1  0.59243559  0.39654514  -0.01373456  1
  Mo  Mo191  1  0.50413898  0.70389171  0.11622356  1
  Mo  Mo192  1  0.00089284  0.40438268  0.24394311  1
  Mo  Mo193  1  0.80347751  -0.00993649  0.48544565  1
  Mo  Mo194  1  -0.00771051  0.19212358  0.26726632  1
  Mo  Mo195  1  0.09720497  0.08521522  0.85358882  1
  Mo  Mo196  1  0.29536477  0.29975996  0.85836808  1
  Mo  Mo197  1  0.60793241  0.00361403  0.77429681  1
  Mo  Mo198  1  0.19626349  0.40679060  0.49344220  1
  Mo  Mo199  1  0.70119296  0.09445012  0.60745703  1
