# generated using pymatgen
data_HfZrTaTiMo
_symmetry_space_group_name_H-M   'P 1'
_cell_length_a   15.84073675
_cell_length_b   15.83583781
_cell_length_c   15.41634141
_cell_angle_alpha   90.00717911
_cell_angle_beta   90.01477342
_cell_angle_gamma   89.99092191
_symmetry_Int_Tables_number   1
_chemical_formula_structural   HfZrTaTiMo
_chemical_formula_sum   'Hf40 Zr40 Ta40 Ti40 Mo40'
_cell_volume   3867.20966181
_cell_formula_units_Z   40
loop_
 _symmetry_equiv_pos_site_id
 _symmetry_equiv_pos_as_xyz
  1  'x, y, z'
loop_
 _atom_site_type_symbol
 _atom_site_label
 _atom_site_symmetry_multiplicity
 _atom_site_fract_x
 _atom_site_fract_y
 _atom_site_fract_z
 _atom_site_occupancy
  Hf  Hf0  1  0.30662514  0.50123958  0.12206867  1
  Hf  Hf1  1  0.50001397  0.31636159  0.84685633  1
  Hf  Hf2  1  0.70030128  0.70943338  0.63685517  1
  Hf  Hf3  1  0.90062635  0.09703584  0.12459294  1
  Hf  Hf4  1  0.81078507  0.39609951  0.74820422  1
  Hf  Hf5  1  0.09542227  0.69473074  0.36309211  1
  Hf  Hf6  1  0.19361472  0.80201677  0.23587739  1
  Hf  Hf7  1  0.49843152  0.89496809  0.86828949  1
  Hf  Hf8  1  0.29968655  0.89380662  0.37634683  1
  Hf  Hf9  1  0.69081136  0.70353185  0.86817961  1
  Hf  Hf10  1  0.91233120  0.49560734  0.88134392  1
  Hf  Hf11  1  0.59440694  0.00403696  0.26535889  1
  Hf  Hf12  1  0.40610947  0.39256257  0.26967384  1
  Hf  Hf13  1  0.00579978  0.40165234  0.24268558  1
  Hf  Hf14  1  0.79485063  0.41906027  0.25184985  1
  Hf  Hf15  1  0.80229290  0.78768234  0.24505610  1
  Hf  Hf16  1  0.89487481  0.28429664  0.61159875  1
  Hf  Hf17  1  0.61128693  0.60036221  0.25695836  1
  Hf  Hf18  1  0.72258959  0.10864769  0.61453604  1
  Hf  Hf19  1  0.90301180  0.89650686  0.10851004  1
  Hf  Hf20  1  0.89982006  0.09374870  0.88423503  1
  Hf  Hf21  1  0.78442043  -0.00026155  -0.00209417  1
  Hf  Hf22  1  0.01146264  0.77486461  0.00025109  1
  Hf  Hf23  1  0.19645312  0.20609326  0.25770648  1
  Hf  Hf24  1  0.20739010  0.79086412  0.51505130  1
  Hf  Hf25  1  0.89884910  0.29244263  0.13688470  1
  Hf  Hf26  1  0.19172967  0.22039633  0.49996690  1
  Hf  Hf27  1  0.02188374  0.39567526  0.50150310  1
  Hf  Hf28  1  0.59501711  0.20068384  -0.01278703  1
  Hf  Hf29  1  0.00380377  -0.00906600  0.25476864  1
  Hf  Hf30  1  0.01320044  0.40119407  0.02058793  1
  Hf  Hf31  1  0.91101833  0.70663757  0.64005503  1
  Hf  Hf32  1  0.11571601  0.08766620  0.88479835  1
  Hf  Hf33  1  0.40680016  0.59301229  0.26590970  1
  Hf  Hf34  1  0.79355429  0.19557116  0.26777381  1
  Hf  Hf35  1  0.40540316  0.79982328  0.24127214  1
  Hf  Hf36  1  0.90504002  0.89181355  0.88243101  1
  Hf  Hf37  1  0.58907378  0.40071759  0.00570527  1
  Hf  Hf38  1  0.60285696  -0.00015845  0.50778851  1
  Hf  Hf39  1  0.60164801  0.80324890  0.24245503  1
  Zr  Zr40  1  0.00125891  0.20642620  -0.00242197  1
  Zr  Zr41  1  0.70132542  0.89381646  0.38876970  1
  Zr  Zr42  1  0.69387716  0.30907642  0.39416534  1
  Zr  Zr43  1  0.59834316  0.19918744  0.73505674  1
  Zr  Zr44  1  0.20298433  0.59418158  0.75919482  1
  Zr  Zr45  1  0.40756262  0.00136870  0.26941884  1
  Zr  Zr46  1  0.10277349  0.09531925  0.12614306  1
  Zr  Zr47  1  0.40398238  0.00085348  0.73197260  1
  Zr  Zr48  1  0.68863215  0.50160414  0.86673374  1
  Zr  Zr49  1  0.59915668  0.60309449  0.52056227  1
  Zr  Zr50  1  0.07822769  0.09193029  0.61653008  1
  Zr  Zr51  1  0.79397093  -0.00921754  0.25159405  1
  Zr  Zr52  1  0.29412007  0.68542336  0.12524679  1
  Zr  Zr53  1  0.40093305  0.20282622  -0.02364871  1
  Zr  Zr54  1  0.39844068  0.79964016  -0.00025842  1
  Zr  Zr55  1  0.20545276  0.00376240  0.73390427  1
  Zr  Zr56  1  0.80700560  0.60481966  0.51632649  1
  Zr  Zr57  1  0.69163549  0.29655764  0.13144920  1
  Zr  Zr58  1  0.68799343  0.09971381  0.12779963  1
  Zr  Zr59  1  0.48794281  0.11830141  0.13176963  1
  Zr  Zr60  1  0.80127338  0.39404556  -0.00294429  1
  Zr  Zr61  1  0.19691592  -0.00752816  0.51115271  1
  Zr  Zr62  1  0.69604046  0.90028875  0.86261397  1
  Zr  Zr63  1  0.50662086  0.68703470  0.10971531  1
  Zr  Zr64  1  0.69558246  0.30395232  0.85807817  1
  Zr  Zr65  1  0.90604580  0.51232204  0.38281733  1
  Zr  Zr66  1  0.20998842  0.20318047  0.00773810  1
  Zr  Zr67  1  0.50661173  0.71154802  0.39103247  1
  Zr  Zr68  1  0.00964834  0.79213698  0.50339253  1
  Zr  Zr69  1  0.10540334  0.30824804  0.87372884  1
  Zr  Zr70  1  0.18609359  0.59675317  0.50682334  1
  Zr  Zr71  1  0.90808899  0.91542748  0.62301478  1
  Zr  Zr72  1  0.32197100  0.29299269  0.13654712  1
  Zr  Zr73  1  -0.00275815  0.20069798  0.75754707  1
  Zr  Zr74  1  0.29523128  0.50243885  0.62091971  1
  Zr  Zr75  1  0.29599811  0.90136985  0.86617209  1
  Zr  Zr76  1  -0.01233946  0.18610726  0.48208387  1
  Zr  Zr77  1  0.38917040  0.39545258  0.50120810  1
  Zr  Zr78  1  0.38690289  0.20118164  0.73217907  1
  Zr  Zr79  1  0.59341208  0.40417466  0.24813998  1
  Ta  Ta80  1  0.20174025  0.79469046  0.00225077  1
  Ta  Ta81  1  0.39110706  0.20108122  0.50252609  1
  Ta  Ta82  1  0.29675706  0.10077044  0.37905120  1
  Ta  Ta83  1  0.29688218  0.69936761  0.37197283  1
  Ta  Ta84  1  0.69995126  0.50722179  0.39157552  1
  Ta  Ta85  1  0.19936237  0.19978404  0.73307080  1
  Ta  Ta86  1  0.70048223  0.30332803  0.61814666  1
  Ta  Ta87  1  0.10086126  0.50399137  0.36433900  1
  Ta  Ta88  1  0.79525129  0.20113375  -0.01163580  1
  Ta  Ta89  1  0.49850217  0.91236568  0.11435200  1
  Ta  Ta90  1  0.90655048  0.89153491  0.37887330  1
  Ta  Ta91  1  0.10151324  0.09273513  0.37072076  1
  Ta  Ta92  1  -0.00548477  0.60579080  0.23387551  1
  Ta  Ta93  1  0.70338562  0.69550945  0.10841171  1
  Ta  Ta94  1  0.58658313  0.00396548  -0.00812455  1
  Ta  Ta95  1  0.90545028  0.69355748  0.86895888  1
  Ta  Ta96  1  0.00174923  -0.00553299  0.76537751  1
  Ta  Ta97  1  0.80393044  0.59745748  0.75162967  1
  Ta  Ta98  1  0.50718762  0.49893784  0.39564829  1
  Ta  Ta99  1  0.91056898  0.49858469  0.62449335  1
  Ta  Ta100  1  0.69993603  0.51717808  0.11201158  1
  Ta  Ta101  1  0.90018947  0.30342384  0.37317407  1
  Ta  Ta102  1  0.80452313  0.80370749  0.50509044  1
  Ta  Ta103  1  0.20357666  0.40242865  0.25456682  1
  Ta  Ta104  1  0.39125520  0.01153017  -0.00766423  1
  Ta  Ta105  1  0.11276206  0.51790684  0.12902432  1
  Ta  Ta106  1  0.89495669  0.51149870  0.11720627  1
  Ta  Ta107  1  0.70803092  0.69966033  0.38640094  1
  Ta  Ta108  1  0.58272895  0.60725159  0.74427592  1
  Ta  Ta109  1  0.50086742  0.10547070  0.60963265  1
  Ta  Ta110  1  0.00480717  0.59192666  0.75164140  1
  Ta  Ta111  1  0.29895879  0.09169992  0.14503345  1
  Ta  Ta112  1  0.60165671  -0.00064563  0.73009514  1
  Ta  Ta113  1  0.19501228  0.39404089  0.73459167  1
  Ta  Ta114  1  0.39978139  0.39917434  -0.00861107  1
  Ta  Ta115  1  0.10313396  0.90500228  0.10525048  1
  Ta  Ta116  1  0.10593679  0.88827331  0.87609559  1
  Ta  Ta117  1  0.39397810  0.60727276  0.49483940  1
  Ta  Ta118  1  0.29675373  0.91246138  0.12368886  1
  Ta  Ta119  1  0.39840841  -0.00119660  0.50404476  1
  Ti  Ti120  1  0.00554445  0.39640735  0.74203615  1
  Ti  Ti121  1  0.49785866  0.09548536  0.85738308  1
  Ti  Ti122  1  0.80424810  0.40419462  0.50434877  1
  Ti  Ti123  1  0.59346980  0.40395800  0.52294466  1
  Ti  Ti124  1  0.79535006  0.79405833  -0.00404214  1
  Ti  Ti125  1  0.10242177  0.89457278  0.37466010  1
  Ti  Ti126  1  0.69104278  0.11100299  0.39278957  1
  Ti  Ti127  1  0.90062934  0.69869419  0.37548491  1
  Ti  Ti128  1  0.50307414  0.29341014  0.40081084  1
  Ti  Ti129  1  0.10229041  0.49990480  0.88383687  1
  Ti  Ti130  1  0.70361405  0.49822974  0.63517510  1
  Ti  Ti131  1  -0.00129282  0.79590623  0.23555827  1
  Ti  Ti132  1  0.82424262  0.01827789  0.48480916  1
  Ti  Ti133  1  0.48711814  0.50919565  0.63039549  1
  Ti  Ti134  1  0.20551835  0.39759301  0.01296287  1
  Ti  Ti135  1  0.80708415  0.19966465  0.76238991  1
  Ti  Ti136  1  0.49637002  0.50118831  0.11755924  1
  Ti  Ti137  1  0.69228345  0.09663519  0.86425861  1
  Ti  Ti138  1  0.70698472  0.90189465  0.62461384  1
  Ti  Ti139  1  0.29686335  0.49196312  0.87819172  1
  Ti  Ti140  1  0.59785274  0.80085513  -0.00103015  1
  Ti  Ti141  1  0.31411259  0.88431937  0.62974666  1
  Ti  Ti142  1  0.49968147  0.89318726  0.39877738  1
  Ti  Ti143  1  0.31395805  0.69672058  0.64108277  1
  Ti  Ti144  1  0.58170411  0.80314034  0.73355333  1
  Ti  Ti145  1  0.69133027  0.89697321  0.11657008  1
  Ti  Ti146  1  0.89304415  0.68885749  0.11376303  1
  Ti  Ti147  1  0.49523566  0.50444199  0.86355458  1
  Ti  Ti148  1  0.09718223  0.88555408  0.64570675  1
  Ti  Ti149  1  0.80726613  0.80560049  0.75165881  1
  Ti  Ti150  1  0.39037816  0.40671464  0.74061254  1
  Ti  Ti151  1  0.80408159  0.00489513  0.74980465  1
  Ti  Ti152  1  0.40192603  0.59729748  -0.02157733  1
  Ti  Ti153  1  0.30300214  0.70551398  0.86299527  1
  Ti  Ti154  1  0.79968273  0.60270043  -0.01807286  1
  Ti  Ti155  1  0.57983019  0.20478956  0.26543616  1
  Ti  Ti156  1  0.18824681  0.61093253  -0.01393398  1
  Ti  Ti157  1  0.29588946  0.30530631  0.86337968  1
  Ti  Ti158  1  0.10385166  0.69735347  0.64722349  1
  Ti  Ti159  1  0.29205910  0.50103020  0.38119312  1
  Mo  Mo160  1  0.09500690  0.30207347  0.35710519  1
  Mo  Mo161  1  0.09459133  0.30012896  0.63355360  1
  Mo  Mo162  1  0.00060578  -0.00807694  0.47770832  1
  Mo  Mo163  1  0.29853140  0.30072103  0.37079317  1
  Mo  Mo164  1  0.79908770  0.60506184  0.24949766  1
  Mo  Mo165  1  0.10431113  0.69727318  0.86456646  1
  Mo  Mo166  1  0.00697655  0.79478950  0.76537836  1
  Mo  Mo167  1  0.59339774  0.41214412  0.72212677  1
  Mo  Mo168  1  0.19548356  0.39903319  0.48758851  1
  Mo  Mo169  1  0.90006906  0.30079410  0.88252560  1
  Mo  Mo170  1  0.00535079  -0.01038975  -0.01180289  1
  Mo  Mo171  1  0.89876880  0.09458034  0.35394741  1
  Mo  Mo172  1  0.39998512  0.59717455  0.76658907  1
  Mo  Mo173  1  0.49596015  0.30426684  0.12701597  1
  Mo  Mo174  1  0.20903895  -0.00399438  -0.00073403  1
  Mo  Mo175  1  0.29638083  0.10043059  0.59965529  1
  Mo  Mo176  1  0.20175730  0.59576198  0.26126818  1
  Mo  Mo177  1  0.40582160  0.78972498  0.74597394  1
  Mo  Mo178  1  0.29407762  0.30161594  0.62685909  1
  Mo  Mo179  1  0.40245009  0.20002508  0.28365684  1
  Mo  Mo180  1  0.48890793  0.70282386  0.62079575  1
  Mo  Mo181  1  -0.00161157  0.19955685  0.26196526  1
  Mo  Mo182  1  0.00467760  0.59552480  0.00708917  1
  Mo  Mo183  1  0.60668563  0.80488361  0.52028351  1
  Mo  Mo184  1  0.20460349  0.79653682  0.74048592  1
  Mo  Mo185  1  0.00550182  0.59927722  0.51943087  1
  Mo  Mo186  1  0.39747044  0.79686418  0.51089817  1
  Mo  Mo187  1  0.89558783  0.09507242  0.63614410  1
  Mo  Mo188  1  0.10919880  0.31063229  0.13655517  1
  Mo  Mo189  1  0.30063916  0.10392817  0.87036531  1
  Mo  Mo190  1  0.59504734  0.59818790  -0.01263095  1
  Mo  Mo191  1  0.50000881  0.69581525  0.87900791  1
  Mo  Mo192  1  0.50258029  0.89722316  0.61647388  1
  Mo  Mo193  1  0.59646425  0.20700308  0.51409935  1
  Mo  Mo194  1  0.09480395  0.49882534  0.63142543  1
  Mo  Mo195  1  0.20081474  -0.00220211  0.25853654  1
  Mo  Mo196  1  0.49647622  0.30969958  0.62404580  1
  Mo  Mo197  1  0.79921709  0.20273583  0.48209348  1
  Mo  Mo198  1  0.50098925  0.10686173  0.39814682  1
  Mo  Mo199  1  0.09913502  0.69973342  0.13453771  1
