# generated using pymatgen
data_HfZrTaTiMo
_symmetry_space_group_name_H-M   'P 1'
_cell_length_a   15.83806367
_cell_length_b   15.83122903
_cell_length_c   15.39045950
_cell_angle_alpha   89.97276706
_cell_angle_beta   90.06798252
_cell_angle_gamma   89.88719548
_symmetry_Int_Tables_number   1
_chemical_formula_structural   HfZrTaTiMo
_chemical_formula_sum   'Hf40 Zr40 Ta40 Ti40 Mo40'
_cell_volume   3858.93182290
_cell_formula_units_Z   40
loop_
 _symmetry_equiv_pos_site_id
 _symmetry_equiv_pos_as_xyz
  1  'x, y, z'
loop_
 _atom_site_type_symbol
 _atom_site_label
 _atom_site_symmetry_multiplicity
 _atom_site_fract_x
 _atom_site_fract_y
 _atom_site_fract_z
 _atom_site_occupancy
  Hf  Hf0  1  0.70938375  0.49497397  0.64106358  1
  Hf  Hf1  1  0.79552362  0.60454686  0.50143359  1
  Hf  Hf2  1  0.91379952  0.69495161  0.36824715  1
  Hf  Hf3  1  0.59943855  0.39373120  0.76165585  1
  Hf  Hf4  1  0.30137635  0.89747564  0.38382541  1
  Hf  Hf5  1  0.58943291  0.40005206  -0.00316495  1
  Hf  Hf6  1  0.59289402  0.79686077  0.24508311  1
  Hf  Hf7  1  0.71194662  0.49808877  0.11101186  1
  Hf  Hf8  1  0.40947084  0.41018564  0.47878948  1
  Hf  Hf9  1  0.30496962  0.50228737  0.61107101  1
  Hf  Hf10  1  0.79635300  0.79301854  0.49950895  1
  Hf  Hf11  1  0.69260514  0.10513958  0.39074571  1
  Hf  Hf12  1  0.89693712  0.10560170  0.39174098  1
  Hf  Hf13  1  0.49428629  0.69278812  0.38034740  1
  Hf  Hf14  1  0.00025916  0.60812023  0.00245858  1
  Hf  Hf15  1  0.58796985  0.01782009  -0.01822698  1
  Hf  Hf16  1  -0.00650276  0.80609765  -0.01891682  1
  Hf  Hf17  1  0.00765969  0.19361714  0.02166336  1
  Hf  Hf18  1  0.59687422  0.60676477  0.76880026  1
  Hf  Hf19  1  0.09737961  0.08829738  0.38256111  1
  Hf  Hf20  1  0.19229636  0.39775156  0.25540624  1
  Hf  Hf21  1  0.89407721  0.10339146  0.61280209  1
  Hf  Hf22  1  0.60746630  0.01215740  0.76182405  1
  Hf  Hf23  1  0.40632345  0.59565641  0.00105931  1
  Hf  Hf24  1  0.10468885  0.89696950  0.62601305  1
  Hf  Hf25  1  0.91392528  0.11204428  0.86317468  1
  Hf  Hf26  1  0.10743446  0.89854202  0.85743933  1
  Hf  Hf27  1  0.31145672  0.69262833  0.62578476  1
  Hf  Hf28  1  0.70683146  0.08948204  0.11347329  1
  Hf  Hf29  1  0.10908455  0.69928595  0.86268698  1
  Hf  Hf30  1  0.30496770  0.09870000  0.13795830  1
  Hf  Hf31  1  0.29795023  0.70232901  0.87674932  1
  Hf  Hf32  1  0.40581995  0.20326516  0.50165535  1
  Hf  Hf33  1  0.70865773  0.69645386  0.10408198  1
  Hf  Hf34  1  0.90715940  0.89982642  0.37697018  1
  Hf  Hf35  1  0.68579380  0.90552386  0.37750327  1
  Hf  Hf36  1  0.10652811  0.69612314  0.62878487  1
  Hf  Hf37  1  0.29488684  0.31219817  0.61342640  1
  Hf  Hf38  1  0.80798113  0.19357585  -0.00037944  1
  Hf  Hf39  1  0.19612244  0.21002654  0.48722688  1
  Zr  Zr40  1  -0.00607821  0.59342638  0.73988270  1
  Zr  Zr41  1  0.09855394  0.50677903  0.38273501  1
  Zr  Zr42  1  0.00375644  0.00554117  0.74312839  1
  Zr  Zr43  1  0.30018553  0.52094733  0.37198885  1
  Zr  Zr44  1  0.39393825  0.39981676  0.77055272  1
  Zr  Zr45  1  0.19522329  0.00688524  -0.00139536  1
  Zr  Zr46  1  0.11648258  0.48722407  0.61356540  1
  Zr  Zr47  1  0.39707476  0.00499996  0.75517858  1
  Zr  Zr48  1  0.30182907  0.29756136  0.13284845  1
  Zr  Zr49  1  -0.00347535  0.00434906  -0.00418386  1
  Zr  Zr50  1  0.50364652  0.29067794  0.35832332  1
  Zr  Zr51  1  0.40693719  0.18872187  -0.00731268  1
  Zr  Zr52  1  0.79040288  0.79662337  0.26483219  1
  Zr  Zr53  1  0.88892196  0.31073615  0.13184032  1
  Zr  Zr54  1  0.60601519  0.18771905  0.23185803  1
  Zr  Zr55  1  0.09820945  0.28674846  0.87971313  1
  Zr  Zr56  1  0.49133867  0.89775032  0.38149920  1
  Zr  Zr57  1  0.60713195  0.40163035  0.24599485  1
  Zr  Zr58  1  0.29922971  0.89449097  0.87328022  1
  Zr  Zr59  1  0.39593490  0.61799186  0.22950222  1
  Zr  Zr60  1  0.49998663  0.90045376  0.63294538  1
  Zr  Zr61  1  0.00203848  0.39625441  0.01246521  1
  Zr  Zr62  1  0.49795873  0.51057979  0.63102938  1
  Zr  Zr63  1  0.89483590  0.51130156  0.13335988  1
  Zr  Zr64  1  0.90192307  0.71290116  0.13429492  1
  Zr  Zr65  1  0.59889046  0.40504694  0.49364790  1
  Zr  Zr66  1  0.00160667  0.20495774  0.24956471  1
  Zr  Zr67  1  0.08927926  0.89280827  0.14241215  1
  Zr  Zr68  1  0.10185297  0.49472103  0.87962011  1
  Zr  Zr69  1  0.30684109  0.08949745  0.37624086  1
  Zr  Zr70  1  0.20103125  0.20191324  0.73976691  1
  Zr  Zr71  1  0.79900517  0.41362087  0.48255082  1
  Zr  Zr72  1  0.50249483  0.08847882  0.37296197  1
  Zr  Zr73  1  0.88928589  0.90827659  0.13013147  1
  Zr  Zr74  1  0.69795775  0.89620590  0.10947408  1
  Zr  Zr75  1  0.20574332  0.77541119  0.24443907  1
  Zr  Zr76  1  -0.00258116  0.39505053  0.73853654  1
  Zr  Zr77  1  0.88085885  0.30568298  0.61604314  1
  Zr  Zr78  1  0.79618975  -0.00523031  0.75691342  1
  Zr  Zr79  1  0.78565103  0.20130781  0.75676063  1
  Ta  Ta80  1  0.19582215  0.20150932  0.26203888  1
  Ta  Ta81  1  0.02411238  0.61218520  0.24024739  1
  Ta  Ta82  1  0.59628405  -0.00370153  0.51837027  1
  Ta  Ta83  1  0.00752140  0.20362861  0.72653341  1
  Ta  Ta84  1  0.20299644  0.00658578  0.73950837  1
  Ta  Ta85  1  0.59991192  0.60008001  -0.01135135  1
  Ta  Ta86  1  0.39875055  0.39418467  -0.00639882  1
  Ta  Ta87  1  0.39729488  0.20498383  0.75026878  1
  Ta  Ta88  1  0.50160724  0.10863533  0.63017269  1
  Ta  Ta89  1  0.10254557  0.09968397  0.60271759  1
  Ta  Ta90  1  0.10515433  0.09649902  0.14499925  1
  Ta  Ta91  1  0.80013608  0.20099648  0.25163062  1
  Ta  Ta92  1  0.69717784  0.10778672  0.61186901  1
  Ta  Ta93  1  0.90289743  0.30032226  0.38014859  1
  Ta  Ta94  1  0.49591900  0.29195389  0.12693756  1
  Ta  Ta95  1  0.29280862  0.49873847  0.89313044  1
  Ta  Ta96  1  0.60225160  0.79020731  0.51042981  1
  Ta  Ta97  1  -0.01307320  0.59564160  0.51899062  1
  Ta  Ta98  1  0.60601049  0.80421244  0.76402763  1
  Ta  Ta99  1  0.21262555  0.58874820  0.75172564  1
  Ta  Ta100  1  0.69700978  0.70191025  0.64071598  1
  Ta  Ta101  1  0.60091739  0.60467383  0.23981126  1
  Ta  Ta102  1  0.40876057  0.79152097  0.74597923  1
  Ta  Ta103  1  0.50013553  0.90501528  0.11228729  1
  Ta  Ta104  1  0.89431109  0.89155974  0.62594058  1
  Ta  Ta105  1  0.00004041  0.39753862  0.50098936  1
  Ta  Ta106  1  -0.01145883  0.79573263  0.74883996  1
  Ta  Ta107  1  0.30040988  0.49790524  0.12262093  1
  Ta  Ta108  1  0.89488512  0.49738832  0.88004975  1
  Ta  Ta109  1  0.10832546  0.69634096  0.39303857  1
  Ta  Ta110  1  0.20554515  0.80125951  0.50926966  1
  Ta  Ta111  1  0.69621026  0.29417409  0.88928542  1
  Ta  Ta112  1  0.19488880  0.79794501  0.01283083  1
  Ta  Ta113  1  0.19998261  0.60350830  0.01605815  1
  Ta  Ta114  1  0.70676223  0.49566932  0.88112223  1
  Ta  Ta115  1  0.30058237  0.09204101  0.60880408  1
  Ta  Ta116  1  0.79288919  0.00952982  0.26012577  1
  Ta  Ta117  1  0.80157354  0.60508538  0.75950281  1
  Ta  Ta118  1  0.79777218  0.40100514  0.26823344  1
  Ta  Ta119  1  0.79484159  -0.00772749  0.50413720  1
  Ti  Ti120  1  0.00320981  0.39877350  0.25125727  1
  Ti  Ti121  1  0.59669721  0.60351451  0.50525702  1
  Ti  Ti122  1  0.20161886  0.39127319  0.00820938  1
  Ti  Ti123  1  0.40456453  0.40607613  0.25178351  1
  Ti  Ti124  1  0.70078448  0.30096830  0.11229126  1
  Ti  Ti125  1  0.69120939  0.29591501  0.61656617  1
  Ti  Ti126  1  -0.00756030  0.00373691  0.25184140  1
  Ti  Ti127  1  0.60355439  0.80282599  -0.01884338  1
  Ti  Ti128  1  0.50798999  0.70811459  0.10858124  1
  Ti  Ti129  1  0.30007702  0.90149428  0.12226989  1
  Ti  Ti130  1  0.49606248  0.70751644  0.88285987  1
  Ti  Ti131  1  0.40609798  0.79756813  0.51643499  1
  Ti  Ti132  1  0.70107252  0.89715490  0.62789303  1
  Ti  Ti133  1  0.50524455  0.28363239  0.87610997  1
  Ti  Ti134  1  -0.00029552  -0.01056943  0.50735195  1
  Ti  Ti135  1  -0.00293135  0.79128353  0.51033771  1
  Ti  Ti136  1  0.39863974  0.80279431  0.23385033  1
  Ti  Ti137  1  0.50084198  0.49686606  0.12761730  1
  Ti  Ti138  1  0.79008044  0.60188317  0.26320861  1
  Ti  Ti139  1  0.80159663  -0.00534653  -0.02838776  1
  Ti  Ti140  1  0.10536020  0.49851161  0.12799511  1
  Ti  Ti141  1  0.20330122  0.39456826  0.76030370  1
  Ti  Ti142  1  0.30457515  0.30056261  0.36465516  1
  Ti  Ti143  1  0.89520448  0.30779386  0.87229019  1
  Ti  Ti144  1  0.30084256  0.70109960  0.39388965  1
  Ti  Ti145  1  0.80407822  0.79668879  -0.03173615  1
  Ti  Ti146  1  0.19886266  0.19839780  0.00574179  1
  Ti  Ti147  1  0.40379639  0.59626627  0.76961780  1
  Ti  Ti148  1  0.79764819  0.79810054  0.76420326  1
  Ti  Ti149  1  0.29146341  0.10871183  0.87245735  1
  Ti  Ti150  1  0.41033833  -0.00678976  0.23806023  1
  Ti  Ti151  1  0.70210311  0.29078665  0.38405751  1
  Ti  Ti152  1  0.90834882  0.50477812  0.36296128  1
  Ti  Ti153  1  0.50103537  0.30302269  0.62909234  1
  Ti  Ti154  1  0.20045329  -0.00876715  0.25431852  1
  Ti  Ti155  1  0.49456887  0.89873276  0.87552537  1
  Ti  Ti156  1  0.39786793  0.00301438  -0.00573046  1
  Ti  Ti157  1  0.10092469  0.88927364  0.37928019  1
  Ti  Ti158  1  0.39766858  0.80401004  0.00613504  1
  Ti  Ti159  1  0.68498677  0.51408007  0.37052266  1
  Mo  Mo160  1  0.19805608  -0.00734363  0.50196586  1
  Mo  Mo161  1  0.79905557  0.39636668  -0.01340024  1
  Mo  Mo162  1  0.20051851  0.60661315  0.50734837  1
  Mo  Mo163  1  0.79687487  0.39989914  0.76759283  1
  Mo  Mo164  1  0.69818958  0.11001293  0.88871740  1
  Mo  Mo165  1  0.30069519  0.89659404  0.62430111  1
  Mo  Mo166  1  0.59848722  0.20412643  0.01260487  1
  Mo  Mo167  1  0.29628409  0.29948398  0.88689122  1
  Mo  Mo168  1  0.89420372  0.50279847  0.63043881  1
  Mo  Mo169  1  0.68902194  0.69573736  0.37784108  1
  Mo  Mo170  1  0.20626311  0.79865597  0.73423509  1
  Mo  Mo171  1  0.10785998  0.29792202  0.12769778  1
  Mo  Mo172  1  0.89685512  0.09528565  0.14108172  1
  Mo  Mo173  1  0.89114311  0.70422887  0.63364123  1
  Mo  Mo174  1  0.00971122  0.80058346  0.26956255  1
  Mo  Mo175  1  0.20368149  0.39792650  0.47464328  1
  Mo  Mo176  1  0.89919738  0.90048891  0.85798366  1
  Mo  Mo177  1  0.40014905  -0.00381402  0.51755446  1
  Mo  Mo178  1  0.70010932  0.69982408  0.87839492  1
  Mo  Mo179  1  0.20006228  0.59809872  0.23017498  1
  Mo  Mo180  1  0.09728212  0.70148297  0.11470540  1
  Mo  Mo181  1  0.79497977  0.20429398  0.49190725  1
  Mo  Mo182  1  0.49799961  0.49854996  0.88117468  1
  Mo  Mo183  1  0.10761484  0.10241185  0.86823026  1
  Mo  Mo184  1  0.09818508  0.29867566  0.60865305  1
  Mo  Mo185  1  0.49697483  0.10876817  0.85397282  1
  Mo  Mo186  1  0.30552787  0.70611486  0.10481084  1
  Mo  Mo187  1  0.59511263  0.20383254  0.51447549  1
  Mo  Mo188  1  0.39780075  0.19802569  0.24862539  1
  Mo  Mo189  1  0.09352210  0.30381681  0.38363096  1
  Mo  Mo190  1  0.40963343  0.60537898  0.49695836  1
  Mo  Mo191  1  0.49916899  0.09012724  0.13483847  1
  Mo  Mo192  1  0.69720717  0.89981248  0.88305116  1
  Mo  Mo193  1  0.59537051  0.20633911  0.73798410  1
  Mo  Mo194  1  0.80359614  0.60588808  -0.02015369  1
  Mo  Mo195  1  0.90103810  0.69666441  0.86520335  1
  Mo  Mo196  1  -0.00126384  0.20484378  0.50758416  1
  Mo  Mo197  1  0.50433105  0.50797249  0.35353534  1
  Mo  Mo198  1  0.59853494  -0.00703146  0.23533965  1
  Mo  Mo199  1  0.50822560  0.70105771  0.63010308  1
