# generated using pymatgen
data_HfZrTaTiMo
_symmetry_space_group_name_H-M   'P 1'
_cell_length_a   15.83166510
_cell_length_b   15.82772306
_cell_length_c   15.40910192
_cell_angle_alpha   90.06071150
_cell_angle_beta   89.95812109
_cell_angle_gamma   90.05112649
_symmetry_Int_Tables_number   1
_chemical_formula_structural   HfZrTaTiMo
_chemical_formula_sum   'Hf40 Zr40 Ta40 Ti40 Mo40'
_cell_volume   3861.19586448
_cell_formula_units_Z   40
loop_
 _symmetry_equiv_pos_site_id
 _symmetry_equiv_pos_as_xyz
  1  'x, y, z'
loop_
 _atom_site_type_symbol
 _atom_site_label
 _atom_site_symmetry_multiplicity
 _atom_site_fract_x
 _atom_site_fract_y
 _atom_site_fract_z
 _atom_site_occupancy
  Hf  Hf0  1  0.09502427  0.09809036  0.13006077  1
  Hf  Hf1  1  0.60841129  0.00387647  0.23526128  1
  Hf  Hf2  1  0.61694474  0.61089762  0.77018632  1
  Hf  Hf3  1  0.00049099  0.19507632  0.48027254  1
  Hf  Hf4  1  0.70404333  0.88942713  0.87301013  1
  Hf  Hf5  1  0.81048916  0.00005435  -0.00398766  1
  Hf  Hf6  1  0.41478631  0.00469907  0.51271498  1
  Hf  Hf7  1  0.30573044  0.09556565  0.38747598  1
  Hf  Hf8  1  0.19618941  0.59879521  0.00514356  1
  Hf  Hf9  1  0.30337028  0.10719455  0.86910026  1
  Hf  Hf10  1  0.87559889  0.49750106  0.11962754  1
  Hf  Hf11  1  0.60426290  0.40944828  0.23520958  1
  Hf  Hf12  1  0.10114402  0.88755876  0.38493975  1
  Hf  Hf13  1  0.19560270  0.00223270  0.72960400  1
  Hf  Hf14  1  0.09063638  0.30653752  0.63522621  1
  Hf  Hf15  1  0.88535182  0.68017857  0.62007458  1
  Hf  Hf16  1  0.70226466  0.49949834  0.38242155  1
  Hf  Hf17  1  0.30391428  0.29889580  0.13409511  1
  Hf  Hf18  1  0.19228341  0.19794568  0.27324531  1
  Hf  Hf19  1  0.38166467  0.80573140  0.27832956  1
  Hf  Hf20  1  0.60260121  -0.00437389  0.00960779  1
  Hf  Hf21  1  0.30057292  0.32064361  0.37421048  1
  Hf  Hf22  1  0.40633056  -0.00765571  0.00986802  1
  Hf  Hf23  1  0.19514422  0.40795165  0.74938075  1
  Hf  Hf24  1  0.19317190  0.41884034  0.23692449  1
  Hf  Hf25  1  0.09093402  0.89813636  0.86802605  1
  Hf  Hf26  1  0.39552626  0.61025858  -0.02081664  1
  Hf  Hf27  1  0.40809701  0.21031093  0.50780875  1
  Hf  Hf28  1  0.60151104  0.20301896  0.00114569  1
  Hf  Hf29  1  0.89522839  0.29722107  0.35677295  1
  Hf  Hf30  1  0.70550525  0.30217641  0.62793221  1
  Hf  Hf31  1  0.19973523  0.00027451  0.00671326  1
  Hf  Hf32  1  0.39986677  0.40881919  -0.00609134  1
  Hf  Hf33  1  -0.00250221  0.58545711  0.74689726  1
  Hf  Hf34  1  0.80279547  0.00025030  0.73691255  1
  Hf  Hf35  1  0.39838659  -0.00332296  0.72592352  1
  Hf  Hf36  1  0.59449860  0.59883632  0.25381744  1
  Hf  Hf37  1  0.48028784  0.70448894  0.13181811  1
  Hf  Hf38  1  0.78827950  0.79429632  0.50608670  1
  Hf  Hf39  1  0.80402532  0.18835513  0.75035991  1
  Zr  Zr40  1  0.01419480  0.59679182  0.23820834  1
  Zr  Zr41  1  0.80652576  0.40948364  0.75010294  1
  Zr  Zr42  1  0.90639357  0.88422920  0.85770384  1
  Zr  Zr43  1  0.29850748  0.90723164  0.86977714  1
  Zr  Zr44  1  0.20369656  0.79252295  -0.00500505  1
  Zr  Zr45  1  0.20280159  0.79955098  0.73367591  1
  Zr  Zr46  1  0.70488742  0.68824957  0.12294798  1
  Zr  Zr47  1  0.59764187  0.80191262  0.00852771  1
  Zr  Zr48  1  -0.00446273  0.19080718  0.75537470  1
  Zr  Zr49  1  0.59551240  0.18864910  0.50901303  1
  Zr  Zr50  1  0.90977802  0.48873299  0.61252689  1
  Zr  Zr51  1  0.89430262  0.89730919  0.37977380  1
  Zr  Zr52  1  0.19264061  0.21834044  0.49047429  1
  Zr  Zr53  1  0.01592456  0.39214495  0.47845621  1
  Zr  Zr54  1  0.59574715  0.40048916  0.51606704  1
  Zr  Zr55  1  0.09075158  0.48718612  0.88744631  1
  Zr  Zr56  1  0.09696809  0.09008322  0.87380742  1
  Zr  Zr57  1  0.50360247  0.51287164  0.63085597  1
  Zr  Zr58  1  0.60477989  -0.00023244  0.73260822  1
  Zr  Zr59  1  0.08262809  0.70745303  0.86921053  1
  Zr  Zr60  1  0.51303824  0.91222466  0.38193078  1
  Zr  Zr61  1  0.49899846  0.09844944  0.86913856  1
  Zr  Zr62  1  0.20887246  -0.01446578  0.26370290  1
  Zr  Zr63  1  0.59764774  0.80851709  0.24011270  1
  Zr  Zr64  1  0.70282063  0.30401886  0.87478020  1
  Zr  Zr65  1  0.29585388  0.10384204  0.13143563  1
  Zr  Zr66  1  0.49872632  0.30074918  0.86806858  1
  Zr  Zr67  1  0.49539221  0.11184703  0.12684799  1
  Zr  Zr68  1  0.39605425  0.60750929  0.48619369  1
  Zr  Zr69  1  0.50104205  0.70019272  0.62922130  1
  Zr  Zr70  1  0.10188164  0.88477304  0.13509817  1
  Zr  Zr71  1  0.60762799  0.20267426  0.25134608  1
  Zr  Zr72  1  0.50551154  0.31197236  0.37245151  1
  Zr  Zr73  1  -0.00475082  0.18980041  -0.00399122  1
  Zr  Zr74  1  0.39202209  0.41058773  0.75283271  1
  Zr  Zr75  1  0.71820110  0.31081162  0.11237502  1
  Zr  Zr76  1  -0.00237404  0.38800576  0.01868813  1
  Zr  Zr77  1  0.80495422  0.39310088  0.49606776  1
  Zr  Zr78  1  0.20740566  0.59654652  0.75428908  1
  Zr  Zr79  1  -0.01267259  0.62049736  0.01473133  1
  Ta  Ta80  1  0.80398545  0.80011945  0.24549069  1
  Ta  Ta81  1  -0.00481327  0.78865145  0.50328001  1
  Ta  Ta82  1  0.20051874  0.39643949  0.01029463  1
  Ta  Ta83  1  0.39327545  0.60229612  0.26286510  1
  Ta  Ta84  1  0.29245816  0.10971217  0.61603096  1
  Ta  Ta85  1  0.40026813  0.60476746  0.77358665  1
  Ta  Ta86  1  0.80105907  0.18999725  0.50008313  1
  Ta  Ta87  1  0.70145384  0.70700000  0.36966117  1
  Ta  Ta88  1  0.20032277  0.20371640  0.74813881  1
  Ta  Ta89  1  0.09831856  0.29132150  0.14047025  1
  Ta  Ta90  1  0.59943020  0.80542203  0.51067835  1
  Ta  Ta91  1  0.39956979  0.79920663  0.74709151  1
  Ta  Ta92  1  0.39297315  0.20796719  -0.00320785  1
  Ta  Ta93  1  0.09249364  0.89795641  0.60996249  1
  Ta  Ta94  1  0.89810695  0.89575109  0.61713994  1
  Ta  Ta95  1  0.81410332  0.19760756  -0.01534455  1
  Ta  Ta96  1  0.30597734  0.51228603  0.12456154  1
  Ta  Ta97  1  0.90436021  0.50302796  0.36747630  1
  Ta  Ta98  1  0.40107803  0.79845610  -0.01494482  1
  Ta  Ta99  1  0.09802453  0.68947593  0.61351502  1
  Ta  Ta100  1  0.89916390  0.69433903  0.37146811  1
  Ta  Ta101  1  0.69963554  0.08438145  0.38697658  1
  Ta  Ta102  1  0.40462635  0.20178378  0.26652318  1
  Ta  Ta103  1  0.89068099  0.08495993  0.37929696  1
  Ta  Ta104  1  0.19399834  0.21128912  -0.00716843  1
  Ta  Ta105  1  -0.00123865  -0.00193472  0.25892797  1
  Ta  Ta106  1  0.39526751  0.40682471  0.51641891  1
  Ta  Ta107  1  0.50297816  0.89648642  0.86245712  1
  Ta  Ta108  1  0.40482719  0.41408534  0.24244723  1
  Ta  Ta109  1  0.60910758  0.61170377  0.49260041  1
  Ta  Ta110  1  0.59282378  0.60282761  -0.01538710  1
  Ta  Ta111  1  0.40669826  -0.00070127  0.25543182  1
  Ta  Ta112  1  0.60179723  0.40942126  0.74753641  1
  Ta  Ta113  1  0.09488265  0.09981979  0.60991449  1
  Ta  Ta114  1  0.89602762  0.50105799  0.88697866  1
  Ta  Ta115  1  0.82767803  0.79361867  0.01157562  1
  Ta  Ta116  1  -0.00883429  -0.01568350  0.01257866  1
  Ta  Ta117  1  0.60087836  0.19883668  0.73572869  1
  Ta  Ta118  1  0.39458790  0.80644904  0.50286528  1
  Ta  Ta119  1  0.11562605  0.51616299  0.37980342  1
  Ti  Ti120  1  -0.00602322  0.79092649  0.72403144  1
  Ti  Ti121  1  0.79436164  0.40275748  0.25224447  1
  Ti  Ti122  1  0.20015459  -0.00299255  0.50287278  1
  Ti  Ti123  1  0.71524255  0.52343455  0.62106195  1
  Ti  Ti124  1  0.70000839  0.09789981  0.87732456  1
  Ti  Ti125  1  0.28888805  0.70483153  0.14062961  1
  Ti  Ti126  1  0.79434557  0.60774285  -0.01338400  1
  Ti  Ti127  1  0.89788124  0.28442253  0.13809759  1
  Ti  Ti128  1  0.29127283  0.30371652  0.87381355  1
  Ti  Ti129  1  0.20310450  0.79332838  0.50716115  1
  Ti  Ti130  1  0.70373729  0.49860390  0.88744207  1
  Ti  Ti131  1  0.00245214  0.18937405  0.26607287  1
  Ti  Ti132  1  0.72140671  0.90291811  0.12447206  1
  Ti  Ti133  1  0.29654428  0.30672795  0.62562638  1
  Ti  Ti134  1  0.59910853  0.41155005  0.00252026  1
  Ti  Ti135  1  0.40001966  0.20437919  0.73355841  1
  Ti  Ti136  1  -0.00664762  0.00177239  0.73038751  1
  Ti  Ti137  1  0.30795094  0.88842963  0.12850160  1
  Ti  Ti138  1  0.26920709  0.69405126  0.37583834  1
  Ti  Ti139  1  0.49693740  0.50061009  0.38186294  1
  Ti  Ti140  1  0.60974129  -0.00513972  0.52598585  1
  Ti  Ti141  1  0.29839506  0.50630081  0.37438179  1
  Ti  Ti142  1  0.49817476  0.51115617  0.11874491  1
  Ti  Ti143  1  0.00201395  0.78913637  0.25267680  1
  Ti  Ti144  1  0.00517542  0.59609607  0.49214432  1
  Ti  Ti145  1  0.70039637  0.29597485  0.37972990  1
  Ti  Ti146  1  0.30356995  0.69291558  0.62446581  1
  Ti  Ti147  1  0.79772157  0.59802022  0.25314940  1
  Ti  Ti148  1  0.90467707  0.29087114  0.62461891  1
  Ti  Ti149  1  0.71485591  0.10719179  0.11801321  1
  Ti  Ti150  1  0.49645955  0.30521544  0.12409991  1
  Ti  Ti151  1  0.00130749  0.40222517  0.24317760  1
  Ti  Ti152  1  0.78839120  0.77882495  0.74221772  1
  Ti  Ti153  1  0.91222959  0.30946679  0.86986092  1
  Ti  Ti154  1  0.89584559  0.09271485  0.14111622  1
  Ti  Ti155  1  0.60454530  0.79970292  0.73912400  1
  Ti  Ti156  1  0.20407809  0.41709451  0.51151141  1
  Ti  Ti157  1  0.50466135  0.70667007  0.37758509  1
  Ti  Ti158  1  0.70624150  0.90505009  0.37470951  1
  Ti  Ti159  1  0.79528977  0.18583146  0.26047078  1
  Mo  Mo160  1  0.30311129  0.50812776  0.61930479  1
  Mo  Mo161  1  -0.00097209  0.39597754  0.75405270  1
  Mo  Mo162  1  0.29495617  0.89794885  0.60824367  1
  Mo  Mo163  1  0.89876505  0.08594239  0.87618413  1
  Mo  Mo164  1  0.80032391  0.59958295  0.76874024  1
  Mo  Mo165  1  0.09475475  0.08700238  0.38572615  1
  Mo  Mo166  1  0.29924524  0.89684834  0.39767773  1
  Mo  Mo167  1  0.70207233  0.88948377  0.63399655  1
  Mo  Mo168  1  -0.00518819  0.80336119  0.01112990  1
  Mo  Mo169  1  0.50455718  0.71358731  0.86517605  1
  Mo  Mo170  1  0.90409396  0.90180240  0.14346841  1
  Mo  Mo171  1  0.29955395  0.70521436  0.86340179  1
  Mo  Mo172  1  0.10372433  0.70121784  0.12786279  1
  Mo  Mo173  1  0.79443906  -0.00440724  0.51479948  1
  Mo  Mo174  1  0.49803410  0.30570160  0.64218401  1
  Mo  Mo175  1  0.80339066  0.39725337  -0.01283834  1
  Mo  Mo176  1  0.09450662  0.69751993  0.39101292  1
  Mo  Mo177  1  0.49767235  0.10436067  0.63709184  1
  Mo  Mo178  1  0.90294735  0.09405248  0.60254731  1
  Mo  Mo179  1  0.20177579  0.60419611  0.24008586  1
  Mo  Mo180  1  0.70457828  0.09985808  0.61401355  1
  Mo  Mo181  1  0.10447348  0.29666021  0.86716597  1
  Mo  Mo182  1  0.69375722  0.50506958  0.10403932  1
  Mo  Mo183  1  0.29693273  0.49749029  0.89352355  1
  Mo  Mo184  1  0.50874843  0.50217564  0.87216816  1
  Mo  Mo185  1  0.09848765  0.31477894  0.35286166  1
  Mo  Mo186  1  0.80380877  0.59970880  0.47746074  1
  Mo  Mo187  1  0.50015674  0.89286648  0.62748241  1
  Mo  Mo188  1  0.09761778  0.49502904  0.11207808  1
  Mo  Mo189  1  -0.00127724  -0.00487657  0.49973159  1
  Mo  Mo190  1  0.20193090  0.59990319  0.51277705  1
  Mo  Mo191  1  0.48725055  0.89772571  0.13577825  1
  Mo  Mo192  1  0.50657119  0.09906507  0.36479654  1
  Mo  Mo193  1  0.70705888  0.70908735  0.89190641  1
  Mo  Mo194  1  0.89233327  0.69849739  0.85851804  1
  Mo  Mo195  1  0.79858837  0.00158464  0.24445733  1
  Mo  Mo196  1  0.69630258  0.69073802  0.61720716  1
  Mo  Mo197  1  0.19400584  0.78856284  0.26069894  1
  Mo  Mo198  1  0.10358781  0.50306534  0.61233261  1
  Mo  Mo199  1  0.89814850  0.70287637  0.14724833  1
