# generated using pymatgen
data_HfZrTaTiMo
_symmetry_space_group_name_H-M   'P 1'
_cell_length_a   15.83911463
_cell_length_b   15.82848414
_cell_length_c   15.40781927
_cell_angle_alpha   90.00243291
_cell_angle_beta   89.99778574
_cell_angle_gamma   89.97833764
_symmetry_Int_Tables_number   1
_chemical_formula_structural   HfZrTaTiMo
_chemical_formula_sum   'Hf40 Zr40 Ta40 Ti40 Mo40'
_cell_volume   3862.88137018
_cell_formula_units_Z   40
loop_
 _symmetry_equiv_pos_site_id
 _symmetry_equiv_pos_as_xyz
  1  'x, y, z'
loop_
 _atom_site_type_symbol
 _atom_site_label
 _atom_site_symmetry_multiplicity
 _atom_site_fract_x
 _atom_site_fract_y
 _atom_site_fract_z
 _atom_site_occupancy
  Hf  Hf0  1  0.69892232  0.69843742  0.11533419  1
  Hf  Hf1  1  0.09589874  0.50255745  0.62995490  1
  Hf  Hf2  1  0.60526538  0.60353846  0.75539691  1
  Hf  Hf3  1  0.09715645  0.30012308  0.12249696  1
  Hf  Hf4  1  0.59534641  0.00600313  -0.01090894  1
  Hf  Hf5  1  0.01065094  0.01148382  0.74369397  1
  Hf  Hf6  1  0.81786839  0.79327467  -0.00084104  1
  Hf  Hf7  1  0.30108579  0.50365759  0.13339121  1
  Hf  Hf8  1  -0.00239232  0.20506032  0.75306843  1
  Hf  Hf9  1  0.19205961  0.19357170  0.73314455  1
  Hf  Hf10  1  0.59722632  0.78937856  0.76927576  1
  Hf  Hf11  1  0.79741348  0.20179291  0.76101351  1
  Hf  Hf12  1  0.20544209  0.00284743  0.73576659  1
  Hf  Hf13  1  0.70051521  0.30622223  0.63345333  1
  Hf  Hf14  1  0.40426427  0.39532060  0.00007367  1
  Hf  Hf15  1  0.88521664  0.29880719  0.12892891  1
  Hf  Hf16  1  0.40362121  0.60233953  0.48709302  1
  Hf  Hf17  1  0.07870147  0.30720965  0.60785501  1
  Hf  Hf18  1  0.39750478  0.00240789  0.00371388  1
  Hf  Hf19  1  0.30271642  0.50403415  0.61368055  1
  Hf  Hf20  1  0.50201405  0.48615483  0.13890483  1
  Hf  Hf21  1  0.89638033  0.08907724  0.36274552  1
  Hf  Hf22  1  0.60088103  0.19796273  0.76114669  1
  Hf  Hf23  1  0.19513923  0.39914518  0.26498668  1
  Hf  Hf24  1  0.49241752  0.51639089  0.87983327  1
  Hf  Hf25  1  0.89478613  0.70275716  0.36428874  1
  Hf  Hf26  1  -0.00960025  0.40461149  -0.00157968  1
  Hf  Hf27  1  0.18768906  0.40798105  0.48179273  1
  Hf  Hf28  1  0.59476679  0.19766238  0.49571947  1
  Hf  Hf29  1  0.91300750  0.70016385  0.13633321  1
  Hf  Hf30  1  0.19658883  0.39619954  0.74492823  1
  Hf  Hf31  1  0.29292585  0.29139938  0.87773974  1
  Hf  Hf32  1  0.10763474  0.50263793  0.88398143  1
  Hf  Hf33  1  0.91284421  0.90236495  0.35029638  1
  Hf  Hf34  1  0.29704184  0.51226424  0.88747579  1
  Hf  Hf35  1  0.79739345  0.19406241  0.50406287  1
  Hf  Hf36  1  0.90026143  0.89844999  0.63929200  1
  Hf  Hf37  1  0.89847002  0.47319581  0.62975793  1
  Hf  Hf38  1  0.11572428  0.90518587  0.88259293  1
  Hf  Hf39  1  -0.00191046  0.59787112  0.76457087  1
  Zr  Zr40  1  0.90571057  0.68992732  0.62658031  1
  Zr  Zr41  1  0.59513388  0.20798488  0.26765431  1
  Zr  Zr42  1  0.39506012  0.41053998  0.74674921  1
  Zr  Zr43  1  0.20457507  0.60973697  0.47668090  1
  Zr  Zr44  1  0.13445709  0.70704442  0.89394962  1
  Zr  Zr45  1  -0.01084663  0.19358519  0.00245774  1
  Zr  Zr46  1  0.69645562  0.10946133  0.12061478  1
  Zr  Zr47  1  0.32658453  0.70316696  0.89201749  1
  Zr  Zr48  1  -0.01096585  0.61932594  -0.01310372  1
  Zr  Zr49  1  0.79298393  0.80110839  0.50782715  1
  Zr  Zr50  1  0.78020078  0.59458314  0.51065514  1
  Zr  Zr51  1  0.31418795  0.29936845  0.13780020  1
  Zr  Zr52  1  0.39261162  0.80351186  0.49570796  1
  Zr  Zr53  1  0.00535007  0.58763204  0.48530401  1
  Zr  Zr54  1  0.40407856  0.00622873  0.48737231  1
  Zr  Zr55  1  0.01020651  0.80237558  0.49226419  1
  Zr  Zr56  1  0.79083684  0.78490097  0.75693080  1
  Zr  Zr57  1  0.89653922  0.29638423  0.36945327  1
  Zr  Zr58  1  0.79489229  0.39362781  0.49743963  1
  Zr  Zr59  1  0.11680523  0.69904937  0.62415660  1
  Zr  Zr60  1  0.48516714  0.89342509  0.86722368  1
  Zr  Zr61  1  0.00095576  0.00113703  0.50922687  1
  Zr  Zr62  1  0.69130959  0.49400421  0.35052341  1
  Zr  Zr63  1  0.39728833  0.18377706  0.27837230  1
  Zr  Zr64  1  0.19789478  -0.00441782  0.49482177  1
  Zr  Zr65  1  0.80559310  0.00381758  -0.00238008  1
  Zr  Zr66  1  0.59814657  0.00643681  0.25129857  1
  Zr  Zr67  1  0.91086397  0.89767111  0.87352869  1
  Zr  Zr68  1  0.49915479  0.90178597  0.63588883  1
  Zr  Zr69  1  0.10083088  0.51079960  0.12202848  1
  Zr  Zr70  1  0.60543109  -0.00891792  0.49959940  1
  Zr  Zr71  1  0.71143789  0.89867252  0.36354898  1
  Zr  Zr72  1  0.10180580  0.29663260  0.88644313  1
  Zr  Zr73  1  0.52344775  0.70503217  0.60213544  1
  Zr  Zr74  1  0.30788386  0.90820817  0.13865200  1
  Zr  Zr75  1  0.49256175  0.30189560  0.86335092  1
  Zr  Zr76  1  0.89186704  0.49955065  0.36099651  1
  Zr  Zr77  1  0.48916442  0.30383830  0.62102546  1
  Zr  Zr78  1  0.19814958  0.19609767  0.26065501  1
  Zr  Zr79  1  0.01378038  0.79214426  0.76200021  1
  Ta  Ta80  1  0.69462101  0.69894330  0.36705763  1
  Ta  Ta81  1  0.50157078  0.89293786  0.35993428  1
  Ta  Ta82  1  0.30408196  0.90636768  0.35326883  1
  Ta  Ta83  1  0.89523984  0.10526663  0.63216567  1
  Ta  Ta84  1  0.11172908  0.70387168  0.12803678  1
  Ta  Ta85  1  0.50797109  0.50317408  0.61392616  1
  Ta  Ta86  1  0.88002007  0.50416504  0.87940957  1
  Ta  Ta87  1  0.79051397  0.20160434  0.25589819  1
  Ta  Ta88  1  0.29175609  0.09213583  0.88066074  1
  Ta  Ta89  1  0.69548802  0.09245773  0.63266026  1
  Ta  Ta90  1  0.79360097  0.60231791  0.23632404  1
  Ta  Ta91  1  0.59389776  0.59604666  0.00774854  1
  Ta  Ta92  1  0.70686287  0.09536593  0.37617826  1
  Ta  Ta93  1  0.20141159  0.80608056  0.24628561  1
  Ta  Ta94  1  0.80008434  0.80262198  0.23348612  1
  Ta  Ta95  1  0.89325434  0.49893676  0.12811950  1
  Ta  Ta96  1  0.00364808  0.19748495  0.24921586  1
  Ta  Ta97  1  0.09983251  0.70570253  0.35105919  1
  Ta  Ta98  1  0.20318317  0.80673242  0.47968406  1
  Ta  Ta99  1  0.40091310  0.19358245  -0.00094112  1
  Ta  Ta100  1  0.70203894  0.90049143  0.11787480  1
  Ta  Ta101  1  0.40588553  0.62161700  0.73375267  1
  Ta  Ta102  1  0.89708786  0.09834777  0.13924735  1
  Ta  Ta103  1  0.20706949  0.18779776  0.01839346  1
  Ta  Ta104  1  0.59970714  0.40631023  0.49209933  1
  Ta  Ta105  1  0.60903366  0.41139326  0.75516076  1
  Ta  Ta106  1  0.59208305  0.20204573  -0.01217316  1
  Ta  Ta107  1  0.00116045  0.39741794  0.25455708  1
  Ta  Ta108  1  0.49058785  0.10502505  0.12749332  1
  Ta  Ta109  1  0.29623576  0.89490220  0.88674766  1
  Ta  Ta110  1  0.40633325  0.60670585  0.24775030  1
  Ta  Ta111  1  0.00517657  -0.00057102  0.02034473  1
  Ta  Ta112  1  0.78767928  0.58621774  0.74083261  1
  Ta  Ta113  1  0.41104698  0.79913646  0.02250677  1
  Ta  Ta114  1  0.69571083  0.48988897  0.12737199  1
  Ta  Ta115  1  0.79201052  0.00218429  0.75666596  1
  Ta  Ta116  1  0.49627488  0.10181957  0.63412905  1
  Ta  Ta117  1  0.11071424  0.89314812  0.62965182  1
  Ta  Ta118  1  0.10630857  0.09725225  0.89100384  1
  Ta  Ta119  1  0.30453021  0.10891450  0.60644118  1
  Ti  Ti120  1  0.29971079  0.30184789  0.60244517  1
  Ti  Ti121  1  0.68736947  0.30467860  0.12815733  1
  Ti  Ti122  1  0.20091867  0.01225745  0.24938961  1
  Ti  Ti123  1  0.90265636  0.09655963  0.87457950  1
  Ti  Ti124  1  0.88378200  0.30923592  0.88048576  1
  Ti  Ti125  1  0.50179510  0.29548747  0.13303295  1
  Ti  Ti126  1  0.50828893  0.90376858  0.13224947  1
  Ti  Ti127  1  0.41188259  0.79562142  0.24045985  1
  Ti  Ti128  1  0.21552176  0.60733533  0.74681636  1
  Ti  Ti129  1  0.59679624  0.79820747  -0.00430967  1
  Ti  Ti130  1  0.60288800  0.79577171  0.24095469  1
  Ti  Ti131  1  0.60486444  0.00127066  0.76145870  1
  Ti  Ti132  1  0.38472336  0.19367946  0.74377615  1
  Ti  Ti133  1  0.09183631  0.09278102  0.37196372  1
  Ti  Ti134  1  0.69124482  0.89007839  0.63246732  1
  Ti  Ti135  1  0.70908486  0.68114882  0.89759422  1
  Ti  Ti136  1  0.00603459  0.59544286  0.25256862  1
  Ti  Ti137  1  0.19196647  0.19738113  0.49082407  1
  Ti  Ti138  1  0.50975306  0.70237038  0.37276176  1
  Ti  Ti139  1  0.30527721  0.30098472  0.39286604  1
  Ti  Ti140  1  -0.00522553  0.19649136  0.49727077  1
  Ti  Ti141  1  0.78445042  0.20177336  -0.01430878  1
  Ti  Ti142  1  0.30097180  0.69765767  0.12404614  1
  Ti  Ti143  1  0.30340956  0.70585792  0.35226914  1
  Ti  Ti144  1  0.01610745  0.81399238  0.01821067  1
  Ti  Ti145  1  0.48563934  0.09820444  0.86151261  1
  Ti  Ti146  1  0.49721130  0.49789010  0.36552405  1
  Ti  Ti147  1  0.59525424  0.60549499  0.24103073  1
  Ti  Ti148  1  0.19692663  -0.00061951  0.02295601  1
  Ti  Ti149  1  0.30878913  0.50098261  0.36161293  1
  Ti  Ti150  1  0.70247994  0.89820519  0.88387875  1
  Ti  Ti151  1  0.49266906  0.31099429  0.38594525  1
  Ti  Ti152  1  0.78892555  0.39839693  0.00504702  1
  Ti  Ti153  1  0.38586674  -0.00368083  0.74301128  1
  Ti  Ti154  1  0.20433466  0.39690344  0.00892375  1
  Ti  Ti155  1  -0.00970495  0.39599213  0.76732358  1
  Ti  Ti156  1  0.70091107  0.49605552  0.88930898  1
  Ti  Ti157  1  0.59946329  0.39143458  -0.00821330  1
  Ti  Ti158  1  0.23102439  0.80062163  0.73895413  1
  Ti  Ti159  1  0.80085465  -0.00245961  0.51493163  1
  Mo  Mo160  1  0.40117163  0.39661894  0.27032601  1
  Mo  Mo161  1  0.90261166  0.90204079  0.13117265  1
  Mo  Mo162  1  -0.00125554  0.39589659  0.47881839  1
  Mo  Mo163  1  0.09852717  0.50397954  0.35577818  1
  Mo  Mo164  1  0.01101271  0.00549826  0.23395414  1
  Mo  Mo165  1  0.50518980  0.69954747  0.89464572  1
  Mo  Mo166  1  0.30442294  0.10041939  0.12286256  1
  Mo  Mo167  1  0.69744203  0.30690166  0.88176455  1
  Mo  Mo168  1  0.79538468  0.59065129  0.01553644  1
  Mo  Mo169  1  0.79419435  0.39441189  0.23513452  1
  Mo  Mo170  1  0.69738024  0.69792284  0.61741207  1
  Mo  Mo171  1  0.60276010  0.79978470  0.47968615  1
  Mo  Mo172  1  0.88499371  0.68875301  0.86521513  1
  Mo  Mo173  1  0.29871845  0.89962268  0.61974302  1
  Mo  Mo174  1  0.30688887  0.70413149  0.61855798  1
  Mo  Mo175  1  0.39877714  0.79780644  0.73924386  1
  Mo  Mo176  1  0.21093628  0.80958163  0.02581656  1
  Mo  Mo177  1  0.39912320  0.40640226  0.48823821  1
  Mo  Mo178  1  0.09779410  0.10513483  0.60958590  1
  Mo  Mo179  1  0.59710450  0.59527113  0.48046214  1
  Mo  Mo180  1  0.40493958  0.00119409  0.25793131  1
  Mo  Mo181  1  0.50340619  0.70017005  0.12419320  1
  Mo  Mo182  1  0.69640500  0.09833606  0.87702303  1
  Mo  Mo183  1  0.59346150  0.39303130  0.25882760  1
  Mo  Mo184  1  0.20603891  0.60437114  0.01638962  1
  Mo  Mo185  1  0.00564626  0.80295050  0.24240444  1
  Mo  Mo186  1  0.79978504  0.00026969  0.23230248  1
  Mo  Mo187  1  0.40745652  0.60196105  0.02838812  1
  Mo  Mo188  1  0.79609712  0.40092224  0.76282075  1
  Mo  Mo189  1  0.68765438  0.49649831  0.62590876  1
  Mo  Mo190  1  0.10692821  0.90328436  0.35215137  1
  Mo  Mo191  1  0.10066932  0.10113610  0.12580782  1
  Mo  Mo192  1  0.20803601  0.60839615  0.25285580  1
  Mo  Mo193  1  0.89805050  0.29292437  0.62637652  1
  Mo  Mo194  1  0.09044615  0.29545560  0.38325821  1
  Mo  Mo195  1  0.39650154  0.20312395  0.49813303  1
  Mo  Mo196  1  0.10307791  0.90298785  0.13706212  1
  Mo  Mo197  1  0.29352705  0.10094157  0.39151461  1
  Mo  Mo198  1  0.50364792  0.09642291  0.38536902  1
  Mo  Mo199  1  0.69540628  0.29856693  0.37561496  1
