# generated using pymatgen
data_HfZrTaTiMo
_symmetry_space_group_name_H-M   'P 1'
_cell_length_a   15.82148392
_cell_length_b   15.84411649
_cell_length_c   15.41437798
_cell_angle_alpha   89.96247727
_cell_angle_beta   90.01275711
_cell_angle_gamma   90.10925212
_symmetry_Int_Tables_number   1
_chemical_formula_structural   HfZrTaTiMo
_chemical_formula_sum   'Hf40 Zr40 Ta40 Ti40 Mo40'
_cell_volume   3864.02877463
_cell_formula_units_Z   40
loop_
 _symmetry_equiv_pos_site_id
 _symmetry_equiv_pos_as_xyz
  1  'x, y, z'
loop_
 _atom_site_type_symbol
 _atom_site_label
 _atom_site_symmetry_multiplicity
 _atom_site_fract_x
 _atom_site_fract_y
 _atom_site_fract_z
 _atom_site_occupancy
  Hf  Hf0  1  0.61453227  0.19423606  0.02297404  1
  Hf  Hf1  1  0.18334046  0.80771248  0.24198074  1
  Hf  Hf2  1  0.09716333  0.70783687  0.61902453  1
  Hf  Hf3  1  0.70348069  0.10370962  0.86836562  1
  Hf  Hf4  1  0.59850748  0.40284947  0.73997479  1
  Hf  Hf5  1  0.30141974  0.28085842  0.35656034  1
  Hf  Hf6  1  0.89835587  0.10819259  0.88070825  1
  Hf  Hf7  1  0.29177337  0.69673517  0.87063133  1
  Hf  Hf8  1  0.80261933  0.79722703  0.25819202  1
  Hf  Hf9  1  0.29896203  0.70284078  0.36511104  1
  Hf  Hf10  1  0.08482518  0.70052429  0.39064341  1
  Hf  Hf11  1  0.90139726  0.28283123  0.36645206  1
  Hf  Hf12  1  0.81854807  0.01514918  0.25472659  1
  Hf  Hf13  1  0.79947986  0.41224757  0.25638286  1
  Hf  Hf14  1  0.40147251  0.59300276  0.23070073  1
  Hf  Hf15  1  0.59915764  0.20017433  0.73465867  1
  Hf  Hf16  1  0.30093620  0.50698759  0.37649365  1
  Hf  Hf17  1  0.88971872  0.69978969  0.60381313  1
  Hf  Hf18  1  0.49564561  0.09414834  0.35929976  1
  Hf  Hf19  1  0.29750576  0.28549884  0.88413612  1
  Hf  Hf20  1  0.19205374  0.59043489  0.74520659  1
  Hf  Hf21  1  0.80864814  0.40664930  0.49651477  1
  Hf  Hf22  1  0.68868981  0.49952923  0.38305204  1
  Hf  Hf23  1  0.00471550  0.19843739  0.74437518  1
  Hf  Hf24  1  0.21703424  0.40931987  0.01287860  1
  Hf  Hf25  1  0.38979101  0.57826288  -0.00669107  1
  Hf  Hf26  1  0.09515832  0.51944732  0.11236442  1
  Hf  Hf27  1  0.60360111  0.59565654  0.75998119  1
  Hf  Hf28  1  0.79643771  0.40552591  0.73218261  1
  Hf  Hf29  1  0.19772468  0.40754435  0.24878257  1
  Hf  Hf30  1  0.89391189  0.29951555  0.87153732  1
  Hf  Hf31  1  0.41321874  -0.00146099  0.51062824  1
  Hf  Hf32  1  0.10112128  0.50291890  0.88828610  1
  Hf  Hf33  1  0.69286498  0.08878749  0.61614442  1
  Hf  Hf34  1  0.70274934  0.90804699  0.87794445  1
  Hf  Hf35  1  0.79475132  0.39383520  0.02080422  1
  Hf  Hf36  1  0.90366723  0.09750453  0.61179357  1
  Hf  Hf37  1  0.10355011  0.30028558  0.88429790  1
  Hf  Hf38  1  0.39756471  0.39720748  0.49878034  1
  Hf  Hf39  1  0.69538969  0.70438841  0.61637389  1
  Zr  Zr40  1  0.09151708  0.29262642  0.36518441  1
  Zr  Zr41  1  0.40310731  0.40142680  0.23771857  1
  Zr  Zr42  1  0.69902278  0.10643026  0.37584326  1
  Zr  Zr43  1  -0.01614442  0.59834772  0.73829231  1
  Zr  Zr44  1  0.89236386  0.50441041  0.88741763  1
  Zr  Zr45  1  0.50700873  0.69490484  0.11259860  1
  Zr  Zr46  1  0.19572572  -0.00549557  0.76578266  1
  Zr  Zr47  1  0.00013986  0.19791855  0.01654289  1
  Zr  Zr48  1  0.50636395  0.29863096  0.37318934  1
  Zr  Zr49  1  0.09670668  0.29985863  0.13781906  1
  Zr  Zr50  1  0.40332529  0.80648987  0.51006672  1
  Zr  Zr51  1  0.20618338  0.80389792  0.49761486  1
  Zr  Zr52  1  0.09119888  0.69810071  0.88016292  1
  Zr  Zr53  1  -0.00969570  0.40020704  0.01404162  1
  Zr  Zr54  1  0.00027320  0.40295741  0.74160228  1
  Zr  Zr55  1  0.90486660  0.89995449  0.61699228  1
  Zr  Zr56  1  0.69801322  0.69629069  0.38051590  1
  Zr  Zr57  1  0.32169003  0.89919827  0.34843764  1
  Zr  Zr58  1  0.50022235  0.10269638  0.88538432  1
  Zr  Zr59  1  0.58753244  0.80965217  0.25135420  1
  Zr  Zr60  1  0.40419373  0.58668988  0.76130893  1
  Zr  Zr61  1  0.21604370  -0.00396724  0.49804779  1
  Zr  Zr62  1  0.80256009  0.78864435  0.76188373  1
  Zr  Zr63  1  0.39317395  0.19195007  0.50841427  1
  Zr  Zr64  1  0.89863855  0.90873529  0.88479234  1
  Zr  Zr65  1  0.00975581  0.81335973  0.75847486  1
  Zr  Zr66  1  0.50723257  0.30229286  0.89087252  1
  Zr  Zr67  1  0.91125089  0.90394628  0.12556165  1
  Zr  Zr68  1  0.70881063  0.89127862  0.12317484  1
  Zr  Zr69  1  0.40159817  0.81035309  -0.00883412  1
  Zr  Zr70  1  0.49999283  0.70809335  0.63379435  1
  Zr  Zr71  1  0.29633110  0.91068800  0.12590106  1
  Zr  Zr72  1  0.40060628  0.20566965  0.74054192  1
  Zr  Zr73  1  0.28590343  0.69712064  0.11397624  1
  Zr  Zr74  1  0.19959719  0.39557069  0.48877854  1
  Zr  Zr75  1  0.70239343  0.90035521  0.63368397  1
  Zr  Zr76  1  0.48868033  0.70185030  0.36928046  1
  Zr  Zr77  1  0.70514618  0.29770092  0.87831593  1
  Zr  Zr78  1  0.09862948  0.09968462  0.38557129  1
  Zr  Zr79  1  0.17953291  0.60203889  0.25563529  1
  Ta  Ta80  1  0.40284275  0.39477657  0.01029311  1
  Ta  Ta81  1  0.59670461  0.82353944  0.48642276  1
  Ta  Ta82  1  0.68933748  0.49374145  0.89231101  1
  Ta  Ta83  1  0.00794002  0.00904013  0.75786204  1
  Ta  Ta84  1  0.50096084  0.29370280  0.12464759  1
  Ta  Ta85  1  0.29608924  0.09511731  0.63913515  1
  Ta  Ta86  1  -0.00644524  0.15805285  0.23846063  1
  Ta  Ta87  1  0.19510278  0.81645034  -0.01570603  1
  Ta  Ta88  1  0.49892369  0.49801975  0.61530999  1
  Ta  Ta89  1  0.39098201  0.60270122  0.51274389  1
  Ta  Ta90  1  0.60831777  0.79512220  -0.01338257  1
  Ta  Ta91  1  0.30403002  0.89443986  0.64878268  1
  Ta  Ta92  1  0.00006765  0.80626182  -0.00202012  1
  Ta  Ta93  1  0.69159832  0.51067972  0.11904840  1
  Ta  Ta94  1  0.90068736  0.70286817  0.38973472  1
  Ta  Ta95  1  0.29609883  0.70296885  0.64248137  1
  Ta  Ta96  1  0.29975641  0.49518893  0.62925494  1
  Ta  Ta97  1  0.40352505  0.80518414  0.76727055  1
  Ta  Ta98  1  0.10297976  0.09814041  0.61579390  1
  Ta  Ta99  1  0.91190287  0.89855679  0.37464071  1
  Ta  Ta100  1  0.51308223  0.91013375  0.64637314  1
  Ta  Ta101  1  0.40315133  0.00470288  0.75764962  1
  Ta  Ta102  1  0.69683279  0.29963721  0.60030650  1
  Ta  Ta103  1  0.59774274  0.79793609  0.77319404  1
  Ta  Ta104  1  0.19511270  0.18129074  0.23092567  1
  Ta  Ta105  1  0.90105190  0.29673634  0.15695084  1
  Ta  Ta106  1  0.80083165  0.20516112  0.72641953  1
  Ta  Ta107  1  0.10061379  0.49078314  0.61293930  1
  Ta  Ta108  1  0.69579161  0.30039552  0.37741777  1
  Ta  Ta109  1  0.30381584  0.08949726  0.34545526  1
  Ta  Ta110  1  0.79104793  0.59361478  0.75164690  1
  Ta  Ta111  1  0.59758756  -0.00051811  0.01812046  1
  Ta  Ta112  1  0.60097458  0.19769387  0.24119710  1
  Ta  Ta113  1  0.10270636  0.29442014  0.61466221  1
  Ta  Ta114  1  0.79546510  0.01366197  0.01340616  1
  Ta  Ta115  1  0.58811175  0.60473762  0.50270621  1
  Ta  Ta116  1  0.11241369  0.10965075  0.89099481  1
  Ta  Ta117  1  0.89314437  0.70236488  0.11127225  1
  Ta  Ta118  1  0.38807160  0.18148854  0.01936483  1
  Ta  Ta119  1  0.59849190  0.40554120  0.23883032  1
  Ti  Ti120  1  0.80472245  0.19981361  0.02917950  1
  Ti  Ti121  1  0.80395361  0.19889583  0.49979297  1
  Ti  Ti122  1  0.89359915  0.51306046  0.12607028  1
  Ti  Ti123  1  0.00208480  -0.00386457  0.49500386  1
  Ti  Ti124  1  0.80854446  0.00776540  0.74776055  1
  Ti  Ti125  1  0.20215084  0.39518235  0.75103406  1
  Ti  Ti126  1  0.58886175  0.19011332  0.50379418  1
  Ti  Ti127  1  -0.00488508  0.58734750  0.50858397  1
  Ti  Ti128  1  0.09114230  0.70659560  0.10639405  1
  Ti  Ti129  1  0.00042146  0.79830110  0.24216573  1
  Ti  Ti130  1  0.22352714  0.01383946  -0.01129358  1
  Ti  Ti131  1  0.30029846  0.28920585  0.13082736  1
  Ti  Ti132  1  0.50150387  0.30428478  0.61422580  1
  Ti  Ti133  1  0.20609426  0.19496635  0.50129036  1
  Ti  Ti134  1  0.79437361  -0.00581198  0.48170883  1
  Ti  Ti135  1  0.50375740  0.69124736  0.88448343  1
  Ti  Ti136  1  0.50055590  0.50241963  0.38535656  1
  Ti  Ti137  1  0.78791453  0.60687476  -0.00483419  1
  Ti  Ti138  1  0.00028793  0.42582920  0.25939030  1
  Ti  Ti139  1  0.69798051  0.50662973  0.60715387  1
  Ti  Ti140  1  0.19725996  0.19717090  0.74610284  1
  Ti  Ti141  1  0.29299081  0.30127600  0.62889531  1
  Ti  Ti142  1  0.50506357  0.91027607  0.87796945  1
  Ti  Ti143  1  0.90606587  0.30068815  0.61313614  1
  Ti  Ti144  1  0.79383854  0.81129727  0.48340813  1
  Ti  Ti145  1  0.70499113  0.30053382  0.14783586  1
  Ti  Ti146  1  0.79747896  0.60522373  0.24895700  1
  Ti  Ti147  1  0.70049960  0.69674955  0.11725555  1
  Ti  Ti148  1  0.00051867  0.40047645  0.49280216  1
  Ti  Ti149  1  0.10518263  0.90384680  0.62200224  1
  Ti  Ti150  1  0.42679591  -0.01125160  0.22171280  1
  Ti  Ti151  1  0.01279838  0.00272527  -0.00162828  1
  Ti  Ti152  1  0.89300210  0.69943550  0.89119261  1
  Ti  Ti153  1  0.90074776  0.51717453  0.37866160  1
  Ti  Ti154  1  0.59719735  0.59403869  0.24775275  1
  Ti  Ti155  1  0.09852290  0.89972832  0.37686647  1
  Ti  Ti156  1  0.60830826  -0.00111946  0.23637232  1
  Ti  Ti157  1  0.19972702  0.59698376  0.50717237  1
  Ti  Ti158  1  0.40089790  0.40042043  0.75693553  1
  Ti  Ti159  1  -0.01253466  0.61246586  0.24746356  1
  Mo  Mo160  1  0.59860219  0.40066544  0.50678445  1
  Mo  Mo161  1  -0.01144932  0.60836682  0.00887050  1
  Mo  Mo162  1  0.50492452  0.89527291  0.10406621  1
  Mo  Mo163  1  0.50663936  0.49530032  0.11000817  1
  Mo  Mo164  1  0.30021049  0.10586051  0.86572735  1
  Mo  Mo165  1  0.60003291  0.00019172  0.75884222  1
  Mo  Mo166  1  0.90424187  0.09547309  0.11396793  1
  Mo  Mo167  1  0.80065379  0.20170171  0.25063450  1
  Mo  Mo168  1  0.30353078  0.09112030  0.13934635  1
  Mo  Mo169  1  0.29827996  0.48434262  0.85864070  1
  Mo  Mo170  1  0.79535223  0.60229664  0.49678627  1
  Mo  Mo171  1  0.20170874  0.80192332  0.75779183  1
  Mo  Mo172  1  0.89695196  0.49909063  0.61355769  1
  Mo  Mo173  1  0.30600732  0.90445211  0.86819996  1
  Mo  Mo174  1  0.08673095  0.50474232  0.39186230  1
  Mo  Mo175  1  0.59917968  0.59740668  -0.01326556  1
  Mo  Mo176  1  -0.00021231  0.80820733  0.50004703  1
  Mo  Mo177  1  0.10152906  0.91235448  0.88952087  1
  Mo  Mo178  1  0.40120500  0.19186001  0.23250459  1
  Mo  Mo179  1  0.70496466  0.09991217  0.14127996  1
  Mo  Mo180  1  0.50336730  0.48661325  0.88852826  1
  Mo  Mo181  1  0.20483235  0.19537772  0.01955607  1
  Mo  Mo182  1  0.79936830  0.79891210  -0.00258083  1
  Mo  Mo183  1  0.10962213  0.08269784  0.11184751  1
  Mo  Mo184  1  0.01285728  -0.01415244  0.25318482  1
  Mo  Mo185  1  0.50074114  0.09382174  0.62957228  1
  Mo  Mo186  1  0.39921113  0.80109357  0.22854849  1
  Mo  Mo187  1  0.18161111  -0.00023963  0.25158908  1
  Mo  Mo188  1  0.50676989  0.90973482  0.36677771  1
  Mo  Mo189  1  0.40386157  0.00326525  -0.00546732  1
  Mo  Mo190  1  0.00119021  0.20295481  0.51192512  1
  Mo  Mo191  1  0.19754480  0.60544728  -0.00544758  1
  Mo  Mo192  1  0.10360797  0.90011565  0.10568644  1
  Mo  Mo193  1  0.90493411  0.09562168  0.39409762  1
  Mo  Mo194  1  0.70323636  0.90687934  0.36851091  1
  Mo  Mo195  1  0.59781193  -0.00299313  0.49093181  1
  Mo  Mo196  1  0.50289805  0.09718933  0.12703894  1
  Mo  Mo197  1  0.60192983  0.39604725  0.02340528  1
  Mo  Mo198  1  0.29828266  0.49694848  0.13385696  1
  Mo  Mo199  1  0.70257489  0.69485741  0.87958878  1
