# generated using pymatgen
data_HfZrTaTiMo
_symmetry_space_group_name_H-M   'P 1'
_cell_length_a   15.83963825
_cell_length_b   15.84028182
_cell_length_c   15.39278835
_cell_angle_alpha   89.94638373
_cell_angle_beta   89.97111165
_cell_angle_gamma   89.92039340
_symmetry_Int_Tables_number   1
_chemical_formula_structural   HfZrTaTiMo
_chemical_formula_sum   'Hf40 Zr40 Ta40 Ti40 Mo40'
_cell_volume   3862.11140063
_cell_formula_units_Z   40
loop_
 _symmetry_equiv_pos_site_id
 _symmetry_equiv_pos_as_xyz
  1  'x, y, z'
loop_
 _atom_site_type_symbol
 _atom_site_label
 _atom_site_symmetry_multiplicity
 _atom_site_fract_x
 _atom_site_fract_y
 _atom_site_fract_z
 _atom_site_occupancy
  Hf  Hf0  1  0.81122251  0.38877221  0.49824172  1
  Hf  Hf1  1  0.10304916  0.50111416  0.38607908  1
  Hf  Hf2  1  0.70780106  0.69538286  0.62508060  1
  Hf  Hf3  1  0.38886933  0.78282403  0.01184392  1
  Hf  Hf4  1  0.90232541  0.90417317  0.64589490  1
  Hf  Hf5  1  0.29832804  0.69732081  0.38793385  1
  Hf  Hf6  1  0.21711168  0.39435693  -0.00358673  1
  Hf  Hf7  1  0.79886081  0.00011999  0.23241599  1
  Hf  Hf8  1  -0.00612352  0.79612818  0.22872652  1
  Hf  Hf9  1  0.20498358  0.60001048  0.24318043  1
  Hf  Hf10  1  0.80592067  0.39882003  0.26148396  1
  Hf  Hf11  1  0.90134499  0.49330938  0.11159418  1
  Hf  Hf12  1  0.58929614  0.60676983  0.00104472  1
  Hf  Hf13  1  0.48930218  0.29869816  0.11888723  1
  Hf  Hf14  1  0.89877951  0.90393945  0.36386033  1
  Hf  Hf15  1  0.69482668  0.90405327  0.88426678  1
  Hf  Hf16  1  0.41328365  0.00188920  0.49423798  1
  Hf  Hf17  1  0.58837795  0.80868615  0.49939305  1
  Hf  Hf18  1  0.70025441  0.89813516  0.63633781  1
  Hf  Hf19  1  0.00023918  0.00039628  0.49421184  1
  Hf  Hf20  1  0.11219386  0.28336030  0.63261440  1
  Hf  Hf21  1  0.49838628  0.49173347  0.12016982  1
  Hf  Hf22  1  0.90073964  0.29797600  0.11519922  1
  Hf  Hf23  1  0.58881066  0.79801944  0.00693310  1
  Hf  Hf24  1  0.79289579  0.79628614  0.22698195  1
  Hf  Hf25  1  0.31238834  0.89476184  0.86401321  1
  Hf  Hf26  1  0.59469111  0.19324541  0.25750838  1
  Hf  Hf27  1  0.89120161  0.50791918  0.62016733  1
  Hf  Hf28  1  0.19453945  0.00923078  0.00273509  1
  Hf  Hf29  1  0.09152538  0.90860026  0.63972158  1
  Hf  Hf30  1  0.90461918  0.29273439  0.88070498  1
  Hf  Hf31  1  0.59799687  0.39588248  -0.01979475  1
  Hf  Hf32  1  0.79790566  0.60221443  0.23574407  1
  Hf  Hf33  1  -0.00461311  0.00561408  0.22378437  1
  Hf  Hf34  1  0.47861453  0.69894426  0.85780140  1
  Hf  Hf35  1  0.70061048  0.28875337  0.38822239  1
  Hf  Hf36  1  0.10494447  0.30386330  0.12668279  1
  Hf  Hf37  1  0.29821400  0.90503835  0.62583828  1
  Hf  Hf38  1  0.09847886  0.70280156  0.37467774  1
  Hf  Hf39  1  0.19985603  0.79347115  0.75511928  1
  Zr  Zr40  1  0.39659905  0.20116033  0.49418162  1
  Zr  Zr41  1  0.60280588  0.59977001  0.24670468  1
  Zr  Zr42  1  0.00186074  0.60259065  0.76513083  1
  Zr  Zr43  1  0.10227112  0.50415464  0.61541006  1
  Zr  Zr44  1  0.31613193  0.50290831  0.12313347  1
  Zr  Zr45  1  0.39727967  0.41775809  0.73123111  1
  Zr  Zr46  1  0.20757535  -0.00467017  0.23834557  1
  Zr  Zr47  1  0.28127573  0.10796264  0.62218449  1
  Zr  Zr48  1  0.00094024  0.60245612  -0.00197666  1
  Zr  Zr49  1  0.30268345  0.89300969  0.38315152  1
  Zr  Zr50  1  0.20687742  0.38418999  0.50490445  1
  Zr  Zr51  1  0.00626544  0.40225566  0.75286309  1
  Zr  Zr52  1  0.59814290  0.20232079  -0.01301709  1
  Zr  Zr53  1  0.00091679  0.79786383  0.77885545  1
  Zr  Zr54  1  0.69767764  0.30247293  0.12410486  1
  Zr  Zr55  1  0.79802885  0.80636710  0.49470064  1
  Zr  Zr56  1  -0.00009893  0.59385926  0.23807642  1
  Zr  Zr57  1  0.59546685  0.59501880  0.74102002  1
  Zr  Zr58  1  0.09124506  0.29353595  0.36771646  1
  Zr  Zr59  1  0.18577221  0.80958338  0.50515029  1
  Zr  Zr60  1  0.89502816  0.69382021  0.37964435  1
  Zr  Zr61  1  0.40620274  0.00933519  0.26674650  1
  Zr  Zr62  1  0.60231590  0.39892575  0.26532951  1
  Zr  Zr63  1  0.50973016  0.30351041  0.61774611  1
  Zr  Zr64  1  0.80426435  0.39859327  0.74884659  1
  Zr  Zr65  1  0.48950648  0.70597087  0.37204699  1
  Zr  Zr66  1  0.90471001  0.70547431  0.62422780  1
  Zr  Zr67  1  0.29712583  0.11001428  0.87557892  1
  Zr  Zr68  1  0.59669677  0.00903570  0.74594052  1
  Zr  Zr69  1  -0.00397682  0.19439686  0.50621052  1
  Zr  Zr70  1  0.49243116  0.09325574  0.88465846  1
  Zr  Zr71  1  0.40346402  0.19421284  0.27286668  1
  Zr  Zr72  1  0.40486789  0.39745910  0.27577800  1
  Zr  Zr73  1  0.70655042  0.50774603  0.88058855  1
  Zr  Zr74  1  0.21186736  0.59648752  0.74802200  1
  Zr  Zr75  1  0.80214249  0.00442825  0.50658214  1
  Zr  Zr76  1  0.20284035  0.80831687  0.00183808  1
  Zr  Zr77  1  0.89196463  0.10665616  0.88043852  1
  Zr  Zr78  1  0.60278209  0.39937251  0.75178278  1
  Zr  Zr79  1  0.49415059  0.90389315  0.13022113  1
  Ta  Ta80  1  0.30214150  0.30403897  0.85500869  1
  Ta  Ta81  1  0.31008789  0.70362362  0.61345940  1
  Ta  Ta82  1  0.11129935  0.29145200  0.87569734  1
  Ta  Ta83  1  0.70302773  0.49942254  0.10882601  1
  Ta  Ta84  1  0.30809327  0.11012459  0.11408887  1
  Ta  Ta85  1  0.70716635  0.29255048  0.62298127  1
  Ta  Ta86  1  0.80848979  0.19507024  0.51297843  1
  Ta  Ta87  1  0.30244439  0.50725181  0.38896578  1
  Ta  Ta88  1  0.69637184  0.70006622  0.37952870  1
  Ta  Ta89  1  0.00161079  -0.00241122  0.00158426  1
  Ta  Ta90  1  0.60557174  0.19312017  0.74413198  1
  Ta  Ta91  1  0.79541359  0.00773973  0.75648435  1
  Ta  Ta92  1  0.70334651  0.70503153  0.88585746  1
  Ta  Ta93  1  0.70458442  0.50860121  0.39321841  1
  Ta  Ta94  1  -0.00616076  0.38967794  0.50436754  1
  Ta  Ta95  1  0.59768948  0.60741844  0.50882403  1
  Ta  Ta96  1  0.89341203  0.90222332  0.88573803  1
  Ta  Ta97  1  0.20362292  0.19433790  0.24625818  1
  Ta  Ta98  1  0.60231677  0.00164425  0.25134876  1
  Ta  Ta99  1  0.70658091  0.09485467  0.37943152  1
  Ta  Ta100  1  0.48983343  0.29805755  0.85982538  1
  Ta  Ta101  1  0.40292498  0.39840445  0.50006165  1
  Ta  Ta102  1  0.69259731  0.09949010  0.11384602  1
  Ta  Ta103  1  0.49493605  0.89532063  0.63845779  1
  Ta  Ta104  1  0.80176733  0.19333191  0.24248929  1
  Ta  Ta105  1  0.01382401  0.18948791  0.01132601  1
  Ta  Ta106  1  0.11574189  0.49765212  0.88565656  1
  Ta  Ta107  1  0.49761723  0.10061616  0.11112949  1
  Ta  Ta108  1  0.80014195  0.39616116  -0.01149671  1
  Ta  Ta109  1  0.19199440  -0.00158603  0.76673089  1
  Ta  Ta110  1  0.80124408  -0.00009450  0.01010745  1
  Ta  Ta111  1  0.40401276  0.19923404  0.73272840  1
  Ta  Ta112  1  0.20262355  0.40252731  0.25259336  1
  Ta  Ta113  1  0.11023732  0.69685031  0.89259295  1
  Ta  Ta114  1  0.09711422  0.09731481  0.35943297  1
  Ta  Ta115  1  0.09383836  0.10593496  0.86886835  1
  Ta  Ta116  1  0.30326874  0.30075746  0.13475622  1
  Ta  Ta117  1  0.60004406  0.80087806  0.24307321  1
  Ta  Ta118  1  0.10388837  0.69881837  0.11389194  1
  Ta  Ta119  1  0.50306379  0.50533871  0.39488829  1
  Ti  Ti120  1  0.48656131  0.50184078  0.87871136  1
  Ti  Ti121  1  0.00980405  0.39764912  -0.01097942  1
  Ti  Ti122  1  0.38972571  0.80225703  0.24179125  1
  Ti  Ti123  1  0.70218755  0.09902758  0.88832198  1
  Ti  Ti124  1  0.20455546  0.40119303  0.74662930  1
  Ti  Ti125  1  0.71230571  0.28312526  0.86610754  1
  Ti  Ti126  1  0.60335320  0.18565155  0.51121176  1
  Ti  Ti127  1  -0.00211723  0.80759509  0.49717675  1
  Ti  Ti128  1  0.80018630  0.79749832  0.76779110  1
  Ti  Ti129  1  0.69289280  0.90224150  0.11220450  1
  Ti  Ti130  1  0.09400344  0.09364771  0.64522412  1
  Ti  Ti131  1  0.89924143  0.10945845  0.36711087  1
  Ti  Ti132  1  0.39357256  -0.01112654  0.00562730  1
  Ti  Ti133  1  0.40008645  0.00832258  0.74119363  1
  Ti  Ti134  1  0.10048926  0.69878632  0.61981523  1
  Ti  Ti135  1  0.20131687  0.79959756  0.23625749  1
  Ti  Ti136  1  -0.00603106  0.80261121  -0.00023946  1
  Ti  Ti137  1  0.49666459  0.89816190  0.86841750  1
  Ti  Ti138  1  0.90059717  0.50319686  0.88492226  1
  Ti  Ti139  1  0.90167400  0.09889003  0.64539949  1
  Ti  Ti140  1  -0.00461018  0.19577794  0.23623802  1
  Ti  Ti141  1  0.48082462  0.68497535  0.14107394  1
  Ti  Ti142  1  0.22071501  0.61068083  0.00337061  1
  Ti  Ti143  1  0.59944309  0.79559097  0.75382808  1
  Ti  Ti144  1  0.69291581  0.90088734  0.36802416  1
  Ti  Ti145  1  0.69427168  0.49236133  0.60661276  1
  Ti  Ti146  1  -0.00400339  0.20191042  0.74912797  1
  Ti  Ti147  1  0.60119136  -0.00117365  0.50311529  1
  Ti  Ti148  1  0.31127641  0.51125363  0.87789731  1
  Ti  Ti149  1  0.18904183  0.00954688  0.49104171  1
  Ti  Ti150  1  -0.00154645  0.60193298  0.50063112  1
  Ti  Ti151  1  0.09903161  0.89820283  0.11875526  1
  Ti  Ti152  1  0.30374351  0.51115186  0.60140066  1
  Ti  Ti153  1  0.09572450  0.90058572  0.36090361  1
  Ti  Ti154  1  0.00008863  0.40152283  0.25426458  1
  Ti  Ti155  1  0.29036741  0.29565142  0.37092494  1
  Ti  Ti156  1  0.38693903  0.21671336  -0.00756308  1
  Ti  Ti157  1  0.80651289  0.60910402  0.76402926  1
  Ti  Ti158  1  0.10912539  0.49780836  0.11326563  1
  Ti  Ti159  1  0.90327120  0.49931025  0.38321775  1
  Mo  Mo160  1  -0.00436826  0.00263162  0.77355005  1
  Mo  Mo161  1  0.89541437  0.70058749  0.10552878  1
  Mo  Mo162  1  0.40059434  0.60121163  0.72521049  1
  Mo  Mo163  1  0.40169153  0.39665728  -0.01957537  1
  Mo  Mo164  1  0.20357733  0.20493124  0.00913050  1
  Mo  Mo165  1  0.79759587  0.60285482  0.00584159  1
  Mo  Mo166  1  0.79596688  0.19462168  0.73433046  1
  Mo  Mo167  1  0.10339007  0.10527274  0.13222349  1
  Mo  Mo168  1  0.29897554  0.69207335  0.86504188  1
  Mo  Mo169  1  0.89981945  0.29191470  0.35936023  1
  Mo  Mo170  1  0.49993409  0.70520937  0.63379457  1
  Mo  Mo171  1  0.79672318  0.80031961  0.00738695  1
  Mo  Mo172  1  0.69206512  0.70031039  0.11150660  1
  Mo  Mo173  1  0.19830424  0.20004771  0.75697817  1
  Mo  Mo174  1  0.40087659  0.59656282  0.27131570  1
  Mo  Mo175  1  0.09696833  0.90409622  0.88144375  1
  Mo  Mo176  1  0.59681143  -0.00111295  0.00561354  1
  Mo  Mo177  1  0.60578758  0.39980085  0.49670005  1
  Mo  Mo178  1  0.52578889  0.09743576  0.39153758  1
  Mo  Mo179  1  0.50205096  0.09798699  0.61874728  1
  Mo  Mo180  1  0.39862559  0.59896441  -0.00116484  1
  Mo  Mo181  1  0.79772463  0.59785456  0.49614290  1
  Mo  Mo182  1  0.70181777  0.09967190  0.61725804  1
  Mo  Mo183  1  0.50847731  0.29936500  0.40038646  1
  Mo  Mo184  1  0.89730678  0.10346890  0.11130357  1
  Mo  Mo185  1  0.29975783  0.70027419  0.14347666  1
  Mo  Mo186  1  0.19757910  0.60296552  0.50744127  1
  Mo  Mo187  1  0.50965042  0.89895730  0.35978980  1
  Mo  Mo188  1  0.30003421  0.30242789  0.63743232  1
  Mo  Mo189  1  0.30081794  0.90486161  0.12711987  1
  Mo  Mo190  1  0.88937457  0.70255467  0.89181047  1
  Mo  Mo191  1  0.28042874  0.10183819  0.38654882  1
  Mo  Mo192  1  0.39981108  0.80115743  0.73806475  1
  Mo  Mo193  1  0.40539038  0.80574645  0.51471990  1
  Mo  Mo194  1  0.19227669  0.19115690  0.48480191  1
  Mo  Mo195  1  0.40582992  0.60277848  0.50724508  1
  Mo  Mo196  1  0.89947193  0.89752269  0.10465774  1
  Mo  Mo197  1  0.90440626  0.29605065  0.63660220  1
  Mo  Mo198  1  0.50336476  0.50475353  0.60345242  1
  Mo  Mo199  1  0.80023415  0.19963958  0.01173352  1
