# generated using pymatgen
data_HfZrTaTiMo
_symmetry_space_group_name_H-M   'P 1'
_cell_length_a   15.83691021
_cell_length_b   15.83002180
_cell_length_c   15.39462051
_cell_angle_alpha   89.97488001
_cell_angle_beta   89.98098667
_cell_angle_gamma   89.94103328
_symmetry_Int_Tables_number   1
_chemical_formula_structural   HfZrTaTiMo
_chemical_formula_sum   'Hf40 Zr40 Ta40 Ti40 Mo40'
_cell_volume   3859.40770197
_cell_formula_units_Z   40
loop_
 _symmetry_equiv_pos_site_id
 _symmetry_equiv_pos_as_xyz
  1  'x, y, z'
loop_
 _atom_site_type_symbol
 _atom_site_label
 _atom_site_symmetry_multiplicity
 _atom_site_fract_x
 _atom_site_fract_y
 _atom_site_fract_z
 _atom_site_occupancy
  Hf  Hf0  1  0.50791126  0.07659932  0.62461665  1
  Hf  Hf1  1  0.28740243  0.08897834  0.38179948  1
  Hf  Hf2  1  0.38718427  -0.00385014  0.23677557  1
  Hf  Hf3  1  0.49320035  0.09196424  0.89500478  1
  Hf  Hf4  1  0.10865671  0.50725015  0.11808660  1
  Hf  Hf5  1  0.69194143  0.51648850  0.12374244  1
  Hf  Hf6  1  0.19437178  0.59757491  0.76345558  1
  Hf  Hf7  1  0.50097091  0.29866473  0.36550611  1
  Hf  Hf8  1  0.79632953  0.00035911  0.49865789  1
  Hf  Hf9  1  0.10392476  0.90655279  0.87058045  1
  Hf  Hf10  1  0.88860171  0.68596621  0.62235853  1
  Hf  Hf11  1  0.50343380  0.29425025  0.12602961  1
  Hf  Hf12  1  0.29337537  0.49809032  0.62779905  1
  Hf  Hf13  1  0.00884972  0.60871602  -0.01215542  1
  Hf  Hf14  1  -0.00646558  0.20494286  0.25387951  1
  Hf  Hf15  1  0.59541067  0.80723938  0.48688942  1
  Hf  Hf16  1  0.37694204  0.18382982  0.01765442  1
  Hf  Hf17  1  0.09534283  0.70271137  0.38501037  1
  Hf  Hf18  1  0.89832523  0.49697967  0.86141266  1
  Hf  Hf19  1  0.41187517  -0.01253501  0.75777919  1
  Hf  Hf20  1  0.69969601  0.50409792  0.87691149  1
  Hf  Hf21  1  0.10818826  0.09323516  0.62078321  1
  Hf  Hf22  1  0.10070467  0.29635262  0.12555425  1
  Hf  Hf23  1  -0.00383447  0.81060732  0.51349061  1
  Hf  Hf24  1  0.29416177  0.29556961  0.37004098  1
  Hf  Hf25  1  0.60237267  0.61288780  0.48168346  1
  Hf  Hf26  1  -0.00138291  0.19957533  -0.02077509  1
  Hf  Hf27  1  0.40604277  -0.01893980  0.49120956  1
  Hf  Hf28  1  0.20062164  0.80097972  -0.00438811  1
  Hf  Hf29  1  0.09451964  0.09752107  0.11466067  1
  Hf  Hf30  1  0.51142584  0.08891017  0.11812717  1
  Hf  Hf31  1  0.30359068  0.28832657  0.86283524  1
  Hf  Hf32  1  0.81338407  0.40851912  0.51078542  1
  Hf  Hf33  1  0.80639766  0.60619482  -0.00047963  1
  Hf  Hf34  1  0.00491831  0.20481836  0.75040923  1
  Hf  Hf35  1  0.70323340  0.30291822  0.63210201  1
  Hf  Hf36  1  -0.00236087  0.79845597  0.74872101  1
  Hf  Hf37  1  0.20380929  0.80673506  0.51247005  1
  Hf  Hf38  1  0.29741925  0.69462084  0.12352352  1
  Hf  Hf39  1  0.29942555  0.70629059  0.37369764  1
  Zr  Zr40  1  0.39824859  0.39905427  0.74891601  1
  Zr  Zr41  1  0.19937266  0.39954822  -0.01497716  1
  Zr  Zr42  1  0.49958524  0.28627458  0.88784679  1
  Zr  Zr43  1  0.70138981  0.52091269  0.62865047  1
  Zr  Zr44  1  0.39194880  0.40326223  0.00741597  1
  Zr  Zr45  1  0.81204940  0.39761475  0.23206907  1
  Zr  Zr46  1  0.00073249  0.40854749  0.25293223  1
  Zr  Zr47  1  0.90327281  0.71763477  0.12466160  1
  Zr  Zr48  1  0.39457342  0.19187308  0.24313479  1
  Zr  Zr49  1  0.89264613  0.69091981  0.38273366  1
  Zr  Zr50  1  0.30471370  0.90099146  0.63358446  1
  Zr  Zr51  1  0.00910847  0.80493553  0.25389636  1
  Zr  Zr52  1  0.71599068  0.30323715  0.37700978  1
  Zr  Zr53  1  0.40215869  0.19263931  0.49354448  1
  Zr  Zr54  1  0.59093980  0.19012778  0.74784163  1
  Zr  Zr55  1  0.80673692  0.20238552  0.00916825  1
  Zr  Zr56  1  0.49128672  0.29279286  0.62458905  1
  Zr  Zr57  1  0.70466800  0.30368303  0.87267322  1
  Zr  Zr58  1  0.31543823  0.69013872  0.62631852  1
  Zr  Zr59  1  0.50935225  0.88800824  0.12681526  1
  Zr  Zr60  1  0.70105184  0.10378218  0.87884791  1
  Zr  Zr61  1  0.62394631  -0.02048948  -0.00541477  1
  Zr  Zr62  1  0.31671034  0.70685894  0.87452807  1
  Zr  Zr63  1  0.80894053  0.20079415  0.50992522  1
  Zr  Zr64  1  0.90002954  0.90142169  0.36810015  1
  Zr  Zr65  1  0.39627007  0.40484505  0.50012018  1
  Zr  Zr66  1  0.30369381  0.09962403  0.63186900  1
  Zr  Zr67  1  0.19046361  0.59957041  0.25835029  1
  Zr  Zr68  1  0.59465095  0.40974646  0.75167452  1
  Zr  Zr69  1  -0.00519870  0.40048419  -0.00051531  1
  Zr  Zr70  1  0.08462837  0.90487202  0.11162023  1
  Zr  Zr71  1  0.59505273  0.41332184  0.49544684  1
  Zr  Zr72  1  0.60828468  -0.00803994  0.47608347  1
  Zr  Zr73  1  0.60823661  0.18868658  0.49142035  1
  Zr  Zr74  1  0.78401881  0.80041565  0.50137230  1
  Zr  Zr75  1  0.60508348  0.40266454  0.25115676  1
  Zr  Zr76  1  0.50803254  0.69656726  0.12416217  1
  Zr  Zr77  1  0.59857192  0.40420060  0.00378292  1
  Zr  Zr78  1  0.09832057  0.68963094  0.62172743  1
  Zr  Zr79  1  0.69893742  0.71689696  0.12060143  1
  Ta  Ta80  1  0.80497698  0.60310281  0.24128348  1
  Ta  Ta81  1  0.19436981  0.20581268  0.50537401  1
  Ta  Ta82  1  0.70439818  0.08873382  0.63950889  1
  Ta  Ta83  1  0.09633182  0.09930473  0.38804356  1
  Ta  Ta84  1  0.29915165  0.49837816  0.37435891  1
  Ta  Ta85  1  0.19320725  0.19745908  0.75658940  1
  Ta  Ta86  1  0.50688938  0.70337483  0.62605616  1
  Ta  Ta87  1  -0.00004038  0.39518623  0.50495517  1
  Ta  Ta88  1  0.80654614  0.40143892  0.01793136  1
  Ta  Ta89  1  0.49779886  0.50803317  0.13438849  1
  Ta  Ta90  1  0.19129428  -0.00676382  0.24639869  1
  Ta  Ta91  1  0.19960455  0.59070589  0.49405792  1
  Ta  Ta92  1  0.39719787  0.59516653  0.25249204  1
  Ta  Ta93  1  0.28564440  0.30020867  0.13442747  1
  Ta  Ta94  1  0.90129375  0.08764728  0.12817024  1
  Ta  Ta95  1  0.80316955  -0.00206859  0.76337226  1
  Ta  Ta96  1  0.19095541  0.40087083  0.49601570  1
  Ta  Ta97  1  0.09633290  0.29682374  0.37982642  1
  Ta  Ta98  1  0.68866973  0.90195484  0.64169531  1
  Ta  Ta99  1  -0.00257570  0.20676041  0.50926730  1
  Ta  Ta100  1  0.49283740  0.52382587  0.63249250  1
  Ta  Ta101  1  0.20661122  0.00738505  -0.00476528  1
  Ta  Ta102  1  0.89461839  0.30989544  0.85513538  1
  Ta  Ta103  1  0.39251325  0.40520911  0.24335177  1
  Ta  Ta104  1  -0.00434158  0.00395831  0.50577963  1
  Ta  Ta105  1  0.49817945  0.70415194  0.35458553  1
  Ta  Ta106  1  0.79350374  0.80063869  0.75494500  1
  Ta  Ta107  1  0.79910453  0.82543079  -0.01797402  1
  Ta  Ta108  1  0.19643796  0.40191701  0.25970632  1
  Ta  Ta109  1  -0.00704931  0.80502599  -0.01869714  1
  Ta  Ta110  1  0.20546914  0.59845554  -0.01363832  1
  Ta  Ta111  1  -0.00048942  0.00673764  0.75609102  1
  Ta  Ta112  1  0.90061867  0.10701249  0.37658992  1
  Ta  Ta113  1  0.20090811  0.79947855  0.75165344  1
  Ta  Ta114  1  0.61752102  0.19024175  0.24391763  1
  Ta  Ta115  1  0.71288142  0.51416204  0.37070705  1
  Ta  Ta116  1  0.80512183  0.20082022  0.23818293  1
  Ta  Ta117  1  0.40477777  0.59365088  -0.00173751  1
  Ta  Ta118  1  0.79481235  0.60885727  0.75995368  1
  Ta  Ta119  1  0.90131068  0.09734874  0.63381594  1
  Ti  Ti120  1  0.71229422  0.90267164  0.14083280  1
  Ti  Ti121  1  0.69325230  0.70675180  0.88529013  1
  Ti  Ti122  1  0.89144591  0.90933729  0.12777819  1
  Ti  Ti123  1  0.40913066  0.59868739  0.48189037  1
  Ti  Ti124  1  0.29220735  0.89350738  0.36800142  1
  Ti  Ti125  1  -0.00430969  0.59693502  0.24593599  1
  Ti  Ti126  1  0.41030766  0.79599512  0.49659377  1
  Ti  Ti127  1  0.10028603  0.30929065  0.62956633  1
  Ti  Ti128  1  0.18361113  0.40109243  0.75852278  1
  Ti  Ti129  1  0.38727528  0.80159132  0.23800450  1
  Ti  Ti130  1  0.59427714  0.80170215  0.76540527  1
  Ti  Ti131  1  0.00813773  0.59575625  0.75831800  1
  Ti  Ti132  1  0.70855309  0.09013754  0.12220402  1
  Ti  Ti133  1  0.10507813  0.91040031  0.63552163  1
  Ti  Ti134  1  0.50615572  0.09191284  0.35554448  1
  Ti  Ti135  1  0.38253381  -0.01706932  0.01697305  1
  Ti  Ti136  1  0.58796238  0.61312021  0.76916609  1
  Ti  Ti137  1  0.79435412  0.00782998  0.26136003  1
  Ti  Ti138  1  0.59886651  -0.01326445  0.76759468  1
  Ti  Ti139  1  0.30766440  0.50075254  0.86496962  1
  Ti  Ti140  1  0.69148609  0.70537706  0.63539205  1
  Ti  Ti141  1  0.41665007  0.79483542  0.74985749  1
  Ti  Ti142  1  -0.01991787  0.00354917  -0.02491174  1
  Ti  Ti143  1  0.19245213  0.19063664  0.25280107  1
  Ti  Ti144  1  0.89743569  0.70481104  0.86884571  1
  Ti  Ti145  1  0.49380515  0.88115080  0.89968765  1
  Ti  Ti146  1  0.29150484  0.29519671  0.63373727  1
  Ti  Ti147  1  0.19310041  0.19787176  -0.01587446  1
  Ti  Ti148  1  0.80531644  0.19880278  0.74544672  1
  Ti  Ti149  1  0.89243239  0.90592672  0.63499494  1
  Ti  Ti150  1  0.30493591  0.89876294  0.87299329  1
  Ti  Ti151  1  0.10179516  0.70658502  0.12410374  1
  Ti  Ti152  1  0.10757931  0.90769222  0.38320901  1
  Ti  Ti153  1  0.00168724  0.00676224  0.25916088  1
  Ti  Ti154  1  0.90815109  0.49564336  0.64358571  1
  Ti  Ti155  1  0.61481348  0.80177497  0.26364942  1
  Ti  Ti156  1  0.49661513  0.89723718  0.34941928  1
  Ti  Ti157  1  -0.00062662  0.58023844  0.50398712  1
  Ti  Ti158  1  0.29790547  0.09200311  0.86377576  1
  Ti  Ti159  1  0.90008069  0.49987572  0.37654155  1
  Mo  Mo160  1  0.49863435  0.50530682  0.35864508  1
  Mo  Mo161  1  0.70371943  0.70066261  0.35890463  1
  Mo  Mo162  1  0.09424260  0.49979322  0.38762714  1
  Mo  Mo163  1  0.90378029  0.30427251  0.64183700  1
  Mo  Mo164  1  0.09999626  0.30295946  0.86488709  1
  Mo  Mo165  1  0.80277272  0.40407507  0.73598642  1
  Mo  Mo166  1  0.90704158  0.29879645  0.38197259  1
  Mo  Mo167  1  0.50490204  0.70208156  0.89141940  1
  Mo  Mo168  1  0.90229940  0.51089611  0.12353646  1
  Mo  Mo169  1  0.09762668  0.49619994  0.61781422  1
  Mo  Mo170  1  0.60645726  0.79693802  -0.00839261  1
  Mo  Mo171  1  0.81188457  -0.00057948  -0.00818465  1
  Mo  Mo172  1  0.10209644  0.50313027  0.88235007  1
  Mo  Mo173  1  0.60183868  0.60366233  0.26434642  1
  Mo  Mo174  1  0.40715965  0.60155750  0.75891343  1
  Mo  Mo175  1  0.20211436  -0.00130203  0.76686239  1
  Mo  Mo176  1  0.69813673  0.89501136  0.85858904  1
  Mo  Mo177  1  0.80099274  0.80482607  0.25383432  1
  Mo  Mo178  1  0.49396753  0.51024642  0.87036814  1
  Mo  Mo179  1  0.90145155  0.89980283  0.85967436  1
  Mo  Mo180  1  0.70359506  0.90195138  0.35631045  1
  Mo  Mo181  1  0.70053466  0.29475289  0.12077251  1
  Mo  Mo182  1  0.39385519  0.18928895  0.74827425  1
  Mo  Mo183  1  0.39823648  0.80069292  0.01150452  1
  Mo  Mo184  1  0.59523903  0.59956098  -0.01364272  1
  Mo  Mo185  1  0.29963999  0.49927818  0.13301973  1
  Mo  Mo186  1  0.28798100  0.89587364  0.12722918  1
  Mo  Mo187  1  0.50744267  0.88651427  0.62953175  1
  Mo  Mo188  1  0.10332662  0.09951715  0.87909762  1
  Mo  Mo189  1  0.10094446  0.70548653  0.87039651  1
  Mo  Mo190  1  0.80176276  0.59621539  0.49959676  1
  Mo  Mo191  1  0.00737825  0.40470646  0.74589517  1
  Mo  Mo192  1  0.70840870  0.10367655  0.36108625  1
  Mo  Mo193  1  0.90357769  0.29436145  0.11925816  1
  Mo  Mo194  1  0.19570447  -0.00388275  0.49134230  1
  Mo  Mo195  1  0.89806698  0.10567997  0.85748613  1
  Mo  Mo196  1  0.60501287  0.19490877  0.02304970  1
  Mo  Mo197  1  0.60643964  -0.00040050  0.25278026  1
  Mo  Mo198  1  0.28029277  0.09763047  0.12749301  1
  Mo  Mo199  1  0.20074085  0.80876043  0.24441442  1
