# generated using pymatgen
data_HfZrTaTiMo
_symmetry_space_group_name_H-M   'P 1'
_cell_length_a   15.83720933
_cell_length_b   15.83890701
_cell_length_c   15.41261943
_cell_angle_alpha   89.91333378
_cell_angle_beta   90.01166794
_cell_angle_gamma   89.97098269
_symmetry_Int_Tables_number   1
_chemical_formula_structural   HfZrTaTiMo
_chemical_formula_sum   'Hf40 Zr40 Ta40 Ti40 Mo40'
_cell_volume   3866.15943009
_cell_formula_units_Z   40
loop_
 _symmetry_equiv_pos_site_id
 _symmetry_equiv_pos_as_xyz
  1  'x, y, z'
loop_
 _atom_site_type_symbol
 _atom_site_label
 _atom_site_symmetry_multiplicity
 _atom_site_fract_x
 _atom_site_fract_y
 _atom_site_fract_z
 _atom_site_occupancy
  Hf  Hf0  1  0.29930043  0.30627474  0.63907520  1
  Hf  Hf1  1  0.80113863  0.39805210  0.72592294  1
  Hf  Hf2  1  0.30071116  0.29674863  0.35621607  1
  Hf  Hf3  1  0.46879931  0.69221129  0.40384918  1
  Hf  Hf4  1  0.57920743  0.59429124  0.26520945  1
  Hf  Hf5  1  0.49891612  0.30167563  0.86795473  1
  Hf  Hf6  1  0.79143092  0.81522695  0.75924794  1
  Hf  Hf7  1  0.69979133  0.51437425  0.84960955  1
  Hf  Hf8  1  0.10513487  0.49940298  0.38789816  1
  Hf  Hf9  1  0.80768592  -0.00511242  0.47704317  1
  Hf  Hf10  1  0.38219473  0.60042618  0.24416029  1
  Hf  Hf11  1  0.91380883  0.29990432  0.37446431  1
  Hf  Hf12  1  -0.00360762  0.00822290  0.76980340  1
  Hf  Hf13  1  0.60678082  -0.00130884  0.75937845  1
  Hf  Hf14  1  0.49804228  0.11341799  0.35284463  1
  Hf  Hf15  1  -0.00630440  0.59450162  0.00021121  1
  Hf  Hf16  1  0.79706974  0.79965721  0.25821045  1
  Hf  Hf17  1  0.90253991  0.49771755  0.61088396  1
  Hf  Hf18  1  0.90630398  0.89996308  0.63019857  1
  Hf  Hf19  1  0.39005752  0.79330418  0.23387331  1
  Hf  Hf20  1  0.00864072  0.20073240  0.74938513  1
  Hf  Hf21  1  0.90971826  0.49920750  0.39254958  1
  Hf  Hf22  1  0.39895559  0.20532293  0.00927416  1
  Hf  Hf23  1  0.60707102  0.79001034  -0.01250373  1
  Hf  Hf24  1  0.00916053  0.39440084  0.74190240  1
  Hf  Hf25  1  0.69144186  0.50323142  0.13638550  1
  Hf  Hf26  1  0.78452556  0.60467306  -0.00142211  1
  Hf  Hf27  1  0.01040113  0.60014166  0.24340669  1
  Hf  Hf28  1  0.40297017  0.00671595  0.75296708  1
  Hf  Hf29  1  0.70397430  0.30380064  0.86637695  1
  Hf  Hf30  1  0.70086306  0.10319273  0.88531356  1
  Hf  Hf31  1  0.59966286  0.40424997  0.73229463  1
  Hf  Hf32  1  0.49727646  0.90074203  0.88311351  1
  Hf  Hf33  1  0.90749268  0.69725602  0.38507721  1
  Hf  Hf34  1  0.48985330  0.49188637  0.11242121  1
  Hf  Hf35  1  0.89231558  0.69462976  0.85671651  1
  Hf  Hf36  1  0.49744942  0.29737423  0.62741395  1
  Hf  Hf37  1  0.49945624  0.89523144  0.11205608  1
  Hf  Hf38  1  0.39761970  0.59488385  -0.01206188  1
  Hf  Hf39  1  0.90468198  0.09545325  0.61184867  1
  Zr  Zr40  1  0.29726268  0.69962051  0.86505093  1
  Zr  Zr41  1  0.68692734  0.28847721  0.37660496  1
  Zr  Zr42  1  0.40701093  0.20029599  0.50114371  1
  Zr  Zr43  1  0.89909286  0.49778657  0.86663375  1
  Zr  Zr44  1  0.89049059  0.70176035  0.12214254  1
  Zr  Zr45  1  0.80894586  0.19466191  0.74751542  1
  Zr  Zr46  1  0.59884620  0.79978570  0.50422205  1
  Zr  Zr47  1  0.39696858  0.00409184  0.51115326  1
  Zr  Zr48  1  0.19487064  0.59147008  0.73681904  1
  Zr  Zr49  1  0.60455837  0.01839536  0.49027602  1
  Zr  Zr50  1  0.59177633  0.79052888  0.25427266  1
  Zr  Zr51  1  0.29984983  0.09358995  0.35860256  1
  Zr  Zr52  1  0.11429172  0.69989767  0.37351158  1
  Zr  Zr53  1  0.29648130  0.88578634  0.37870734  1
  Zr  Zr54  1  0.20509197  0.60634086  0.52987897  1
  Zr  Zr55  1  0.90567702  0.30226801  0.88542014  1
  Zr  Zr56  1  0.81517797  -0.00722713  0.25081642  1
  Zr  Zr57  1  0.79908224  0.79624875  0.50317964  1
  Zr  Zr58  1  0.70912666  0.31121171  0.14660145  1
  Zr  Zr59  1  0.40905726  0.41200579  0.26993234  1
  Zr  Zr60  1  0.29340587  0.08885574  0.89039962  1
  Zr  Zr61  1  0.50469361  0.90017535  0.62750590  1
  Zr  Zr62  1  0.79642796  0.18595640  0.48100117  1
  Zr  Zr63  1  0.48840855  0.90155464  0.37473453  1
  Zr  Zr64  1  0.20038636  0.20547129  0.01175023  1
  Zr  Zr65  1  0.09016515  0.90342309  0.10881387  1
  Zr  Zr66  1  0.20407545  0.20236116  0.49931514  1
  Zr  Zr67  1  0.78859556  0.59913095  0.26885212  1
  Zr  Zr68  1  0.89359015  0.49286071  0.13616866  1
  Zr  Zr69  1  0.19620708  -0.00120341  0.23039046  1
  Zr  Zr70  1  0.20041298  0.79781942  0.52024968  1
  Zr  Zr71  1  0.01460273  0.18820073  0.24547062  1
  Zr  Zr72  1  0.80677788  0.20095324  0.01638852  1
  Zr  Zr73  1  -0.00617636  0.80966800  0.24430227  1
  Zr  Zr74  1  0.90579835  0.29978597  0.14231366  1
  Zr  Zr75  1  0.11121183  0.91010497  0.87877726  1
  Zr  Zr76  1  0.60299892  0.20481566  0.01503773  1
  Zr  Zr77  1  0.09525251  0.90641575  0.37671379  1
  Zr  Zr78  1  0.09573691  0.70067795  0.86970833  1
  Zr  Zr79  1  0.60465195  0.40575262  -0.00699715  1
  Ta  Ta80  1  0.79132556  0.60141450  0.51384063  1
  Ta  Ta81  1  0.39911939  0.80222187  0.75313512  1
  Ta  Ta82  1  0.49698214  0.50193404  0.85952463  1
  Ta  Ta83  1  0.70545589  0.09251155  0.13233324  1
  Ta  Ta84  1  0.00725539  0.61295366  0.52214414  1
  Ta  Ta85  1  0.19776971  0.01121913  0.74645541  1
  Ta  Ta86  1  0.49629354  0.69297997  0.11075281  1
  Ta  Ta87  1  0.30029755  0.30298755  0.86652520  1
  Ta  Ta88  1  0.79441425  0.39631981  0.49822228  1
  Ta  Ta89  1  0.01155386  0.39811261  0.01063097  1
  Ta  Ta90  1  0.70096404  0.09676562  0.62895232  1
  Ta  Ta91  1  0.30157150  0.49178936  0.86780993  1
  Ta  Ta92  1  0.09999155  0.10117805  0.62059820  1
  Ta  Ta93  1  0.40145756  0.19399244  0.75580117  1
  Ta  Ta94  1  0.50476471  0.69273087  0.85243707  1
  Ta  Ta95  1  0.79331427  0.80378201  -0.01400036  1
  Ta  Ta96  1  0.69490647  0.89882297  0.36919271  1
  Ta  Ta97  1  0.10109959  0.69966043  0.10710480  1
  Ta  Ta98  1  0.20557263  0.80337668  -0.00146874  1
  Ta  Ta99  1  0.59876357  0.19968085  0.23453085  1
  Ta  Ta100  1  0.30065061  0.52283041  0.39446529  1
  Ta  Ta101  1  0.80621060  -0.00641492  0.00335171  1
  Ta  Ta102  1  0.11933272  0.51049233  0.11668754  1
  Ta  Ta103  1  0.39782708  0.40278202  0.49087869  1
  Ta  Ta104  1  0.19994009  0.00089571  0.51596840  1
  Ta  Ta105  1  0.20263850  0.78921571  0.22859340  1
  Ta  Ta106  1  0.49743878  0.09443571  0.12333455  1
  Ta  Ta107  1  0.28803177  0.68430387  0.10421672  1
  Ta  Ta108  1  0.00058085  0.59392206  0.73480820  1
  Ta  Ta109  1  -0.01306493  0.80559726  -0.01296039  1
  Ta  Ta110  1  0.30849008  0.31727936  0.13199669  1
  Ta  Ta111  1  0.60148437  -0.00324673  0.24303260  1
  Ta  Ta112  1  0.21031140  0.40472078  -0.00032137  1
  Ta  Ta113  1  0.49598610  0.69765553  0.63331368  1
  Ta  Ta114  1  0.70510545  0.90796284  0.62740822  1
  Ta  Ta115  1  0.69814233  0.28911203  0.61030585  1
  Ta  Ta116  1  0.29498897  0.90003328  0.64199563  1
  Ta  Ta117  1  0.10540096  0.30187124  0.88417765  1
  Ta  Ta118  1  0.90949520  0.29698278  0.60140884  1
  Ta  Ta119  1  0.09486386  0.90728851  0.63947502  1
  Ti  Ti120  1  0.10282444  0.49723104  0.88042911  1
  Ti  Ti121  1  0.80060982  0.40641634  0.00011892  1
  Ti  Ti122  1  0.49975371  0.09933226  0.89451851  1
  Ti  Ti123  1  0.09985806  0.47975737  0.61009000  1
  Ti  Ti124  1  0.19522187  0.19874843  0.75702451  1
  Ti  Ti125  1  0.08840592  0.72271303  0.65026637  1
  Ti  Ti126  1  0.81101181  0.17838723  0.26202328  1
  Ti  Ti127  1  0.39432598  0.79793071  -0.00880044  1
  Ti  Ti128  1  0.20524836  0.39313848  0.50069104  1
  Ti  Ti129  1  0.20798704  0.19367434  0.22782408  1
  Ti  Ti130  1  0.39539591  0.58893083  0.73568204  1
  Ti  Ti131  1  0.00121753  0.80631586  0.50296549  1
  Ti  Ti132  1  0.11098400  0.30309401  0.36230811  1
  Ti  Ti133  1  0.59210180  0.40328689  0.27277594  1
  Ti  Ti134  1  0.80316674  0.00387171  0.76815112  1
  Ti  Ti135  1  0.01518700  0.40641329  0.24758245  1
  Ti  Ti136  1  0.70394865  0.89323451  0.12473094  1
  Ti  Ti137  1  0.69099558  0.69742871  0.84729577  1
  Ti  Ti138  1  0.79422986  0.40615805  0.27885369  1
  Ti  Ti139  1  0.01459696  0.20196731  0.49433623  1
  Ti  Ti140  1  0.69149960  0.69697082  0.63913154  1
  Ti  Ti141  1  0.19713482  0.39926873  0.74910268  1
  Ti  Ti142  1  0.89878683  0.70432638  0.63878798  1
  Ti  Ti143  1  0.91212643  0.10744636  0.89938104  1
  Ti  Ti144  1  0.68758627  0.69485857  0.38832144  1
  Ti  Ti145  1  0.59053069  0.39489853  0.49768154  1
  Ti  Ti146  1  0.49515758  0.50104673  0.61475021  1
  Ti  Ti147  1  0.11043497  0.31202864  0.13052482  1
  Ti  Ti148  1  0.49810034  0.30605147  0.13484122  1
  Ti  Ti149  1  0.21050135  0.42545400  0.24705318  1
  Ti  Ti150  1  0.29956457  0.10547816  0.63392788  1
  Ti  Ti151  1  0.60863401  -0.00337706  0.00667386  1
  Ti  Ti152  1  0.68907386  0.69895140  0.12971301  1
  Ti  Ti153  1  0.39250497  -0.00340936  0.22740038  1
  Ti  Ti154  1  0.10466951  0.09651860  0.38190221  1
  Ti  Ti155  1  0.09032173  0.09759236  0.09935209  1
  Ti  Ti156  1  0.59716956  0.60135287  -0.00899947  1
  Ti  Ti157  1  -0.00707939  0.00481811  0.24485410  1
  Ti  Ti158  1  0.59687389  0.19043916  0.74436000  1
  Ti  Ti159  1  0.68689671  0.50483968  0.39949986  1
  Mo  Mo160  1  0.59375990  0.59755711  0.72957691  1
  Mo  Mo161  1  0.00864261  0.20914543  0.01169816  1
  Mo  Mo162  1  0.59810810  0.19569485  0.50862586  1
  Mo  Mo163  1  0.69869238  0.90487929  0.88270003  1
  Mo  Mo164  1  0.40078408  0.20336567  0.22669026  1
  Mo  Mo165  1  0.89890080  0.90424771  0.88159964  1
  Mo  Mo166  1  -0.00140226  0.00604486  -0.01017448  1
  Mo  Mo167  1  0.39203493  0.59904779  0.52693933  1
  Mo  Mo168  1  0.38837418  0.79502483  0.53182349  1
  Mo  Mo169  1  0.90707248  0.09321776  0.11464192  1
  Mo  Mo170  1  0.30271014  0.70407360  0.65083118  1
  Mo  Mo171  1  0.09971306  0.11007449  0.88871461  1
  Mo  Mo172  1  0.39917191  0.40172418  0.75346096  1
  Mo  Mo173  1  0.69484069  0.09577747  0.34648984  1
  Mo  Mo174  1  0.59932342  0.80137694  0.75201386  1
  Mo  Mo175  1  0.40038493  -0.00301558  0.00805854  1
  Mo  Mo176  1  0.00912264  -0.00023852  0.50173129  1
  Mo  Mo177  1  0.20157983  0.60228739  0.24719554  1
  Mo  Mo178  1  0.29348250  0.70137414  0.37609641  1
  Mo  Mo179  1  0.30149257  0.89834981  0.86943011  1
  Mo  Mo180  1  0.01203122  0.38902287  0.49936563  1
  Mo  Mo181  1  0.69513751  0.49574585  0.60764427  1
  Mo  Mo182  1  0.49945886  0.50389210  0.40179984  1
  Mo  Mo183  1  0.19598667  0.59709960  -0.02031198  1
  Mo  Mo184  1  0.90613761  0.89397084  0.38491824  1
  Mo  Mo185  1  0.92568345  0.09320044  0.38338869  1
  Mo  Mo186  1  0.10567462  0.29551789  0.62663342  1
  Mo  Mo187  1  0.79759941  0.60364048  0.72468345  1
  Mo  Mo188  1  0.19875147  0.80987182  0.75001963  1
  Mo  Mo189  1  0.20662219  -0.00175423  0.01157097  1
  Mo  Mo190  1  0.39798095  0.39604851  -0.01614313  1
  Mo  Mo191  1  0.89444063  0.89839149  0.10545133  1
  Mo  Mo192  1  0.30193959  0.09759433  0.12090377  1
  Mo  Mo193  1  0.50021718  0.30058101  0.37118877  1
  Mo  Mo194  1  0.30013956  0.89309705  0.10989368  1
  Mo  Mo195  1  0.59780925  0.59840765  0.51377906  1
  Mo  Mo196  1  -0.00467066  0.80398630  0.76347777  1
  Mo  Mo197  1  0.29807187  0.49734556  0.11138888  1
  Mo  Mo198  1  0.30366212  0.49045059  0.62248183  1
  Mo  Mo199  1  0.50590814  0.10627777  0.63398509  1
