# generated using pymatgen
data_HfZrTaTiMo
_symmetry_space_group_name_H-M   'P 1'
_cell_length_a   15.82714343
_cell_length_b   15.84047877
_cell_length_c   15.40105771
_cell_angle_alpha   89.96730053
_cell_angle_beta   90.02130805
_cell_angle_gamma   89.99674895
_symmetry_Int_Tables_number   1
_chemical_formula_structural   HfZrTaTiMo
_chemical_formula_sum   'Hf40 Zr40 Ta40 Ti40 Mo40'
_cell_volume   3861.19103140
_cell_formula_units_Z   40
loop_
 _symmetry_equiv_pos_site_id
 _symmetry_equiv_pos_as_xyz
  1  'x, y, z'
loop_
 _atom_site_type_symbol
 _atom_site_label
 _atom_site_symmetry_multiplicity
 _atom_site_fract_x
 _atom_site_fract_y
 _atom_site_fract_z
 _atom_site_occupancy
  Hf  Hf0  1  0.49601525  0.29446851  0.85757943  1
  Hf  Hf1  1  0.59072903  0.20333914  0.23180476  1
  Hf  Hf2  1  0.70092501  0.90602845  0.62715080  1
  Hf  Hf3  1  0.28710819  0.29565935  0.63196045  1
  Hf  Hf4  1  0.40820950  0.58587814  0.24568841  1
  Hf  Hf5  1  0.50269438  0.88871619  0.62249970  1
  Hf  Hf6  1  0.71013834  0.70602543  0.13776870  1
  Hf  Hf7  1  0.20055229  -0.00877561  0.75652803  1
  Hf  Hf8  1  0.79976100  0.41077960  0.74757578  1
  Hf  Hf9  1  0.80409433  0.60782626  0.74605777  1
  Hf  Hf10  1  0.51081634  0.90364036  0.12924336  1
  Hf  Hf11  1  0.91610993  0.51443931  0.12277214  1
  Hf  Hf12  1  0.19983742  0.18900586  0.24058658  1
  Hf  Hf13  1  0.89429963  0.90941755  0.62595067  1
  Hf  Hf14  1  0.08566257  0.69110418  0.14534944  1
  Hf  Hf15  1  0.20048778  0.39712361  0.25385545  1
  Hf  Hf16  1  0.89420433  0.31240011  0.10308137  1
  Hf  Hf17  1  0.29465061  0.29421188  0.87064808  1
  Hf  Hf18  1  0.39364899  0.60140882  0.73826689  1
  Hf  Hf19  1  0.49965866  0.29422855  0.38539439  1
  Hf  Hf20  1  0.68232825  0.32580409  0.10620615  1
  Hf  Hf21  1  0.09370094  0.30748707  0.11750561  1
  Hf  Hf22  1  0.50332799  0.29789601  0.64281445  1
  Hf  Hf23  1  0.08863225  0.06952313  0.13372044  1
  Hf  Hf24  1  0.40008180  0.18846677  0.22574824  1
  Hf  Hf25  1  0.40045558  0.18990369  0.00217592  1
  Hf  Hf26  1  0.70555404  0.29394799  0.37903857  1
  Hf  Hf27  1  0.19797675  0.40146402  -0.00364274  1
  Hf  Hf28  1  0.89949250  0.71282040  0.61468667  1
  Hf  Hf29  1  0.60287871  0.39969886  0.50918750  1
  Hf  Hf30  1  0.30395782  0.69305019  0.13749492  1
  Hf  Hf31  1  0.30403083  0.87710448  0.87186049  1
  Hf  Hf32  1  0.80138891  0.20533591  0.52370044  1
  Hf  Hf33  1  0.01016431  0.81280196  0.00197925  1
  Hf  Hf34  1  0.58679549  0.61489247  0.49993637  1
  Hf  Hf35  1  -0.00450495  0.18627692  0.00578074  1
  Hf  Hf36  1  0.59517321  0.19440743  -0.01260242  1
  Hf  Hf37  1  0.39848752  0.18281264  0.52373421  1
  Hf  Hf38  1  0.49043013  0.70152401  0.88518114  1
  Hf  Hf39  1  0.20192701  0.17978066  0.49891125  1
  Zr  Zr40  1  0.89804138  0.11930039  0.38304522  1
  Zr  Zr41  1  0.09690856  0.50341788  0.87719964  1
  Zr  Zr42  1  0.69733493  0.71856890  0.61704786  1
  Zr  Zr43  1  -0.00848448  0.00482543  0.49174847  1
  Zr  Zr44  1  0.79467059  0.20131354  0.23032402  1
  Zr  Zr45  1  0.30459553  0.28850200  0.37815573  1
  Zr  Zr46  1  0.80254201  0.40801250  0.25204369  1
  Zr  Zr47  1  0.39759817  0.00289958  0.25215770  1
  Zr  Zr48  1  0.40883112  0.38827887  0.24139347  1
  Zr  Zr49  1  0.37493756  -0.00905796  0.50370057  1
  Zr  Zr50  1  0.09353762  0.10059489  0.62330690  1
  Zr  Zr51  1  0.70454152  0.50022501  0.38583257  1
  Zr  Zr52  1  0.08686700  0.28692559  0.38284955  1
  Zr  Zr53  1  0.61798259  0.58357258  -0.00072823  1
  Zr  Zr54  1  0.11381519  0.70382451  0.87625049  1
  Zr  Zr55  1  0.59826948  0.60127209  0.74665138  1
  Zr  Zr56  1  0.01247579  0.80765260  0.74579448  1
  Zr  Zr57  1  0.19736178  0.79646343  0.25872310  1
  Zr  Zr58  1  0.81201677  0.81971258  0.00133235  1
  Zr  Zr59  1  0.70356613  0.08444007  0.10757239  1
  Zr  Zr60  1  0.52193421  0.47836852  0.11050410  1
  Zr  Zr61  1  0.30249654  0.69017593  0.88575246  1
  Zr  Zr62  1  0.21239797  0.80957647  0.48112882  1
  Zr  Zr63  1  0.59989505  0.19329264  0.51812250  1
  Zr  Zr64  1  0.60372851  0.00845988  0.26220359  1
  Zr  Zr65  1  0.81214821  0.61369617  -0.00029055  1
  Zr  Zr66  1  0.00631446  0.60055684  0.73837689  1
  Zr  Zr67  1  0.00652647  0.00254181  0.76252235  1
  Zr  Zr68  1  0.60537052  0.59489591  0.25295088  1
  Zr  Zr69  1  0.20796573  0.60255783  0.49998335  1
  Zr  Zr70  1  0.00440077  0.41135169  0.26271603  1
  Zr  Zr71  1  0.70539856  0.70916122  0.87329089  1
  Zr  Zr72  1  0.41045061  0.78434184  0.48633335  1
  Zr  Zr73  1  0.91697726  0.92039445  0.14429778  1
  Zr  Zr74  1  0.18865096  -0.01257275  -0.01144946  1
  Zr  Zr75  1  0.60336765  0.80702835  0.00308630  1
  Zr  Zr76  1  0.40007959  0.00007456  0.00435025  1
  Zr  Zr77  1  0.19694131  0.41051088  0.75200805  1
  Zr  Zr78  1  0.78313214  0.42264048  -0.01897637  1
  Zr  Zr79  1  0.08360950  0.29455460  0.86666589  1
  Ta  Ta80  1  0.90305325  0.70451489  0.38002545  1
  Ta  Ta81  1  0.09842475  0.49678683  0.61106077  1
  Ta  Ta82  1  0.19895042  0.79702271  0.02384508  1
  Ta  Ta83  1  0.30375455  0.49327781  0.38140473  1
  Ta  Ta84  1  -0.00490914  0.39693585  0.50616520  1
  Ta  Ta85  1  0.39413981  0.18240194  0.74086770  1
  Ta  Ta86  1  0.89999854  0.30773381  0.87011416  1
  Ta  Ta87  1  0.90367122  0.11456379  0.86431126  1
  Ta  Ta88  1  0.80180843  0.60528278  0.49933985  1
  Ta  Ta89  1  0.29263134  0.90213188  0.13660389  1
  Ta  Ta90  1  0.29617569  0.29632377  0.11215564  1
  Ta  Ta91  1  0.11142082  0.90259892  0.60582233  1
  Ta  Ta92  1  0.09112883  0.68511038  0.37673714  1
  Ta  Ta93  1  0.80222114  0.82016512  0.48121875  1
  Ta  Ta94  1  0.79456396  0.20244662  -0.01568595  1
  Ta  Ta95  1  0.49835867  0.49755884  0.62719507  1
  Ta  Ta96  1  0.60249771  0.80211476  0.26286375  1
  Ta  Ta97  1  0.59559330  0.80250455  0.75766717  1
  Ta  Ta98  1  0.00290957  0.80582422  0.48957675  1
  Ta  Ta99  1  0.90795583  0.71147336  0.86650384  1
  Ta  Ta100  1  0.20263165  0.60556910  0.72803493  1
  Ta  Ta101  1  0.30680188  0.68497867  0.35985343  1
  Ta  Ta102  1  0.49569566  0.89906003  0.86717738  1
  Ta  Ta103  1  0.80328955  0.00510870  0.26775228  1
  Ta  Ta104  1  0.80450815  0.40153320  0.51516811  1
  Ta  Ta105  1  0.81201759  0.60507028  0.26371054  1
  Ta  Ta106  1  0.69723912  0.09255712  0.64290485  1
  Ta  Ta107  1  0.19746957  0.18448745  0.00218749  1
  Ta  Ta108  1  0.09290777  0.30044073  0.62806923  1
  Ta  Ta109  1  0.19908384  0.59657560  0.02069348  1
  Ta  Ta110  1  0.49772831  0.49613815  0.86957199  1
  Ta  Ta111  1  0.50242812  0.89866174  0.37986007  1
  Ta  Ta112  1  0.40030146  0.39546406  -0.00560866  1
  Ta  Ta113  1  0.70248179  0.70769645  0.38040692  1
  Ta  Ta114  1  0.59743518  0.00125843  0.49789987  1
  Ta  Ta115  1  0.39428235  0.40514791  0.74623298  1
  Ta  Ta116  1  0.39724442  0.39840024  0.51232695  1
  Ta  Ta117  1  0.79953180  0.00228615  0.76773413  1
  Ta  Ta118  1  -0.01029546  0.19530079  0.23231507  1
  Ta  Ta119  1  0.39796763  -0.00745231  0.73908035  1
  Ti  Ti120  1  0.70045914  0.10435179  0.38706077  1
  Ti  Ti121  1  0.18854817  0.57897222  0.25658560  1
  Ti  Ti122  1  0.49232954  0.10262254  0.38224750  1
  Ti  Ti123  1  0.29708027  0.49571685  0.61524204  1
  Ti  Ti124  1  0.29732270  0.49112850  0.12611444  1
  Ti  Ti125  1  0.90501925  0.71363454  0.14970373  1
  Ti  Ti126  1  0.90455891  0.30187902  0.64295863  1
  Ti  Ti127  1  0.39764714  0.80151247  0.01914473  1
  Ti  Ti128  1  0.30302590  0.09515057  0.86977292  1
  Ti  Ti129  1  0.10096641  0.70433425  0.60650667  1
  Ti  Ti130  1  0.30243904  0.50570869  0.87856267  1
  Ti  Ti131  1  0.49447241  0.49502860  0.38651291  1
  Ti  Ti132  1  0.40236051  0.58933813  0.01374363  1
  Ti  Ti133  1  0.70914203  0.90287613  0.13465711  1
  Ti  Ti134  1  0.91520472  0.51160357  0.39366781  1
  Ti  Ti135  1  0.19131954  0.18644026  0.75570826  1
  Ti  Ti136  1  0.79509989  0.20022925  0.75637618  1
  Ti  Ti137  1  0.20339657  -0.00182751  0.26644191  1
  Ti  Ti138  1  0.69869334  0.50440342  0.62299949  1
  Ti  Ti139  1  0.09505103  0.09901378  0.37079332  1
  Ti  Ti140  1  0.20503418  0.79667376  0.73452235  1
  Ti  Ti141  1  0.69592190  0.30173428  0.64494991  1
  Ti  Ti142  1  0.59634272  0.00562738  -0.02283353  1
  Ti  Ti143  1  0.89396961  0.10260896  0.63749285  1
  Ti  Ti144  1  0.60137353  0.39934469  0.26094895  1
  Ti  Ti145  1  0.80196003  0.81201874  0.26833164  1
  Ti  Ti146  1  0.69956863  0.90500168  0.86818230  1
  Ti  Ti147  1  0.40177939  0.59738833  0.50301842  1
  Ti  Ti148  1  0.19732819  0.39503209  0.49253295  1
  Ti  Ti149  1  -0.00292316  -0.00404446  -0.02314306  1
  Ti  Ti150  1  0.81182006  0.01035794  -0.01980319  1
  Ti  Ti151  1  0.89804362  0.30306944  0.38285804  1
  Ti  Ti152  1  0.09124736  0.90312511  0.36675690  1
  Ti  Ti153  1  0.50652991  0.69966903  0.12622159  1
  Ti  Ti154  1  0.90931648  0.50239969  0.87259640  1
  Ti  Ti155  1  0.00558965  0.60898487  -0.00474472  1
  Ti  Ti156  1  0.90485193  0.50509758  0.61720012  1
  Ti  Ti157  1  0.31057236  0.71325541  0.62192204  1
  Ti  Ti158  1  0.40869556  0.79718159  0.25483548  1
  Ti  Ti159  1  0.69280463  0.30332810  0.85869768  1
  Mo  Mo160  1  0.10675635  0.89052449  0.87373942  1
  Mo  Mo161  1  0.60257055  0.19036003  0.75094440  1
  Mo  Mo162  1  0.90007428  0.90627121  0.37101316  1
  Mo  Mo163  1  0.30481365  0.89410630  0.35452391  1
  Mo  Mo164  1  0.80300153  0.81064197  0.76232845  1
  Mo  Mo165  1  -0.00724332  0.20784126  0.52118251  1
  Mo  Mo166  1  0.29692127  0.09577168  0.37062219  1
  Mo  Mo167  1  0.50034512  0.69609705  0.35797440  1
  Mo  Mo168  1  0.10042855  0.50237524  0.11575798  1
  Mo  Mo169  1  0.29023914  0.08969323  0.63997615  1
  Mo  Mo170  1  -0.00634169  0.40581833  0.73256223  1
  Mo  Mo171  1  0.60282449  0.80563293  0.48078074  1
  Mo  Mo172  1  0.10112458  0.10306887  0.87261501  1
  Mo  Mo173  1  0.60083995  0.40405526  0.74643111  1
  Mo  Mo174  1  0.59761654  -0.00400703  0.75969423  1
  Mo  Mo175  1  0.70291807  0.10175444  0.86865984  1
  Mo  Mo176  1  -0.00100032  0.60284205  0.50706647  1
  Mo  Mo177  1  0.10303366  0.89370744  0.14753730  1
  Mo  Mo178  1  -0.00418558  0.80182355  0.27247336  1
  Mo  Mo179  1  -0.00190432  0.00882784  0.27008050  1
  Mo  Mo180  1  0.89473525  0.10067010  0.11613527  1
  Mo  Mo181  1  0.78829748  0.00990063  0.49494129  1
  Mo  Mo182  1  0.49809586  0.09099622  0.85352324  1
  Mo  Mo183  1  0.50387640  0.09218743  0.11599299  1
  Mo  Mo184  1  0.90043913  0.90291712  0.86980078  1
  Mo  Mo185  1  0.59326059  0.39309198  -0.03959887  1
  Mo  Mo186  1  0.19654636  -0.00423658  0.48073264  1
  Mo  Mo187  1  0.40352466  0.79507557  0.74269292  1
  Mo  Mo188  1  0.50424011  0.08587270  0.63820113  1
  Mo  Mo189  1  0.69950332  0.90803682  0.37910280  1
  Mo  Mo190  1  0.49774416  0.29713703  0.10477040  1
  Mo  Mo191  1  0.29574389  0.89240963  0.63283169  1
  Mo  Mo192  1  0.10438303  0.49566847  0.39751386  1
  Mo  Mo193  1  -0.00068969  0.59903381  0.26632420  1
  Mo  Mo194  1  0.28928432  0.09201941  0.11862022  1
  Mo  Mo195  1  0.49727829  0.70026572  0.63295077  1
  Mo  Mo196  1  -0.00716591  0.40512542  -0.00530446  1
  Mo  Mo197  1  -0.00858436  0.20408367  0.74357292  1
  Mo  Mo198  1  0.71531909  0.50860912  0.14877307  1
  Mo  Mo199  1  0.70119551  0.50462683  0.85279456  1
