# generated using pymatgen
data_HfZrTaTiMo
_symmetry_space_group_name_H-M   'P 1'
_cell_length_a   15.85276965
_cell_length_b   15.83391115
_cell_length_c   15.40242865
_cell_angle_alpha   90.01280309
_cell_angle_beta   89.98062491
_cell_angle_gamma   89.88097439
_symmetry_Int_Tables_number   1
_chemical_formula_structural   HfZrTaTiMo
_chemical_formula_sum   'Hf40 Zr40 Ta40 Ti40 Mo40'
_cell_volume   3866.17568969
_cell_formula_units_Z   40
loop_
 _symmetry_equiv_pos_site_id
 _symmetry_equiv_pos_as_xyz
  1  'x, y, z'
loop_
 _atom_site_type_symbol
 _atom_site_label
 _atom_site_symmetry_multiplicity
 _atom_site_fract_x
 _atom_site_fract_y
 _atom_site_fract_z
 _atom_site_occupancy
  Hf  Hf0  1  0.51382657  0.29933595  0.61875193  1
  Hf  Hf1  1  0.41588244  0.39032970  0.21914710  1
  Hf  Hf2  1  0.51044643  0.49494353  0.36159882  1
  Hf  Hf3  1  0.09054729  0.50491180  0.37825327  1
  Hf  Hf4  1  0.20869377  0.38803199  -0.00528081  1
  Hf  Hf5  1  0.69976993  0.30230474  0.12539295  1
  Hf  Hf6  1  0.20312545  0.40818872  0.49756200  1
  Hf  Hf7  1  0.88763386  0.12073888  0.62226347  1
  Hf  Hf8  1  0.59879139  0.61624614  0.25800968  1
  Hf  Hf9  1  0.79565314  0.60296621  0.26249946  1
  Hf  Hf10  1  0.20310221  -0.00996902  0.48873948  1
  Hf  Hf11  1  0.29721460  0.90109604  0.88109269  1
  Hf  Hf12  1  0.08983166  0.89750264  0.86824478  1
  Hf  Hf13  1  0.28936820  0.69887397  0.63306394  1
  Hf  Hf14  1  0.59199929  0.19622678  -0.00040661  1
  Hf  Hf15  1  0.30218550  0.30442344  0.36854376  1
  Hf  Hf16  1  0.50559927  0.08995530  0.12686541  1
  Hf  Hf17  1  0.40213086  0.40850801  0.73408412  1
  Hf  Hf18  1  0.69086657  0.90456216  0.63073252  1
  Hf  Hf19  1  0.79930365  0.20695532  0.25638805  1
  Hf  Hf20  1  0.08003275  0.30340797  0.11477524  1
  Hf  Hf21  1  0.57419119  0.41520666  0.01213537  1
  Hf  Hf22  1  0.39258142  0.79992297  0.49654358  1
  Hf  Hf23  1  0.39375181  -0.00019301  0.74230537  1
  Hf  Hf24  1  0.30942337  0.50584882  0.35300212  1
  Hf  Hf25  1  0.79491263  -0.00961593  0.00100298  1
  Hf  Hf26  1  -0.00892099  0.00439658  0.74240017  1
  Hf  Hf27  1  0.48389749  0.31453375  0.87390608  1
  Hf  Hf28  1  0.80269051  0.41227931  -0.00848451  1
  Hf  Hf29  1  0.51347352  0.10051620  0.62867800  1
  Hf  Hf30  1  0.39479504  0.80034153  0.75185951  1
  Hf  Hf31  1  0.09837313  0.10371589  0.62087433  1
  Hf  Hf32  1  0.40107042  -0.00923987  0.26513822  1
  Hf  Hf33  1  0.40993553  0.77737745  0.25998026  1
  Hf  Hf34  1  0.51276183  0.88944279  0.12749061  1
  Hf  Hf35  1  0.09588351  0.29731108  0.62915655  1
  Hf  Hf36  1  0.19727959  -0.00966119  0.26059871  1
  Hf  Hf37  1  0.19472704  0.19431559  0.24412703  1
  Hf  Hf38  1  0.10984926  0.89355059  0.62039962  1
  Hf  Hf39  1  0.31029347  0.49562162  0.87626743  1
  Zr  Zr40  1  -0.00867934  0.40202101  0.51114232  1
  Zr  Zr41  1  0.80715319  0.20284121  0.77217672  1
  Zr  Zr42  1  0.90526188  0.90291986  0.13194487  1
  Zr  Zr43  1  0.18785365  0.39914616  0.24192148  1
  Zr  Zr44  1  0.39380502  -0.00723031  0.49900562  1
  Zr  Zr45  1  -0.00085243  0.78314530  0.73490730  1
  Zr  Zr46  1  0.39377184  0.20005284  0.75225887  1
  Zr  Zr47  1  0.70330181  0.50964915  0.12660661  1
  Zr  Zr48  1  0.30077851  0.69284260  0.12510481  1
  Zr  Zr49  1  0.71403336  0.28795860  0.62299462  1
  Zr  Zr50  1  0.69250266  0.08395202  0.87089665  1
  Zr  Zr51  1  0.18968567  0.78358446  -0.00247578  1
  Zr  Zr52  1  0.89411219  0.89666895  0.61209585  1
  Zr  Zr53  1  0.50893874  0.70127429  0.63076879  1
  Zr  Zr54  1  0.40015690  0.60161042  0.49853529  1
  Zr  Zr55  1  0.29329630  0.29593902  0.62006203  1
  Zr  Zr56  1  -0.00226090  0.60355660  0.24480070  1
  Zr  Zr57  1  0.79447752  0.41113114  0.75785452  1
  Zr  Zr58  1  0.10605932  0.51068383  0.63383499  1
  Zr  Zr59  1  0.08362303  0.08422106  0.12302114  1
  Zr  Zr60  1  0.79427844  -0.00026217  0.25475161  1
  Zr  Zr61  1  0.89911701  0.70625367  0.39512007  1
  Zr  Zr62  1  0.40700078  0.40680790  0.50600406  1
  Zr  Zr63  1  0.41107780  0.19300414  0.48795074  1
  Zr  Zr64  1  0.89539529  0.70153934  0.11877593  1
  Zr  Zr65  1  0.19261769  0.19220290  0.00012713  1
  Zr  Zr66  1  0.90178868  0.89394694  0.38470043  1
  Zr  Zr67  1  0.29855907  0.49890405  0.11816058  1
  Zr  Zr68  1  0.29934600  0.09522156  0.88894025  1
  Zr  Zr69  1  0.40035818  0.19270881  0.24654079  1
  Zr  Zr70  1  0.41093014  0.79403335  -0.00651978  1
  Zr  Zr71  1  0.62211359  0.59507427  0.75644791  1
  Zr  Zr72  1  0.89831963  0.10703029  0.12079916  1
  Zr  Zr73  1  0.38926371  0.22689906  0.02306680  1
  Zr  Zr74  1  0.69095585  0.30662415  0.88629331  1
  Zr  Zr75  1  0.59369852  0.00756798  0.48839960  1
  Zr  Zr76  1  0.90717160  0.70814013  0.87767987  1
  Zr  Zr77  1  0.42219845  0.58923366  0.00385794  1
  Zr  Zr78  1  0.78736658  0.02226351  0.49936355  1
  Zr  Zr79  1  0.30007455  0.89768948  0.12442468  1
  Ta  Ta80  1  -0.00485426  0.20722236  0.25977132  1
  Ta  Ta81  1  0.50566099  0.69859124  0.85900141  1
  Ta  Ta82  1  0.62058489  0.19733885  0.47896809  1
  Ta  Ta83  1  0.20558639  0.79552890  0.48014149  1
  Ta  Ta84  1  0.60147926  0.19874773  0.26064507  1
  Ta  Ta85  1  0.90040929  0.10706565  0.37931402  1
  Ta  Ta86  1  0.00022875  0.00482133  0.49902060  1
  Ta  Ta87  1  0.60537159  0.60736618  -0.01234400  1
  Ta  Ta88  1  0.61255025  0.40467961  0.49739247  1
  Ta  Ta89  1  0.70380376  0.88910335  0.39085916  1
  Ta  Ta90  1  0.28883955  0.09929348  0.61922330  1
  Ta  Ta91  1  0.09314490  0.30177535  0.37607024  1
  Ta  Ta92  1  0.70485341  0.89587776  0.85691612  1
  Ta  Ta93  1  0.00103658  0.80451601  0.00437832  1
  Ta  Ta94  1  0.60310143  -0.00283763  0.26646273  1
  Ta  Ta95  1  0.19564928  0.19961579  0.48716224  1
  Ta  Ta96  1  0.09298257  0.10138350  0.37796130  1
  Ta  Ta97  1  0.51366827  0.90809661  0.86347046  1
  Ta  Ta98  1  0.80835808  0.60469971  0.75489103  1
  Ta  Ta99  1  0.60895375  0.80249411  -0.01850962  1
  Ta  Ta100  1  0.19959182  0.39478894  0.76125656  1
  Ta  Ta101  1  0.19323704  0.79201210  0.26130692  1
  Ta  Ta102  1  0.79496153  0.78978204  0.73791541  1
  Ta  Ta103  1  0.50746545  0.88645376  0.37869032  1
  Ta  Ta104  1  0.09857423  0.50763959  0.10726526  1
  Ta  Ta105  1  0.59884847  0.20227572  0.76023531  1
  Ta  Ta106  1  0.89885095  0.50497318  0.63697008  1
  Ta  Ta107  1  0.50357654  0.89521177  0.63099571  1
  Ta  Ta108  1  0.79958594  0.60349717  -0.01945799  1
  Ta  Ta109  1  0.09530397  0.50059471  0.87833952  1
  Ta  Ta110  1  0.19437234  0.60713239  0.25268660  1
  Ta  Ta111  1  0.79258374  0.79611588  0.25317266  1
  Ta  Ta112  1  -0.00667039  0.20579276  0.49322368  1
  Ta  Ta113  1  0.60555885  0.59514137  0.49469014  1
  Ta  Ta114  1  -0.00343494  0.40101594  0.75697976  1
  Ta  Ta115  1  0.69935618  0.71190574  0.11174678  1
  Ta  Ta116  1  0.19412127  0.19613309  0.76466036  1
  Ta  Ta117  1  -0.00053070  0.20470152  0.76456701  1
  Ta  Ta118  1  -0.00801683  0.19727980  -0.01801224  1
  Ta  Ta119  1  0.00625853  0.60597308  -0.00341514  1
  Ti  Ti120  1  0.89366913  0.49927915  0.38226631  1
  Ti  Ti121  1  0.08790080  0.88910487  0.37926430  1
  Ti  Ti122  1  0.69398438  0.09488595  0.12498067  1
  Ti  Ti123  1  0.29745390  0.08849499  0.11959391  1
  Ti  Ti124  1  0.51303717  0.50738733  0.62891186  1
  Ti  Ti125  1  0.29401617  0.51281187  0.63683762  1
  Ti  Ti126  1  0.79864286  0.19926236  -0.00391338  1
  Ti  Ti127  1  0.90796726  0.49799374  0.11571428  1
  Ti  Ti128  1  0.18459201  -0.01242347  0.00603258  1
  Ti  Ti129  1  0.09281458  0.08979749  0.87716913  1
  Ti  Ti130  1  0.30263115  0.68916848  0.87545556  1
  Ti  Ti131  1  0.20635419  0.60722795  0.48326869  1
  Ti  Ti132  1  0.89233843  0.89919159  0.86812697  1
  Ti  Ti133  1  0.89908397  0.30644750  0.11378937  1
  Ti  Ti134  1  0.70395349  0.31638655  0.37054599  1
  Ti  Ti135  1  0.90671285  0.31030320  0.88633523  1
  Ti  Ti136  1  0.60494078  0.40458417  0.74818811  1
  Ti  Ti137  1  0.89853647  0.08724936  0.87964926  1
  Ti  Ti138  1  -0.00973703  0.40239313  0.24975202  1
  Ti  Ti139  1  0.41172976  -0.00403751  -0.00010489  1
  Ti  Ti140  1  -0.00151018  0.00059092  0.26645060  1
  Ti  Ti141  1  0.20124479  -0.00092918  0.74530661  1
  Ti  Ti142  1  0.60848513  0.79844311  0.26074520  1
  Ti  Ti143  1  0.10256583  0.69711576  0.61251255  1
  Ti  Ti144  1  0.19173117  0.60509619  0.76743502  1
  Ti  Ti145  1  0.09665489  0.30114705  0.87771281  1
  Ti  Ti146  1  0.80121418  0.40106333  0.50927765  1
  Ti  Ti147  1  0.79654898  0.59101189  0.50928156  1
  Ti  Ti148  1  0.49949940  0.09479441  0.87552672  1
  Ti  Ti149  1  -0.00569204  0.60285438  0.51206694  1
  Ti  Ti150  1  0.29715986  0.10051567  0.37760737  1
  Ti  Ti151  1  0.08962467  0.70435256  0.38125765  1
  Ti  Ti152  1  0.69763943  0.89709854  0.12366853  1
  Ti  Ti153  1  0.50974874  0.30350740  0.37134818  1
  Ti  Ti154  1  0.80351371  0.40867014  0.24989084  1
  Ti  Ti155  1  0.89736905  0.30828406  0.37791998  1
  Ti  Ti156  1  0.69977448  0.70647416  0.39705273  1
  Ti  Ti157  1  0.70252814  0.70057222  0.61467800  1
  Ti  Ti158  1  0.09262217  0.88796762  0.13483132  1
  Ti  Ti159  1  0.19833820  0.79670329  0.75812689  1
  Mo  Mo160  1  0.50987905  0.51072065  0.14447813  1
  Mo  Mo161  1  0.70390367  0.10440876  0.36101791  1
  Mo  Mo162  1  -0.00116769  0.40451479  -0.01137224  1
  Mo  Mo163  1  0.70851608  0.70784364  0.88088064  1
  Mo  Mo164  1  0.29830803  0.89254184  0.36069846  1
  Mo  Mo165  1  0.40614089  0.59829177  0.24043127  1
  Mo  Mo166  1  0.89563873  0.69135241  0.61544870  1
  Mo  Mo167  1  0.59842139  0.79734663  0.49712473  1
  Mo  Mo168  1  0.59697034  -0.00862682  0.00136466  1
  Mo  Mo169  1  0.40187172  0.59906055  0.75125889  1
  Mo  Mo170  1  0.69729652  0.10669690  0.64271902  1
  Mo  Mo171  1  0.29452192  0.30184503  0.86224406  1
  Mo  Mo172  1  0.80192461  0.21556938  0.48246478  1
  Mo  Mo173  1  0.60353771  0.79969430  0.75817067  1
  Mo  Mo174  1  0.70174060  0.50028258  0.61275440  1
  Mo  Mo175  1  0.90587338  0.50679217  0.86428290  1
  Mo  Mo176  1  0.29724097  0.69368527  0.36592820  1
  Mo  Mo177  1  0.79758005  0.80537110  -0.00132434  1
  Mo  Mo178  1  -0.00193013  -0.00607368  -0.01596330  1
  Mo  Mo179  1  0.59733669  0.00345045  0.74323542  1
  Mo  Mo180  1  0.61308623  0.39906216  0.25679068  1
  Mo  Mo181  1  0.00968428  0.79704898  0.51361236  1
  Mo  Mo182  1  0.50628047  0.69829443  0.39116137  1
  Mo  Mo183  1  0.71016119  0.49956623  0.38429415  1
  Mo  Mo184  1  0.50288485  0.09901587  0.37029202  1
  Mo  Mo185  1  0.80270409  -0.00426979  0.75097771  1
  Mo  Mo186  1  0.29488341  0.89719805  0.63654327  1
  Mo  Mo187  1  0.28316207  0.29437399  0.14094777  1
  Mo  Mo188  1  0.00333310  0.59621591  0.74549974  1
  Mo  Mo189  1  0.79471466  0.79563278  0.51776573  1
  Mo  Mo190  1  0.69788052  0.50432895  0.88551227  1
  Mo  Mo191  1  0.90711859  0.30530693  0.63062536  1
  Mo  Mo192  1  0.40098126  0.40109661  0.01261580  1
  Mo  Mo193  1  0.09753384  0.70004790  0.12968867  1
  Mo  Mo194  1  0.19508007  0.59631931  -0.01447003  1
  Mo  Mo195  1  0.50181908  0.50420201  0.85614982  1
  Mo  Mo196  1  0.51970562  0.70301529  0.11506483  1
  Mo  Mo197  1  0.00334947  0.79994125  0.24466839  1
  Mo  Mo198  1  0.10232768  0.69550937  0.87283631  1
  Mo  Mo199  1  0.51939424  0.29262109  0.13436290  1
