# generated using pymatgen
data_HfZrTaTiMo
_symmetry_space_group_name_H-M   'P 1'
_cell_length_a   15.82507178
_cell_length_b   15.83375382
_cell_length_c   15.39022091
_cell_angle_alpha   89.99257262
_cell_angle_beta   89.96176284
_cell_angle_gamma   89.75016772
_symmetry_Int_Tables_number   1
_chemical_formula_structural   HfZrTaTiMo
_chemical_formula_sum   'Hf40 Zr40 Ta40 Ti40 Mo40'
_cell_volume   3856.29457770
_cell_formula_units_Z   40
loop_
 _symmetry_equiv_pos_site_id
 _symmetry_equiv_pos_as_xyz
  1  'x, y, z'
loop_
 _atom_site_type_symbol
 _atom_site_label
 _atom_site_symmetry_multiplicity
 _atom_site_fract_x
 _atom_site_fract_y
 _atom_site_fract_z
 _atom_site_occupancy
  Hf  Hf0  1  0.79072782  0.81276222  -0.01581108  1
  Hf  Hf1  1  0.20728985  0.80712480  0.47998399  1
  Hf  Hf2  1  0.89119759  0.70926772  0.11655978  1
  Hf  Hf3  1  0.59877559  -0.01126842  0.25153702  1
  Hf  Hf4  1  0.90876410  0.91076169  0.88031974  1
  Hf  Hf5  1  0.39409444  0.59805429  0.77646520  1
  Hf  Hf6  1  0.48733796  0.30833721  0.64753132  1
  Hf  Hf7  1  0.59566040  0.19573543  0.75699640  1
  Hf  Hf8  1  0.39536210  0.60880391  -0.00591197  1
  Hf  Hf9  1  0.30355471  0.29193934  0.11233670  1
  Hf  Hf10  1  0.39233388  0.01305405  0.75632234  1
  Hf  Hf11  1  0.91364320  0.68311010  0.63545009  1
  Hf  Hf12  1  0.20177456  0.40146945  0.75811707  1
  Hf  Hf13  1  0.49310401  0.09821869  0.37785266  1
  Hf  Hf14  1  0.48858508  0.10017641  0.62004453  1
  Hf  Hf15  1  0.89449255  0.90862982  0.13225700  1
  Hf  Hf16  1  0.32203489  0.89022417  0.13721225  1
  Hf  Hf17  1  0.41884659  0.58509541  0.50341002  1
  Hf  Hf18  1  0.10519939  0.88552941  0.90219012  1
  Hf  Hf19  1  0.79004297  -0.01288344  0.50004962  1
  Hf  Hf20  1  0.40218941  0.79279671  0.49705176  1
  Hf  Hf21  1  0.70272755  0.31245199  0.37132020  1
  Hf  Hf22  1  0.49795636  0.89300926  0.37908164  1
  Hf  Hf23  1  -0.00118994  0.41990068  0.51358273  1
  Hf  Hf24  1  0.20579400  -0.00110103  0.01658670  1
  Hf  Hf25  1  0.30417699  0.50042022  0.36818040  1
  Hf  Hf26  1  0.69531974  0.10094611  0.62112083  1
  Hf  Hf27  1  -0.00323771  0.60085340  0.00069697  1
  Hf  Hf28  1  0.21026824  0.18860625  0.76627559  1
  Hf  Hf29  1  0.09808486  0.70821347  0.60708022  1
  Hf  Hf30  1  -0.00716672  0.59921499  0.23613760  1
  Hf  Hf31  1  0.20388840  0.60731369  -0.00122462  1
  Hf  Hf32  1  0.60775494  0.19510267  -0.01362549  1
  Hf  Hf33  1  0.49974331  0.72683532  0.11300522  1
  Hf  Hf34  1  0.39926101  0.40608171  0.23757804  1
  Hf  Hf35  1  0.51029866  0.69183821  0.64218212  1
  Hf  Hf36  1  0.70272345  0.09557876  0.13373076  1
  Hf  Hf37  1  0.80610365  0.19885155  0.25597519  1
  Hf  Hf38  1  0.09215067  0.70136495  0.37458242  1
  Hf  Hf39  1  0.41327551  0.59881224  0.22776152  1
  Zr  Zr40  1  0.49774078  0.29310881  0.11780013  1
  Zr  Zr41  1  -0.00705942  0.42229954  0.74428113  1
  Zr  Zr42  1  0.61439792  0.79077830  0.51000015  1
  Zr  Zr43  1  0.88546402  0.30727393  0.62378029  1
  Zr  Zr44  1  0.68878447  0.51511331  0.38075727  1
  Zr  Zr45  1  0.50032759  0.09917560  0.12187743  1
  Zr  Zr46  1  0.09899777  0.49809393  0.36515805  1
  Zr  Zr47  1  0.09493189  0.49271660  0.88914642  1
  Zr  Zr48  1  0.70351354  0.49950656  0.63650041  1
  Zr  Zr49  1  0.70060005  0.29946514  0.12726148  1
  Zr  Zr50  1  0.80121863  0.01541504  -0.00301590  1
  Zr  Zr51  1  0.01808601  0.79456242  0.76044600  1
  Zr  Zr52  1  0.80546614  0.78731802  0.50165260  1
  Zr  Zr53  1  0.00293897  0.20616372  0.49291745  1
  Zr  Zr54  1  0.10579246  0.29675223  0.63147494  1
  Zr  Zr55  1  0.90572087  0.09344947  0.38256527  1
  Zr  Zr56  1  0.90285470  0.89730717  0.37087171  1
  Zr  Zr57  1  0.20327438  0.59403186  0.50470866  1
  Zr  Zr58  1  0.31651457  0.48958472  0.63790365  1
  Zr  Zr59  1  0.90522520  0.29567816  0.87115673  1
  Zr  Zr60  1  0.17934110  0.60537069  0.75735012  1
  Zr  Zr61  1  0.30473416  0.70580414  0.64085690  1
  Zr  Zr62  1  0.69189413  0.10116461  0.37612218  1
  Zr  Zr63  1  -0.00162893  0.00015417  0.73828320  1
  Zr  Zr64  1  0.51655888  0.67913698  0.37585908  1
  Zr  Zr65  1  0.19380813  0.19203727  0.24813875  1
  Zr  Zr66  1  0.00355772  0.20205314  0.24741198  1
  Zr  Zr67  1  -0.01278447  0.18631508  0.02242908  1
  Zr  Zr68  1  0.58530107  0.41696125  0.50200067  1
  Zr  Zr69  1  0.59691833  0.42262670  0.23335794  1
  Zr  Zr70  1  0.89145445  0.50668805  0.37221975  1
  Zr  Zr71  1  0.29484736  0.90039297  0.63213079  1
  Zr  Zr72  1  0.20374225  0.60030409  0.22828105  1
  Zr  Zr73  1  0.10196916  0.09621267  0.60869071  1
  Zr  Zr74  1  0.50269715  0.29572415  0.35146555  1
  Zr  Zr75  1  0.60720294  0.80272043  0.76078654  1
  Zr  Zr76  1  0.19101123  -0.00400942  0.75526271  1
  Zr  Zr77  1  0.59125172  0.21290193  0.50709827  1
  Zr  Zr78  1  0.20381252  0.39614780  0.51208277  1
  Zr  Zr79  1  0.08936450  0.09561845  0.89160704  1
  Ta  Ta80  1  0.40072304  0.39125000  0.49078381  1
  Ta  Ta81  1  0.09486859  0.89846287  0.13000360  1
  Ta  Ta82  1  0.09501915  0.91188822  0.36750537  1
  Ta  Ta83  1  0.30895658  0.70163328  0.35667271  1
  Ta  Ta84  1  -0.00229822  0.39062236  0.01229928  1
  Ta  Ta85  1  0.70602025  0.50578649  0.09851843  1
  Ta  Ta86  1  0.40078012  0.80632374  -0.01730036  1
  Ta  Ta87  1  0.69350936  0.89297637  0.12753076  1
  Ta  Ta88  1  0.79977612  -0.00350307  0.74095140  1
  Ta  Ta89  1  0.29716583  0.30068186  0.36016396  1
  Ta  Ta90  1  0.90838884  0.89191743  0.61625742  1
  Ta  Ta91  1  0.60286292  0.39959128  -0.01029219  1
  Ta  Ta92  1  0.09956777  0.30929135  0.37137006  1
  Ta  Ta93  1  0.60572652  0.60551699  0.21841880  1
  Ta  Ta94  1  0.69507421  0.30753794  0.63779481  1
  Ta  Ta95  1  0.30492838  0.29513201  0.88679871  1
  Ta  Ta96  1  0.20002395  0.80303389  0.24823006  1
  Ta  Ta97  1  0.79006338  0.60394306  0.23164373  1
  Ta  Ta98  1  0.30672744  0.10576669  0.12043291  1
  Ta  Ta99  1  0.29729544  0.10718850  0.60932525  1
  Ta  Ta100  1  0.79161646  0.79693459  0.25471719  1
  Ta  Ta101  1  0.29949514  0.90017058  0.87317864  1
  Ta  Ta102  1  0.79815101  0.19445857  0.74617928  1
  Ta  Ta103  1  0.29997078  0.09773199  0.37353230  1
  Ta  Ta104  1  0.80809511  0.79961018  0.75322578  1
  Ta  Ta105  1  0.90010540  0.31601915  0.37697419  1
  Ta  Ta106  1  0.61094962  0.59300378  0.77073890  1
  Ta  Ta107  1  -0.00117880  0.39638126  0.23107818  1
  Ta  Ta108  1  0.70853739  0.69706600  0.87616900  1
  Ta  Ta109  1  0.49461143  0.89774361  0.63292577  1
  Ta  Ta110  1  0.30304138  0.49113160  0.10391673  1
  Ta  Ta111  1  0.89437027  0.09767003  0.61554619  1
  Ta  Ta112  1  0.89183584  0.49686084  0.11320561  1
  Ta  Ta113  1  0.49672034  0.09625607  0.88217957  1
  Ta  Ta114  1  0.09587466  0.71256264  0.11877919  1
  Ta  Ta115  1  0.60302738  0.79426879  0.25254621  1
  Ta  Ta116  1  0.50069537  0.49260205  0.87864991  1
  Ta  Ta117  1  0.38906621  0.20911768  0.49071605  1
  Ta  Ta118  1  0.79901961  0.59949194  0.51157753  1
  Ta  Ta119  1  0.59935414  0.60419103  -0.00857740  1
  Ti  Ti120  1  0.90726881  0.70175646  0.88075621  1
  Ti  Ti121  1  0.00566106  0.01526766  0.23775769  1
  Ti  Ti122  1  0.70134891  0.30064593  0.86480535  1
  Ti  Ti123  1  0.28326315  0.72183755  0.86213548  1
  Ti  Ti124  1  0.20214786  0.20277219  0.48376754  1
  Ti  Ti125  1  0.79879101  0.20082647  -0.00491147  1
  Ti  Ti126  1  0.59673129  -0.01353170  0.50375052  1
  Ti  Ti127  1  0.60436983  -0.01711899  -0.00573434  1
  Ti  Ti128  1  0.20124597  0.39434105  -0.00546304  1
  Ti  Ti129  1  0.81676663  0.58969154  0.76997021  1
  Ti  Ti130  1  0.19620012  0.39764344  0.23582880  1
  Ti  Ti131  1  -0.00275770  0.79853258  0.25226272  1
  Ti  Ti132  1  0.80134856  0.39851848  -0.01228971  1
  Ti  Ti133  1  0.50404644  0.70693796  0.87598549  1
  Ti  Ti134  1  -0.00181960  0.19744654  0.74178543  1
  Ti  Ti135  1  0.89814864  0.10321032  0.86301108  1
  Ti  Ti136  1  0.30285797  0.90291604  0.35842959  1
  Ti  Ti137  1  0.21516942  0.79570597  0.02138058  1
  Ti  Ti138  1  0.19922818  0.00243409  0.48471746  1
  Ti  Ti139  1  0.70083230  0.89478285  0.63671975  1
  Ti  Ti140  1  0.40415677  -0.00438047  -0.00071852  1
  Ti  Ti141  1  0.40136865  0.00251804  0.24703649  1
  Ti  Ti142  1  0.49934480  0.90309820  0.87019633  1
  Ti  Ti143  1  0.49318124  0.29829951  0.87358096  1
  Ti  Ti144  1  0.69711080  0.70779966  0.10349941  1
  Ti  Ti145  1  0.88989811  0.30230054  0.12498711  1
  Ti  Ti146  1  0.70186602  0.09074335  0.86514882  1
  Ti  Ti147  1  0.79744096  0.40763396  0.76763414  1
  Ti  Ti148  1  0.10745873  0.29381402  0.11332045  1
  Ti  Ti149  1  0.19765108  0.00229663  0.24413029  1
  Ti  Ti150  1  0.09605019  0.89695004  0.60210079  1
  Ti  Ti151  1  0.79545551  0.20989949  0.49908400  1
  Ti  Ti152  1  0.09917768  0.29084324  0.88323271  1
  Ti  Ti153  1  0.30800332  0.29121990  0.64034983  1
  Ti  Ti154  1  0.59824217  -0.00102197  0.74927540  1
  Ti  Ti155  1  0.39071557  -0.00564584  0.50132756  1
  Ti  Ti156  1  0.80146915  0.41102358  0.24148594  1
  Ti  Ti157  1  0.50502949  0.49233216  0.65845098  1
  Ti  Ti158  1  0.70782403  0.69380099  0.37176644  1
  Ti  Ti159  1  0.10101892  0.49285956  0.11545330  1
  Mo  Mo160  1  -0.01213067  0.60677677  0.48722297  1
  Mo  Mo161  1  0.59958053  0.80570300  -0.01985508  1
  Mo  Mo162  1  -0.00422976  0.60411732  0.77421115  1
  Mo  Mo163  1  0.10361422  0.70550897  0.90144420  1
  Mo  Mo164  1  0.89402430  0.09946971  0.14320425  1
  Mo  Mo165  1  0.19674094  0.80666920  0.74777899  1
  Mo  Mo166  1  0.30231092  0.09644922  0.89930723  1
  Mo  Mo167  1  0.30049512  0.49020365  0.88935880  1
  Mo  Mo168  1  0.70412366  0.49758277  0.88398016  1
  Mo  Mo169  1  0.00094912  0.80098594  0.48412009  1
  Mo  Mo170  1  0.70247373  0.90867475  0.85798481  1
  Mo  Mo171  1  0.69632103  0.89170650  0.36594145  1
  Mo  Mo172  1  -0.00224162  0.80172539  0.00516059  1
  Mo  Mo173  1  0.40302268  0.39864960  -0.00742215  1
  Mo  Mo174  1  0.40675153  0.80166902  0.26405241  1
  Mo  Mo175  1  0.07881654  0.52445288  0.62944305  1
  Mo  Mo176  1  0.89217485  0.69470524  0.36039505  1
  Mo  Mo177  1  0.49936234  0.50170036  0.37069846  1
  Mo  Mo178  1  0.39493985  0.19689238  0.76607560  1
  Mo  Mo179  1  0.60323418  0.39701571  0.77156013  1
  Mo  Mo180  1  0.39265665  0.19253548  0.25868352  1
  Mo  Mo181  1  0.30143513  0.70447414  0.13541323  1
  Mo  Mo182  1  0.19807080  0.19992108  -0.00307591  1
  Mo  Mo183  1  0.40329947  0.80590282  0.76746931  1
  Mo  Mo184  1  0.40157390  0.19233524  -0.01497578  1
  Mo  Mo185  1  0.60006296  0.19429259  0.25079725  1
  Mo  Mo186  1  0.10347309  0.09426524  0.11969105  1
  Mo  Mo187  1  0.10641473  0.09399042  0.38068127  1
  Mo  Mo188  1  0.89601221  0.49776534  0.89805193  1
  Mo  Mo189  1  0.79916491  0.60514407  -0.00464868  1
  Mo  Mo190  1  0.89035167  0.50568276  0.62304182  1
  Mo  Mo191  1  0.60796084  0.60357261  0.52827544  1
  Mo  Mo192  1  -0.00060006  -0.00163632  0.02149542  1
  Mo  Mo193  1  0.50717972  0.90175566  0.11419571  1
  Mo  Mo194  1  0.71449928  0.69267367  0.65751606  1
  Mo  Mo195  1  0.50447494  0.50595175  0.09296948  1
  Mo  Mo196  1  0.79439444  -0.00874627  0.25846401  1
  Mo  Mo197  1  0.00055554  -0.00565448  0.50655548  1
  Mo  Mo198  1  0.39727853  0.39583687  0.77520277  1
  Mo  Mo199  1  0.79676933  0.39661113  0.50048786  1
