# generated using pymatgen
data_HfZrTaTiMo
_symmetry_space_group_name_H-M   'P 1'
_cell_length_a   15.84226939
_cell_length_b   15.83576282
_cell_length_c   15.37765213
_cell_angle_alpha   90.02293477
_cell_angle_beta   90.07348286
_cell_angle_gamma   90.04032874
_symmetry_Int_Tables_number   1
_chemical_formula_structural   HfZrTaTiMo
_chemical_formula_sum   'Hf40 Zr40 Ta40 Ti40 Mo40'
_cell_volume   3857.85512906
_cell_formula_units_Z   40
loop_
 _symmetry_equiv_pos_site_id
 _symmetry_equiv_pos_as_xyz
  1  'x, y, z'
loop_
 _atom_site_type_symbol
 _atom_site_label
 _atom_site_symmetry_multiplicity
 _atom_site_fract_x
 _atom_site_fract_y
 _atom_site_fract_z
 _atom_site_occupancy
  Hf  Hf0  1  0.49427468  0.10050137  0.64212944  1
  Hf  Hf1  1  0.40975519  0.59644237  0.50849386  1
  Hf  Hf2  1  0.59035866  0.61508316  0.26802232  1
  Hf  Hf3  1  0.19621520  0.19816102  0.25074674  1
  Hf  Hf4  1  0.59683449  0.18938004  0.24639155  1
  Hf  Hf5  1  0.89888144  0.90176333  0.37600709  1
  Hf  Hf6  1  0.02180307  0.22867697  0.75986352  1
  Hf  Hf7  1  0.20950998  0.60897726  0.26322975  1
  Hf  Hf8  1  -0.00951151  0.58428640  0.76413688  1
  Hf  Hf9  1  0.79420342  0.60278969  0.76651201  1
  Hf  Hf10  1  0.69455258  0.50692030  0.11768579  1
  Hf  Hf11  1  0.78766757  0.61174943  0.25977592  1
  Hf  Hf12  1  0.09991421  0.50055506  0.36759224  1
  Hf  Hf13  1  0.19511840  0.20820713  0.00803316  1
  Hf  Hf14  1  0.68749676  0.31713749  0.88714197  1
  Hf  Hf15  1  0.40419907  0.00666572  0.50677007  1
  Hf  Hf16  1  0.28812348  0.28743063  0.61853983  1
  Hf  Hf17  1  0.89870085  0.09669377  0.13351668  1
  Hf  Hf18  1  0.79666883  0.20546351  0.00509217  1
  Hf  Hf19  1  0.08685381  0.48106990  0.61727803  1
  Hf  Hf20  1  0.69915807  0.90071380  0.10444448  1
  Hf  Hf21  1  0.20803308  0.00225823  0.49913285  1
  Hf  Hf22  1  0.79623310  0.01488959  -0.01406877  1
  Hf  Hf23  1  0.09950476  0.69150782  0.63219424  1
  Hf  Hf24  1  0.11309402  0.90138221  0.86806438  1
  Hf  Hf25  1  0.78585324  0.19953870  0.25057218  1
  Hf  Hf26  1  0.48403431  0.28184637  0.37562474  1
  Hf  Hf27  1  0.88720992  0.49618881  0.36821588  1
  Hf  Hf28  1  0.10580771  0.89699927  0.37332583  1
  Hf  Hf29  1  0.50880989  0.88811439  0.10555838  1
  Hf  Hf30  1  0.90636074  0.31947787  0.87918062  1
  Hf  Hf31  1  0.00449071  0.00814744  0.50906298  1
  Hf  Hf32  1  0.79052706  0.80323937  0.25545361  1
  Hf  Hf33  1  0.30678510  0.89875697  0.37497908  1
  Hf  Hf34  1  0.09753323  0.08978678  0.12735771  1
  Hf  Hf35  1  0.80364120  0.20972327  0.49508658  1
  Hf  Hf36  1  0.60646964  0.21885596  0.73316182  1
  Hf  Hf37  1  0.89032266  0.50499371  0.60587742  1
  Hf  Hf38  1  0.38602627  0.79187889  -0.02149001  1
  Hf  Hf39  1  0.28952971  0.30955782  0.87868803  1
  Zr  Zr40  1  0.10878812  0.90226117  0.11882100  1
  Zr  Zr41  1  0.29540194  0.48551995  0.62967384  1
  Zr  Zr42  1  0.88654298  0.70368440  0.10975741  1
  Zr  Zr43  1  0.30035585  0.70069653  0.64205300  1
  Zr  Zr44  1  -0.00730818  0.79725956  0.74640793  1
  Zr  Zr45  1  0.50388056  0.10272386  0.86753334  1
  Zr  Zr46  1  0.00251860  0.60740118  0.24234196  1
  Zr  Zr47  1  0.49547967  0.29485382  0.88090738  1
  Zr  Zr48  1  0.49871727  0.08349589  0.12255852  1
  Zr  Zr49  1  0.90094131  0.90777758  0.11430906  1
  Zr  Zr50  1  0.90769616  0.31452220  0.62546000  1
  Zr  Zr51  1  0.49579125  0.51188586  0.11911891  1
  Zr  Zr52  1  0.20112022  0.19202518  0.47837017  1
  Zr  Zr53  1  0.30917089  0.71144363  0.39587957  1
  Zr  Zr54  1  0.80626572  -0.00107933  0.51246983  1
  Zr  Zr55  1  0.30374787  0.89556424  0.12541427  1
  Zr  Zr56  1  0.39034652  0.40094763  0.01138596  1
  Zr  Zr57  1  -0.00082654  0.19782219  0.00234122  1
  Zr  Zr58  1  0.50495232  0.48262753  0.87803627  1
  Zr  Zr59  1  0.01088720  0.79710961  -0.00022524  1
  Zr  Zr60  1  0.60259458  0.20131553  0.02230118  1
  Zr  Zr61  1  0.00864224  0.59105007  -0.00081352  1
  Zr  Zr62  1  0.59947065  -0.00963640  0.51609839  1
  Zr  Zr63  1  0.50532562  0.89134778  0.37978845  1
  Zr  Zr64  1  0.11214315  0.11473733  0.63688089  1
  Zr  Zr65  1  0.59541063  0.39791141  0.50752162  1
  Zr  Zr66  1  -0.00552677  0.81216276  0.51846723  1
  Zr  Zr67  1  0.90619016  0.11204334  0.63885197  1
  Zr  Zr68  1  0.01808978  0.39640566  0.02853824  1
  Zr  Zr69  1  0.59682371  0.39061025  0.24281311  1
  Zr  Zr70  1  0.00656283  0.79438565  0.24081938  1
  Zr  Zr71  1  0.68598090  0.70909830  0.10170583  1
  Zr  Zr72  1  0.20596108  0.59235703  0.49707201  1
  Zr  Zr73  1  0.12051193  0.69895644  0.86999439  1
  Zr  Zr74  1  0.79451124  0.41430776  0.75570235  1
  Zr  Zr75  1  0.59638315  0.19250417  0.50353464  1
  Zr  Zr76  1  -0.00493821  0.60494606  0.49032815  1
  Zr  Zr77  1  0.40912600  0.59328764  0.75124258  1
  Zr  Zr78  1  0.90443062  0.90741558  0.87951998  1
  Zr  Zr79  1  0.40982879  0.78284366  0.24122505  1
  Ta  Ta80  1  0.59819067  0.40622136  0.72611964  1
  Ta  Ta81  1  0.80088883  0.00107414  0.75132183  1
  Ta  Ta82  1  0.30146691  0.30144507  0.36207310  1
  Ta  Ta83  1  0.78607118  0.61019642  0.48393524  1
  Ta  Ta84  1  0.29981900  0.10543926  0.86873139  1
  Ta  Ta85  1  0.70888909  0.89105533  0.63667633  1
  Ta  Ta86  1  0.00191821  0.20453524  0.47930676  1
  Ta  Ta87  1  0.49479321  0.49412363  0.37780546  1
  Ta  Ta88  1  0.29058059  0.51235900  0.12940478  1
  Ta  Ta89  1  0.88349197  0.70247664  0.62097988  1
  Ta  Ta90  1  0.60032420  0.79153840  0.74640160  1
  Ta  Ta91  1  0.13635393  0.69196534  0.10853498  1
  Ta  Ta92  1  0.70611994  0.10303675  0.63491649  1
  Ta  Ta93  1  0.59599882  0.60230994  0.50279340  1
  Ta  Ta94  1  0.41333876  0.80700761  0.53371723  1
  Ta  Ta95  1  0.32908144  0.10917582  0.35852616  1
  Ta  Ta96  1  0.20941400  0.00149465  -0.01303412  1
  Ta  Ta97  1  0.19356527  0.38952190  0.48116532  1
  Ta  Ta98  1  0.39948286  0.59805288  0.26372407  1
  Ta  Ta99  1  0.30181232  0.09355952  0.12772433  1
  Ta  Ta100  1  0.89235863  0.50132366  0.12797974  1
  Ta  Ta101  1  0.69663165  0.89636239  0.86997233  1
  Ta  Ta102  1  -0.00043117  0.39798603  0.24713088  1
  Ta  Ta103  1  0.59916405  0.60160034  -0.02719993  1
  Ta  Ta104  1  0.79653164  0.59666764  -0.01852417  1
  Ta  Ta105  1  0.39602305  0.40410590  0.24690087  1
  Ta  Ta106  1  0.17757474  0.37905587  0.74483812  1
  Ta  Ta107  1  0.78693290  0.00063704  0.25497312  1
  Ta  Ta108  1  0.20368286  0.80956679  0.52173090  1
  Ta  Ta109  1  0.30123067  0.09727996  0.64633196  1
  Ta  Ta110  1  0.39555837  -0.00319580  -0.01791027  1
  Ta  Ta111  1  0.10490620  0.71251777  0.38878883  1
  Ta  Ta112  1  0.29621372  0.30168335  0.13484493  1
  Ta  Ta113  1  0.90261414  0.11096114  0.86167017  1
  Ta  Ta114  1  0.89466980  0.30296990  0.13673529  1
  Ta  Ta115  1  0.60653773  0.59340849  0.74742483  1
  Ta  Ta116  1  0.60328264  0.79877567  0.25629056  1
  Ta  Ta117  1  0.10908549  0.90954141  0.64373402  1
  Ta  Ta118  1  0.50180840  0.89654188  0.86608896  1
  Ta  Ta119  1  -0.00707446  0.38479084  0.46958222  1
  Ti  Ti120  1  0.70194153  0.89196077  0.39374427  1
  Ti  Ti121  1  0.10344908  0.10214388  0.87319205  1
  Ti  Ti122  1  0.00157304  0.00671664  0.75270396  1
  Ti  Ti123  1  0.79815123  0.79904254  0.75698854  1
  Ti  Ti124  1  0.49791058  0.69648967  0.10337210  1
  Ti  Ti125  1  0.60671943  -0.00576360  0.74583717  1
  Ti  Ti126  1  0.20843283  0.79361120  0.24666397  1
  Ti  Ti127  1  0.60200158  0.00388818  -0.01606500  1
  Ti  Ti128  1  0.89612519  0.09958856  0.36870633  1
  Ti  Ti129  1  0.21478157  0.58665922  -0.01679266  1
  Ti  Ti130  1  0.39483116  0.19478581  0.01097455  1
  Ti  Ti131  1  0.38914062  0.39887357  0.49185012  1
  Ti  Ti132  1  0.69207612  0.49787141  0.37762335  1
  Ti  Ti133  1  0.39405791  0.20901443  0.75091664  1
  Ti  Ti134  1  0.39825348  -0.00757629  0.76156300  1
  Ti  Ti135  1  0.39750223  0.39752241  0.74697831  1
  Ti  Ti136  1  0.70306449  0.69644416  0.62373715  1
  Ti  Ti137  1  0.60705163  -0.01013165  0.25406624  1
  Ti  Ti138  1  0.79773662  0.21502343  0.74939361  1
  Ti  Ti139  1  0.79259081  0.39780891  0.24596753  1
  Ti  Ti140  1  0.69262975  0.08997307  0.38331130  1
  Ti  Ti141  1  0.89770794  0.70457919  0.88487410  1
  Ti  Ti142  1  -0.00329688  0.20663694  0.26095042  1
  Ti  Ti143  1  0.69994647  0.10804505  0.85618145  1
  Ti  Ti144  1  -0.00329407  -0.00250951  0.25659004  1
  Ti  Ti145  1  0.39094684  0.59985445  -0.02323191  1
  Ti  Ti146  1  0.79899105  0.40583565  0.00755849  1
  Ti  Ti147  1  0.09603325  0.09268430  0.36501033  1
  Ti  Ti148  1  0.59836253  0.79308213  0.52004972  1
  Ti  Ti149  1  0.20900044  0.00011900  0.25613986  1
  Ti  Ti150  1  0.10575566  0.47408371  0.87705159  1
  Ti  Ti151  1  0.19547472  0.40204351  0.24568181  1
  Ti  Ti152  1  0.70311668  0.50162263  0.60941451  1
  Ti  Ti153  1  0.41291754  -0.00384048  0.25244218  1
  Ti  Ti154  1  0.89508681  0.71245878  0.38570074  1
  Ti  Ti155  1  0.50047412  0.70182076  0.86338440  1
  Ti  Ti156  1  0.48276938  0.30138793  0.61458663  1
  Ti  Ti157  1  0.20086567  0.57950872  0.75830518  1
  Ti  Ti158  1  0.70068462  0.30770080  0.38196783  1
  Ti  Ti159  1  0.30116401  0.90467729  0.64681855  1
  Mo  Mo160  1  0.20271538  0.80221874  0.73705012  1
  Mo  Mo161  1  0.70739677  0.30495397  0.61594676  1
  Mo  Mo162  1  0.21112071  0.79666739  -0.00229247  1
  Mo  Mo163  1  0.29979157  0.69521580  0.85598929  1
  Mo  Mo164  1  0.19938092  0.40788339  0.02138333  1
  Mo  Mo165  1  0.48995706  0.29752739  0.13024782  1
  Mo  Mo166  1  0.50354189  0.09081380  0.36573402  1
  Mo  Mo167  1  0.89222287  0.29803547  0.35451560  1
  Mo  Mo168  1  0.50286904  0.89860554  0.64941805  1
  Mo  Mo169  1  0.20465496  0.20176121  0.76111583  1
  Mo  Mo170  1  0.10430331  0.30254574  0.88918299  1
  Mo  Mo171  1  0.69665073  0.49654075  0.88493482  1
  Mo  Mo172  1  0.29232417  0.49394042  0.86432734  1
  Mo  Mo173  1  0.69269948  0.71251810  0.39089592  1
  Mo  Mo174  1  0.79376191  0.40435810  0.48468857  1
  Mo  Mo175  1  0.10733054  0.50615509  0.14194562  1
  Mo  Mo176  1  0.00033134  0.41047370  0.75373995  1
  Mo  Mo177  1  0.40010286  0.20009889  0.23024846  1
  Mo  Mo178  1  0.51118417  0.69663155  0.63270566  1
  Mo  Mo179  1  0.09929226  0.29748185  0.14720747  1
  Mo  Mo180  1  0.40433187  0.80204649  0.75290786  1
  Mo  Mo181  1  0.50062668  0.49321319  0.62262523  1
  Mo  Mo182  1  0.69704695  0.70344777  0.87035732  1
  Mo  Mo183  1  0.30039903  0.89960041  0.86190382  1
  Mo  Mo184  1  0.90025599  0.90229670  0.64697101  1
  Mo  Mo185  1  0.31271828  0.68579850  0.11589003  1
  Mo  Mo186  1  0.70018837  0.08686651  0.13056268  1
  Mo  Mo187  1  0.00610622  0.01184413  -0.02198785  1
  Mo  Mo188  1  0.30562503  0.49008603  0.36801453  1
  Mo  Mo189  1  0.90319254  0.49970636  0.89843002  1
  Mo  Mo190  1  0.39516843  0.19531936  0.50812953  1
  Mo  Mo191  1  0.79533813  0.80076622  -0.02264573  1
  Mo  Mo192  1  0.59171840  0.79781101  -0.02943423  1
  Mo  Mo193  1  0.79463176  0.80099767  0.51048662  1
  Mo  Mo194  1  0.70236907  0.30464210  0.11903044  1
  Mo  Mo195  1  0.09728921  0.30129378  0.60058785  1
  Mo  Mo196  1  0.50262050  0.70122257  0.39498817  1
  Mo  Mo197  1  0.20566718  0.00386497  0.76298783  1
  Mo  Mo198  1  0.09774924  0.29799131  0.36123064  1
  Mo  Mo199  1  0.60065887  0.40144719  0.02197600  1
