# generated using pymatgen
data_HfZrTaTiMo
_symmetry_space_group_name_H-M   'P 1'
_cell_length_a   15.83849438
_cell_length_b   15.82838359
_cell_length_c   15.38908668
_cell_angle_alpha   89.97207855
_cell_angle_beta   90.01499000
_cell_angle_gamma   89.97193044
_symmetry_Int_Tables_number   1
_chemical_formula_structural   HfZrTaTiMo
_chemical_formula_sum   'Hf40 Zr40 Ta40 Ti40 Mo40'
_cell_volume   3858.00857414
_cell_formula_units_Z   40
loop_
 _symmetry_equiv_pos_site_id
 _symmetry_equiv_pos_as_xyz
  1  'x, y, z'
loop_
 _atom_site_type_symbol
 _atom_site_label
 _atom_site_symmetry_multiplicity
 _atom_site_fract_x
 _atom_site_fract_y
 _atom_site_fract_z
 _atom_site_occupancy
  Hf  Hf0  1  0.09028684  0.30901066  0.62863507  1
  Hf  Hf1  1  0.38440678  -0.00701843  0.24779533  1
  Hf  Hf2  1  0.40142929  0.58866853  0.75865638  1
  Hf  Hf3  1  0.69932221  0.09730907  0.37388838  1
  Hf  Hf4  1  0.09803948  0.70111435  0.37004446  1
  Hf  Hf5  1  0.61525548  0.79349780  0.26407882  1
  Hf  Hf6  1  0.59342838  0.00643218  0.49794287  1
  Hf  Hf7  1  0.69681293  0.49895813  0.63393244  1
  Hf  Hf8  1  0.60919943  0.00365518  0.74703528  1
  Hf  Hf9  1  0.88378436  0.90643822  0.61893041  1
  Hf  Hf10  1  0.79277123  0.19546918  0.74935027  1
  Hf  Hf11  1  0.39584026  0.00188614  -0.00722425  1
  Hf  Hf12  1  0.19952290  0.60330015  -0.01019974  1
  Hf  Hf13  1  0.78868636  0.40294698  -0.01734587  1
  Hf  Hf14  1  0.69534608  0.70402819  0.61435737  1
  Hf  Hf15  1  0.59899099  0.39528699  0.00387820  1
  Hf  Hf16  1  0.89504995  0.70168630  0.62615949  1
  Hf  Hf17  1  0.41538477  0.79969963  0.24540964  1
  Hf  Hf18  1  0.80483509  0.39408696  0.75772522  1
  Hf  Hf19  1  -0.01207749  0.20207757  -0.00224821  1
  Hf  Hf20  1  0.89576231  0.10376740  0.62445804  1
  Hf  Hf21  1  0.20082236  0.58498922  0.24866121  1
  Hf  Hf22  1  -0.00108836  0.00398515  0.00823529  1
  Hf  Hf23  1  -0.00369875  0.20619074  0.24798141  1
  Hf  Hf24  1  0.31293951  0.48887071  0.37154419  1
  Hf  Hf25  1  0.79842779  0.20644652  0.50172917  1
  Hf  Hf26  1  0.80560447  0.79506396  -0.00548667  1
  Hf  Hf27  1  0.30487402  0.10205982  0.62175264  1
  Hf  Hf28  1  0.19660980  0.19666300  -0.00179728  1
  Hf  Hf29  1  0.58425746  0.21311103  0.49822646  1
  Hf  Hf30  1  0.51638183  0.69661708  0.11379269  1
  Hf  Hf31  1  0.80813716  0.61236014  0.26479841  1
  Hf  Hf32  1  -0.02296786  0.80683019  0.24187062  1
  Hf  Hf33  1  0.09725907  0.89623821  0.87241937  1
  Hf  Hf34  1  0.29961885  0.29193468  0.37748426  1
  Hf  Hf35  1  0.70632200  0.10493032  0.12768392  1
  Hf  Hf36  1  0.30017878  0.30210408  0.86714170  1
  Hf  Hf37  1  0.39734788  0.19752457  0.00414560  1
  Hf  Hf38  1  -0.00489825  0.40132714  -0.00753709  1
  Hf  Hf39  1  0.09261053  0.67911095  0.62674578  1
  Zr  Zr40  1  0.90188297  0.52417793  0.11893618  1
  Zr  Zr41  1  -0.00330829  0.41507843  0.24782327  1
  Zr  Zr42  1  0.19221407  -0.00001513  0.74773282  1
  Zr  Zr43  1  0.42116189  0.38851552  0.50367982  1
  Zr  Zr44  1  0.11762454  0.91980929  0.13178554  1
  Zr  Zr45  1  0.92838579  0.50331052  0.63952451  1
  Zr  Zr46  1  0.49277695  0.89805358  0.39120846  1
  Zr  Zr47  1  0.08805172  0.68796512  0.14145650  1
  Zr  Zr48  1  0.19565748  0.80208635  0.51076436  1
  Zr  Zr49  1  0.69975963  0.89503744  0.12015193  1
  Zr  Zr50  1  0.80238187  0.00071449  -0.00877760  1
  Zr  Zr51  1  0.10207773  0.30457345  0.37861784  1
  Zr  Zr52  1  -0.00485272  0.80459513  0.01200301  1
  Zr  Zr53  1  0.51042003  0.89261653  0.87931893  1
  Zr  Zr54  1  0.58994792  -0.00498828  0.25448497  1
  Zr  Zr55  1  0.79399240  0.60559153  0.76081924  1
  Zr  Zr56  1  0.19525587  0.18905104  0.23799086  1
  Zr  Zr57  1  0.21349308  0.59633134  0.50772703  1
  Zr  Zr58  1  0.30663990  0.89723875  0.63730140  1
  Zr  Zr59  1  0.40874051  0.39580441  0.00526281  1
  Zr  Zr60  1  0.10221105  0.90502508  0.36950624  1
  Zr  Zr61  1  0.87484640  0.30671739  0.12601852  1
  Zr  Zr62  1  0.50027487  0.69820648  0.87483929  1
  Zr  Zr63  1  0.40673811  0.00502018  0.76412961  1
  Zr  Zr64  1  -0.00038906  0.00130072  0.50416897  1
  Zr  Zr65  1  0.22229541  0.81612214  0.24613765  1
  Zr  Zr66  1  0.30135922  0.49509480  0.11808203  1
  Zr  Zr67  1  0.09923748  0.50160658  0.38823755  1
  Zr  Zr68  1  0.39707339  0.79035875  0.50676863  1
  Zr  Zr69  1  0.69260894  0.30935956  0.37559377  1
  Zr  Zr70  1  0.58513966  0.20077278  0.24744539  1
  Zr  Zr71  1  0.80773201  0.59610312  0.49431210  1
  Zr  Zr72  1  0.59641475  0.39732741  0.22960997  1
  Zr  Zr73  1  0.31783006  0.68551772  0.12773471  1
  Zr  Zr74  1  -0.00009424  0.01151705  0.24820593  1
  Zr  Zr75  1  0.00440847  0.80922639  0.73623558  1
  Zr  Zr76  1  0.61209998  0.58469778  -0.01322701  1
  Zr  Zr77  1  0.20156394  0.40823570  0.74336529  1
  Zr  Zr78  1  0.31102108  0.69253511  0.36704983  1
  Zr  Zr79  1  0.20130136  0.79814579  0.00316495  1
  Ta  Ta80  1  0.88961263  0.10244293  0.13133971  1
  Ta  Ta81  1  -0.00369289  0.20720086  0.75626787  1
  Ta  Ta82  1  -0.00510368  0.20853220  0.49716024  1
  Ta  Ta83  1  0.70353311  0.49551967  0.37080250  1
  Ta  Ta84  1  0.20762178  0.39813095  0.51681008  1
  Ta  Ta85  1  0.79437894  0.80746272  0.47888002  1
  Ta  Ta86  1  0.60226602  0.80020396  0.73829083  1
  Ta  Ta87  1  0.51177455  0.49384322  0.64067754  1
  Ta  Ta88  1  0.89871510  0.10048255  0.86621956  1
  Ta  Ta89  1  0.40018617  0.19827982  0.75672273  1
  Ta  Ta90  1  0.90706492  0.70845060  0.86207223  1
  Ta  Ta91  1  0.71107699  0.49886216  0.13728862  1
  Ta  Ta92  1  0.50738840  0.68984301  0.38415643  1
  Ta  Ta93  1  0.50284864  0.89604422  0.62369609  1
  Ta  Ta94  1  0.50419463  0.69052357  0.62915262  1
  Ta  Ta95  1  0.19686484  0.19832666  0.75049696  1
  Ta  Ta96  1  0.39329077  0.19306559  0.24132388  1
  Ta  Ta97  1  0.29933693  0.09302071  0.38516275  1
  Ta  Ta98  1  0.79007759  0.81026511  0.75725238  1
  Ta  Ta99  1  0.20111745  -0.00066395  0.50555603  1
  Ta  Ta100  1  0.80129853  0.40196798  0.50676813  1
  Ta  Ta101  1  0.60021876  0.20651064  0.01189561  1
  Ta  Ta102  1  0.00037693  0.61239490  -0.01808497  1
  Ta  Ta103  1  0.09833567  0.30520588  0.11872655  1
  Ta  Ta104  1  0.09346103  0.10338105  0.87021399  1
  Ta  Ta105  1  0.39900147  0.79793757  0.00433474  1
  Ta  Ta106  1  0.90610940  0.50406172  0.86876982  1
  Ta  Ta107  1  0.20486284  0.00433523  -0.02185026  1
  Ta  Ta108  1  -0.00405812  0.80226640  0.50481306  1
  Ta  Ta109  1  0.68668071  0.29046309  0.86519290  1
  Ta  Ta110  1  0.10377380  0.10753382  0.38921805  1
  Ta  Ta111  1  0.30777788  0.29501755  0.62969890  1
  Ta  Ta112  1  0.30670255  0.69282880  0.64310092  1
  Ta  Ta113  1  0.68767093  0.30489469  0.63091038  1
  Ta  Ta114  1  0.40185637  0.38552069  0.23688953  1
  Ta  Ta115  1  0.89785049  0.10429135  0.37809114  1
  Ta  Ta116  1  0.10067707  0.49939778  0.87479377  1
  Ta  Ta117  1  0.30454929  0.88836601  0.86805491  1
  Ta  Ta118  1  0.60643320  0.59995606  0.25838943  1
  Ta  Ta119  1  0.59931445  0.58858924  0.49157392  1
  Ti  Ti120  1  0.49712307  0.09361309  0.12169861  1
  Ti  Ti121  1  0.90946462  0.70188350  0.38613992  1
  Ti  Ti122  1  0.69651823  0.10534037  0.88220231  1
  Ti  Ti123  1  0.41027996  0.58927246  0.50672010  1
  Ti  Ti124  1  0.69726764  0.90234381  0.61042306  1
  Ti  Ti125  1  0.79328937  -0.00122240  0.75655212  1
  Ti  Ti126  1  -0.00068726  0.00576537  0.74192617  1
  Ti  Ti127  1  0.50304272  0.89709449  0.11109202  1
  Ti  Ti128  1  0.09806810  0.50016424  0.11331202  1
  Ti  Ti129  1  0.20296606  0.38975099  0.23615346  1
  Ti  Ti130  1  0.31139296  0.49449006  0.62724502  1
  Ti  Ti131  1  0.19709517  0.20267920  0.51094865  1
  Ti  Ti132  1  0.30743196  0.49649246  0.88258985  1
  Ti  Ti133  1  0.49388605  0.51476782  0.12828552  1
  Ti  Ti134  1  0.79809104  0.80321724  0.26625987  1
  Ti  Ti135  1  0.69854124  0.09993278  0.61635110  1
  Ti  Ti136  1  0.19815738  0.79371326  0.74524129  1
  Ti  Ti137  1  0.51248495  0.11487983  0.87468599  1
  Ti  Ti138  1  0.49897446  0.10295565  0.62899708  1
  Ti  Ti139  1  0.28191061  0.08134812  0.12405925  1
  Ti  Ti140  1  0.89367732  0.31263834  0.37317726  1
  Ti  Ti141  1  0.80348375  0.60231715  -0.01645533  1
  Ti  Ti142  1  0.19927237  0.39469166  0.00007541  1
  Ti  Ti143  1  0.50260375  0.30084359  0.86095079  1
  Ti  Ti144  1  0.69291871  0.70758142  0.87309646  1
  Ti  Ti145  1  -0.00641917  0.40667974  0.49789004  1
  Ti  Ti146  1  0.59895019  0.00505536  -0.00100025  1
  Ti  Ti147  1  0.09586876  0.30295271  0.87032810  1
  Ti  Ti148  1  0.50303888  0.30137379  0.64881574  1
  Ti  Ti149  1  0.90061141  0.90456305  0.86242976  1
  Ti  Ti150  1  0.30248118  0.70317115  0.86602655  1
  Ti  Ti151  1  0.09590533  0.10685744  0.62406954  1
  Ti  Ti152  1  0.80609234  -0.01389998  0.26319819  1
  Ti  Ti153  1  0.90026553  0.30474813  0.62841718  1
  Ti  Ti154  1  0.19782148  0.59680210  0.75625899  1
  Ti  Ti155  1  0.71149825  0.69129267  0.12023452  1
  Ti  Ti156  1  0.40536563  0.19246331  0.49413215  1
  Ti  Ti157  1  0.50704361  0.48865212  0.36842636  1
  Ti  Ti158  1  0.69423392  0.89689044  0.88143352  1
  Ti  Ti159  1  0.79626159  0.20778379  0.25892460  1
  Mo  Mo160  1  0.00177457  0.39650951  0.76813786  1
  Mo  Mo161  1  0.10527029  0.49648641  0.62092748  1
  Mo  Mo162  1  0.30869761  0.90367495  0.10480511  1
  Mo  Mo163  1  0.59899849  0.79567962  0.50953786  1
  Mo  Mo164  1  0.60756631  0.79643781  0.00680613  1
  Mo  Mo165  1  0.60114813  0.60107410  0.75757688  1
  Mo  Mo166  1  0.20279694  0.00787911  0.26688737  1
  Mo  Mo167  1  0.79908182  0.40689580  0.25851331  1
  Mo  Mo168  1  0.10465728  0.69880343  0.86152285  1
  Mo  Mo169  1  0.69799037  0.90155563  0.38231494  1
  Mo  Mo170  1  0.49452357  0.28925408  0.12586577  1
  Mo  Mo171  1  0.89673448  0.90379267  0.38279564  1
  Mo  Mo172  1  0.69924268  0.49865454  0.86181110  1
  Mo  Mo173  1  0.30059840  0.90601564  0.39264357  1
  Mo  Mo174  1  0.40155175  0.59729478  -0.02164199  1
  Mo  Mo175  1  0.60306624  0.40434676  0.50328303  1
  Mo  Mo176  1  0.40195628  0.39660517  0.74635695  1
  Mo  Mo177  1  0.89370251  0.29497395  0.87428536  1
  Mo  Mo178  1  0.88656650  0.70380840  0.12022705  1
  Mo  Mo179  1  0.09764666  0.90131816  0.62417588  1
  Mo  Mo180  1  0.39893273  0.00470557  0.50417292  1
  Mo  Mo181  1  0.89882915  0.49702103  0.38111643  1
  Mo  Mo182  1  0.69689301  0.69745258  0.38722952  1
  Mo  Mo183  1  0.48547752  0.10579383  0.37519291  1
  Mo  Mo184  1  0.41978998  0.58831818  0.25991865  1
  Mo  Mo185  1  0.48696239  0.30136343  0.36437923  1
  Mo  Mo186  1  0.00903406  0.60176875  0.76860154  1
  Mo  Mo187  1  0.79482722  0.00303409  0.48817995  1
  Mo  Mo188  1  0.59581159  0.19364772  0.73921792  1
  Mo  Mo189  1  0.88711401  0.90904181  0.13465404  1
  Mo  Mo190  1  0.40338168  0.79460633  0.74257470  1
  Mo  Mo191  1  0.70136791  0.29827002  0.12556851  1
  Mo  Mo192  1  0.79162765  0.20033348  -0.01676929  1
  Mo  Mo193  1  0.50096726  0.48880909  0.86137422  1
  Mo  Mo194  1  0.29377568  0.29439321  0.12571024  1
  Mo  Mo195  1  0.00120705  0.60252087  0.48732039  1
  Mo  Mo196  1  0.29780944  0.10203962  0.86574977  1
  Mo  Mo197  1  0.09560730  0.10646985  0.10928948  1
  Mo  Mo198  1  -0.00269490  0.60642223  0.26415103  1
  Mo  Mo199  1  0.60119698  0.39913381  0.76355105  1
