# generated using pymatgen
data_HfZrTaTiMo
_symmetry_space_group_name_H-M   'P 1'
_cell_length_a   15.83538977
_cell_length_b   15.83855552
_cell_length_c   15.40557139
_cell_angle_alpha   89.98464792
_cell_angle_beta   90.04555682
_cell_angle_gamma   90.00109503
_symmetry_Int_Tables_number   1
_chemical_formula_structural   HfZrTaTiMo
_chemical_formula_sum   'Hf40 Zr40 Ta40 Ti40 Mo40'
_cell_volume   3863.86538008
_cell_formula_units_Z   40
loop_
 _symmetry_equiv_pos_site_id
 _symmetry_equiv_pos_as_xyz
  1  'x, y, z'
loop_
 _atom_site_type_symbol
 _atom_site_label
 _atom_site_symmetry_multiplicity
 _atom_site_fract_x
 _atom_site_fract_y
 _atom_site_fract_z
 _atom_site_occupancy
  Hf  Hf0  1  0.70803683  0.90191986  0.88210176  1
  Hf  Hf1  1  0.88677081  0.09950003  0.88917185  1
  Hf  Hf2  1  0.90119386  0.91766237  0.10399299  1
  Hf  Hf3  1  0.29209198  0.51804612  0.62061403  1
  Hf  Hf4  1  0.39936986  0.79845994  0.49697578  1
  Hf  Hf5  1  0.49525909  0.30442319  0.12963349  1
  Hf  Hf6  1  0.30567390  0.29855686  0.62157328  1
  Hf  Hf7  1  0.20482638  0.78556189  0.50045711  1
  Hf  Hf8  1  0.59954887  0.20816608  -0.00950040  1
  Hf  Hf9  1  0.50637920  0.90581323  0.86856651  1
  Hf  Hf10  1  0.09703080  0.49653835  0.36468766  1
  Hf  Hf11  1  0.39653553  0.40892128  0.27031537  1
  Hf  Hf12  1  0.10239099  0.10967069  0.37623539  1
  Hf  Hf13  1  0.59881826  0.78307140  0.75917903  1
  Hf  Hf14  1  0.79448045  0.19738110  0.23639385  1
  Hf  Hf15  1  0.90884475  0.89004734  0.62921167  1
  Hf  Hf16  1  -0.01043282  0.40181958  0.75856854  1
  Hf  Hf17  1  0.09810044  0.30081948  0.88260849  1
  Hf  Hf18  1  0.39419771  0.60278863  0.48130259  1
  Hf  Hf19  1  0.19465826  0.00248926  0.73671615  1
  Hf  Hf20  1  0.41241756  0.59980410  0.77163882  1
  Hf  Hf21  1  0.89832607  0.30695913  0.36357976  1
  Hf  Hf22  1  0.60501348  0.58742670  0.47682506  1
  Hf  Hf23  1  0.60716404  0.39572334  0.25286394  1
  Hf  Hf24  1  0.60193381  0.20371635  0.74596659  1
  Hf  Hf25  1  -0.00822628  0.78934432  0.23408979  1
  Hf  Hf26  1  0.08832223  0.30742605  0.61751841  1
  Hf  Hf27  1  -0.00097155  -0.00439894  0.75811500  1
  Hf  Hf28  1  0.10446544  0.68715189  0.63132732  1
  Hf  Hf29  1  0.40766742  0.41426785  -0.00800948  1
  Hf  Hf30  1  0.40872089  0.40574832  0.49073423  1
  Hf  Hf31  1  0.28408746  0.30017110  0.38275326  1
  Hf  Hf32  1  0.89527049  0.49968536  0.62545313  1
  Hf  Hf33  1  0.39969879  0.00160779  -0.00703768  1
  Hf  Hf34  1  0.90442750  0.69367696  0.89179953  1
  Hf  Hf35  1  0.60629788  -0.00638608  0.24769771  1
  Hf  Hf36  1  0.20105550  -0.00165129  0.51366884  1
  Hf  Hf37  1  0.89696981  0.29873152  0.12184023  1
  Hf  Hf38  1  0.59537865  0.01047651  0.51997702  1
  Hf  Hf39  1  0.10426495  0.89264424  0.36284671  1
  Zr  Zr40  1  0.29323017  0.30815626  0.86779434  1
  Zr  Zr41  1  0.89651396  0.49242925  0.89895287  1
  Zr  Zr42  1  0.19335332  0.41151034  0.74132195  1
  Zr  Zr43  1  0.41181933  0.61721671  0.27550313  1
  Zr  Zr44  1  0.30055532  0.89882020  0.36359610  1
  Zr  Zr45  1  0.70534082  0.89325809  0.63505648  1
  Zr  Zr46  1  0.41610760  0.00699036  0.26045088  1
  Zr  Zr47  1  0.40617476  0.40696055  0.74909054  1
  Zr  Zr48  1  0.49804981  0.68808552  0.62629938  1
  Zr  Zr49  1  0.50749266  0.51504827  0.13441498  1
  Zr  Zr50  1  0.60318387  0.39934590  0.48961185  1
  Zr  Zr51  1  0.58726892  0.79390876  0.24103166  1
  Zr  Zr52  1  0.29415961  0.11178780  0.86415985  1
  Zr  Zr53  1  0.79887985  -0.00023433  0.50467853  1
  Zr  Zr54  1  0.29902588  0.51673460  0.12472589  1
  Zr  Zr55  1  0.50129274  0.09842720  0.11463158  1
  Zr  Zr56  1  0.59547495  0.20135140  0.50560015  1
  Zr  Zr57  1  0.71646499  0.69827488  0.35627626  1
  Zr  Zr58  1  -0.00102721  -0.00396042  0.49578107  1
  Zr  Zr59  1  0.29550968  0.90402811  0.86518358  1
  Zr  Zr60  1  0.39892719  0.00928772  0.51219245  1
  Zr  Zr61  1  0.30739080  0.70365314  0.13250905  1
  Zr  Zr62  1  0.79634530  0.40903546  0.48982051  1
  Zr  Zr63  1  0.19684997  0.79850769  0.00184039  1
  Zr  Zr64  1  0.18911321  -0.00225225  -0.00185796  1
  Zr  Zr65  1  0.39513171  0.21151659  -0.00741381  1
  Zr  Zr66  1  0.69975469  0.89468613  0.38253996  1
  Zr  Zr67  1  0.10417010  0.50626517  0.89221993  1
  Zr  Zr68  1  0.29935019  0.10681679  0.13370445  1
  Zr  Zr69  1  0.08382638  0.09298263  0.12423775  1
  Zr  Zr70  1  0.79813346  -0.00177280  0.24760410  1
  Zr  Zr71  1  0.30766105  0.89831606  0.13673861  1
  Zr  Zr72  1  0.70603834  0.08590558  0.09630159  1
  Zr  Zr73  1  0.70500344  0.66887282  0.63665734  1
  Zr  Zr74  1  0.59586896  0.19267798  0.25803854  1
  Zr  Zr75  1  0.60446238  0.79072643  0.50601290  1
  Zr  Zr76  1  0.00296378  0.78706996  0.48783413  1
  Zr  Zr77  1  -0.01110013  0.00277666  0.26159223  1
  Zr  Zr78  1  0.81172879  0.78983922  0.75719096  1
  Zr  Zr79  1  -0.01011160  0.20303401  0.75804274  1
  Ta  Ta80  1  0.59443026  0.59636592  -0.01147731  1
  Ta  Ta81  1  0.69749073  0.09856652  0.87494958  1
  Ta  Ta82  1  0.89594794  0.49846546  0.13297038  1
  Ta  Ta83  1  -0.00664401  0.59955735  0.48344913  1
  Ta  Ta84  1  0.80818127  0.59832839  0.49031090  1
  Ta  Ta85  1  0.39853707  0.79731897  0.75979638  1
  Ta  Ta86  1  0.40507642  0.79646594  -0.01478322  1
  Ta  Ta87  1  0.19633740  0.19840496  0.51199382  1
  Ta  Ta88  1  0.81065307  0.78052275  0.50721717  1
  Ta  Ta89  1  0.09132447  0.50883476  0.61209799  1
  Ta  Ta90  1  0.79482564  0.20251878  0.50862710  1
  Ta  Ta91  1  -0.00393129  0.19994950  -0.00003221  1
  Ta  Ta92  1  0.71420407  0.29804304  0.87813196  1
  Ta  Ta93  1  0.79751750  0.79917926  0.21937093  1
  Ta  Ta94  1  0.18908680  0.21374711  0.24278008  1
  Ta  Ta95  1  0.49746385  0.89643138  0.63897513  1
  Ta  Ta96  1  0.00768930  0.60331845  0.02421894  1
  Ta  Ta97  1  0.60213674  0.00808348  0.74278251  1
  Ta  Ta98  1  0.19485930  0.79478939  0.75498519  1
  Ta  Ta99  1  0.19942976  0.40135255  0.02131761  1
  Ta  Ta100  1  -0.00588193  0.20576542  0.49210153  1
  Ta  Ta101  1  0.89828941  0.10520877  0.62202846  1
  Ta  Ta102  1  0.70450922  0.69011182  0.88516573  1
  Ta  Ta103  1  0.29431652  0.10573388  0.37549065  1
  Ta  Ta104  1  0.19559784  0.40078910  0.24169101  1
  Ta  Ta105  1  0.00959990  0.80044795  0.00624768  1
  Ta  Ta106  1  0.19281644  0.19936057  0.73230989  1
  Ta  Ta107  1  0.89696218  0.50770415  0.34632997  1
  Ta  Ta108  1  0.40135746  0.01060176  0.73603558  1
  Ta  Ta109  1  0.70604778  0.30918147  0.63183376  1
  Ta  Ta110  1  0.19340977  0.20771031  0.01434166  1
  Ta  Ta111  1  0.91063991  0.68806613  0.63362488  1
  Ta  Ta112  1  -0.00164329  0.20299138  0.25013635  1
  Ta  Ta113  1  0.39867728  0.20694811  0.26899384  1
  Ta  Ta114  1  0.88918725  0.87807088  0.37105584  1
  Ta  Ta115  1  0.29462175  0.69439031  0.87799032  1
  Ta  Ta116  1  0.60564557  0.40343921  -0.00140166  1
  Ta  Ta117  1  0.19458640  0.40714276  0.49889198  1
  Ta  Ta118  1  0.61046010  0.40581556  0.75598573  1
  Ta  Ta119  1  0.00226159  0.59746330  0.75961755  1
  Ti  Ti120  1  0.00572699  0.40003025  0.01661817  1
  Ti  Ti121  1  0.69905187  0.09980251  0.38075983  1
  Ti  Ti122  1  0.30192140  0.30539392  0.13295022  1
  Ti  Ti123  1  0.80043260  0.20187201  0.74297212  1
  Ti  Ti124  1  0.71352573  0.50565260  0.34037428  1
  Ti  Ti125  1  -0.00089925  0.60115415  0.23554543  1
  Ti  Ti126  1  0.49827582  0.10491602  0.86508952  1
  Ti  Ti127  1  0.50318905  0.30630241  0.86519779  1
  Ti  Ti128  1  0.10072195  0.69844866  0.87602812  1
  Ti  Ti129  1  0.49437039  0.70134106  0.11074354  1
  Ti  Ti130  1  0.79306846  0.59342901  0.01703904  1
  Ti  Ti131  1  0.51930863  0.50337211  0.63226540  1
  Ti  Ti132  1  0.50418670  0.90062642  0.38348355  1
  Ti  Ti133  1  0.29389375  0.50886960  0.88585264  1
  Ti  Ti134  1  0.89639325  0.30164221  0.61570333  1
  Ti  Ti135  1  0.70185001  0.49640214  0.88015615  1
  Ti  Ti136  1  0.68904789  0.68529931  0.12427859  1
  Ti  Ti137  1  0.80402551  0.58501057  0.76238321  1
  Ti  Ti138  1  0.09872626  0.10096707  0.87842335  1
  Ti  Ti139  1  0.50028885  0.30312231  0.63090384  1
  Ti  Ti140  1  0.19823654  0.00788214  0.24927050  1
  Ti  Ti141  1  0.40444316  0.19750821  0.49293439  1
  Ti  Ti142  1  0.89113840  0.10633156  0.38327393  1
  Ti  Ti143  1  0.10630994  0.69309791  0.35792720  1
  Ti  Ti144  1  0.78876487  0.39549128  0.01505497  1
  Ti  Ti145  1  0.00939957  0.39215723  0.23814783  1
  Ti  Ti146  1  0.30118163  0.89068034  0.63486770  1
  Ti  Ti147  1  0.80025314  0.00695699  0.74712684  1
  Ti  Ti148  1  0.90857445  0.89455845  0.88513881  1
  Ti  Ti149  1  0.29783796  0.69837378  0.64198816  1
  Ti  Ti150  1  0.60337164  0.79611553  0.00022574  1
  Ti  Ti151  1  -0.00533794  0.40471609  0.48859475  1
  Ti  Ti152  1  0.50659735  0.89882470  0.10950390  1
  Ti  Ti153  1  0.70676641  0.29544874  0.37283720  1
  Ti  Ti154  1  0.08754777  0.10417960  0.62044014  1
  Ti  Ti155  1  0.11749456  0.68799490  0.13434658  1
  Ti  Ti156  1  0.09663344  0.88470757  0.63203622  1
  Ti  Ti157  1  0.80250589  0.39303685  0.75639463  1
  Ti  Ti158  1  0.79771693  0.79475361  0.01223626  1
  Ti  Ti159  1  0.10327195  0.89758771  0.13734898  1
  Mo  Mo160  1  0.20334793  0.59680213  0.26458361  1
  Mo  Mo161  1  0.50701217  0.71154425  0.38634999  1
  Mo  Mo162  1  0.49418597  0.11155086  0.63808043  1
  Mo  Mo163  1  0.40786724  0.80652145  0.26144015  1
  Mo  Mo164  1  0.50237749  0.70236627  0.88741602  1
  Mo  Mo165  1  0.80400071  0.60513883  0.22349608  1
  Mo  Mo166  1  0.19346316  0.59950598  0.48182562  1
  Mo  Mo167  1  0.49680042  0.29715098  0.37256236  1
  Mo  Mo168  1  0.79891992  0.39938403  0.24068635  1
  Mo  Mo169  1  0.28999481  0.70751285  0.35978147  1
  Mo  Mo170  1  0.50934497  0.49630464  0.87602848  1
  Mo  Mo171  1  0.29010614  0.50282106  0.38051068  1
  Mo  Mo172  1  0.89336457  0.30252417  0.89731871  1
  Mo  Mo173  1  0.89921762  0.70066051  0.10699896  1
  Mo  Mo174  1  0.19639111  0.79711354  0.24482171  1
  Mo  Mo175  1  0.69443798  0.89022364  0.10383365  1
  Mo  Mo176  1  0.19865517  0.60180081  -0.00239597  1
  Mo  Mo177  1  0.80015276  -0.00612110  -0.01140182  1
  Mo  Mo178  1  0.29596662  0.10803998  0.62515065  1
  Mo  Mo179  1  0.40211119  0.20266628  0.74793117  1
  Mo  Mo180  1  0.70770663  0.10584965  0.64188111  1
  Mo  Mo181  1  0.00488182  -0.00509863  -0.02040966  1
  Mo  Mo182  1  0.49878625  0.09858983  0.38060829  1
  Mo  Mo183  1  0.69504320  0.30134095  0.11379980  1
  Mo  Mo184  1  0.09540245  0.30117963  0.38153194  1
  Mo  Mo185  1  0.79795703  0.20437850  0.00565305  1
  Mo  Mo186  1  0.89935346  0.10352410  0.10720578  1
  Mo  Mo187  1  0.70041702  0.50115090  0.12399553  1
  Mo  Mo188  1  0.09262975  0.89115642  0.86517935  1
  Mo  Mo189  1  0.59580627  -0.00082595  -0.02010732  1
  Mo  Mo190  1  0.00531348  0.79135945  0.76519145  1
  Mo  Mo191  1  0.40281903  0.60729880  -0.01264171  1
  Mo  Mo192  1  0.90246014  0.69332689  0.36135724  1
  Mo  Mo193  1  0.50825154  0.50247533  0.36510023  1
  Mo  Mo194  1  0.09767068  0.30039271  0.11773288  1
  Mo  Mo195  1  0.70462175  0.49491568  0.63760825  1
  Mo  Mo196  1  0.60809930  0.58941807  0.77389165  1
  Mo  Mo197  1  0.09883127  0.50175867  0.13501514  1
  Mo  Mo198  1  0.60317387  0.60049378  0.25453156  1
  Mo  Mo199  1  0.20072777  0.60269340  0.76282122  1
