# generated using pymatgen
data_HfZrTaTiMo
_symmetry_space_group_name_H-M   'P 1'
_cell_length_a   15.83206783
_cell_length_b   15.84481148
_cell_length_c   15.40295231
_cell_angle_alpha   90.04558391
_cell_angle_beta   90.01830133
_cell_angle_gamma   89.96087642
_symmetry_Int_Tables_number   1
_chemical_formula_structural   HfZrTaTiMo
_chemical_formula_sum   'Hf40 Zr40 Ta40 Ti40 Mo40'
_cell_volume   3863.92268889
_cell_formula_units_Z   40
loop_
 _symmetry_equiv_pos_site_id
 _symmetry_equiv_pos_as_xyz
  1  'x, y, z'
loop_
 _atom_site_type_symbol
 _atom_site_label
 _atom_site_symmetry_multiplicity
 _atom_site_fract_x
 _atom_site_fract_y
 _atom_site_fract_z
 _atom_site_occupancy
  Hf  Hf0  1  0.80960154  0.20067972  -0.00830625  1
  Hf  Hf1  1  0.49612223  0.29506929  0.12770369  1
  Hf  Hf2  1  0.90821272  0.28864566  0.63286032  1
  Hf  Hf3  1  0.39702251  0.40895617  0.25466142  1
  Hf  Hf4  1  0.28769928  0.11742361  0.10366866  1
  Hf  Hf5  1  0.10215174  0.08294860  0.37880033  1
  Hf  Hf6  1  0.59338246  0.40011182  0.48090606  1
  Hf  Hf7  1  0.00120056  0.41553499  0.73875882  1
  Hf  Hf8  1  0.30706481  0.89663126  0.61722174  1
  Hf  Hf9  1  0.79102204  0.39660297  0.73048351  1
  Hf  Hf10  1  0.60080581  0.40214148  0.24784915  1
  Hf  Hf11  1  0.69351322  0.89791013  0.88404123  1
  Hf  Hf12  1  0.62917984  0.19681123  0.75904071  1
  Hf  Hf13  1  0.60863144  0.20229856  0.50341049  1
  Hf  Hf14  1  0.89935101  0.49805965  0.38218439  1
  Hf  Hf15  1  0.90222859  0.09518251  0.36624365  1
  Hf  Hf16  1  0.79045431  0.01448995  0.76121063  1
  Hf  Hf17  1  0.29428929  0.50702751  0.86796305  1
  Hf  Hf18  1  0.30267113  0.30053947  0.85383209  1
  Hf  Hf19  1  0.60401054  0.80055155  0.49769669  1
  Hf  Hf20  1  0.41370559  -0.00991646  0.77197179  1
  Hf  Hf21  1  0.60805671  0.20285409  -0.00572456  1
  Hf  Hf22  1  0.31181859  0.29761752  0.63852327  1
  Hf  Hf23  1  0.50895017  0.09268435  0.62425344  1
  Hf  Hf24  1  0.79805863  0.00097693  0.52036234  1
  Hf  Hf25  1  0.58884182  0.60644031  0.48724213  1
  Hf  Hf26  1  0.79262505  0.59070874  -0.00469146  1
  Hf  Hf27  1  0.51461788  0.30823908  0.64131124  1
  Hf  Hf28  1  0.79635762  0.78257345  0.00582079  1
  Hf  Hf29  1  0.50973370  0.30892402  0.86926547  1
  Hf  Hf30  1  0.39567570  0.60048090  0.49414483  1
  Hf  Hf31  1  0.09118746  0.69912326  0.13173441  1
  Hf  Hf32  1  0.13326218  0.28484158  0.14668969  1
  Hf  Hf33  1  0.71238673  0.50221235  0.37226293  1
  Hf  Hf34  1  0.39492117  0.80017264  0.75573422  1
  Hf  Hf35  1  0.20535587  0.38958178  0.00331058  1
  Hf  Hf36  1  0.58532457  -0.00060446  0.23251667  1
  Hf  Hf37  1  0.00880582  0.39866801  0.50234560  1
  Hf  Hf38  1  0.09453923  0.10148064  0.63615760  1
  Hf  Hf39  1  0.89932893  0.29251201  0.37018889  1
  Zr  Zr40  1  0.31061997  0.10123028  0.63273524  1
  Zr  Zr41  1  0.10160612  0.70297152  0.39281640  1
  Zr  Zr42  1  0.29164746  0.90773062  0.38945291  1
  Zr  Zr43  1  0.49244362  0.09924437  0.37428260  1
  Zr  Zr44  1  0.89838411  0.90407869  0.37280937  1
  Zr  Zr45  1  0.81278370  0.60448878  0.74224783  1
  Zr  Zr46  1  0.38643932  0.61361410  0.00791819  1
  Zr  Zr47  1  0.20420352  0.79247963  0.01402776  1
  Zr  Zr48  1  0.40289665  0.40014431  0.48704756  1
  Zr  Zr49  1  0.10506265  0.88859521  0.87891544  1
  Zr  Zr50  1  0.68698530  0.49838116  0.61806624  1
  Zr  Zr51  1  0.60578078  0.61058275  0.00620223  1
  Zr  Zr52  1  0.62177163  0.41346651  0.00851786  1
  Zr  Zr53  1  0.89869280  0.89028507  0.87614035  1
  Zr  Zr54  1  0.39864290  0.40255544  0.00904145  1
  Zr  Zr55  1  0.10266404  0.29094655  0.36537260  1
  Zr  Zr56  1  0.19120955  0.82437794  0.23796563  1
  Zr  Zr57  1  0.79502871  0.61889639  0.51301285  1
  Zr  Zr58  1  0.90647885  0.29590801  0.13695541  1
  Zr  Zr59  1  0.59947529  0.60261905  0.25237896  1
  Zr  Zr60  1  0.59355795  0.60320422  0.75303980  1
  Zr  Zr61  1  0.48594695  0.90527747  0.37979449  1
  Zr  Zr62  1  0.29572181  0.71046002  0.37114824  1
  Zr  Zr63  1  0.71072516  0.29430735  0.36042667  1
  Zr  Zr64  1  0.29519996  0.10015653  0.88294558  1
  Zr  Zr65  1  0.20398326  0.19780636  0.50234409  1
  Zr  Zr66  1  0.49101166  0.70825013  0.13337455  1
  Zr  Zr67  1  0.09957845  0.50668057  0.87420840  1
  Zr  Zr68  1  0.70414966  0.09557899  0.36346340  1
  Zr  Zr69  1  0.70180321  0.90068968  0.36922867  1
  Zr  Zr70  1  0.88884430  0.48727874  0.87970334  1
  Zr  Zr71  1  0.19906157  -0.01185088  0.74780738  1
  Zr  Zr72  1  0.00427783  0.39067387  0.00212174  1
  Zr  Zr73  1  0.50017403  0.50717539  0.87837295  1
  Zr  Zr74  1  0.00033588  0.59837206  0.26232693  1
  Zr  Zr75  1  0.20063483  0.40547958  0.50370713  1
  Zr  Zr76  1  0.69301911  0.90231269  0.11223665  1
  Zr  Zr77  1  0.29577831  0.28790332  0.35343903  1
  Zr  Zr78  1  0.80691273  0.80169257  0.73718458  1
  Zr  Zr79  1  0.01519097  0.19367251  -0.00152492  1
  Ta  Ta80  1  0.90663375  0.08968351  0.12669318  1
  Ta  Ta81  1  0.38261352  0.00321047  0.22952722  1
  Ta  Ta82  1  0.01653726  -0.01376116  0.23479234  1
  Ta  Ta83  1  0.19494934  0.78810149  0.73448936  1
  Ta  Ta84  1  0.89923384  0.10145640  0.64465746  1
  Ta  Ta85  1  0.29064344  0.50167588  0.13486053  1
  Ta  Ta86  1  0.90388991  0.89407303  0.11920799  1
  Ta  Ta87  1  0.49091574  0.09347196  0.10192160  1
  Ta  Ta88  1  0.59532121  0.00658841  0.77440685  1
  Ta  Ta89  1  0.18334001  0.60715941  0.73029334  1
  Ta  Ta90  1  0.80583694  0.00570936  -0.00376444  1
  Ta  Ta91  1  0.58735743  0.81154835  0.75738463  1
  Ta  Ta92  1  0.49288184  0.71112937  0.36085821  1
  Ta  Ta93  1  0.19984443  0.40930045  0.73538003  1
  Ta  Ta94  1  -0.00516629  0.78793981  0.00147352  1
  Ta  Ta95  1  0.00049007  -0.00280237  -0.00377166  1
  Ta  Ta96  1  0.29997641  0.50734924  0.62489388  1
  Ta  Ta97  1  0.09769345  0.49612492  0.12766890  1
  Ta  Ta98  1  0.28316699  0.70015623  0.86725586  1
  Ta  Ta99  1  0.59634529  0.80511536  0.24285608  1
  Ta  Ta100  1  0.49475562  0.70629236  0.62769726  1
  Ta  Ta101  1  0.00892171  0.39916280  0.25396974  1
  Ta  Ta102  1  0.50147756  0.28948502  0.35647132  1
  Ta  Ta103  1  0.10405059  0.29284622  0.64004914  1
  Ta  Ta104  1  0.90558922  0.29299708  0.85966821  1
  Ta  Ta105  1  0.19184740  -0.00412452  0.51933466  1
  Ta  Ta106  1  -0.00576911  0.60342731  -0.00192588  1
  Ta  Ta107  1  -0.00654626  0.80262909  0.25162696  1
  Ta  Ta108  1  0.39015159  0.60978867  0.74379093  1
  Ta  Ta109  1  -0.00627502  -0.01077722  0.75228056  1
  Ta  Ta110  1  0.69795500  0.70174625  0.86339201  1
  Ta  Ta111  1  0.90087058  0.49684767  0.12932461  1
  Ta  Ta112  1  0.80081466  0.19418409  0.51531587  1
  Ta  Ta113  1  0.68610780  0.91005001  0.63836779  1
  Ta  Ta114  1  0.79762028  0.79516885  0.23695121  1
  Ta  Ta115  1  0.19488055  0.59970545  0.01339009  1
  Ta  Ta116  1  0.10571534  0.29687833  0.85372958  1
  Ta  Ta117  1  0.89266559  0.70590128  0.38066026  1
  Ta  Ta118  1  0.08312555  0.88012665  0.62036585  1
  Ta  Ta119  1  0.00995678  0.18316772  0.24294434  1
  Ti  Ti120  1  0.70087500  0.09738755  0.11238902  1
  Ti  Ti121  1  0.50113568  0.90223758  0.61829608  1
  Ti  Ti122  1  0.91188796  0.51437715  0.60967089  1
  Ti  Ti123  1  0.09897149  0.10108620  0.86469310  1
  Ti  Ti124  1  0.59133792  0.79960134  0.00326616  1
  Ti  Ti125  1  0.60359795  0.00084256  0.49858680  1
  Ti  Ti126  1  0.80333309  -0.00570341  0.23044064  1
  Ti  Ti127  1  0.40131091  0.79361837  0.50469755  1
  Ti  Ti128  1  0.79812978  0.38831639  0.51416828  1
  Ti  Ti129  1  0.11116038  0.08476805  0.11913932  1
  Ti  Ti130  1  0.30165650  0.08881841  0.38236910  1
  Ti  Ti131  1  0.28885985  0.92276004  0.10363898  1
  Ti  Ti132  1  0.49281257  0.70826129  0.87900985  1
  Ti  Ti133  1  0.28286209  0.50978146  0.37414147  1
  Ti  Ti134  1  0.29785182  0.89581378  0.88610633  1
  Ti  Ti135  1  0.68550497  0.71081387  0.63622470  1
  Ti  Ti136  1  0.40720237  0.20306985  0.49852381  1
  Ti  Ti137  1  0.19808394  0.60278794  0.24528699  1
  Ti  Ti138  1  0.70438233  0.70662502  0.36403282  1
  Ti  Ti139  1  0.71299888  0.30585601  0.12943265  1
  Ti  Ti140  1  0.40696326  0.41598637  0.74737560  1
  Ti  Ti141  1  0.39586252  0.80671265  0.00515892  1
  Ti  Ti142  1  0.89226644  0.68792897  0.13582229  1
  Ti  Ti143  1  0.39680211  0.18969737  0.23989027  1
  Ti  Ti144  1  0.60132441  0.19183066  0.23311756  1
  Ti  Ti145  1  0.80246846  0.81011932  0.51825743  1
  Ti  Ti146  1  -0.00935827  -0.00612114  0.51921787  1
  Ti  Ti147  1  0.49719769  0.50476857  0.62636203  1
  Ti  Ti148  1  0.00664359  0.77556406  0.75998525  1
  Ti  Ti149  1  0.42237895  0.18628574  0.76420737  1
  Ti  Ti150  1  0.39388281  0.60179074  0.25501528  1
  Ti  Ti151  1  0.71718073  0.31909612  0.87832737  1
  Ti  Ti152  1  0.09724860  0.89766648  0.39493870  1
  Ti  Ti153  1  0.39113405  0.81739205  0.23364051  1
  Ti  Ti154  1  0.80154911  0.18843568  0.23479549  1
  Ti  Ti155  1  0.92883170  0.71012102  0.60777252  1
  Ti  Ti156  1  0.49639981  0.50570306  0.12638339  1
  Ti  Ti157  1  0.39780787  0.21019854  -0.00804108  1
  Ti  Ti158  1  0.72057248  0.50548025  0.14653662  1
  Ti  Ti159  1  -0.00219507  0.19138814  0.50118939  1
  Mo  Mo160  1  0.80330974  0.20158689  0.75904940  1
  Mo  Mo161  1  0.80485094  0.60470058  0.25352731  1
  Mo  Mo162  1  0.49478074  0.50546155  0.36490847  1
  Mo  Mo163  1  -0.00984192  0.80632739  0.48707199  1
  Mo  Mo164  1  0.50309894  0.10188625  0.89098523  1
  Mo  Mo165  1  0.59737077  0.00469968  -0.00682565  1
  Mo  Mo166  1  0.29892264  0.70005803  0.62331647  1
  Mo  Mo167  1  0.70038631  0.69926117  0.13744038  1
  Mo  Mo168  1  -0.00199810  0.60959799  0.75384634  1
  Mo  Mo169  1  0.20189326  -0.00129011  0.24644579  1
  Mo  Mo170  1  0.49832695  0.89415460  0.89718182  1
  Mo  Mo171  1  0.30440712  0.29994440  0.13664078  1
  Mo  Mo172  1  0.90326921  0.69281800  0.87658294  1
  Mo  Mo173  1  0.40005621  0.00480130  0.50889518  1
  Mo  Mo174  1  0.70339691  0.29751257  0.61874941  1
  Mo  Mo175  1  0.48758327  0.90411532  0.11253435  1
  Mo  Mo176  1  0.69971821  0.49825972  0.86149437  1
  Mo  Mo177  1  0.09563101  0.69584883  0.60634337  1
  Mo  Mo178  1  0.19806971  0.20678709  -0.02089856  1
  Mo  Mo179  1  0.19786078  0.41974020  0.25475420  1
  Mo  Mo180  1  0.00187943  0.19255289  0.76072706  1
  Mo  Mo181  1  0.80903246  0.40040222  0.24165730  1
  Mo  Mo182  1  0.80181759  0.39637892  0.01689047  1
  Mo  Mo183  1  0.29563919  0.69838998  0.14642835  1
  Mo  Mo184  1  0.09627886  0.50545066  0.62407983  1
  Mo  Mo185  1  0.60419732  0.40367258  0.76013130  1
  Mo  Mo186  1  0.19655420  0.80012282  0.51834832  1
  Mo  Mo187  1  0.70481255  0.10066326  0.89581334  1
  Mo  Mo188  1  0.10163964  0.69401405  0.88277217  1
  Mo  Mo189  1  0.19055201  0.00253540  -0.01596070  1
  Mo  Mo190  1  0.21043672  0.16407424  0.26053166  1
  Mo  Mo191  1  0.20345403  0.20123320  0.75218432  1
  Mo  Mo192  1  0.39735528  -0.00408733  -0.00239916  1
  Mo  Mo193  1  0.90852372  0.09734274  0.87026139  1
  Mo  Mo194  1  0.90133258  0.90013833  0.63524234  1
  Mo  Mo195  1  0.19914009  0.59844750  0.51509367  1
  Mo  Mo196  1  0.69838158  0.09601980  0.62441616  1
  Mo  Mo197  1  0.09172273  0.90243599  0.10705528  1
  Mo  Mo198  1  0.00068802  0.59887064  0.48707717  1
  Mo  Mo199  1  0.10523945  0.50026893  0.37014356  1
