# generated using pymatgen
data_HfZrTaTiMo
_symmetry_space_group_name_H-M   'P 1'
_cell_length_a   15.84539432
_cell_length_b   15.84201189
_cell_length_c   15.36143078
_cell_angle_alpha   89.99703375
_cell_angle_beta   89.93321987
_cell_angle_gamma   89.96938783
_symmetry_Int_Tables_number   1
_chemical_formula_structural   HfZrTaTiMo
_chemical_formula_sum   'Hf40 Zr40 Ta40 Ti40 Mo40'
_cell_volume   3856.06811616
_cell_formula_units_Z   40
loop_
 _symmetry_equiv_pos_site_id
 _symmetry_equiv_pos_as_xyz
  1  'x, y, z'
loop_
 _atom_site_type_symbol
 _atom_site_label
 _atom_site_symmetry_multiplicity
 _atom_site_fract_x
 _atom_site_fract_y
 _atom_site_fract_z
 _atom_site_occupancy
  Hf  Hf0  1  0.40654557  0.60050854  -0.01419065  1
  Hf  Hf1  1  0.79013005  0.78737698  0.26201654  1
  Hf  Hf2  1  0.89791039  0.32652346  0.14132784  1
  Hf  Hf3  1  0.60135849  0.19992226  0.74404019  1
  Hf  Hf4  1  0.19256329  0.00368443  0.76270387  1
  Hf  Hf5  1  0.50202719  0.30511829  0.11135134  1
  Hf  Hf6  1  -0.00042341  0.80457968  0.74481094  1
  Hf  Hf7  1  0.29273131  0.90053960  0.88380229  1
  Hf  Hf8  1  0.29815917  0.90468072  0.11923542  1
  Hf  Hf9  1  0.40570331  0.01445948  0.24789102  1
  Hf  Hf10  1  -0.00676467  0.20546266  0.01644892  1
  Hf  Hf11  1  0.61005788  0.60704628  0.24666252  1
  Hf  Hf12  1  0.69811170  0.49619297  0.39342570  1
  Hf  Hf13  1  0.40811767  0.80007116  0.25187685  1
  Hf  Hf14  1  0.30794471  0.49602221  0.11928392  1
  Hf  Hf15  1  0.80419360  -0.00267514  0.00997460  1
  Hf  Hf16  1  0.51432625  0.50008218  0.12045440  1
  Hf  Hf17  1  0.30212150  0.30549365  0.86926770  1
  Hf  Hf18  1  -0.01479106  0.20129832  0.49721747  1
  Hf  Hf19  1  0.09774603  0.30498776  0.62225111  1
  Hf  Hf20  1  0.29689310  0.11119581  0.12815071  1
  Hf  Hf21  1  -0.00242720  0.59397545  0.25321306  1
  Hf  Hf22  1  0.80609927  0.00035826  0.73958588  1
  Hf  Hf23  1  0.31278887  0.28756621  0.35470014  1
  Hf  Hf24  1  -0.00589904  0.19113883  0.73785035  1
  Hf  Hf25  1  0.88965255  0.09832516  0.14418351  1
  Hf  Hf26  1  0.09544126  0.09715728  0.36742688  1
  Hf  Hf27  1  0.19704773  0.39996170  -0.00325734  1
  Hf  Hf28  1  0.50938420  0.90606358  0.38313770  1
  Hf  Hf29  1  0.08913108  0.50137002  0.87188393  1
  Hf  Hf30  1  0.30392990  0.89728864  0.64853342  1
  Hf  Hf31  1  0.40346334  0.21049629  0.51056791  1
  Hf  Hf32  1  0.59860450  0.78212443  0.75587732  1
  Hf  Hf33  1  0.69973390  0.90381328  0.38374739  1
  Hf  Hf34  1  0.30101090  0.09588336  0.63615298  1
  Hf  Hf35  1  0.39067799  0.80075932  0.49346694  1
  Hf  Hf36  1  0.88590485  0.09333607  0.36297919  1
  Hf  Hf37  1  0.20833465  0.19617673  0.48804332  1
  Hf  Hf38  1  0.10841738  0.29025795  0.13802099  1
  Hf  Hf39  1  0.30609125  0.70667177  0.11656665  1
  Zr  Zr40  1  0.69687105  0.90446730  0.87091185  1
  Zr  Zr41  1  0.50710499  0.49858959  0.38249147  1
  Zr  Zr42  1  0.89677947  0.50036978  0.84524491  1
  Zr  Zr43  1  0.07775948  0.48491700  0.12282188  1
  Zr  Zr44  1  0.10137005  0.09643823  0.61196005  1
  Zr  Zr45  1  0.89482495  0.68842301  0.62370634  1
  Zr  Zr46  1  0.20839456  0.59896044  0.50354784  1
  Zr  Zr47  1  0.09319853  0.89395995  0.36161884  1
  Zr  Zr48  1  -0.00659522  0.80332266  0.01230911  1
  Zr  Zr49  1  0.79845144  0.20362881  0.73539872  1
  Zr  Zr50  1  0.50284465  0.12367554  0.38148880  1
  Zr  Zr51  1  0.20143849  0.40497777  0.25236259  1
  Zr  Zr52  1  0.90129759  0.69312601  0.87138718  1
  Zr  Zr53  1  0.10359303  0.89680194  0.61900544  1
  Zr  Zr54  1  0.10524400  0.49733435  0.62648236  1
  Zr  Zr55  1  0.90755883  0.49528242  0.62581017  1
  Zr  Zr56  1  0.40686322  0.60265250  0.24572687  1
  Zr  Zr57  1  0.20231362  0.79449290  0.49861261  1
  Zr  Zr58  1  0.89409188  0.69184394  0.12780828  1
  Zr  Zr59  1  0.20147889  0.19002956  -0.01097803  1
  Zr  Zr60  1  0.40169204  0.40455879  0.50063821  1
  Zr  Zr61  1  0.69107002  0.09421020  0.60727084  1
  Zr  Zr62  1  0.89972237  0.09644335  0.88486413  1
  Zr  Zr63  1  0.39421121  0.60098198  0.51840773  1
  Zr  Zr64  1  0.29687801  0.70925141  0.87596161  1
  Zr  Zr65  1  0.38453836  0.00633836  0.48604160  1
  Zr  Zr66  1  0.69840357  0.10488208  0.87886467  1
  Zr  Zr67  1  0.49844224  0.90675704  0.62999819  1
  Zr  Zr68  1  0.09733126  0.69672009  0.87302013  1
  Zr  Zr69  1  0.70265901  0.89597460  0.12533558  1
  Zr  Zr70  1  0.41898379  0.61242415  0.75363531  1
  Zr  Zr71  1  0.40412036  0.19542006  0.76083355  1
  Zr  Zr72  1  0.60990643  0.59182390  -0.01615659  1
  Zr  Zr73  1  0.51027333  0.70158356  0.39069504  1
  Zr  Zr74  1  0.71501543  0.49877917  0.62861416  1
  Zr  Zr75  1  0.69128544  0.89523321  0.61767741  1
  Zr  Zr76  1  0.08739916  0.08908810  0.88724551  1
  Zr  Zr77  1  0.60887770  0.01496520  0.23862676  1
  Zr  Zr78  1  0.29565609  0.30879276  0.63860012  1
  Zr  Zr79  1  0.49853262  0.89921070  0.10966214  1
  Ta  Ta80  1  0.30134061  0.50464686  0.36340552  1
  Ta  Ta81  1  0.70383018  0.31057913  0.11962668  1
  Ta  Ta82  1  0.79856317  0.79736536  0.74715817  1
  Ta  Ta83  1  0.18670681  0.80127905  0.01599575  1
  Ta  Ta84  1  0.19668532  0.60387841  0.23469116  1
  Ta  Ta85  1  0.50820584  0.70619387  0.10597910  1
  Ta  Ta86  1  0.89868313  0.30396187  0.87135460  1
  Ta  Ta87  1  0.29618603  0.50503503  0.86925173  1
  Ta  Ta88  1  0.09583340  0.89663178  0.88220682  1
  Ta  Ta89  1  -0.00120966  0.20066848  0.25083817  1
  Ta  Ta90  1  0.08626585  0.30127759  0.87109483  1
  Ta  Ta91  1  0.70292849  0.69364399  0.11009650  1
  Ta  Ta92  1  0.59670947  0.20577072  0.23494840  1
  Ta  Ta93  1  0.09900128  0.29944123  0.36988957  1
  Ta  Ta94  1  0.69397825  0.10518308  0.38845701  1
  Ta  Ta95  1  0.79979182  0.79792368  -0.00532468  1
  Ta  Ta96  1  0.59851893  0.59655570  0.53149893  1
  Ta  Ta97  1  0.79585719  0.59362729  0.26500703  1
  Ta  Ta98  1  0.79870235  0.21113984  0.01037590  1
  Ta  Ta99  1  0.40840449  0.40375527  -0.01796775  1
  Ta  Ta100  1  0.61381374  0.40110941  -0.01105044  1
  Ta  Ta101  1  0.10124768  0.69974806  0.35933382  1
  Ta  Ta102  1  0.72099533  0.49616873  0.12767522  1
  Ta  Ta103  1  0.80440575  0.79575757  0.49766248  1
  Ta  Ta104  1  -0.00338300  0.79377765  0.49024665  1
  Ta  Ta105  1  0.40616247  0.19960157  -0.01000113  1
  Ta  Ta106  1  0.41451367  0.39689668  0.25215027  1
  Ta  Ta107  1  0.50140261  0.09410171  0.62059785  1
  Ta  Ta108  1  0.19337296  0.00486478  0.23905548  1
  Ta  Ta109  1  0.30881328  0.30095130  0.12488640  1
  Ta  Ta110  1  0.89875306  0.49294897  0.37529743  1
  Ta  Ta111  1  0.00584009  0.60113315  0.48909459  1
  Ta  Ta112  1  0.29070735  0.89848572  0.35073301  1
  Ta  Ta113  1  0.19330319  0.19835766  0.76226099  1
  Ta  Ta114  1  -0.00940266  -0.00685820  0.49628066  1
  Ta  Ta115  1  0.51394499  0.30180552  0.87554278  1
  Ta  Ta116  1  0.39613066  0.01286679  -0.01054590  1
  Ta  Ta117  1  0.80375522  0.38743699  0.49342677  1
  Ta  Ta118  1  0.61035854  0.39511880  0.25113713  1
  Ta  Ta119  1  0.18968332  0.60195575  0.01201695  1
  Ti  Ti120  1  0.68219188  0.29310297  0.39029373  1
  Ti  Ti121  1  0.69699143  0.69500519  0.40258731  1
  Ti  Ti122  1  0.90344994  0.90166673  0.87428860  1
  Ti  Ti123  1  0.50186090  0.31375378  0.63728594  1
  Ti  Ti124  1  0.41001200  0.00744707  0.77482375  1
  Ti  Ti125  1  0.89866650  0.89798977  0.36323182  1
  Ti  Ti126  1  0.49803198  0.89712182  0.87779941  1
  Ti  Ti127  1  -0.01689798  0.58361848  0.01045747  1
  Ti  Ti128  1  0.20336845  -0.00388775  0.48436514  1
  Ti  Ti129  1  0.31453320  0.49328701  0.65494888  1
  Ti  Ti130  1  0.89916918  0.69381094  0.38000001  1
  Ti  Ti131  1  0.51039637  0.49539155  0.85686059  1
  Ti  Ti132  1  -0.00650776  -0.00152741  0.73579971  1
  Ti  Ti133  1  0.09964613  0.69857439  0.62845500  1
  Ti  Ti134  1  0.70907508  0.50056050  0.85566595  1
  Ti  Ti135  1  0.19916032  0.60277793  0.74707680  1
  Ti  Ti136  1  0.70846760  0.69371685  0.87874157  1
  Ti  Ti137  1  0.00729008  -0.00560966  0.02853985  1
  Ti  Ti138  1  0.89832483  0.89805137  0.15349648  1
  Ti  Ti139  1  0.00075474  0.39738462  0.48580658  1
  Ti  Ti140  1  0.29903485  0.71241682  0.64970855  1
  Ti  Ti141  1  0.89200807  0.29765113  0.36267072  1
  Ti  Ti142  1  0.70952142  0.30710890  0.87765225  1
  Ti  Ti143  1  0.50127256  0.71091111  0.62203858  1
  Ti  Ti144  1  0.80583076  -0.00216243  0.50148864  1
  Ti  Ti145  1  0.77710891  0.20487506  0.24784161  1
  Ti  Ti146  1  0.79727194  0.20374632  0.50542674  1
  Ti  Ti147  1  0.60569796  0.20060214  0.00422747  1
  Ti  Ti148  1  0.60063224  0.79509762  0.24527813  1
  Ti  Ti149  1  0.61045250  0.39762188  0.74507066  1
  Ti  Ti150  1  0.60361563  0.79814265  -0.01147061  1
  Ti  Ti151  1  0.81131131  0.41443229  -0.00699628  1
  Ti  Ti152  1  0.89916355  0.89443432  0.61566764  1
  Ti  Ti153  1  0.09336170  0.89003919  0.14761641  1
  Ti  Ti154  1  0.20832088  0.39887585  0.48855568  1
  Ti  Ti155  1  0.10455103  0.50093452  0.37616794  1
  Ti  Ti156  1  0.89557285  0.31085038  0.62936542  1
  Ti  Ti157  1  0.59511478  0.01095677  0.00180962  1
  Ti  Ti158  1  0.29194373  0.69892923  0.35896712  1
  Ti  Ti159  1  0.19457960  0.40081837  0.75974434  1
  Mo  Mo160  1  0.59495271  0.21059469  0.51707272  1
  Mo  Mo161  1  0.89769597  0.09364813  0.60619007  1
  Mo  Mo162  1  0.40764807  0.40328287  0.76600888  1
  Mo  Mo163  1  -0.00427338  -0.00297288  0.24608079  1
  Mo  Mo164  1  0.40566798  0.80615658  0.76568069  1
  Mo  Mo165  1  0.09753357  0.69587625  0.13110918  1
  Mo  Mo166  1  0.58957881  0.00527290  0.76173620  1
  Mo  Mo167  1  0.19919585  0.79585147  0.23576216  1
  Mo  Mo168  1  0.79275594  -0.00043684  0.25516745  1
  Mo  Mo169  1  0.69948747  0.30306925  0.61116857  1
  Mo  Mo170  1  0.01080938  0.60134147  0.73252895  1
  Mo  Mo171  1  -0.00725090  0.79286270  0.25991916  1
  Mo  Mo172  1  0.79598043  0.39190125  0.75083134  1
  Mo  Mo173  1  0.78893499  0.39232434  0.27403092  1
  Mo  Mo174  1  0.09339588  0.09346189  0.13322405  1
  Mo  Mo175  1  0.80491256  0.59827198  0.48407792  1
  Mo  Mo176  1  0.70218480  0.70041667  0.61480155  1
  Mo  Mo177  1  0.29658534  0.09821901  0.35463307  1
  Mo  Mo178  1  0.79998611  0.59501029  -0.00652427  1
  Mo  Mo179  1  0.50969968  0.30476475  0.36793035  1
  Mo  Mo180  1  0.20129338  0.19656300  0.25613367  1
  Mo  Mo181  1  -0.00187225  0.39542510  0.27531311  1
  Mo  Mo182  1  0.00191096  0.39038690  0.75104461  1
  Mo  Mo183  1  0.60633816  0.59918964  0.74773813  1
  Mo  Mo184  1  0.60048160  0.79613443  0.51156662  1
  Mo  Mo185  1  0.59887368  0.39474003  0.51760349  1
  Mo  Mo186  1  0.50721142  0.10012085  0.88550215  1
  Mo  Mo187  1  0.18807102  -0.00955949  0.01600611  1
  Mo  Mo188  1  0.41061025  0.20539052  0.23066890  1
  Mo  Mo189  1  -0.00815835  0.39574557  -0.01079753  1
  Mo  Mo190  1  0.59552489  0.00467634  0.49077088  1
  Mo  Mo191  1  0.78619848  0.61279903  0.75138233  1
  Mo  Mo192  1  0.50607445  0.49687389  0.64340736  1
  Mo  Mo193  1  0.50146973  0.10664081  0.10472956  1
  Mo  Mo194  1  0.19657032  0.79948925  0.75079684  1
  Mo  Mo195  1  0.40510597  0.80571626  -0.00977370  1
  Mo  Mo196  1  0.69909314  0.11155111  0.11397439  1
  Mo  Mo197  1  0.50742370  0.70799929  0.88793243  1
  Mo  Mo198  1  0.88888987  0.49710675  0.14154002  1
  Mo  Mo199  1  0.29772471  0.09876078  0.87905498  1
