# generated using pymatgen
data_HfZrTaTiMo
_symmetry_space_group_name_H-M   'P 1'
_cell_length_a   15.84609500
_cell_length_b   15.82589780
_cell_length_c   15.40419806
_cell_angle_alpha   89.98380948
_cell_angle_beta   90.05669964
_cell_angle_gamma   90.02080810
_symmetry_Int_Tables_number   1
_chemical_formula_structural   HfZrTaTiMo
_chemical_formula_sum   'Hf40 Zr40 Ta40 Ti40 Mo40'
_cell_volume   3863.04215909
_cell_formula_units_Z   40
loop_
 _symmetry_equiv_pos_site_id
 _symmetry_equiv_pos_as_xyz
  1  'x, y, z'
loop_
 _atom_site_type_symbol
 _atom_site_label
 _atom_site_symmetry_multiplicity
 _atom_site_fract_x
 _atom_site_fract_y
 _atom_site_fract_z
 _atom_site_occupancy
  Hf  Hf0  1  0.69927744  0.70606810  0.11613234  1
  Hf  Hf1  1  0.40092406  0.60017342  0.24697317  1
  Hf  Hf2  1  0.09771591  0.90395689  0.38720762  1
  Hf  Hf3  1  -0.00212379  0.20188756  0.24521141  1
  Hf  Hf4  1  0.00854560  0.79325096  0.75528085  1
  Hf  Hf5  1  0.71244595  0.70897894  0.88514587  1
  Hf  Hf6  1  0.79994606  0.39891913  0.24750189  1
  Hf  Hf7  1  0.90429374  0.89394354  0.62012884  1
  Hf  Hf8  1  0.70298946  0.29815999  0.37279298  1
  Hf  Hf9  1  0.49218859  0.28725356  0.86966746  1
  Hf  Hf10  1  0.19059472  0.40095031  0.75166462  1
  Hf  Hf11  1  0.40376173  0.80482892  0.24786279  1
  Hf  Hf12  1  0.29802171  0.29816192  0.87129900  1
  Hf  Hf13  1  0.62050346  0.80942591  0.73153058  1
  Hf  Hf14  1  0.70218116  0.28962440  0.88493734  1
  Hf  Hf15  1  0.19468777  0.20800244  0.23327882  1
  Hf  Hf16  1  0.78815454  -0.02004401  0.75326301  1
  Hf  Hf17  1  0.79422650  -0.00419885  0.00906818  1
  Hf  Hf18  1  0.20116594  0.79893410  0.50466436  1
  Hf  Hf19  1  0.79236956  0.20270423  0.73988087  1
  Hf  Hf20  1  0.67912855  0.08992527  0.63882086  1
  Hf  Hf21  1  0.09908876  0.29214610  0.88682410  1
  Hf  Hf22  1  0.10799994  0.08237963  0.13227645  1
  Hf  Hf23  1  0.50206174  0.50256109  0.12157327  1
  Hf  Hf24  1  0.49471525  0.30797036  0.37749283  1
  Hf  Hf25  1  0.29758262  0.49764517  0.37889140  1
  Hf  Hf26  1  0.69998940  0.50051229  0.12129953  1
  Hf  Hf27  1  0.79979048  0.19052592  0.00880590  1
  Hf  Hf28  1  0.59908978  0.59049920  0.50735677  1
  Hf  Hf29  1  0.29276805  0.90917391  0.62843935  1
  Hf  Hf30  1  0.29781532  0.69955279  0.37429311  1
  Hf  Hf31  1  0.50480440  0.30084717  0.10267953  1
  Hf  Hf32  1  0.89524738  0.50786174  0.37837722  1
  Hf  Hf33  1  0.18590065  0.61056665  -0.01099590  1
  Hf  Hf34  1  0.01736016  0.18783099  0.50778576  1
  Hf  Hf35  1  0.60028440  0.00192006  -0.00094245  1
  Hf  Hf36  1  0.39758200  0.42000884  -0.02117019  1
  Hf  Hf37  1  0.39022882  0.20012774  0.22638761  1
  Hf  Hf38  1  0.28658926  0.71217114  0.12873048  1
  Hf  Hf39  1  0.09329633  0.49797176  0.61739125  1
  Zr  Zr40  1  0.29359591  0.31249121  0.10011214  1
  Zr  Zr41  1  0.30766660  0.89748059  0.86527534  1
  Zr  Zr42  1  0.50360237  0.71693088  0.86453764  1
  Zr  Zr43  1  0.59755699  0.20148208  0.49966406  1
  Zr  Zr44  1  0.58884258  0.60469244  -0.00930046  1
  Zr  Zr45  1  0.89976052  0.29319530  0.37784028  1
  Zr  Zr46  1  0.90720543  0.30246605  0.87898216  1
  Zr  Zr47  1  0.89069436  0.87899790  0.88116563  1
  Zr  Zr48  1  0.48489717  0.10203391  0.36307783  1
  Zr  Zr49  1  0.30224151  0.50092177  0.63708597  1
  Zr  Zr50  1  0.71017893  0.69333922  0.37106736  1
  Zr  Zr51  1  0.90438775  0.30264929  0.61680650  1
  Zr  Zr52  1  0.60240316  0.20425917  0.24608865  1
  Zr  Zr53  1  0.89707980  0.10225343  0.86982614  1
  Zr  Zr54  1  0.89557296  0.67862819  0.88766102  1
  Zr  Zr55  1  -0.01047805  0.58849408  0.74272615  1
  Zr  Zr56  1  0.40296931  0.01920484  -0.00586245  1
  Zr  Zr57  1  0.00659543  -0.00232237  -0.01382169  1
  Zr  Zr58  1  0.61412101  0.40222843  0.75800686  1
  Zr  Zr59  1  0.90490822  0.08474524  0.62399246  1
  Zr  Zr60  1  0.50245292  0.29718093  0.64258994  1
  Zr  Zr61  1  0.60465088  0.60036663  0.74842267  1
  Zr  Zr62  1  0.39614847  0.40260514  0.24251897  1
  Zr  Zr63  1  0.29538842  0.29892010  0.37921099  1
  Zr  Zr64  1  0.80625622  0.41070555  0.74713284  1
  Zr  Zr65  1  0.01963405  0.78232633  -0.00179402  1
  Zr  Zr66  1  0.28857813  0.71332926  0.85837121  1
  Zr  Zr67  1  0.49790400  0.90155599  0.37245040  1
  Zr  Zr68  1  0.40589010  0.80066645  0.51104294  1
  Zr  Zr69  1  0.28938625  0.10291913  0.37563444  1
  Zr  Zr70  1  0.90173581  0.89277359  0.38794438  1
  Zr  Zr71  1  0.09169485  0.69457218  0.37680211  1
  Zr  Zr72  1  0.60369250  0.00571144  0.48279054  1
  Zr  Zr73  1  0.10074424  0.49864881  0.38094887  1
  Zr  Zr74  1  0.40942060  0.60038739  0.50622561  1
  Zr  Zr75  1  0.59968750  0.79396698  0.50695335  1
  Zr  Zr76  1  0.38996218  0.60721404  -0.00540727  1
  Zr  Zr77  1  0.10817910  0.88944420  0.12799442  1
  Zr  Zr78  1  0.41355157  0.80593235  0.01323383  1
  Zr  Zr79  1  0.29677389  0.92269252  0.13468409  1
  Ta  Ta80  1  0.29974426  0.91492526  0.37746802  1
  Ta  Ta81  1  0.20266210  0.18403011  0.00168342  1
  Ta  Ta82  1  0.08272129  0.49918700  0.87604247  1
  Ta  Ta83  1  0.19652014  0.80402993  0.26623359  1
  Ta  Ta84  1  0.69531160  0.88786241  0.89079421  1
  Ta  Ta85  1  0.79728060  0.59851179  0.73638488  1
  Ta  Ta86  1  0.80371874  0.40270157  0.00209497  1
  Ta  Ta87  1  0.10586846  0.29725740  0.38230207  1
  Ta  Ta88  1  -0.00328634  -0.00746233  0.25636292  1
  Ta  Ta89  1  0.40604649  0.40221597  0.50691070  1
  Ta  Ta90  1  -0.00661906  0.79067861  0.24533957  1
  Ta  Ta91  1  0.89851751  0.09587410  0.37570553  1
  Ta  Ta92  1  0.51423645  0.91995973  0.62919916  1
  Ta  Ta93  1  0.80400659  -0.00372424  0.24608298  1
  Ta  Ta94  1  0.19405575  0.00195117  0.75855614  1
  Ta  Ta95  1  0.89810525  0.29978796  0.12377262  1
  Ta  Ta96  1  0.90278238  0.49915053  0.12352816  1
  Ta  Ta97  1  0.40579357  0.00908193  0.74616958  1
  Ta  Ta98  1  0.39931397  0.01100587  0.51764975  1
  Ta  Ta99  1  0.30505849  0.11293288  0.86100537  1
  Ta  Ta100  1  0.79594837  0.79769403  0.50915152  1
  Ta  Ta101  1  0.90419336  0.89488393  0.12082109  1
  Ta  Ta102  1  0.00406863  0.39937409  0.24403880  1
  Ta  Ta103  1  0.01028471  -0.00548239  0.76653284  1
  Ta  Ta104  1  0.80631527  0.80087717  0.23910347  1
  Ta  Ta105  1  0.60246222  0.40606638  -0.01960791  1
  Ta  Ta106  1  0.78694045  0.39998622  0.50458771  1
  Ta  Ta107  1  0.41118489  0.80555003  0.72878956  1
  Ta  Ta108  1  0.39326265  0.20117779  0.51906906  1
  Ta  Ta109  1  0.01056870  0.19656680  0.74055293  1
  Ta  Ta110  1  0.69814232  0.30138797  0.11470952  1
  Ta  Ta111  1  0.60639482  -0.00225545  0.24967866  1
  Ta  Ta112  1  0.70745692  0.89617336  0.36668912  1
  Ta  Ta113  1  0.19912910  -0.00106077  -0.02452660  1
  Ta  Ta114  1  0.29699586  0.69849487  0.63908635  1
  Ta  Ta115  1  0.09228867  0.90896969  0.61606398  1
  Ta  Ta116  1  0.79280928  0.19346166  0.51081137  1
  Ta  Ta117  1  0.50641123  0.69445092  0.36427768  1
  Ta  Ta118  1  0.20183150  0.38829138  0.51401637  1
  Ta  Ta119  1  0.00437080  0.19430239  0.01439630  1
  Ti  Ti120  1  0.69951921  0.10118912  0.13733329  1
  Ti  Ti121  1  0.29512890  0.10651673  0.63416123  1
  Ti  Ti122  1  0.10438021  0.68850100  0.14333060  1
  Ti  Ti123  1  0.69758227  0.50067765  0.37683102  1
  Ti  Ti124  1  0.79453223  0.00063227  0.49770541  1
  Ti  Ti125  1  0.81181475  0.60771937  0.23685005  1
  Ti  Ti126  1  0.49784388  0.49476173  0.64369697  1
  Ti  Ti127  1  0.60029928  0.59804774  0.25227537  1
  Ti  Ti128  1  0.00044947  0.59130092  0.01155942  1
  Ti  Ti129  1  0.49739932  0.09604122  0.13128793  1
  Ti  Ti130  1  0.51127233  0.90394888  0.13228500  1
  Ti  Ti131  1  0.40158935  0.59727932  0.76055729  1
  Ti  Ti132  1  0.28041609  0.51211040  0.12826411  1
  Ti  Ti133  1  0.09917248  0.30895186  0.11137480  1
  Ti  Ti134  1  0.00141770  0.39541150  0.49527496  1
  Ti  Ti135  1  0.00049063  0.39334547  0.74506482  1
  Ti  Ti136  1  0.09952120  0.70291214  0.62312534  1
  Ti  Ti137  1  0.59750278  0.40654423  0.25353224  1
  Ti  Ti138  1  0.72076534  0.51378110  0.88952757  1
  Ti  Ti139  1  0.70798169  0.69225326  0.61820355  1
  Ti  Ti140  1  0.60422327  0.79861915  0.24512115  1
  Ti  Ti141  1  0.30366506  0.30285366  0.63720576  1
  Ti  Ti142  1  0.90211832  0.09468332  0.13394313  1
  Ti  Ti143  1  0.89768821  0.69999800  0.38494052  1
  Ti  Ti144  1  0.89821782  0.69984897  0.61883387  1
  Ti  Ti145  1  0.59547634  0.18428789  -0.00795483  1
  Ti  Ti146  1  0.89146511  0.50336027  0.60385761  1
  Ti  Ti147  1  0.09904535  0.10009026  0.36667296  1
  Ti  Ti148  1  -0.00422551  0.60687049  0.50497079  1
  Ti  Ti149  1  0.18510844  0.60397104  0.75645633  1
  Ti  Ti150  1  0.18851900  0.40802849  0.24302848  1
  Ti  Ti151  1  0.59778998  0.40328446  0.50727115  1
  Ti  Ti152  1  0.19452462  0.41838622  -0.01154762  1
  Ti  Ti153  1  0.50634842  0.90338246  0.86712584  1
  Ti  Ti154  1  0.19147831  0.20031699  0.73965814  1
  Ti  Ti155  1  0.18932785  0.02134755  0.50984731  1
  Ti  Ti156  1  0.20271210  0.59900480  0.50938216  1
  Ti  Ti157  1  -0.00104511  0.40309636  0.00854846  1
  Ti  Ti158  1  -0.00011078  0.59307085  0.24303661  1
  Ti  Ti159  1  0.71437499  0.10325125  0.36078597  1
  Mo  Mo160  1  0.69894816  0.29738824  0.61558111  1
  Mo  Mo161  1  0.60040379  0.19225762  0.76228098  1
  Mo  Mo162  1  0.29683563  0.10206162  0.11932858  1
  Mo  Mo163  1  0.19757483  0.00192826  0.26654416  1
  Mo  Mo164  1  0.49486519  0.10175706  0.63637442  1
  Mo  Mo165  1  0.09843781  0.49700393  0.12250511  1
  Mo  Mo166  1  0.10507522  0.09200219  0.64031996  1
  Mo  Mo167  1  0.49901983  0.69701201  0.63993285  1
  Mo  Mo168  1  0.79947141  0.59869886  0.50768952  1
  Mo  Mo169  1  0.19778134  0.59743847  0.24768402  1
  Mo  Mo170  1  0.39699549  0.40756940  0.76159533  1
  Mo  Mo171  1  0.70066633  0.49737046  0.61583579  1
  Mo  Mo172  1  0.80461960  0.80071935  0.02196465  1
  Mo  Mo173  1  0.20222104  0.80373732  -0.00209177  1
  Mo  Mo174  1  0.90614842  0.69564351  0.12463200  1
  Mo  Mo175  1  0.00161754  0.00319261  0.48806473  1
  Mo  Mo176  1  0.80243386  0.19452204  0.23256742  1
  Mo  Mo177  1  0.50478012  0.70436906  0.14357543  1
  Mo  Mo178  1  0.20378648  0.20309743  0.51964307  1
  Mo  Mo179  1  0.70093403  0.90339338  0.13804974  1
  Mo  Mo180  1  0.90095642  0.49516497  0.89188009  1
  Mo  Mo181  1  0.11474143  0.88792229  0.87284600  1
  Mo  Mo182  1  0.80434503  0.59626332  0.01662849  1
  Mo  Mo183  1  0.40274764  0.00347165  0.24120622  1
  Mo  Mo184  1  0.09746399  0.69478803  0.86257422  1
  Mo  Mo185  1  0.49973491  0.10256558  0.85958627  1
  Mo  Mo186  1  0.49669017  0.49978477  0.86185653  1
  Mo  Mo187  1  0.39269129  0.19958802  0.73508710  1
  Mo  Mo188  1  0.50890060  0.49789813  0.37086712  1
  Mo  Mo189  1  0.28748303  0.50583365  0.85906110  1
  Mo  Mo190  1  -0.00023245  0.79197903  0.51294419  1
  Mo  Mo191  1  0.10338491  0.29947780  0.61948860  1
  Mo  Mo192  1  0.80182045  0.78643350  0.73207153  1
  Mo  Mo193  1  0.59965096  0.81204805  0.01148093  1
  Mo  Mo194  1  0.59933848  -0.00407858  0.76988497  1
  Mo  Mo195  1  0.69473863  0.09365098  0.86717907  1
  Mo  Mo196  1  0.70527478  0.90210975  0.60896306  1
  Mo  Mo197  1  0.19576372  0.80391876  0.72564094  1
  Mo  Mo198  1  0.10469464  0.10405973  0.86635041  1
  Mo  Mo199  1  0.39978932  0.19814178  0.00688262  1
