# generated using pymatgen
data_HfZrTaTiMo
_symmetry_space_group_name_H-M   'P 1'
_cell_length_a   15.84469928
_cell_length_b   15.83669454
_cell_length_c   15.40560910
_cell_angle_alpha   90.04588454
_cell_angle_beta   90.05450731
_cell_angle_gamma   90.08603877
_symmetry_Int_Tables_number   1
_chemical_formula_structural   HfZrTaTiMo
_chemical_formula_sum   'Hf40 Zr40 Ta40 Ti40 Mo40'
_cell_volume   3865.68612812
_cell_formula_units_Z   40
loop_
 _symmetry_equiv_pos_site_id
 _symmetry_equiv_pos_as_xyz
  1  'x, y, z'
loop_
 _atom_site_type_symbol
 _atom_site_label
 _atom_site_symmetry_multiplicity
 _atom_site_fract_x
 _atom_site_fract_y
 _atom_site_fract_z
 _atom_site_occupancy
  Hf  Hf0  1  0.40057009  0.60131676  0.24251629  1
  Hf  Hf1  1  0.01378098  0.21103773  0.24448039  1
  Hf  Hf2  1  0.09351308  0.70349673  0.61889951  1
  Hf  Hf3  1  0.40445662  0.39740140  0.48750541  1
  Hf  Hf4  1  0.48995584  0.49800402  0.86465472  1
  Hf  Hf5  1  0.30002875  0.90207916  0.62753321  1
  Hf  Hf6  1  0.90225825  0.10317772  0.37722303  1
  Hf  Hf7  1  0.00529226  -0.00758254  0.25494479  1
  Hf  Hf8  1  0.41125959  0.20142097  0.25735119  1
  Hf  Hf9  1  0.29077982  0.70092713  0.36336595  1
  Hf  Hf10  1  0.80546248  0.20404698  0.24580432  1
  Hf  Hf11  1  0.20247298  -0.01366182  0.48544101  1
  Hf  Hf12  1  0.79623863  0.40733298  0.24966211  1
  Hf  Hf13  1  0.48883496  0.30572881  0.63696693  1
  Hf  Hf14  1  0.90050900  0.50657814  0.63231668  1
  Hf  Hf15  1  -0.00409813  0.39962715  0.50209594  1
  Hf  Hf16  1  0.80128967  0.80004702  0.76560327  1
  Hf  Hf17  1  0.50317984  0.90245165  0.61881632  1
  Hf  Hf18  1  0.39902256  0.59007734  0.49774729  1
  Hf  Hf19  1  0.59191368  0.39227875  0.00709315  1
  Hf  Hf20  1  0.50392004  0.69992697  0.37770379  1
  Hf  Hf21  1  0.11782165  0.11598979  0.37627715  1
  Hf  Hf22  1  0.30521317  0.69593836  0.88163450  1
  Hf  Hf23  1  0.20696219  0.19958497  0.75590489  1
  Hf  Hf24  1  0.10895579  0.09736240  0.62546886  1
  Hf  Hf25  1  0.78790116  0.39796252  0.51523383  1
  Hf  Hf26  1  0.80377578  0.20679519  0.51606831  1
  Hf  Hf27  1  0.18785222  0.38054413  0.50674715  1
  Hf  Hf28  1  0.07842399  0.49771597  0.11973237  1
  Hf  Hf29  1  0.38664445  0.80713451  0.49180844  1
  Hf  Hf30  1  0.07886137  0.70320122  0.12843501  1
  Hf  Hf31  1  0.49221610  0.70544693  0.61527788  1
  Hf  Hf32  1  0.20322694  0.80282536  0.01905856  1
  Hf  Hf33  1  0.59629773  0.60357436  0.74244688  1
  Hf  Hf34  1  0.30663560  0.48496041  0.63786387  1
  Hf  Hf35  1  -0.01075951  0.40412838  0.25632019  1
  Hf  Hf36  1  0.50187583  0.70775115  0.88419342  1
  Hf  Hf37  1  0.89078615  0.51071168  0.38950151  1
  Hf  Hf38  1  0.09335228  0.49747085  0.63807685  1
  Hf  Hf39  1  0.29216644  0.49386690  0.36380435  1
  Zr  Zr40  1  0.21453257  0.20040539  -0.01008896  1
  Zr  Zr41  1  0.90258494  0.31000246  0.11409895  1
  Zr  Zr42  1  0.00406363  0.81777010  0.47709117  1
  Zr  Zr43  1  0.69093547  0.69683766  0.38448699  1
  Zr  Zr44  1  0.40706643  -0.00489162  -0.00194045  1
  Zr  Zr45  1  0.90716967  0.70204557  0.61523907  1
  Zr  Zr46  1  0.60585576  0.79658137  0.23194047  1
  Zr  Zr47  1  0.51835183  0.08210851  0.86609660  1
  Zr  Zr48  1  0.19693647  0.59639296  0.50359992  1
  Zr  Zr49  1  0.80903716  0.00113536  0.50880538  1
  Zr  Zr50  1  0.78213485  0.60253007  0.25377375  1
  Zr  Zr51  1  0.50399580  0.90419916  0.37234418  1
  Zr  Zr52  1  0.60680312  0.20387196  0.51161390  1
  Zr  Zr53  1  0.60286689  0.20235539  -0.00679969  1
  Zr  Zr54  1  0.68731609  0.90668889  0.87606355  1
  Zr  Zr55  1  0.60715198  0.39766160  0.23879052  1
  Zr  Zr56  1  0.28259349  0.28336562  0.37277632  1
  Zr  Zr57  1  0.29569846  0.49289072  0.12967455  1
  Zr  Zr58  1  0.19913437  0.80009354  0.75475586  1
  Zr  Zr59  1  0.00371783  -0.00557714  0.76581680  1
  Zr  Zr60  1  0.91287485  0.10476174  0.63399257  1
  Zr  Zr61  1  0.79311422  0.60822618  0.75545000  1
  Zr  Zr62  1  0.70798407  0.90571347  0.36006516  1
  Zr  Zr63  1  0.39546956  0.38671285  0.00232897  1
  Zr  Zr64  1  0.89464704  0.29058941  0.85880940  1
  Zr  Zr65  1  0.10902232  0.09849454  0.12350031  1
  Zr  Zr66  1  0.18162270  0.37918093  0.23885613  1
  Zr  Zr67  1  0.49682093  0.09658885  0.62777984  1
  Zr  Zr68  1  0.30938031  0.09565314  0.61567893  1
  Zr  Zr69  1  0.80195843  0.81490016  0.49821832  1
  Zr  Zr70  1  0.61222537  -0.00097799  0.02011737  1
  Zr  Zr71  1  -0.01788256  0.81511411  -0.00147037  1
  Zr  Zr72  1  -0.00021135  0.19846533  -0.00203581  1
  Zr  Zr73  1  0.19654945  0.59611263  0.00967953  1
  Zr  Zr74  1  0.29183216  0.49222886  0.86690793  1
  Zr  Zr75  1  0.79553819  0.39700080  -0.00423814  1
  Zr  Zr76  1  0.09763466  0.69731495  0.88356169  1
  Zr  Zr77  1  0.20387648  -0.00421887  -0.00387062  1
  Zr  Zr78  1  0.69141714  0.71745963  0.61345998  1
  Zr  Zr79  1  0.69259422  0.49735658  0.87521347  1
  Ta  Ta80  1  0.39738858  0.19532232  0.77233444  1
  Ta  Ta81  1  0.09941822  0.90117188  0.62995552  1
  Ta  Ta82  1  0.18993423  0.80421753  0.24109022  1
  Ta  Ta83  1  0.09258669  0.69756440  0.36623040  1
  Ta  Ta84  1  0.40020049  0.60122835  0.01432958  1
  Ta  Ta85  1  0.40392441  0.19951198  0.48594255  1
  Ta  Ta86  1  0.89995646  0.49946819  0.86579873  1
  Ta  Ta87  1  0.09930966  0.30702003  0.86157663  1
  Ta  Ta88  1  0.70232948  0.09625391  0.64298109  1
  Ta  Ta89  1  0.59950893  0.40421375  0.51478696  1
  Ta  Ta90  1  0.19827312  0.60095345  0.74569187  1
  Ta  Ta91  1  0.20882770  -0.00031620  0.76701031  1
  Ta  Ta92  1  0.40659165  0.19527933  -0.00860539  1
  Ta  Ta93  1  0.31132754  0.09104083  0.37026030  1
  Ta  Ta94  1  0.79939961  0.18681092  0.00014071  1
  Ta  Ta95  1  0.40598480  0.39320267  0.24940801  1
  Ta  Ta96  1  0.70049533  0.30030583  0.37473121  1
  Ta  Ta97  1  0.30426504  0.90516625  0.14030506  1
  Ta  Ta98  1  0.70124385  0.10487397  0.36836938  1
  Ta  Ta99  1  0.80592840  -0.00422016  0.75259608  1
  Ta  Ta100  1  0.88281477  0.71448301  0.12776949  1
  Ta  Ta101  1  0.70144809  0.70200442  0.10645710  1
  Ta  Ta102  1  0.31350865  0.09583175  0.13835282  1
  Ta  Ta103  1  0.59554276  0.58472756  0.51508171  1
  Ta  Ta104  1  0.50302500  0.50081888  0.12826616  1
  Ta  Ta105  1  0.18821757  0.60201329  0.24016582  1
  Ta  Ta106  1  0.69822736  0.51140368  0.10871449  1
  Ta  Ta107  1  0.51643954  0.50147356  0.36160945  1
  Ta  Ta108  1  0.09800246  0.10321394  0.87238192  1
  Ta  Ta109  1  0.51406447  0.29997194  0.37365331  1
  Ta  Ta110  1  0.60800109  0.00823288  0.23989495  1
  Ta  Ta111  1  0.40268168  0.79966888  0.75155903  1
  Ta  Ta112  1  0.01745874  0.21369459  0.50687434  1
  Ta  Ta113  1  0.60285637  0.20367024  0.74912263  1
  Ta  Ta114  1  0.09486886  0.50392249  0.37289576  1
  Ta  Ta115  1  0.61396200  -0.00237279  0.50628853  1
  Ta  Ta116  1  0.71533578  0.10464378  0.86066582  1
  Ta  Ta117  1  0.19036216  0.39075924  -0.00146004  1
  Ta  Ta118  1  -0.01461539  0.60389075  0.25498129  1
  Ta  Ta119  1  0.50592373  0.10980312  0.13294886  1
  Ti  Ti120  1  0.73030893  0.89558476  0.12883935  1
  Ti  Ti121  1  0.91331240  0.30299678  0.64622111  1
  Ti  Ti122  1  0.51236501  0.09753964  0.37445254  1
  Ti  Ti123  1  0.40170478  0.80012575  0.01689047  1
  Ti  Ti124  1  0.29969648  0.29249095  0.62813726  1
  Ti  Ti125  1  0.69898740  0.29781696  0.86033447  1
  Ti  Ti126  1  0.89678186  0.08687674  0.12682547  1
  Ti  Ti127  1  0.79932569  0.61421418  -0.01629118  1
  Ti  Ti128  1  0.91070502  0.89933265  0.63399399  1
  Ti  Ti129  1  0.81654109  -0.00863849  -0.00970419  1
  Ti  Ti130  1  0.59637593  0.80691760  0.75427750  1
  Ti  Ti131  1  0.78772304  0.59697290  0.50635494  1
  Ti  Ti132  1  -0.00222641  -0.00160492  -0.00188699  1
  Ti  Ti133  1  0.70963995  0.09941868  0.13267880  1
  Ti  Ti134  1  0.20137365  -0.00070083  0.24999850  1
  Ti  Ti135  1  0.39708526  0.79572927  0.23930318  1
  Ti  Ti136  1  0.89944239  0.29821052  0.38154388  1
  Ti  Ti137  1  0.50395929  0.69692691  0.12174404  1
  Ti  Ti138  1  0.30128750  0.28686959  0.12937051  1
  Ti  Ti139  1  -0.00388328  0.60914831  0.76418577  1
  Ti  Ti140  1  0.39620792  0.60537524  0.74250860  1
  Ti  Ti141  1  0.40236493  -0.00915126  0.76465375  1
  Ti  Ti142  1  0.59696798  0.80877078  0.00966849  1
  Ti  Ti143  1  -0.00220815  0.40410668  -0.01570370  1
  Ti  Ti144  1  -0.00455056  0.79910857  0.76414729  1
  Ti  Ti145  1  0.30497860  0.90248959  0.35415380  1
  Ti  Ti146  1  0.31047613  0.89053771  0.87893883  1
  Ti  Ti147  1  -0.01612455  0.60303481  -0.01003701  1
  Ti  Ti148  1  0.59551846  0.60167858  -0.00189331  1
  Ti  Ti149  1  0.88894151  0.51664048  0.11565957  1
  Ti  Ti150  1  0.50322455  0.30541150  0.85995912  1
  Ti  Ti151  1  0.89512399  0.70770895  0.37129788  1
  Ti  Ti152  1  0.69758780  0.29030330  0.12514176  1
  Ti  Ti153  1  0.78913592  0.39980668  0.73922866  1
  Ti  Ti154  1  0.00748006  -0.00245760  0.48704274  1
  Ti  Ti155  1  0.29435564  0.70177520  0.62352877  1
  Ti  Ti156  1  0.09670714  0.49678688  0.86400951  1
  Ti  Ti157  1  0.49549132  0.90938779  0.14047877  1
  Ti  Ti158  1  0.19429476  0.80222196  0.48953025  1
  Ti  Ti159  1  0.10260557  0.89780255  0.87861071  1
  Mo  Mo160  1  0.59675646  0.80453141  0.50104485  1
  Mo  Mo161  1  0.09662877  0.29779751  0.64809720  1
  Mo  Mo162  1  0.80562863  0.00609486  0.24521288  1
  Mo  Mo163  1  -0.00249386  0.60423086  0.48144791  1
  Mo  Mo164  1  0.89687537  0.69825717  0.88141637  1
  Mo  Mo165  1  0.00588775  0.19941402  0.75212174  1
  Mo  Mo166  1  0.49452404  0.49828111  0.64008423  1
  Mo  Mo167  1  0.30679292  0.09324019  0.87233969  1
  Mo  Mo168  1  0.30245520  0.29839617  0.87538470  1
  Mo  Mo169  1  0.59896172  0.40109843  0.73807690  1
  Mo  Mo170  1  0.09814419  0.30334845  0.10247286  1
  Mo  Mo171  1  0.89773784  0.90284752  0.13440554  1
  Mo  Mo172  1  0.79215453  0.80297812  -0.00960247  1
  Mo  Mo173  1  0.69036011  0.70609446  0.89568230  1
  Mo  Mo174  1  0.09080687  0.29933571  0.37889946  1
  Mo  Mo175  1  0.69809180  0.29969804  0.64341146  1
  Mo  Mo176  1  0.39379737  0.38564180  0.76024513  1
  Mo  Mo177  1  0.30123862  0.70453621  0.13385330  1
  Mo  Mo178  1  0.49562513  0.29453195  0.13159157  1
  Mo  Mo179  1  0.89793459  0.90226602  0.87150476  1
  Mo  Mo180  1  0.60805792  0.19837883  0.25267719  1
  Mo  Mo181  1  0.59860529  0.59872781  0.23163180  1
  Mo  Mo182  1  -0.00674078  0.79849722  0.25450760  1
  Mo  Mo183  1  0.20719866  0.19253031  0.23350261  1
  Mo  Mo184  1  0.40848880  0.00082433  0.25290878  1
  Mo  Mo185  1  0.89822735  0.09620556  0.87800957  1
  Mo  Mo186  1  0.20497003  0.19509618  0.51680514  1
  Mo  Mo187  1  0.09956523  0.90141740  0.13265572  1
  Mo  Mo188  1  0.69707335  0.50132908  0.62931536  1
  Mo  Mo189  1  0.60465929  -0.00380854  0.73926064  1
  Mo  Mo190  1  -0.00423929  0.40724892  0.75921670  1
  Mo  Mo191  1  0.69007320  0.49460278  0.39035911  1
  Mo  Mo192  1  0.11075386  0.90012419  0.36000515  1
  Mo  Mo193  1  0.80540794  0.80011809  0.25417801  1
  Mo  Mo194  1  0.19701684  0.39563496  0.74674338  1
  Mo  Mo195  1  0.69922303  0.90667314  0.63854336  1
  Mo  Mo196  1  0.80124159  0.19943259  0.74287652  1
  Mo  Mo197  1  0.90207692  0.90243241  0.35662651  1
  Mo  Mo198  1  0.40757095  0.00242010  0.47705061  1
  Mo  Mo199  1  0.49549159  0.88918082  0.87436202  1
