# generated using pymatgen
data_HfZrTaTiMo
_symmetry_space_group_name_H-M   'P 1'
_cell_length_a   15.83122804
_cell_length_b   15.83601753
_cell_length_c   15.41184391
_cell_angle_alpha   89.95412615
_cell_angle_beta   90.03652259
_cell_angle_gamma   89.92020267
_symmetry_Int_Tables_number   1
_chemical_formula_structural   HfZrTaTiMo
_chemical_formula_sum   'Hf40 Zr40 Ta40 Ti40 Mo40'
_cell_volume   3863.79904959
_cell_formula_units_Z   40
loop_
 _symmetry_equiv_pos_site_id
 _symmetry_equiv_pos_as_xyz
  1  'x, y, z'
loop_
 _atom_site_type_symbol
 _atom_site_label
 _atom_site_symmetry_multiplicity
 _atom_site_fract_x
 _atom_site_fract_y
 _atom_site_fract_z
 _atom_site_occupancy
  Hf  Hf0  1  0.29430567  0.89630017  0.13117141  1
  Hf  Hf1  1  0.10597104  0.50487775  0.87002153  1
  Hf  Hf2  1  0.90664463  0.69523394  0.11430382  1
  Hf  Hf3  1  0.09762964  0.30389633  0.37395908  1
  Hf  Hf4  1  0.19906687  0.39603071  0.00810998  1
  Hf  Hf5  1  0.78502750  0.81401378  0.01190727  1
  Hf  Hf6  1  -0.00689290  0.39330985  0.75115964  1
  Hf  Hf7  1  0.11283433  0.50413630  0.64033323  1
  Hf  Hf8  1  -0.00088650  0.39494994  -0.00263906  1
  Hf  Hf9  1  0.19397691  0.00393083  -0.00874143  1
  Hf  Hf10  1  0.39893727  0.58707518  0.49981054  1
  Hf  Hf11  1  0.88541106  0.11395569  0.87200628  1
  Hf  Hf12  1  0.60548950  0.20235458  0.75173208  1
  Hf  Hf13  1  0.58976626  0.39429725  0.47797221  1
  Hf  Hf14  1  0.88760690  0.91149566  0.13982759  1
  Hf  Hf15  1  0.88550288  0.90845943  0.86485285  1
  Hf  Hf16  1  0.60059436  0.19592721  0.47432646  1
  Hf  Hf17  1  0.31127267  0.51395885  0.11083195  1
  Hf  Hf18  1  0.11631612  0.29870707  0.85159498  1
  Hf  Hf19  1  0.91155173  0.28589631  0.14023421  1
  Hf  Hf20  1  0.39213511  0.40400938  0.25262922  1
  Hf  Hf21  1  0.30409306  0.09618397  0.13266111  1
  Hf  Hf22  1  0.19862827  0.20381392  0.24615311  1
  Hf  Hf23  1  0.41422470  0.80904508  0.49059957  1
  Hf  Hf24  1  0.41258536  0.39542820  0.75069182  1
  Hf  Hf25  1  0.68700827  0.69467669  0.12884275  1
  Hf  Hf26  1  0.68608684  0.47725242  0.88164636  1
  Hf  Hf27  1  -0.00213372  0.80344798  0.25889596  1
  Hf  Hf28  1  0.81064270  -0.00364769  0.49138621  1
  Hf  Hf29  1  0.39637709  0.79848026  0.26729428  1
  Hf  Hf30  1  0.10770526  0.11150976  0.84368241  1
  Hf  Hf31  1  -0.00954955  0.01009015  0.27622470  1
  Hf  Hf32  1  -0.00525375  0.59893621  0.50847505  1
  Hf  Hf33  1  0.19943147  0.19848460  0.01042431  1
  Hf  Hf34  1  0.09741398  0.90629692  0.84900979  1
  Hf  Hf35  1  -0.01625625  0.79994157  0.73269169  1
  Hf  Hf36  1  0.32005670  0.29283061  0.88533375  1
  Hf  Hf37  1  0.59179502  -0.01034558  0.47773360  1
  Hf  Hf38  1  0.68558994  0.49680665  0.62226364  1
  Hf  Hf39  1  0.80608646  0.40003320  0.24021640  1
  Zr  Zr40  1  0.19444288  0.80548277  0.26889178  1
  Zr  Zr41  1  0.59346292  0.78749483  0.26219302  1
  Zr  Zr42  1  0.79640885  0.79944086  0.51989724  1
  Zr  Zr43  1  0.31123631  0.09566333  0.61624551  1
  Zr  Zr44  1  0.90946029  0.49388118  0.37617532  1
  Zr  Zr45  1  0.29337493  0.69873197  0.62621078  1
  Zr  Zr46  1  0.20450726  0.59635988  0.25495745  1
  Zr  Zr47  1  -0.00870720  0.01341587  0.72102179  1
  Zr  Zr48  1  0.80076886  0.60428108  0.24173440  1
  Zr  Zr49  1  0.52587874  0.31121894  0.89300834  1
  Zr  Zr50  1  0.78569566  0.61274355  0.74274014  1
  Zr  Zr51  1  0.40522906  0.00175009  0.75795517  1
  Zr  Zr52  1  0.62545754  0.20669261  0.02798394  1
  Zr  Zr53  1  0.41127166  0.19972660  0.49232846  1
  Zr  Zr54  1  0.00665064  0.20578631  -0.00905260  1
  Zr  Zr55  1  0.89054264  0.49292889  0.62265297  1
  Zr  Zr56  1  0.59027843  0.59512095  -0.00332028  1
  Zr  Zr57  1  0.20443848  0.61693987  -0.01326404  1
  Zr  Zr58  1  0.29381809  0.69585133  0.39081054  1
  Zr  Zr59  1  0.59671809  0.79244612  0.75093971  1
  Zr  Zr60  1  0.39417803  -0.01091768  -0.00878843  1
  Zr  Zr61  1  0.50382957  0.70032968  0.62579069  1
  Zr  Zr62  1  0.79647058  0.38419862  0.75528687  1
  Zr  Zr63  1  0.00208713  0.80808080  -0.00527232  1
  Zr  Zr64  1  0.50083679  0.09297866  0.13039454  1
  Zr  Zr65  1  0.20331024  0.81188554  -0.01928412  1
  Zr  Zr66  1  0.89011066  0.50408936  0.88873859  1
  Zr  Zr67  1  0.69108726  0.09879613  0.61176575  1
  Zr  Zr68  1  -0.01117378  0.60740200  0.74767807  1
  Zr  Zr69  1  0.49967286  0.11188743  0.89922661  1
  Zr  Zr70  1  0.29855960  0.30018083  0.37471599  1
  Zr  Zr71  1  0.88873040  0.70977278  0.37625541  1
  Zr  Zr72  1  0.39202459  0.59041553  0.74603657  1
  Zr  Zr73  1  0.69607342  0.89895046  0.86067223  1
  Zr  Zr74  1  -0.00099833  0.00463631  -0.00817204  1
  Zr  Zr75  1  0.70227182  0.08935850  0.88403974  1
  Zr  Zr76  1  0.70061223  0.30054042  0.61509513  1
  Zr  Zr77  1  0.69602806  0.50396460  0.35787480  1
  Zr  Zr78  1  0.58508590  0.79934199  0.00001355  1
  Zr  Zr79  1  0.10425775  0.70651692  0.12341621  1
  Ta  Ta80  1  0.00568626  0.19493489  0.51642476  1
  Ta  Ta81  1  0.89910504  0.09905290  0.12385674  1
  Ta  Ta82  1  0.10388420  0.90438133  0.61917692  1
  Ta  Ta83  1  0.49394506  0.89395217  0.13404235  1
  Ta  Ta84  1  0.09145925  0.51085942  0.11297024  1
  Ta  Ta85  1  0.19308165  0.00362840  0.26676620  1
  Ta  Ta86  1  0.50387355  0.30053363  0.13834519  1
  Ta  Ta87  1  0.91135945  0.29554097  0.37551460  1
  Ta  Ta88  1  0.30893870  0.30259698  0.62472769  1
  Ta  Ta89  1  0.39022989  0.79064537  -0.01654590  1
  Ta  Ta90  1  0.00722493  0.59738452  0.25723868  1
  Ta  Ta91  1  0.19701309  0.40623452  0.23400314  1
  Ta  Ta92  1  0.49588255  0.49909435  0.36181030  1
  Ta  Ta93  1  0.30906671  0.49999012  0.88809989  1
  Ta  Ta94  1  0.88870490  0.70558981  0.88879532  1
  Ta  Ta95  1  0.31185737  0.29797452  0.12278641  1
  Ta  Ta96  1  0.80041336  0.39682028  0.48582164  1
  Ta  Ta97  1  0.50587609  0.29694526  0.62467897  1
  Ta  Ta98  1  0.00924165  0.39166781  0.51515902  1
  Ta  Ta99  1  0.60482014  0.79692670  0.48476156  1
  Ta  Ta100  1  0.78830325  0.60217531  0.50275790  1
  Ta  Ta101  1  0.09175459  0.69836173  0.39303994  1
  Ta  Ta102  1  0.19377049  0.80470007  0.50127929  1
  Ta  Ta103  1  0.09970928  0.70436583  0.61883713  1
  Ta  Ta104  1  0.19710453  0.20435477  0.51346324  1
  Ta  Ta105  1  0.30137699  0.90050404  0.61460416  1
  Ta  Ta106  1  0.10691934  0.49554455  0.38135280  1
  Ta  Ta107  1  0.79073977  0.38162707  0.01852084  1
  Ta  Ta108  1  0.49328472  0.09814873  0.35203324  1
  Ta  Ta109  1  0.29631155  0.91487212  0.39497515  1
  Ta  Ta110  1  0.70807508  0.29927901  0.36009772  1
  Ta  Ta111  1  0.79605243  0.00428486  0.72407437  1
  Ta  Ta112  1  0.59633026  0.60454770  0.48429475  1
  Ta  Ta113  1  0.08948383  0.10328113  0.14010481  1
  Ta  Ta114  1  0.09680222  0.91503489  0.13568741  1
  Ta  Ta115  1  0.80244635  0.19799082  0.48274395  1
  Ta  Ta116  1  0.60963667  0.19526268  0.25142540  1
  Ta  Ta117  1  0.20330866  0.40035330  0.51212507  1
  Ta  Ta118  1  0.71808201  0.88770744  0.35767458  1
  Ta  Ta119  1  0.50869274  0.50478895  0.14151270  1
  Ti  Ti120  1  0.40063334  0.60523107  0.26415737  1
  Ti  Ti121  1  -0.01773773  0.20532115  0.73458013  1
  Ti  Ti122  1  0.20986215  0.00160939  0.73827882  1
  Ti  Ti123  1  0.59371022  0.59172311  0.75672035  1
  Ti  Ti124  1  0.22453908  0.40844997  0.74683292  1
  Ti  Ti125  1  0.50210690  0.48990071  0.62114915  1
  Ti  Ti126  1  0.89297821  0.29516743  0.61022248  1
  Ti  Ti127  1  0.71991476  0.08375376  0.13703185  1
  Ti  Ti128  1  -0.00888390  0.81370530  0.50844334  1
  Ti  Ti129  1  0.48581416  0.69295522  0.86955459  1
  Ti  Ti130  1  0.81094444  0.18182129  0.26819069  1
  Ti  Ti131  1  0.09877917  0.11001793  0.38464470  1
  Ti  Ti132  1  0.41761992  0.40320792  0.01227242  1
  Ti  Ti133  1  0.20093259  0.79938607  0.74397074  1
  Ti  Ti134  1  0.09325170  0.70260941  0.86178707  1
  Ti  Ti135  1  0.30029362  0.10688152  0.87020992  1
  Ti  Ti136  1  0.01130727  0.40448365  0.23868790  1
  Ti  Ti137  1  0.41056657  0.19556123  0.74258976  1
  Ti  Ti138  1  0.79545716  0.79441467  0.73155673  1
  Ti  Ti139  1  0.61299719  -0.01587321  0.01900600  1
  Ti  Ti140  1  0.79017600  0.59211139  0.00911604  1
  Ti  Ti141  1  0.72524774  0.27971979  0.87948447  1
  Ti  Ti142  1  0.19082062  0.00973440  0.50423000  1
  Ti  Ti143  1  0.60825264  -0.00575540  0.25452146  1
  Ti  Ti144  1  0.70003384  0.69615929  0.88348121  1
  Ti  Ti145  1  0.50152494  0.90135802  0.87562127  1
  Ti  Ti146  1  0.39299429  0.80816064  0.75625931  1
  Ti  Ti147  1  0.59255085  0.00652169  0.74420643  1
  Ti  Ti148  1  0.90582062  0.50360542  0.11541760  1
  Ti  Ti149  1  0.19821921  0.59149217  0.50143940  1
  Ti  Ti150  1  0.48346903  0.69331766  0.12427988  1
  Ti  Ti151  1  0.11227839  0.29465438  0.64296295  1
  Ti  Ti152  1  0.39981591  0.39862583  0.49343087  1
  Ti  Ti153  1  0.09355843  0.90609587  0.39423912  1
  Ti  Ti154  1  0.49723776  0.49631036  0.88110492  1
  Ti  Ti155  1  0.30416480  0.70470331  0.12614167  1
  Ti  Ti156  1  0.39290525  -0.00734805  0.26209661  1
  Ti  Ti157  1  0.29809835  0.10158344  0.37931960  1
  Ti  Ti158  1  0.49576207  0.91383164  0.62205229  1
  Ti  Ti159  1  0.68645925  0.89850328  0.62707190  1
  Mo  Mo160  1  -0.00545872  0.60152658  -0.01539901  1
  Mo  Mo161  1  0.71105039  0.29019554  0.15304980  1
  Mo  Mo162  1  0.40211341  0.60622591  -0.00756396  1
  Mo  Mo163  1  0.40355775  0.00277351  0.48772167  1
  Mo  Mo164  1  0.70143781  0.09526496  0.36803082  1
  Mo  Mo165  1  0.00680675  0.00174308  0.50146895  1
  Mo  Mo166  1  0.89551354  0.90341954  0.62811687  1
  Mo  Mo167  1  0.80544583  0.19291728  0.73338004  1
  Mo  Mo168  1  0.79717327  0.80138285  0.23385849  1
  Mo  Mo169  1  0.50609165  0.09989548  0.62393714  1
  Mo  Mo170  1  0.58858747  0.60053845  0.25606615  1
  Mo  Mo171  1  0.80689019  0.19778873  0.01998321  1
  Mo  Mo172  1  0.90921133  0.10589804  0.39482625  1
  Mo  Mo173  1  0.60760232  0.39962917  0.03268079  1
  Mo  Mo174  1  0.89831648  0.29660765  0.87848495  1
  Mo  Mo175  1  0.40457105  0.20404188  0.01841883  1
  Mo  Mo176  1  0.68956722  0.69559289  0.61610178  1
  Mo  Mo177  1  0.22351662  0.20379872  0.73546747  1
  Mo  Mo178  1  0.59988314  0.39619199  0.24810544  1
  Mo  Mo179  1  0.50042811  0.90470915  0.35805450  1
  Mo  Mo180  1  0.10433868  0.30474460  0.13789159  1
  Mo  Mo181  1  0.50329343  0.29916901  0.34983749  1
  Mo  Mo182  1  0.69144216  0.90261936  0.14464909  1
  Mo  Mo183  1  0.29762399  0.70206971  0.85212763  1
  Mo  Mo184  1  0.89725279  0.69887701  0.61165083  1
  Mo  Mo185  1  0.80010224  0.00416296  0.27070268  1
  Mo  Mo186  1  0.29826844  0.90079771  0.85513096  1
  Mo  Mo187  1  0.10751798  0.10746820  0.62882073  1
  Mo  Mo188  1  0.49766262  0.69370569  0.38287175  1
  Mo  Mo189  1  0.90254251  0.89805427  0.37388254  1
  Mo  Mo190  1  0.89538422  0.10874607  0.60947711  1
  Mo  Mo191  1  0.29276920  0.49255883  0.38609235  1
  Mo  Mo192  1  0.30258322  0.49092023  0.61578817  1
  Mo  Mo193  1  0.20010910  0.60474954  0.75971521  1
  Mo  Mo194  1  0.59564000  0.40177755  0.74626976  1
  Mo  Mo195  1  0.00211678  0.19827103  0.26037147  1
  Mo  Mo196  1  0.79405719  0.00340808  0.00574007  1
  Mo  Mo197  1  0.70027274  0.69952886  0.37806832  1
  Mo  Mo198  1  0.40148277  0.19740950  0.24954956  1
  Mo  Mo199  1  0.69812696  0.49472160  0.12594650  1
