# generated using pymatgen
data_HfZrTaTiMo
_symmetry_space_group_name_H-M   'P 1'
_cell_length_a   15.86413495
_cell_length_b   15.84462512
_cell_length_c   15.35482404
_cell_angle_alpha   90.02230281
_cell_angle_beta   89.94553838
_cell_angle_gamma   90.00235898
_symmetry_Int_Tables_number   1
_chemical_formula_structural   HfZrTaTiMo
_chemical_formula_sum   'Hf40 Zr40 Ta40 Ti40 Mo40'
_cell_volume   3859.60604865
_cell_formula_units_Z   40
loop_
 _symmetry_equiv_pos_site_id
 _symmetry_equiv_pos_as_xyz
  1  'x, y, z'
loop_
 _atom_site_type_symbol
 _atom_site_label
 _atom_site_symmetry_multiplicity
 _atom_site_fract_x
 _atom_site_fract_y
 _atom_site_fract_z
 _atom_site_occupancy
  Hf  Hf0  1  0.19796862  0.21363447  0.50617075  1
  Hf  Hf1  1  -0.01144227  0.20220325  0.25032623  1
  Hf  Hf2  1  0.40108774  0.20319182  0.01591349  1
  Hf  Hf3  1  0.90320638  0.28830148  0.90088182  1
  Hf  Hf4  1  0.19807627  0.59599939  0.50066551  1
  Hf  Hf5  1  0.20216307  -0.02165033  0.48639591  1
  Hf  Hf6  1  0.10483970  0.49707776  0.89106282  1
  Hf  Hf7  1  0.19018612  0.78861964  0.50270010  1
  Hf  Hf8  1  0.60209234  0.20342514  0.48811763  1
  Hf  Hf9  1  0.60606748  0.59932933  -0.00773906  1
  Hf  Hf10  1  0.79930734  0.39557917  0.75559047  1
  Hf  Hf11  1  0.80614544  0.00601973  0.74470259  1
  Hf  Hf12  1  0.29005686  0.70853849  0.35602678  1
  Hf  Hf13  1  0.01098001  0.39788337  0.50529807  1
  Hf  Hf14  1  0.19237638  -0.00067120  0.74287178  1
  Hf  Hf15  1  0.50411309  0.90123037  0.11154623  1
  Hf  Hf16  1  0.90971549  0.49817870  0.36077855  1
  Hf  Hf17  1  0.29755064  0.50375111  0.35453500  1
  Hf  Hf18  1  0.40746352  0.59866835  -0.00129693  1
  Hf  Hf19  1  0.20772689  0.18838782  0.23519004  1
  Hf  Hf20  1  0.39856824  0.80332747  0.74663564  1
  Hf  Hf21  1  0.30030009  0.30972843  0.36969617  1
  Hf  Hf22  1  0.10155693  0.30868754  0.36112474  1
  Hf  Hf23  1  0.29932252  0.29146868  0.88085291  1
  Hf  Hf24  1  0.09834423  0.50460214  0.12072218  1
  Hf  Hf25  1  0.60704564  0.81047981  0.50727852  1
  Hf  Hf26  1  0.41394561  0.20399267  0.25457905  1
  Hf  Hf27  1  0.00713812  0.60439291  0.50374940  1
  Hf  Hf28  1  0.79697010  0.59555003  0.76288141  1
  Hf  Hf29  1  0.88760209  0.10226057  0.37741777  1
  Hf  Hf30  1  0.09366444  0.08745893  0.60616735  1
  Hf  Hf31  1  0.20252558  0.19906008  0.72532604  1
  Hf  Hf32  1  0.39768164  0.60689769  0.50429511  1
  Hf  Hf33  1  0.71920646  0.71815217  0.38284467  1
  Hf  Hf34  1  0.40393527  0.19826547  0.73041639  1
  Hf  Hf35  1  -0.00612098  -0.00547695  0.24935265  1
  Hf  Hf36  1  0.10476615  0.29014228  0.88165589  1
  Hf  Hf37  1  0.41026724  0.60685232  0.23243079  1
  Hf  Hf38  1  0.28447737  0.69455084  0.87303692  1
  Hf  Hf39  1  0.50433810  0.91031988  0.87096044  1
  Zr  Zr40  1  0.39817996  0.00747430  0.73643809  1
  Zr  Zr41  1  0.72151048  0.49577747  0.37248394  1
  Zr  Zr42  1  0.89872435  0.50090772  0.62858772  1
  Zr  Zr43  1  -0.00035028  0.19291848  0.73341837  1
  Zr  Zr44  1  0.29805140  0.90149703  0.11553638  1
  Zr  Zr45  1  0.09540465  0.69077997  0.34051308  1
  Zr  Zr46  1  0.49964127  0.70380571  0.38002402  1
  Zr  Zr47  1  0.30446732  0.49732722  0.63441044  1
  Zr  Zr48  1  0.50916677  0.31130748  0.61674702  1
  Zr  Zr49  1  0.89573872  0.90674365  0.88874779  1
  Zr  Zr50  1  0.41154743  0.59744552  0.75919048  1
  Zr  Zr51  1  -0.00046458  0.38530521  0.74514988  1
  Zr  Zr52  1  0.29004517  0.90714405  0.88116046  1
  Zr  Zr53  1  0.89559723  0.89381096  0.11473687  1
  Zr  Zr54  1  0.29242033  0.10406579  0.88294672  1
  Zr  Zr55  1  0.60165435  0.60147316  0.50001868  1
  Zr  Zr56  1  0.10550395  0.49763769  0.34511371  1
  Zr  Zr57  1  0.39384893  0.00465422  0.25920851  1
  Zr  Zr58  1  0.59561951  -0.00273769  0.26589351  1
  Zr  Zr59  1  0.60871433  0.38564627  0.25966199  1
  Zr  Zr60  1  0.87920519  0.88034536  0.36864581  1
  Zr  Zr61  1  0.40300196  0.80597051  0.24421414  1
  Zr  Zr62  1  0.80872470  0.20579406  0.73636317  1
  Zr  Zr63  1  0.29110219  0.49315792  0.88362104  1
  Zr  Zr64  1  0.60175982  0.21153883  0.01552448  1
  Zr  Zr65  1  0.70657618  0.10600816  0.87130743  1
  Zr  Zr66  1  0.02087955  0.19650086  0.03242101  1
  Zr  Zr67  1  0.41109809  0.39479045  0.76208249  1
  Zr  Zr68  1  0.09971138  0.09776761  0.37526928  1
  Zr  Zr69  1  0.60922297  0.60714170  0.24430370  1
  Zr  Zr70  1  0.30193147  0.49634358  0.12384392  1
  Zr  Zr71  1  0.10808455  0.50414331  0.64474512  1
  Zr  Zr72  1  0.80316169  0.60131565  0.22283704  1
  Zr  Zr73  1  0.78878391  -0.01868034  0.50720722  1
  Zr  Zr74  1  -0.01074983  0.79029264  0.49687480  1
  Zr  Zr75  1  0.40088219  0.79392336  -0.00691034  1
  Zr  Zr76  1  0.80911245  0.61251771  0.51032098  1
  Zr  Zr77  1  0.60710453  0.40967738  0.76776469  1
  Zr  Zr78  1  0.90746765  0.49451544  0.89528653  1
  Zr  Zr79  1  0.60846017  0.19519689  0.25735603  1
  Ta  Ta80  1  0.60572061  0.80557264  0.25473905  1
  Ta  Ta81  1  -0.00104015  0.60638141  0.76895385  1
  Ta  Ta82  1  0.69539549  0.90319646  0.87233397  1
  Ta  Ta83  1  0.50141919  0.11096536  0.87785862  1
  Ta  Ta84  1  0.40071919  0.20410366  0.50339385  1
  Ta  Ta85  1  0.09728468  0.70167491  0.64883323  1
  Ta  Ta86  1  0.18657126  0.01665519  0.02188717  1
  Ta  Ta87  1  0.78479641  -0.00033033  0.24076131  1
  Ta  Ta88  1  0.60282770  0.59786534  0.76241641  1
  Ta  Ta89  1  0.00193809  0.00474120  0.01432120  1
  Ta  Ta90  1  0.18605090  0.80295912  0.00226704  1
  Ta  Ta91  1  0.08946398  0.89154892  0.62896643  1
  Ta  Ta92  1  0.20158405  -0.01046538  0.25156730  1
  Ta  Ta93  1  0.41794107  0.39041925  -0.00539440  1
  Ta  Ta94  1  -0.00229999  -0.00170761  0.75089289  1
  Ta  Ta95  1  0.68917139  0.89838861  0.11165018  1
  Ta  Ta96  1  0.70887030  0.30859463  0.60619263  1
  Ta  Ta97  1  0.50218338  0.09653540  0.12310764  1
  Ta  Ta98  1  0.38782732  0.80548170  0.51039976  1
  Ta  Ta99  1  0.90006747  0.70463082  0.88850360  1
  Ta  Ta100  1  0.78809549  0.79643670  0.22560166  1
  Ta  Ta101  1  0.69407007  0.10534442  0.62106273  1
  Ta  Ta102  1  0.19763950  0.37615578  0.02039578  1
  Ta  Ta103  1  0.80260874  0.80403462  0.75278115  1
  Ta  Ta104  1  0.70384946  0.30047638  0.89134045  1
  Ta  Ta105  1  0.79521867  0.39506220  0.01418415  1
  Ta  Ta106  1  0.09673699  0.09729976  0.87782934  1
  Ta  Ta107  1  0.59455055  0.00123520  0.50418261  1
  Ta  Ta108  1  -0.00728591  0.20529373  0.49852937  1
  Ta  Ta109  1  0.70070751  0.70941659  0.87021328  1
  Ta  Ta110  1  0.40352075  0.40558355  0.49132970  1
  Ta  Ta111  1  0.60480278  0.40310964  0.48233794  1
  Ta  Ta112  1  0.28804343  0.69862085  0.64291726  1
  Ta  Ta113  1  0.50663676  0.48632933  0.12325796  1
  Ta  Ta114  1  0.60325242  0.20901035  0.74672248  1
  Ta  Ta115  1  0.69651350  0.70418203  0.64450758  1
  Ta  Ta116  1  -0.00124453  0.80450098  0.76702565  1
  Ta  Ta117  1  0.60149481  0.00977820  -0.00306417  1
  Ta  Ta118  1  0.79237936  0.01035139  0.01047307  1
  Ta  Ta119  1  -0.00239803  -0.01442583  0.48656842  1
  Ti  Ti120  1  0.49804249  0.90588754  0.62422664  1
  Ti  Ti121  1  0.70777569  0.09785801  0.38591913  1
  Ti  Ti122  1  0.88899893  0.10263410  0.12858270  1
  Ti  Ti123  1  0.30536479  0.08983376  0.60022957  1
  Ti  Ti124  1  0.90455711  0.49625372  0.11160079  1
  Ti  Ti125  1  0.48819240  0.89979941  0.39082739  1
  Ti  Ti126  1  0.09504100  0.89316411  0.12671708  1
  Ti  Ti127  1  0.90791422  0.10196466  0.88993788  1
  Ti  Ti128  1  -0.01071417  0.79112869  0.23503410  1
  Ti  Ti129  1  0.88073706  0.30783195  0.38104964  1
  Ti  Ti130  1  0.18750491  0.80346381  0.76066479  1
  Ti  Ti131  1  0.90621525  0.69817438  0.09984576  1
  Ti  Ti132  1  0.69103381  0.89919729  0.64911442  1
  Ti  Ti133  1  0.89807488  0.09415652  0.60303801  1
  Ti  Ti134  1  0.49626123  0.49744658  0.36403284  1
  Ti  Ti135  1  0.51010729  0.70902170  0.86896518  1
  Ti  Ti136  1  0.90178274  0.68984466  0.35496693  1
  Ti  Ti137  1  0.09365835  0.90808070  0.88659363  1
  Ti  Ti138  1  0.30205548  0.09560985  0.38849476  1
  Ti  Ti139  1  0.69747261  0.50015726  0.61854752  1
  Ti  Ti140  1  0.09478161  0.69680191  0.88849412  1
  Ti  Ti141  1  0.90385398  0.89605086  0.62711983  1
  Ti  Ti142  1  0.39966003  0.00960546  0.00004325  1
  Ti  Ti143  1  0.59322694  0.01610062  0.74167438  1
  Ti  Ti144  1  0.31213042  0.30649074  0.13728640  1
  Ti  Ti145  1  0.20308130  0.38482704  0.74026692  1
  Ti  Ti146  1  0.69655190  0.49100383  0.12030019  1
  Ti  Ti147  1  0.28536639  0.69914257  0.12044113  1
  Ti  Ti148  1  0.50402370  0.70501030  0.63143365  1
  Ti  Ti149  1  0.09422701  0.69814660  0.11520621  1
  Ti  Ti150  1  0.79097560  0.21407191  0.23778238  1
  Ti  Ti151  1  0.90329583  0.70640912  0.64499461  1
  Ti  Ti152  1  0.29056028  0.89400421  0.62690382  1
  Ti  Ti153  1  0.78768944  0.79794414  0.00008438  1
  Ti  Ti154  1  0.79493188  0.59846977  -0.00041007  1
  Ti  Ti155  1  0.50894716  0.50448701  0.62078589  1
  Ti  Ti156  1  -0.01306344  0.39119233  0.22859799  1
  Ti  Ti157  1  0.10190440  0.88125853  0.35721582  1
  Ti  Ti158  1  0.52079438  0.71002810  0.11487239  1
  Ti  Ti159  1  0.49040086  0.09619269  0.39434010  1
  Mo  Mo160  1  0.80300133  0.19534792  0.01600121  1
  Mo  Mo161  1  0.20122472  0.60477869  0.22599908  1
  Mo  Mo162  1  0.60165734  0.40206298  -0.00681440  1
  Mo  Mo163  1  0.09713456  0.08844785  0.15022098  1
  Mo  Mo164  1  0.70140778  0.30229058  0.11818711  1
  Mo  Mo165  1  0.69413035  0.90156894  0.37106535  1
  Mo  Mo166  1  0.70737519  0.50075326  0.89144448  1
  Mo  Mo167  1  0.20653956  0.19688491  0.02455244  1
  Mo  Mo168  1  0.20959843  0.40191364  0.50958542  1
  Mo  Mo169  1  -0.00911700  0.60210425  0.22057012  1
  Mo  Mo170  1  0.49947902  0.30699362  0.13571047  1
  Mo  Mo171  1  0.89777043  0.29798179  0.60566060  1
  Mo  Mo172  1  0.69955747  0.70749683  0.10752389  1
  Mo  Mo173  1  0.19193194  0.80373161  0.22532565  1
  Mo  Mo174  1  -0.00274035  0.60382106  -0.00206168  1
  Mo  Mo175  1  0.39902623  -0.00608734  0.50382527  1
  Mo  Mo176  1  0.50476834  0.50040485  0.89166247  1
  Mo  Mo177  1  0.59767107  0.80427559  0.74932554  1
  Mo  Mo178  1  0.80519463  0.39233398  0.22743817  1
  Mo  Mo179  1  0.49863107  0.30280918  0.38722020  1
  Mo  Mo180  1  0.30403064  0.30700476  0.60937942  1
  Mo  Mo181  1  0.20521565  0.39502567  0.23097700  1
  Mo  Mo182  1  0.10077693  0.29994926  0.61660432  1
  Mo  Mo183  1  0.71585464  0.29526803  0.38761377  1
  Mo  Mo184  1  0.79401487  0.80036560  0.53505139  1
  Mo  Mo185  1  0.41100990  0.40163863  0.25531653  1
  Mo  Mo186  1  0.19924708  0.60684111  0.00711869  1
  Mo  Mo187  1  0.29659467  0.89283242  0.37396062  1
  Mo  Mo188  1  0.69974847  0.09631163  0.12820165  1
  Mo  Mo189  1  0.80430528  0.40332303  0.50606974  1
  Mo  Mo190  1  0.19216424  0.60462152  0.76233123  1
  Mo  Mo191  1  0.50550232  0.29178226  0.86774068  1
  Mo  Mo192  1  0.00444838  0.80285980  -0.00816096  1
  Mo  Mo193  1  0.10262837  0.30205735  0.14490521  1
  Mo  Mo194  1  0.50671571  0.10113769  0.61308249  1
  Mo  Mo195  1  0.00198942  0.39459829  0.01633332  1
  Mo  Mo196  1  0.80172476  0.19775688  0.50711305  1
  Mo  Mo197  1  0.30459209  0.09794741  0.12253544  1
  Mo  Mo198  1  0.60296609  0.80564155  -0.01995145  1
  Mo  Mo199  1  0.89736984  0.29971321  0.11943729  1
