# generated using pymatgen
data_HfZrTaTiMo
_symmetry_space_group_name_H-M   'P 1'
_cell_length_a   15.82879668
_cell_length_b   15.83612024
_cell_length_c   15.38042181
_cell_angle_alpha   89.93948436
_cell_angle_beta   90.06826368
_cell_angle_gamma   89.81717226
_symmetry_Int_Tables_number   1
_chemical_formula_structural   HfZrTaTiMo
_chemical_formula_sum   'Hf40 Zr40 Ta40 Ti40 Mo40'
_cell_volume   3855.33547339
_cell_formula_units_Z   40
loop_
 _symmetry_equiv_pos_site_id
 _symmetry_equiv_pos_as_xyz
  1  'x, y, z'
loop_
 _atom_site_type_symbol
 _atom_site_label
 _atom_site_symmetry_multiplicity
 _atom_site_fract_x
 _atom_site_fract_y
 _atom_site_fract_z
 _atom_site_occupancy
  Hf  Hf0  1  0.91723602  0.70317509  0.38713478  1
  Hf  Hf1  1  0.30788701  0.89182688  0.36610339  1
  Hf  Hf2  1  0.69827358  0.89956044  0.63712290  1
  Hf  Hf3  1  0.48323702  0.10234874  0.37991154  1
  Hf  Hf4  1  0.28451578  0.30939090  0.89074752  1
  Hf  Hf5  1  0.20593770  0.40416427  0.49633101  1
  Hf  Hf6  1  0.90148416  0.89564343  0.87902028  1
  Hf  Hf7  1  0.60398674  0.60218767  0.25124133  1
  Hf  Hf8  1  0.39978635  0.59487153  0.74802536  1
  Hf  Hf9  1  0.69998994  0.70257880  0.10973460  1
  Hf  Hf10  1  0.29545446  0.70191876  0.86570396  1
  Hf  Hf11  1  0.30577922  0.49762575  0.12900752  1
  Hf  Hf12  1  0.90000648  0.90474206  0.38605733  1
  Hf  Hf13  1  0.80172546  0.39409856  0.50028383  1
  Hf  Hf14  1  0.91719713  0.48358359  0.87709557  1
  Hf  Hf15  1  -0.00336520  -0.00322258  0.23971758  1
  Hf  Hf16  1  0.79251904  0.39798328  0.01200404  1
  Hf  Hf17  1  0.90826940  0.69640327  0.88476082  1
  Hf  Hf18  1  0.20794149  0.80118378  0.50840725  1
  Hf  Hf19  1  0.10401425  0.70139981  0.62679786  1
  Hf  Hf20  1  0.79800613  -0.00546484  0.00773257  1
  Hf  Hf21  1  -0.00381335  0.19669756  0.02005669  1
  Hf  Hf22  1  0.20250792  0.59897201  0.00415730  1
  Hf  Hf23  1  0.08761783  0.31901772  0.88257534  1
  Hf  Hf24  1  0.79942374  0.58624426  -0.00249587  1
  Hf  Hf25  1  0.50584810  0.70507115  0.10474753  1
  Hf  Hf26  1  0.79694441  0.19858176  0.50207302  1
  Hf  Hf27  1  0.59461111  0.21545909  0.73172897  1
  Hf  Hf28  1  0.01245175  0.58378374  0.74675632  1
  Hf  Hf29  1  0.00342804  0.60731029  0.24172871  1
  Hf  Hf30  1  0.89769053  0.30420417  0.36304591  1
  Hf  Hf31  1  0.39479390  0.20934390  0.74444449  1
  Hf  Hf32  1  0.49682803  0.09461250  0.12267453  1
  Hf  Hf33  1  0.89336232  0.29356927  0.87610456  1
  Hf  Hf34  1  0.70732694  0.08649902  0.36368331  1
  Hf  Hf35  1  0.09580759  0.50553222  0.37713578  1
  Hf  Hf36  1  0.19926315  0.61071390  0.25101875  1
  Hf  Hf37  1  0.70443073  0.71352870  0.89024134  1
  Hf  Hf38  1  0.01139602  0.80135912  0.24113308  1
  Hf  Hf39  1  0.67729019  0.31239485  0.87105290  1
  Zr  Zr40  1  0.51446217  0.69641127  0.63531554  1
  Zr  Zr41  1  0.80621485  0.79671237  0.74693444  1
  Zr  Zr42  1  0.20071931  0.40068565  0.25225254  1
  Zr  Zr43  1  0.50300493  0.11077699  0.87481286  1
  Zr  Zr44  1  0.70352538  0.50784186  0.61452032  1
  Zr  Zr45  1  0.81327362  0.79223339  0.24419919  1
  Zr  Zr46  1  0.39433762  0.00376905  0.25085325  1
  Zr  Zr47  1  -0.00505329  0.20473605  0.73841813  1
  Zr  Zr48  1  0.60082659  0.39825171  0.49137770  1
  Zr  Zr49  1  0.79178589  0.19855762  0.01497820  1
  Zr  Zr50  1  0.59781837  -0.00442293  0.50124892  1
  Zr  Zr51  1  0.60292579  0.20192165  0.49918441  1
  Zr  Zr52  1  0.68936895  0.08750444  0.13694435  1
  Zr  Zr53  1  0.70686290  0.69648816  0.62079966  1
  Zr  Zr54  1  0.29282578  0.11016568  0.87721183  1
  Zr  Zr55  1  0.40042248  0.79566503  0.52228866  1
  Zr  Zr56  1  0.09716825  0.30369865  0.60797787  1
  Zr  Zr57  1  0.10081099  0.70454652  0.87446990  1
  Zr  Zr58  1  0.30849442  0.71715014  0.12305493  1
  Zr  Zr59  1  0.09716503  0.11238329  0.87662366  1
  Zr  Zr60  1  0.71388698  0.49374726  0.36621319  1
  Zr  Zr61  1  0.68912414  0.89401037  0.13473747  1
  Zr  Zr62  1  0.20000992  0.00354806  0.48908405  1
  Zr  Zr63  1  0.89864840  0.09503343  0.87364964  1
  Zr  Zr64  1  0.28791449  0.09922692  0.63768783  1
  Zr  Zr65  1  0.70520837  0.10597651  0.86471600  1
  Zr  Zr66  1  0.39266565  -0.00662143  0.51062679  1
  Zr  Zr67  1  0.70076133  0.89692814  0.36737888  1
  Zr  Zr68  1  0.19877378  -0.00417398  -0.00628565  1
  Zr  Zr69  1  0.40594589  0.59355084  -0.00961588  1
  Zr  Zr70  1  0.49396090  0.89656683  0.12200160  1
  Zr  Zr71  1  0.38628132  0.39300981  0.73317539  1
  Zr  Zr72  1  0.70458523  0.69884195  0.38327659  1
  Zr  Zr73  1  0.40066614  0.20919168  0.00780065  1
  Zr  Zr74  1  0.79295142  0.40246015  0.74485358  1
  Zr  Zr75  1  0.50643299  0.47054072  0.86902920  1
  Zr  Zr76  1  0.62190056  0.58838621  0.76825546  1
  Zr  Zr77  1  0.81129120  0.19243159  0.24176187  1
  Zr  Zr78  1  0.59051891  0.20190216  0.26085115  1
  Zr  Zr79  1  0.30119604  0.29591042  0.37635697  1
  Ta  Ta80  1  0.28827599  0.49235886  0.87753110  1
  Ta  Ta81  1  0.39621084  -0.00389878  0.75754480  1
  Ta  Ta82  1  0.09299484  0.10411519  0.36568721  1
  Ta  Ta83  1  0.38946776  0.20090206  0.51140067  1
  Ta  Ta84  1  0.39706871  0.80108312  0.75287399  1
  Ta  Ta85  1  0.59665420  0.39650279  0.02423950  1
  Ta  Ta86  1  -0.00113085  0.40532901  0.24610650  1
  Ta  Ta87  1  0.80576181  0.80052194  0.50939694  1
  Ta  Ta88  1  0.19369432  -0.00373745  0.25543850  1
  Ta  Ta89  1  0.09559016  0.09915033  0.62489160  1
  Ta  Ta90  1  0.30632219  0.69822945  0.37140253  1
  Ta  Ta91  1  0.09150415  0.29440081  0.37309847  1
  Ta  Ta92  1  -0.00361165  -0.00027517  0.74193785  1
  Ta  Ta93  1  0.90435951  0.09572906  0.37255564  1
  Ta  Ta94  1  0.49315180  0.70286856  0.37997878  1
  Ta  Ta95  1  0.18396043  0.41095801  0.73802186  1
  Ta  Ta96  1  0.10286961  0.71172528  0.10723347  1
  Ta  Ta97  1  0.39952623  0.59578202  0.50467703  1
  Ta  Ta98  1  0.90517700  0.90087660  0.62074248  1
  Ta  Ta99  1  0.69716673  0.30473896  0.14432014  1
  Ta  Ta100  1  0.01420254  0.58150524  0.00783294  1
  Ta  Ta101  1  -0.00587452  0.19544267  0.49754788  1
  Ta  Ta102  1  0.48639637  0.30947059  0.37710501  1
  Ta  Ta103  1  0.00575018  0.59868174  0.50762948  1
  Ta  Ta104  1  0.59594914  0.40082516  0.25381580  1
  Ta  Ta105  1  0.39495778  0.81312735  -0.02412266  1
  Ta  Ta106  1  0.40648992  0.60521685  0.25096068  1
  Ta  Ta107  1  0.19134101  -0.00884126  0.75981824  1
  Ta  Ta108  1  0.81037349  0.59557280  0.24036883  1
  Ta  Ta109  1  0.20788926  0.60581658  0.49728395  1
  Ta  Ta110  1  0.49708326  0.09489634  0.62992263  1
  Ta  Ta111  1  0.19479497  0.80299826  0.25545180  1
  Ta  Ta112  1  0.50153471  0.50021091  0.13403896  1
  Ta  Ta113  1  0.50523798  0.90029449  0.64753763  1
  Ta  Ta114  1  0.10106994  0.90362417  0.62571028  1
  Ta  Ta115  1  0.29166315  0.10098713  0.12330931  1
  Ta  Ta116  1  0.59976443  -0.00576049  -0.01776356  1
  Ta  Ta117  1  0.90589758  0.69969312  0.10020905  1
  Ta  Ta118  1  0.10411859  0.10093906  0.13230920  1
  Ta  Ta119  1  0.50664879  0.70375154  0.87638734  1
  Ti  Ti120  1  0.50502136  0.49700215  0.62404430  1
  Ti  Ti121  1  0.00932690  -0.00883743  0.00780804  1
  Ti  Ti122  1  0.19999342  0.19404017  0.25084173  1
  Ti  Ti123  1  0.19680166  0.19391079  0.49392070  1
  Ti  Ti124  1  0.90374423  0.49582061  0.12577308  1
  Ti  Ti125  1  0.69951429  0.09473729  0.63270290  1
  Ti  Ti126  1  0.29778772  0.50232511  0.61749842  1
  Ti  Ti127  1  0.17751486  0.41086682  0.01878440  1
  Ti  Ti128  1  0.79847376  0.19722610  0.72960178  1
  Ti  Ti129  1  0.58778861  0.79330850  0.25630156  1
  Ti  Ti130  1  -0.00832733  0.40740395  0.49460369  1
  Ti  Ti131  1  0.59311342  0.21206152  0.01135649  1
  Ti  Ti132  1  0.90282181  0.69377251  0.62722957  1
  Ti  Ti133  1  0.90470106  0.89124744  0.11120821  1
  Ti  Ti134  1  0.50670144  0.89676389  0.86450315  1
  Ti  Ti135  1  0.00057177  0.00565175  0.50624102  1
  Ti  Ti136  1  0.19617933  0.21706852  0.74209860  1
  Ti  Ti137  1  0.29754053  0.90164399  0.12901814  1
  Ti  Ti138  1  0.49958568  0.89572776  0.36854106  1
  Ti  Ti139  1  0.59770557  0.80212115  0.49997816  1
  Ti  Ti140  1  0.81864312  0.59195835  0.49011850  1
  Ti  Ti141  1  0.09754014  0.29918074  0.13660471  1
  Ti  Ti142  1  0.09149921  0.89133791  0.38918574  1
  Ti  Ti143  1  0.49157687  0.30730332  0.60460088  1
  Ti  Ti144  1  0.60212641  0.00239547  0.75859746  1
  Ti  Ti145  1  0.90483088  0.50043242  0.63269871  1
  Ti  Ti146  1  0.80460717  0.00455037  0.51460246  1
  Ti  Ti147  1  0.89988402  0.30330022  0.62246721  1
  Ti  Ti148  1  0.29253232  0.29967964  0.12359139  1
  Ti  Ti149  1  0.39664643  -0.00377345  -0.01327462  1
  Ti  Ti150  1  0.49066602  0.50020576  0.37046432  1
  Ti  Ti151  1  0.19654931  0.81675503  -0.00983999  1
  Ti  Ti152  1  0.20251075  0.59318872  0.74252551  1
  Ti  Ti153  1  0.00789307  0.80632908  0.74582811  1
  Ti  Ti154  1  0.40667038  0.39521070  0.00985268  1
  Ti  Ti155  1  0.31328297  0.50037971  0.37170984  1
  Ti  Ti156  1  0.90351120  0.30314806  0.13566629  1
  Ti  Ti157  1  0.60649983  0.57968963  -0.00544187  1
  Ti  Ti158  1  0.59407854  0.59903616  0.48854760  1
  Ti  Ti159  1  0.39224176  0.20665007  0.24234471  1
  Mo  Mo160  1  0.10852675  0.70681035  0.39245059  1
  Mo  Mo161  1  0.30176182  0.69109130  0.63916448  1
  Mo  Mo162  1  0.90038836  0.09721100  0.61643093  1
  Mo  Mo163  1  0.90414931  0.08793649  0.12645019  1
  Mo  Mo164  1  0.80327813  0.80297826  0.00416126  1
  Mo  Mo165  1  -0.00245577  0.39749285  0.02649783  1
  Mo  Mo166  1  0.10214291  0.50267030  0.60528252  1
  Mo  Mo167  1  0.60055511  0.80364739  0.76546792  1
  Mo  Mo168  1  0.59578508  0.81280683  -0.01769053  1
  Mo  Mo169  1  0.20104420  0.80322698  0.73920947  1
  Mo  Mo170  1  0.69880570  0.50151317  0.13678248  1
  Mo  Mo171  1  0.11053244  0.49466651  0.87779261  1
  Mo  Mo172  1  0.39950931  0.40878241  0.50625611  1
  Mo  Mo173  1  0.59372833  0.39738257  0.72497006  1
  Mo  Mo174  1  0.40256807  0.40067216  0.24441568  1
  Mo  Mo175  1  0.49441399  0.30173449  0.87935638  1
  Mo  Mo176  1  0.11205524  0.89998694  0.12642594  1
  Mo  Mo177  1  0.29058555  0.10552877  0.36340930  1
  Mo  Mo178  1  0.69991122  0.30021509  0.62886368  1
  Mo  Mo179  1  0.40020219  0.79369568  0.25178068  1
  Mo  Mo180  1  0.29274474  0.29982391  0.61078323  1
  Mo  Mo181  1  0.81600190  0.59758326  0.76216707  1
  Mo  Mo182  1  0.90652533  0.50327275  0.36675896  1
  Mo  Mo183  1  0.80405135  0.00469585  0.73526562  1
  Mo  Mo184  1  0.29811945  0.89736101  0.64735787  1
  Mo  Mo185  1  0.70020320  0.90704982  0.86310368  1
  Mo  Mo186  1  0.00622050  0.20073200  0.24622087  1
  Mo  Mo187  1  0.80185345  0.40370158  0.23700561  1
  Mo  Mo188  1  0.80984184  -0.00726803  0.23600638  1
  Mo  Mo189  1  0.00122566  0.39898064  0.73321877  1
  Mo  Mo190  1  0.29926587  0.89879981  0.86392988  1
  Mo  Mo191  1  0.70592700  0.49447260  0.87913275  1
  Mo  Mo192  1  0.00824385  0.80667380  0.00495266  1
  Mo  Mo193  1  0.09282898  0.90105036  0.86109071  1
  Mo  Mo194  1  0.00118399  0.80239028  0.51668660  1
  Mo  Mo195  1  0.10108799  0.50404573  0.13991915  1
  Mo  Mo196  1  0.19368375  0.20906482  0.02323098  1
  Mo  Mo197  1  0.49370992  0.30475927  0.14153283  1
  Mo  Mo198  1  0.69806772  0.29886231  0.35489307  1
  Mo  Mo199  1  0.59429791  -0.00717334  0.26810448  1
