# generated using pymatgen
data_HfZrTaTiMo
_symmetry_space_group_name_H-M   'P 1'
_cell_length_a   15.85240522
_cell_length_b   15.83491503
_cell_length_c   15.38716344
_cell_angle_alpha   89.98654708
_cell_angle_beta   90.07611350
_cell_angle_gamma   90.01582214
_symmetry_Int_Tables_number   1
_chemical_formula_structural   HfZrTaTiMo
_chemical_formula_sum   'Hf40 Zr40 Ta40 Ti40 Mo40'
_cell_volume   3862.50502868
_cell_formula_units_Z   40
loop_
 _symmetry_equiv_pos_site_id
 _symmetry_equiv_pos_as_xyz
  1  'x, y, z'
loop_
 _atom_site_type_symbol
 _atom_site_label
 _atom_site_symmetry_multiplicity
 _atom_site_fract_x
 _atom_site_fract_y
 _atom_site_fract_z
 _atom_site_occupancy
  Hf  Hf0  1  0.40361980  0.80091346  0.48845188  1
  Hf  Hf1  1  0.30232610  0.49323716  0.35920989  1
  Hf  Hf2  1  0.59036876  0.79978347  0.74743325  1
  Hf  Hf3  1  0.28837521  0.10778035  0.88470714  1
  Hf  Hf4  1  0.20100952  0.38626114  0.50472859  1
  Hf  Hf5  1  0.08875682  0.68991723  0.11845961  1
  Hf  Hf6  1  0.60630847  0.60503970  -0.01133731  1
  Hf  Hf7  1  0.89558389  0.09142907  0.62137596  1
  Hf  Hf8  1  0.10125037  0.09196154  0.61789687  1
  Hf  Hf9  1  0.00085139  0.39806375  0.25813908  1
  Hf  Hf10  1  0.90709931  0.89367832  0.61601666  1
  Hf  Hf11  1  0.71091986  0.70547656  0.86222332  1
  Hf  Hf12  1  0.39073446  0.00176927  0.74725775  1
  Hf  Hf13  1  0.79918097  0.00281416  0.26880827  1
  Hf  Hf14  1  0.69701921  0.09823076  0.39914603  1
  Hf  Hf15  1  0.39729831  0.79970206  0.23555886  1
  Hf  Hf16  1  0.70016143  0.10337554  0.62855485  1
  Hf  Hf17  1  0.30216213  0.50167668  0.63028677  1
  Hf  Hf18  1  0.09327962  0.70606227  0.59769428  1
  Hf  Hf19  1  0.50002447  0.29437896  0.38005394  1
  Hf  Hf20  1  0.40196491  0.18746623  0.23433802  1
  Hf  Hf21  1  0.20035022  0.60199218  0.75835960  1
  Hf  Hf22  1  0.19129969  0.79442867  0.76104549  1
  Hf  Hf23  1  0.70785555  0.09914204  0.86569146  1
  Hf  Hf24  1  -0.01473365  0.79371347  0.25995477  1
  Hf  Hf25  1  0.39947885  0.36793904  0.73931546  1
  Hf  Hf26  1  0.00915249  0.21152891  0.49815454  1
  Hf  Hf27  1  0.19342698  0.19168700  0.22291707  1
  Hf  Hf28  1  0.71093721  0.51536046  0.38142012  1
  Hf  Hf29  1  0.58495586  -0.00779313  0.51856825  1
  Hf  Hf30  1  0.00734113  0.20391251  0.73752625  1
  Hf  Hf31  1  0.11343191  0.10092474  0.37697642  1
  Hf  Hf32  1  -0.00648407  0.19558547  0.25548083  1
  Hf  Hf33  1  0.70889792  0.90306794  0.86380249  1
  Hf  Hf34  1  0.11120675  0.49542625  0.13579783  1
  Hf  Hf35  1  0.29860110  0.69284163  0.61925593  1
  Hf  Hf36  1  0.71413024  0.50402415  0.85654708  1
  Hf  Hf37  1  0.70363634  0.10325792  0.11508620  1
  Hf  Hf38  1  0.70995825  0.49493265  0.62200430  1
  Hf  Hf39  1  0.00158381  0.60204437  0.26934438  1
  Zr  Zr40  1  0.89146810  0.32085313  0.62043820  1
  Zr  Zr41  1  0.91235841  0.30662357  0.86450404  1
  Zr  Zr42  1  0.29064581  0.88796776  0.63220081  1
  Zr  Zr43  1  0.51588438  0.08540343  0.10465893  1
  Zr  Zr44  1  0.80143480  0.20467946  0.26674308  1
  Zr  Zr45  1  0.58934204  0.81600626  0.25646746  1
  Zr  Zr46  1  0.58177509  0.21824864  0.76028386  1
  Zr  Zr47  1  0.90369593  0.70479665  0.88571413  1
  Zr  Zr48  1  0.60590396  0.61453548  0.50977316  1
  Zr  Zr49  1  0.39611011  -0.00640323  0.51128903  1
  Zr  Zr50  1  0.68713113  0.91552170  0.12527334  1
  Zr  Zr51  1  0.60677792  0.40080448  -0.01696733  1
  Zr  Zr52  1  0.30127528  0.09434666  0.36245862  1
  Zr  Zr53  1  0.00672758  0.80214403  0.74702821  1
  Zr  Zr54  1  0.10209297  0.49375934  0.87819522  1
  Zr  Zr55  1  0.81490950  0.20373901  -0.01385557  1
  Zr  Zr56  1  0.00476527  0.60633407  0.74111465  1
  Zr  Zr57  1  0.00688506  0.41040116  0.48387658  1
  Zr  Zr58  1  -0.00199788  -0.00271933  0.25051979  1
  Zr  Zr59  1  0.40097383  0.79162794  0.77158721  1
  Zr  Zr60  1  0.41221520  0.39677226  0.24619253  1
  Zr  Zr61  1  0.90119549  0.90755908  0.86370109  1
  Zr  Zr62  1  0.00839242  0.39084148  0.00939569  1
  Zr  Zr63  1  0.28724285  0.90503540  0.88591149  1
  Zr  Zr64  1  -0.00467558  -0.00447826  0.47602789  1
  Zr  Zr65  1  0.70655976  0.71024017  0.13745737  1
  Zr  Zr66  1  0.38532307  0.19428717  0.51445116  1
  Zr  Zr67  1  0.09316605  0.09345411  0.87409600  1
  Zr  Zr68  1  0.70527618  0.50756012  0.13417796  1
  Zr  Zr69  1  0.60456961  0.19775223  0.25594433  1
  Zr  Zr70  1  0.50844105  0.29963595  0.11194274  1
  Zr  Zr71  1  0.70637704  0.30477885  0.12291009  1
  Zr  Zr72  1  0.58705689  -0.00037033  0.74905183  1
  Zr  Zr73  1  0.29710668  0.68967218  0.36012108  1
  Zr  Zr74  1  0.40327831  0.39718302  0.50156762  1
  Zr  Zr75  1  0.48630340  0.10494582  0.89161578  1
  Zr  Zr76  1  0.69051107  0.30866392  0.61705704  1
  Zr  Zr77  1  0.50559019  0.49627564  0.62903683  1
  Zr  Zr78  1  0.90356634  0.50662947  0.87341772  1
  Zr  Zr79  1  0.30561239  0.47953948  0.87757277  1
  Ta  Ta80  1  0.80748247  0.40768205  0.00422964  1
  Ta  Ta81  1  0.29474794  0.69499144  0.89826612  1
  Ta  Ta82  1  0.40497447  0.59520889  -0.00063155  1
  Ta  Ta83  1  0.30553091  0.50011784  0.12719959  1
  Ta  Ta84  1  0.20209098  -0.00843199  0.22460950  1
  Ta  Ta85  1  0.80734795  0.40856920  0.26078621  1
  Ta  Ta86  1  0.50806787  0.50605880  0.37600207  1
  Ta  Ta87  1  0.10324534  0.50441014  0.61741627  1
  Ta  Ta88  1  0.41341392  -0.01253949  0.23418457  1
  Ta  Ta89  1  0.50003282  0.08777852  0.37334450  1
  Ta  Ta90  1  0.59819747  0.80321888  -0.00743895  1
  Ta  Ta91  1  0.59482378  0.60511719  0.75222132  1
  Ta  Ta92  1  0.39901101  0.79573353  0.00751141  1
  Ta  Ta93  1  0.49731688  0.49642735  0.87263861  1
  Ta  Ta94  1  -0.00812714  -0.00076704  0.01707557  1
  Ta  Ta95  1  0.21255196  0.20222412  0.73298313  1
  Ta  Ta96  1  0.50675310  0.50184137  0.12021477  1
  Ta  Ta97  1  0.80352190  0.20638278  0.74635620  1
  Ta  Ta98  1  0.50429655  0.69772985  0.37152500  1
  Ta  Ta99  1  0.18592380  0.00028019  0.02502765  1
  Ta  Ta100  1  0.29717626  0.90146762  0.35766664  1
  Ta  Ta101  1  0.69393580  0.89942150  0.39134012  1
  Ta  Ta102  1  0.90555334  0.50987602  0.12750408  1
  Ta  Ta103  1  0.09862930  0.70081992  0.90245880  1
  Ta  Ta104  1  0.29322959  0.29030654  0.36522090  1
  Ta  Ta105  1  0.20805492  0.38292038  0.00963133  1
  Ta  Ta106  1  0.18917887  0.79645926  0.23959658  1
  Ta  Ta107  1  0.60833353  0.40560062  0.26178441  1
  Ta  Ta108  1  0.50415867  0.69707687  0.11756553  1
  Ta  Ta109  1  0.19683525  0.80538096  0.01845267  1
  Ta  Ta110  1  0.20001572  0.80354761  0.48140733  1
  Ta  Ta111  1  0.59475283  0.80270008  0.50967254  1
  Ta  Ta112  1  0.70843397  0.90152941  0.63036344  1
  Ta  Ta113  1  0.29598236  0.68916632  0.12049061  1
  Ta  Ta114  1  0.88452578  0.89380235  0.13468375  1
  Ta  Ta115  1  0.20366860  -0.00655532  0.50246897  1
  Ta  Ta116  1  0.79815302  0.80427128  0.00674380  1
  Ta  Ta117  1  0.89976789  0.30472651  0.13030892  1
  Ta  Ta118  1  0.11675478  0.29357799  0.86792184  1
  Ta  Ta119  1  0.80871594  0.61478864  0.72319497  1
  Ti  Ti120  1  0.89399978  0.30727060  0.38333004  1
  Ti  Ti121  1  0.80516853  -0.00156665  -0.00088388  1
  Ti  Ti122  1  0.11722912  0.50382855  0.36546500  1
  Ti  Ti123  1  0.00852005  0.40698081  0.73600628  1
  Ti  Ti124  1  0.10610037  0.89602201  0.36634081  1
  Ti  Ti125  1  0.80788119  0.60653665  0.00940994  1
  Ti  Ti126  1  0.59949612  0.60443838  0.25211682  1
  Ti  Ti127  1  0.11578479  0.29791479  0.36147551  1
  Ti  Ti128  1  0.40235688  0.59922655  0.49352104  1
  Ti  Ti129  1  0.89704234  0.69433826  0.40447276  1
  Ti  Ti130  1  0.69903895  0.31054692  0.39321204  1
  Ti  Ti131  1  -0.00782556  0.80802625  0.01620270  1
  Ti  Ti132  1  0.41121841  0.59987305  0.23972960  1
  Ti  Ti133  1  0.58756951  0.20179425  0.50745006  1
  Ti  Ti134  1  0.87990586  0.88631681  0.38780716  1
  Ti  Ti135  1  0.61085781  0.20726737  -0.01964307  1
  Ti  Ti136  1  0.90572153  0.51508606  0.59965555  1
  Ti  Ti137  1  0.49615995  0.90770904  0.89562499  1
  Ti  Ti138  1  0.80536473  0.20242211  0.49982254  1
  Ti  Ti139  1  0.09167995  0.90095979  0.89103568  1
  Ti  Ti140  1  0.40385472  0.60423565  0.76781401  1
  Ti  Ti141  1  0.81574362  0.61679080  0.25418565  1
  Ti  Ti142  1  0.70584779  0.71114478  0.37131820  1
  Ti  Ti143  1  0.71808858  0.31109226  0.86168361  1
  Ti  Ti144  1  0.78799256  0.78779873  0.51673023  1
  Ti  Ti145  1  0.89420649  0.10153965  0.12458778  1
  Ti  Ti146  1  0.90366256  0.09183825  0.85811342  1
  Ti  Ti147  1  0.29635349  0.30966535  0.13732622  1
  Ti  Ti148  1  0.59604635  0.40039467  0.75894637  1
  Ti  Ti149  1  0.18386611  -0.00874061  0.74340905  1
  Ti  Ti150  1  0.37706316  0.20773637  0.01829829  1
  Ti  Ti151  1  0.19868194  0.38992087  0.73890063  1
  Ti  Ti152  1  0.47046748  0.30304549  0.89697281  1
  Ti  Ti153  1  0.20115202  0.58963888  0.00063250  1
  Ti  Ti154  1  0.49058678  0.69945087  0.62547217  1
  Ti  Ti155  1  0.00689719  0.19609605  0.01059861  1
  Ti  Ti156  1  0.49089784  0.11195451  0.63730215  1
  Ti  Ti157  1  0.19975827  0.59603854  0.49081260  1
  Ti  Ti158  1  0.18946346  0.19998551  0.01809069  1
  Ti  Ti159  1  0.38562951  -0.01011777  0.02055620  1
  Mo  Mo160  1  0.30056423  0.09605310  0.11596714  1
  Mo  Mo161  1  0.79760523  0.80176039  0.26576425  1
  Mo  Mo162  1  0.20412547  0.39485246  0.24687093  1
  Mo  Mo163  1  0.89564467  0.70060362  0.11994486  1
  Mo  Mo164  1  0.19930191  0.19897549  0.50789870  1
  Mo  Mo165  1  0.60496972  -0.00029923  -0.02138471  1
  Mo  Mo166  1  0.10220138  0.89831213  0.60640714  1
  Mo  Mo167  1  0.08639843  0.09749201  0.12027597  1
  Mo  Mo168  1  0.80931219  0.40986483  0.74461511  1
  Mo  Mo169  1  0.80223952  0.79815131  0.72979465  1
  Mo  Mo170  1  0.69686176  0.70437492  0.63797919  1
  Mo  Mo171  1  0.09945001  0.30528145  0.63594469  1
  Mo  Mo172  1  0.10426127  0.70268901  0.37846142  1
  Mo  Mo173  1  0.49953190  0.69620633  0.89085634  1
  Mo  Mo174  1  0.29216898  0.09247432  0.63530969  1
  Mo  Mo175  1  0.90235129  0.70098168  0.60249117  1
  Mo  Mo176  1  0.80219594  0.60784631  0.50934860  1
  Mo  Mo177  1  0.49590471  0.90132513  0.37726928  1
  Mo  Mo178  1  0.39761218  0.40038413  0.01305009  1
  Mo  Mo179  1  0.09518225  0.29804738  0.13005270  1
  Mo  Mo180  1  0.79245002  -0.00734077  0.49954349  1
  Mo  Mo181  1  0.89848609  0.50744286  0.37679033  1
  Mo  Mo182  1  0.29107497  0.28950058  0.88489224  1
  Mo  Mo183  1  0.60041162  0.40420913  0.48253128  1
  Mo  Mo184  1  -0.00010502  0.59726491  0.00635098  1
  Mo  Mo185  1  0.00323721  0.80153978  0.47608659  1
  Mo  Mo186  1  0.01042576  0.59898501  0.48315245  1
  Mo  Mo187  1  0.39262791  0.19463880  0.74554058  1
  Mo  Mo188  1  0.59624415  0.00257605  0.26606647  1
  Mo  Mo189  1  0.50021984  0.89666034  0.10460832  1
  Mo  Mo190  1  0.50337080  0.29695939  0.61318400  1
  Mo  Mo191  1  0.89624373  0.10669624  0.39443295  1
  Mo  Mo192  1  0.29667599  0.89272412  0.12816191  1
  Mo  Mo193  1  0.80444480  0.00434885  0.73867769  1
  Mo  Mo194  1  0.00778918  -0.00258882  0.74734102  1
  Mo  Mo195  1  0.49684274  0.88928030  0.62993594  1
  Mo  Mo196  1  0.20510003  0.60091509  0.24325086  1
  Mo  Mo197  1  0.29499133  0.29592558  0.61608133  1
  Mo  Mo198  1  0.80293532  0.40694075  0.48153987  1
  Mo  Mo199  1  0.08747054  0.89284451  0.12980824  1
