# generated using pymatgen
data_HfZrTaTiMo
_symmetry_space_group_name_H-M   'P 1'
_cell_length_a   15.84906507
_cell_length_b   15.83221725
_cell_length_c   15.39380882
_cell_angle_alpha   90.01646066
_cell_angle_beta   90.00636106
_cell_angle_gamma   90.02495475
_symmetry_Int_Tables_number   1
_chemical_formula_structural   HfZrTaTiMo
_chemical_formula_sum   'Hf40 Zr40 Ta40 Ti40 Mo40'
_cell_volume   3862.70388166
_cell_formula_units_Z   40
loop_
 _symmetry_equiv_pos_site_id
 _symmetry_equiv_pos_as_xyz
  1  'x, y, z'
loop_
 _atom_site_type_symbol
 _atom_site_label
 _atom_site_symmetry_multiplicity
 _atom_site_fract_x
 _atom_site_fract_y
 _atom_site_fract_z
 _atom_site_occupancy
  Hf  Hf0  1  0.90077290  0.08524945  0.11000942  1
  Hf  Hf1  1  0.60427135  0.80167973  0.50604949  1
  Hf  Hf2  1  0.08136315  0.50644841  0.11195212  1
  Hf  Hf3  1  0.19742596  0.80473698  0.23719177  1
  Hf  Hf4  1  0.40059546  0.60312674  0.26875985  1
  Hf  Hf5  1  0.19143166  0.00857602  -0.00487965  1
  Hf  Hf6  1  0.88979436  0.08749220  0.87074750  1
  Hf  Hf7  1  -0.00631185  0.80480332  0.23850975  1
  Hf  Hf8  1  0.09168616  0.28395850  0.37309857  1
  Hf  Hf9  1  0.60262627  0.00034965  0.26251770  1
  Hf  Hf10  1  0.21029874  0.59478552  0.49395330  1
  Hf  Hf11  1  0.78780191  0.59709134  -0.01811722  1
  Hf  Hf12  1  0.80342338  0.79087269  0.24305503  1
  Hf  Hf13  1  0.39755380  0.20191930  -0.00193855  1
  Hf  Hf14  1  0.09284522  0.09695100  0.63605171  1
  Hf  Hf15  1  0.70423489  0.50402439  0.37455077  1
  Hf  Hf16  1  0.39958734  0.39607266  0.25573077  1
  Hf  Hf17  1  0.78997262  0.79801268  -0.00437401  1
  Hf  Hf18  1  0.70164894  0.50277712  0.62897093  1
  Hf  Hf19  1  0.40480822  0.80083705  0.00649604  1
  Hf  Hf20  1  0.51182420  0.90010140  0.86659504  1
  Hf  Hf21  1  -0.01065276  0.38388132  0.23519393  1
  Hf  Hf22  1  0.20730704  -0.00691041  0.23695630  1
  Hf  Hf23  1  0.70861358  0.50598784  0.13576097  1
  Hf  Hf24  1  0.82430231  0.19928295  0.25346031  1
  Hf  Hf25  1  0.18925954  -0.00182872  0.76723180  1
  Hf  Hf26  1  0.70893767  0.30418653  0.37737310  1
  Hf  Hf27  1  0.09756941  0.89922809  0.37973739  1
  Hf  Hf28  1  0.70470819  0.30690344  0.12918555  1
  Hf  Hf29  1  0.19605556  0.19584221  0.50589377  1
  Hf  Hf30  1  0.50502666  0.49715233  0.87132644  1
  Hf  Hf31  1  0.08587531  0.70388710  0.37777968  1
  Hf  Hf32  1  0.50538244  0.50000397  0.38535716  1
  Hf  Hf33  1  0.30054512  0.89271301  0.88034508  1
  Hf  Hf34  1  0.19702517  0.38089795  0.01608125  1
  Hf  Hf35  1  0.00052523  0.01520325  0.26455870  1
  Hf  Hf36  1  0.50339763  0.10095393  0.12781008  1
  Hf  Hf37  1  0.19252909  0.19139423  0.22995253  1
  Hf  Hf38  1  0.79826549  0.39217454  0.74829660  1
  Hf  Hf39  1  0.89717587  0.68571395  0.10684407  1
  Zr  Zr40  1  0.77737300  0.18598759  -0.00701721  1
  Zr  Zr41  1  0.09338041  0.48663753  0.37084150  1
  Zr  Zr42  1  0.20943929  0.19354346  0.00022020  1
  Zr  Zr43  1  0.20034157  0.20746301  0.75457496  1
  Zr  Zr44  1  0.01829125  0.18853199  0.00051588  1
  Zr  Zr45  1  0.71670083  0.70305769  0.38277070  1
  Zr  Zr46  1  0.49352739  0.89644551  0.36885104  1
  Zr  Zr47  1  0.50575659  0.29203684  0.60843868  1
  Zr  Zr48  1  0.39241645  -0.00423836  0.49736320  1
  Zr  Zr49  1  0.70185960  0.90419858  0.13398458  1
  Zr  Zr50  1  0.81542280  0.61638269  0.52368983  1
  Zr  Zr51  1  0.06558536  0.30325308  0.62882273  1
  Zr  Zr52  1  0.30441865  0.49674237  0.88037607  1
  Zr  Zr53  1  0.89064297  0.49913326  0.36604672  1
  Zr  Zr54  1  0.29189091  0.90105448  0.63539942  1
  Zr  Zr55  1  0.20450885  0.80544482  0.49534110  1
  Zr  Zr56  1  0.30035909  0.70224276  0.63449621  1
  Zr  Zr57  1  0.39675682  0.39685534  0.73204435  1
  Zr  Zr58  1  0.60439594  0.21002459  0.76052120  1
  Zr  Zr59  1  0.90230346  0.10458040  0.63212258  1
  Zr  Zr60  1  0.50804306  0.09491728  0.62348992  1
  Zr  Zr61  1  0.20046862  0.39767859  0.51468747  1
  Zr  Zr62  1  0.09624021  0.49066157  0.87955617  1
  Zr  Zr63  1  0.19712395  0.60090086  0.25871982  1
  Zr  Zr64  1  0.50061157  0.70149767  0.86013794  1
  Zr  Zr65  1  0.61295958  0.00935178  -0.00158928  1
  Zr  Zr66  1  0.70166603  0.91433422  0.62638629  1
  Zr  Zr67  1  0.80922931  0.39919410  0.51974301  1
  Zr  Zr68  1  0.39744571  0.00637594  0.75983148  1
  Zr  Zr69  1  0.39098278  0.19822704  0.49258181  1
  Zr  Zr70  1  0.09961499  0.70253454  0.63053950  1
  Zr  Zr71  1  0.59869650  0.20300207  0.25996501  1
  Zr  Zr72  1  0.50705346  0.50536733  0.13172792  1
  Zr  Zr73  1  0.89964042  0.29923561  0.88258837  1
  Zr  Zr74  1  0.70765003  0.91051386  0.85573993  1
  Zr  Zr75  1  0.20099733  0.60997615  -0.00694670  1
  Zr  Zr76  1  0.00282759  0.59044191  0.50958347  1
  Zr  Zr77  1  0.20301271  0.39383974  0.23990811  1
  Zr  Zr78  1  0.30580406  0.70198870  0.12799121  1
  Zr  Zr79  1  0.30426186  0.50407523  0.11875949  1
  Ta  Ta80  1  0.60363678  0.60986785  -0.00079157  1
  Ta  Ta81  1  0.89529439  0.30188372  0.10071773  1
  Ta  Ta82  1  0.89137704  0.49152799  0.11123217  1
  Ta  Ta83  1  0.50497506  0.10303002  0.87754565  1
  Ta  Ta84  1  0.70740014  0.09866598  0.14333272  1
  Ta  Ta85  1  0.90816228  0.29613043  0.39213029  1
  Ta  Ta86  1  0.69581228  0.70554291  0.85130093  1
  Ta  Ta87  1  0.60208410  0.79447536  0.00638445  1
  Ta  Ta88  1  0.80698303  0.00095068  0.49655387  1
  Ta  Ta89  1  0.81491071  0.80641746  0.73725872  1
  Ta  Ta90  1  0.39903297  0.20289416  0.75824770  1
  Ta  Ta91  1  0.41283918  0.60417346  -0.00184051  1
  Ta  Ta92  1  0.29681426  0.10353654  0.63488165  1
  Ta  Ta93  1  -0.01403516  0.60559853  0.24943126  1
  Ta  Ta94  1  0.39858753  0.59432027  0.73675218  1
  Ta  Ta95  1  0.50454540  0.89811592  0.63461790  1
  Ta  Ta96  1  0.81046045  -0.00294240  0.27063019  1
  Ta  Ta97  1  0.19328901  0.80562262  0.00281160  1
  Ta  Ta98  1  0.60084461  0.60482676  0.51015402  1
  Ta  Ta99  1  0.92312185  0.48424013  0.64459817  1
  Ta  Ta100  1  0.00059693  0.79886197  -0.01045818  1
  Ta  Ta101  1  0.50244642  0.70271463  0.62849750  1
  Ta  Ta102  1  0.39277348  0.19944147  0.24955602  1
  Ta  Ta103  1  0.70760306  0.89882950  0.38304474  1
  Ta  Ta104  1  0.60477542  0.39722526  0.50603731  1
  Ta  Ta105  1  0.20151390  0.59411224  0.75038021  1
  Ta  Ta106  1  0.40484379  0.39355717  0.00895876  1
  Ta  Ta107  1  0.19873767  0.40410455  0.73286122  1
  Ta  Ta108  1  0.69936928  0.10803030  0.62157513  1
  Ta  Ta109  1  0.60336344  0.40499879  0.00183790  1
  Ta  Ta110  1  0.00163134  0.59964323  0.76005461  1
  Ta  Ta111  1  0.59865882  0.59807679  0.73793327  1
  Ta  Ta112  1  0.39426873  0.00586602  0.00133525  1
  Ta  Ta113  1  0.40134742  0.60430803  0.49989314  1
  Ta  Ta114  1  0.50194766  0.30005686  0.38559435  1
  Ta  Ta115  1  0.00007099  0.00495217  0.49190733  1
  Ta  Ta116  1  0.19767905  0.00616967  0.49401943  1
  Ta  Ta117  1  0.40359296  0.79822514  0.50494382  1
  Ta  Ta118  1  0.60700733  0.61377258  0.25469394  1
  Ta  Ta119  1  0.00023427  0.80409238  0.75576219  1
  Ti  Ti120  1  0.50004987  0.30871644  0.87841184  1
  Ti  Ti121  1  0.50256986  0.30213449  0.12831959  1
  Ti  Ti122  1  0.80628783  0.59832479  0.75234765  1
  Ti  Ti123  1  0.80187667  0.19958790  0.50592562  1
  Ti  Ti124  1  0.39043176  0.82133408  0.24004588  1
  Ti  Ti125  1  0.89677169  0.88435959  0.39038346  1
  Ti  Ti126  1  0.60035993  0.40197363  0.25634026  1
  Ti  Ti127  1  -0.02108031  0.79157691  0.51816200  1
  Ti  Ti128  1  0.70998369  0.10244674  0.38050709  1
  Ti  Ti129  1  0.30237041  0.69740916  0.86864234  1
  Ti  Ti130  1  0.29559891  0.09252045  0.36299355  1
  Ti  Ti131  1  0.49306662  0.10188662  0.37133179  1
  Ti  Ti132  1  0.08475309  0.91146698  0.11128968  1
  Ti  Ti133  1  0.79648202  0.20334617  0.74702264  1
  Ti  Ti134  1  0.70288814  0.70705639  0.63849204  1
  Ti  Ti135  1  -0.00647636  -0.01329264  0.75645274  1
  Ti  Ti136  1  0.59636974  0.20659374  -0.00286855  1
  Ti  Ti137  1  0.60243770  0.79945516  0.25052410  1
  Ti  Ti138  1  0.09502743  0.30252875  0.86905474  1
  Ti  Ti139  1  0.89781422  0.90373666  0.10906832  1
  Ti  Ti140  1  0.69599992  0.30944027  0.88331252  1
  Ti  Ti141  1  0.39028991  0.40356532  0.50196422  1
  Ti  Ti142  1  0.60014239  0.39662590  0.73609055  1
  Ti  Ti143  1  0.18882330  0.79968633  0.76460808  1
  Ti  Ti144  1  0.69289983  0.49922820  0.86328096  1
  Ti  Ti145  1  0.30872506  0.71802210  0.37237710  1
  Ti  Ti146  1  0.90226800  0.49429220  0.88409311  1
  Ti  Ti147  1  0.60183742  0.00681377  0.48725645  1
  Ti  Ti148  1  0.40089734  0.79958660  0.74718533  1
  Ti  Ti149  1  0.49917072  0.50217028  0.61473198  1
  Ti  Ti150  1  0.49910701  0.90524318  0.12780814  1
  Ti  Ti151  1  0.89855732  0.70035947  0.87005461  1
  Ti  Ti152  1  0.09035155  0.69787506  0.11529387  1
  Ti  Ti153  1  0.89758062  0.89957925  0.88181633  1
  Ti  Ti154  1  0.30154895  0.30790949  0.87104390  1
  Ti  Ti155  1  0.29568019  0.30026074  0.37261645  1
  Ti  Ti156  1  0.50505992  0.70452472  0.38018194  1
  Ti  Ti157  1  0.09676309  0.69945433  0.87657220  1
  Ti  Ti158  1  0.09213177  0.90161821  0.61883451  1
  Ti  Ti159  1  0.50600092  0.70449075  0.13429416  1
  Mo  Mo160  1  0.30105705  0.90106083  0.10368320  1
  Mo  Mo161  1  -0.00306475  0.19736422  0.77041314  1
  Mo  Mo162  1  0.30934487  0.09362308  0.13044858  1
  Mo  Mo163  1  -0.00225344  0.39851187  0.76910618  1
  Mo  Mo164  1  0.29888485  0.89951881  0.37573531  1
  Mo  Mo165  1  0.78908678  0.40356409  -0.01398438  1
  Mo  Mo166  1  0.60375652  0.79995356  0.73499535  1
  Mo  Mo167  1  0.09532037  0.09138188  0.12569634  1
  Mo  Mo168  1  0.79864878  -0.00546192  0.00338679  1
  Mo  Mo169  1  0.00017874  0.19738218  0.23258400  1
  Mo  Mo170  1  0.70024234  0.29276679  0.61613895  1
  Mo  Mo171  1  0.80452273  0.00362824  0.73154809  1
  Mo  Mo172  1  0.10220662  0.50136428  0.64094048  1
  Mo  Mo173  1  0.30429918  0.10307780  0.86723791  1
  Mo  Mo174  1  0.39801177  0.00344577  0.24032426  1
  Mo  Mo175  1  0.89491662  0.29385492  0.62655886  1
  Mo  Mo176  1  0.30361556  0.50200313  0.61756866  1
  Mo  Mo177  1  0.09338598  0.29598952  0.12891369  1
  Mo  Mo178  1  -0.00401888  0.19146618  0.49720273  1
  Mo  Mo179  1  -0.00380563  0.39620524  0.00311282  1
  Mo  Mo180  1  0.80421217  0.39446913  0.24910506  1
  Mo  Mo181  1  -0.00061654  -0.01120450  -0.01652758  1
  Mo  Mo182  1  0.10310679  0.09832141  0.37746030  1
  Mo  Mo183  1  0.09049271  0.10032205  0.85783470  1
  Mo  Mo184  1  0.90868065  0.90210716  0.61729667  1
  Mo  Mo185  1  0.80421895  0.59917209  0.24332941  1
  Mo  Mo186  1  0.60749175  0.19339302  0.48154338  1
  Mo  Mo187  1  0.69830134  0.10066170  0.85376831  1
  Mo  Mo188  1  0.80703849  0.80622655  0.51957276  1
  Mo  Mo189  1  0.60129562  0.00940911  0.75173959  1
  Mo  Mo190  1  0.09213691  0.89387057  0.88047652  1
  Mo  Mo191  1  0.31148277  0.29665477  0.13043239  1
  Mo  Mo192  1  0.30214089  0.29514391  0.62813873  1
  Mo  Mo193  1  0.90246914  0.69485089  0.65339946  1
  Mo  Mo194  1  0.90078079  0.10526693  0.39007738  1
  Mo  Mo195  1  -0.00900008  0.60418352  -0.02195349  1
  Mo  Mo196  1  -0.00180496  0.39684463  0.49715850  1
  Mo  Mo197  1  0.90463396  0.70496073  0.37143828  1
  Mo  Mo198  1  0.30706444  0.49552473  0.39012247  1
  Mo  Mo199  1  0.69231791  0.69927029  0.12685621  1
