# generated using pymatgen
data_HfZrTaTiMo
_symmetry_space_group_name_H-M   'P 1'
_cell_length_a   15.84478982
_cell_length_b   15.83863633
_cell_length_c   15.41603432
_cell_angle_alpha   90.03951472
_cell_angle_beta   90.03782246
_cell_angle_gamma   89.85792298
_symmetry_Int_Tables_number   1
_chemical_formula_structural   HfZrTaTiMo
_chemical_formula_sum   'Hf40 Zr40 Ta40 Ti40 Mo40'
_cell_volume   3868.79221745
_cell_formula_units_Z   40
loop_
 _symmetry_equiv_pos_site_id
 _symmetry_equiv_pos_as_xyz
  1  'x, y, z'
loop_
 _atom_site_type_symbol
 _atom_site_label
 _atom_site_symmetry_multiplicity
 _atom_site_fract_x
 _atom_site_fract_y
 _atom_site_fract_z
 _atom_site_occupancy
  Hf  Hf0  1  0.40182189  0.40281947  0.77171946  1
  Hf  Hf1  1  0.10414785  0.50919625  0.38176420  1
  Hf  Hf2  1  0.10734921  0.52089330  0.61862882  1
  Hf  Hf3  1  0.60065439  0.00828132  0.49369939  1
  Hf  Hf4  1  0.87639650  0.50636354  0.35842746  1
  Hf  Hf5  1  0.29239584  0.11589987  0.11277928  1
  Hf  Hf6  1  0.49418297  0.29962156  0.62063902  1
  Hf  Hf7  1  0.78321782  0.40736257  0.50736246  1
  Hf  Hf8  1  0.70475818  0.29694662  0.87731722  1
  Hf  Hf9  1  0.69272323  0.89825227  0.12945664  1
  Hf  Hf10  1  0.20178418  0.40140131  0.74546557  1
  Hf  Hf11  1  0.28456559  0.89677780  0.38150084  1
  Hf  Hf12  1  0.10799576  0.90195953  0.62886862  1
  Hf  Hf13  1  0.60270462  0.79930326  0.74136171  1
  Hf  Hf14  1  0.49497915  0.89908185  0.12677836  1
  Hf  Hf15  1  -0.01499747  0.61780371  0.49283868  1
  Hf  Hf16  1  0.70586716  0.70035071  0.88755419  1
  Hf  Hf17  1  0.10326710  0.71273990  0.61907563  1
  Hf  Hf18  1  0.49024504  0.10302993  0.12445773  1
  Hf  Hf19  1  0.30022910  0.29289544  0.63072262  1
  Hf  Hf20  1  0.29821994  0.69721303  0.62835408  1
  Hf  Hf21  1  0.10217484  0.29838386  0.86816214  1
  Hf  Hf22  1  0.60126337  0.77853896  0.50887190  1
  Hf  Hf23  1  0.91363141  0.90686291  0.11127389  1
  Hf  Hf24  1  0.49845277  0.49602335  0.62490086  1
  Hf  Hf25  1  0.10598436  0.10402166  0.64501516  1
  Hf  Hf26  1  0.18904263  0.61274580  -0.00223168  1
  Hf  Hf27  1  0.10097315  0.09046934  0.11929823  1
  Hf  Hf28  1  0.60115184  0.59470931  0.75231938  1
  Hf  Hf29  1  0.80400752  0.02010210  0.49036456  1
  Hf  Hf30  1  -0.00442794  0.20303818  0.51117972  1
  Hf  Hf31  1  0.30781942  0.49924195  0.38991641  1
  Hf  Hf32  1  0.48955155  0.30705188  0.37466958  1
  Hf  Hf33  1  0.51198159  0.50551053  0.35944495  1
  Hf  Hf34  1  0.90920078  0.89599727  0.61352226  1
  Hf  Hf35  1  0.50390665  0.70853365  0.88237631  1
  Hf  Hf36  1  0.12013971  0.28867358  0.12575014  1
  Hf  Hf37  1  0.20024214  0.19273339  0.49502565  1
  Hf  Hf38  1  0.00344626  0.40565196  0.00878497  1
  Hf  Hf39  1  0.70146274  0.88553601  0.37162380  1
  Zr  Zr40  1  0.80851173  0.00303452  0.25148199  1
  Zr  Zr41  1  0.01870381  0.80883455  0.24669932  1
  Zr  Zr42  1  0.10675316  0.09214422  0.36752615  1
  Zr  Zr43  1  0.03855640  0.79740720  -0.00247914  1
  Zr  Zr44  1  0.49746031  0.10288210  0.63607557  1
  Zr  Zr45  1  0.50090523  0.89531301  0.37384210  1
  Zr  Zr46  1  0.70968205  0.50387676  0.87994906  1
  Zr  Zr47  1  0.70634612  0.89795223  0.61003984  1
  Zr  Zr48  1  0.80064222  0.19932960  0.23599722  1
  Zr  Zr49  1  0.08770765  0.50815599  0.86571155  1
  Zr  Zr50  1  0.38643516  0.79907164  0.25458076  1
  Zr  Zr51  1  -0.01250592  0.40289969  0.50774438  1
  Zr  Zr52  1  0.80720820  0.79405253  0.75138742  1
  Zr  Zr53  1  0.79635525  0.19951214  0.01256920  1
  Zr  Zr54  1  0.90592345  0.89650676  0.38348350  1
  Zr  Zr55  1  -0.00708416  0.40044745  0.72224176  1
  Zr  Zr56  1  0.48085637  0.29594923  0.12048316  1
  Zr  Zr57  1  0.69710020  0.49911083  0.14638907  1
  Zr  Zr58  1  0.91129543  0.68613847  0.89449081  1
  Zr  Zr59  1  0.68721216  0.29204639  0.63025786  1
  Zr  Zr60  1  0.70189639  0.67751007  0.35167068  1
  Zr  Zr61  1  0.39572805  0.00071388  0.49958190  1
  Zr  Zr62  1  0.20959317  0.39174207  0.25707049  1
  Zr  Zr63  1  0.41388482  0.61027556  0.49437616  1
  Zr  Zr64  1  0.39700968  0.59834933  -0.00833808  1
  Zr  Zr65  1  0.59618936  -0.00869498  0.75135085  1
  Zr  Zr66  1  0.00116692  0.20018632  -0.00160869  1
  Zr  Zr67  1  0.59412559  -0.00579701  -0.00747772  1
  Zr  Zr68  1  0.80224386  0.39932367  0.01238677  1
  Zr  Zr69  1  0.89929774  0.10002011  0.87590007  1
  Zr  Zr70  1  0.50128397  0.70492663  0.12544266  1
  Zr  Zr71  1  0.70204292  0.09524793  0.87004250  1
  Zr  Zr72  1  0.88420230  0.28974541  0.37853601  1
  Zr  Zr73  1  0.00311977  0.39449804  0.25516496  1
  Zr  Zr74  1  0.19250268  0.38985308  0.50558710  1
  Zr  Zr75  1  0.00290007  0.80738239  0.76740812  1
  Zr  Zr76  1  0.49364172  0.49383662  0.13221347  1
  Zr  Zr77  1  0.79813337  0.40271214  0.73739230  1
  Zr  Zr78  1  0.39288621  0.19281525  0.48786530  1
  Zr  Zr79  1  0.91671591  0.69740912  0.11964407  1
  Ta  Ta80  1  0.10513771  0.50767491  0.13238973  1
  Ta  Ta81  1  0.00557510  0.00998199  0.50107585  1
  Ta  Ta82  1  0.89583354  0.09766852  0.63388610  1
  Ta  Ta83  1  0.59069497  0.39770499  0.76972059  1
  Ta  Ta84  1  -0.00622471  0.20615979  0.74400435  1
  Ta  Ta85  1  0.58774459  0.20347678  0.76945495  1
  Ta  Ta86  1  0.30535606  0.50242630  0.62003610  1
  Ta  Ta87  1  0.70184820  0.11349274  0.36398343  1
  Ta  Ta88  1  0.59052402  0.40179717  -0.01032295  1
  Ta  Ta89  1  0.90114750  0.30583251  0.87149857  1
  Ta  Ta90  1  0.79780897  0.80172641  0.01033809  1
  Ta  Ta91  1  0.80539852  0.79779329  0.23404172  1
  Ta  Ta92  1  -0.00275459  0.00066430  0.75928652  1
  Ta  Ta93  1  0.38814238  0.00560209  0.25040294  1
  Ta  Ta94  1  0.90557651  0.50210059  0.14065741  1
  Ta  Ta95  1  0.29441182  0.49891931  0.11816584  1
  Ta  Ta96  1  0.28903454  0.50587533  0.87685838  1
  Ta  Ta97  1  0.48778751  0.09675719  0.87978082  1
  Ta  Ta98  1  0.01346860  0.60648572  0.25414697  1
  Ta  Ta99  1  0.39385225  0.20589175  0.77333093  1
  Ta  Ta100  1  0.28969311  0.09516322  0.87564674  1
  Ta  Ta101  1  0.37373422  0.20623232  0.26056297  1
  Ta  Ta102  1  0.61938104  0.58712282  0.50724133  1
  Ta  Ta103  1  0.59174154  0.20149560  -0.00543461  1
  Ta  Ta104  1  0.60087856  0.59577729  0.00523755  1
  Ta  Ta105  1  0.59820960  0.40240848  0.49066602  1
  Ta  Ta106  1  0.60583906  0.20084695  0.48586260  1
  Ta  Ta107  1  0.68000194  0.30232763  0.13124667  1
  Ta  Ta108  1  0.59645527  0.00488971  0.25768890  1
  Ta  Ta109  1  0.87665107  0.52950477  0.62164761  1
  Ta  Ta110  1  0.11784806  0.71145163  0.38642561  1
  Ta  Ta111  1  -0.00213645  0.18945465  0.24760786  1
  Ta  Ta112  1  0.90087510  0.70233465  0.35496762  1
  Ta  Ta113  1  0.68619236  0.10050817  0.13002564  1
  Ta  Ta114  1  0.81042354  0.77152123  0.49970451  1
  Ta  Ta115  1  0.50856894  0.69881188  0.35793347  1
  Ta  Ta116  1  0.20613391  0.00424394  0.51498671  1
  Ta  Ta117  1  0.80284821  -0.00734505  0.74949304  1
  Ta  Ta118  1  0.29614840  0.70746262  0.11470042  1
  Ta  Ta119  1  0.00405000  0.00015593  0.25341258  1
  Ti  Ti120  1  0.10775862  0.09875445  0.86442948  1
  Ti  Ti121  1  0.39243416  -0.00416395  -0.00520873  1
  Ti  Ti122  1  0.49429130  0.89506062  0.61812645  1
  Ti  Ti123  1  0.79448825  -0.00094384  0.00302107  1
  Ti  Ti124  1  0.89417633  0.90000110  0.88785654  1
  Ti  Ti125  1  0.69494856  0.31004799  0.36004670  1
  Ti  Ti126  1  0.69525871  0.70308602  0.12679405  1
  Ti  Ti127  1  0.38859414  0.81068020  -0.01080060  1
  Ti  Ti128  1  0.39852548  0.79562908  0.49553091  1
  Ti  Ti129  1  0.49620754  0.10284156  0.36395190  1
  Ti  Ti130  1  0.20099966  0.80277682  0.23500106  1
  Ti  Ti131  1  0.29991796  0.09717458  0.65099802  1
  Ti  Ti132  1  0.69909543  0.89169578  0.88377469  1
  Ti  Ti133  1  0.72521195  0.67310815  0.63238153  1
  Ti  Ti134  1  0.20097200  -0.01089812  0.23734728  1
  Ti  Ti135  1  0.80390773  0.59687773  0.01791158  1
  Ti  Ti136  1  0.90161200  0.50205244  0.87501365  1
  Ti  Ti137  1  0.10045968  0.29119359  0.36737954  1
  Ti  Ti138  1  0.80325707  0.20082382  0.74476867  1
  Ti  Ti139  1  0.20854793  0.61012725  0.25180244  1
  Ti  Ti140  1  0.90459382  0.09353508  0.11444770  1
  Ti  Ti141  1  0.39680352  -0.01103651  0.76179031  1
  Ti  Ti142  1  0.12381761  0.91077782  0.86389038  1
  Ti  Ti143  1  0.20203436  0.40055466  -0.00155406  1
  Ti  Ti144  1  0.01330068  -0.00468536  -0.01772475  1
  Ti  Ti145  1  0.11410617  0.69429026  0.85329647  1
  Ti  Ti146  1  0.21864769  0.80247576  0.76228796  1
  Ti  Ti147  1  0.69915694  0.10329156  0.63104449  1
  Ti  Ti148  1  0.58973020  0.20308593  0.25297547  1
  Ti  Ti149  1  0.90329594  0.30268869  0.13240910  1
  Ti  Ti150  1  0.38903836  0.60279733  0.24883087  1
  Ti  Ti151  1  0.38736851  0.39684282  0.24705974  1
  Ti  Ti152  1  -0.01132876  0.61085116  0.73674535  1
  Ti  Ti153  1  0.30421664  0.89713056  0.62884362  1
  Ti  Ti154  1  0.20630368  -0.01750045  0.00335074  1
  Ti  Ti155  1  0.39421370  0.60106527  0.76348077  1
  Ti  Ti156  1  0.39363672  0.39716542  -0.01335487  1
  Ti  Ti157  1  0.10310317  0.89916254  0.39429255  1
  Ti  Ti158  1  0.49500074  0.69734440  0.63435253  1
  Ti  Ti159  1  0.40540461  0.80548136  0.75926137  1
  Mo  Mo160  1  0.90557471  0.10136600  0.37603835  1
  Mo  Mo161  1  0.20670409  0.60712046  0.49420577  1
  Mo  Mo162  1  0.11594241  0.69724944  0.13751090  1
  Mo  Mo163  1  0.49801353  0.50443207  0.88123052  1
  Mo  Mo164  1  0.90461389  0.70632577  0.62727175  1
  Mo  Mo165  1  0.21119018  0.80704418  0.50817297  1
  Mo  Mo166  1  0.29632512  0.30073999  0.38674089  1
  Mo  Mo167  1  0.79337708  0.59902051  0.49148279  1
  Mo  Mo168  1  0.29868021  0.30669027  0.10558166  1
  Mo  Mo169  1  0.20780754  -0.00325419  0.74443017  1
  Mo  Mo170  1  0.49779994  0.89861347  0.87986014  1
  Mo  Mo171  1  0.20811213  0.60079078  0.75259282  1
  Mo  Mo172  1  0.80604534  0.60599511  0.22983395  1
  Mo  Mo173  1  0.29598194  0.30100167  0.88816365  1
  Mo  Mo174  1  0.30106934  0.90532815  0.12039702  1
  Mo  Mo175  1  0.21311280  0.80179941  -0.01169893  1
  Mo  Mo176  1  0.80692538  0.60109984  0.76273411  1
  Mo  Mo177  1  0.30565055  0.90331815  0.87278251  1
  Mo  Mo178  1  0.20180288  0.19968818  0.76357719  1
  Mo  Mo179  1  0.20023568  0.19555834  0.25822469  1
  Mo  Mo180  1  0.00539699  0.59092874  0.01382326  1
  Mo  Mo181  1  0.59337961  0.39145645  0.25814785  1
  Mo  Mo182  1  0.00519436  0.80410908  0.48893696  1
  Mo  Mo183  1  0.29883253  0.69945291  0.37888436  1
  Mo  Mo184  1  0.59249678  0.60286703  0.23073234  1
  Mo  Mo185  1  0.88944696  0.28723843  0.61635957  1
  Mo  Mo186  1  0.78940051  0.19960212  0.50611822  1
  Mo  Mo187  1  0.79746067  0.39309166  0.23934965  1
  Mo  Mo188  1  0.60292393  0.80232700  0.25157823  1
  Mo  Mo189  1  0.39449176  0.19683889  -0.01698037  1
  Mo  Mo190  1  0.60281891  0.79771582  -0.00137971  1
  Mo  Mo191  1  0.69079423  0.49627244  0.63788660  1
  Mo  Mo192  1  0.30180189  0.70301446  0.86748376  1
  Mo  Mo193  1  0.19999829  0.19778533  -0.01984084  1
  Mo  Mo194  1  0.40035942  0.40296955  0.50602125  1
  Mo  Mo195  1  0.10937053  0.90412713  0.11728207  1
  Mo  Mo196  1  0.09828250  0.29588857  0.63885807  1
  Mo  Mo197  1  0.29478419  0.09219408  0.36136094  1
  Mo  Mo198  1  0.69474897  0.49139753  0.35630277  1
  Mo  Mo199  1  0.49690033  0.29841154  0.89000987  1
