# generated using pymatgen
data_HfZrTaTiMo
_symmetry_space_group_name_H-M   'P 1'
_cell_length_a   15.84146853
_cell_length_b   15.83581712
_cell_length_c   15.39790322
_cell_angle_alpha   90.03801936
_cell_angle_beta   89.99648543
_cell_angle_gamma   90.00270234
_symmetry_Int_Tables_number   1
_chemical_formula_structural   HfZrTaTiMo
_chemical_formula_sum   'Hf40 Zr40 Ta40 Ti40 Mo40'
_cell_volume   3862.75715292
_cell_formula_units_Z   40
loop_
 _symmetry_equiv_pos_site_id
 _symmetry_equiv_pos_as_xyz
  1  'x, y, z'
loop_
 _atom_site_type_symbol
 _atom_site_label
 _atom_site_symmetry_multiplicity
 _atom_site_fract_x
 _atom_site_fract_y
 _atom_site_fract_z
 _atom_site_occupancy
  Hf  Hf0  1  0.30584418  0.89998781  0.11502019  1
  Hf  Hf1  1  -0.01172062  -0.00961961  0.49811576  1
  Hf  Hf2  1  0.70466139  0.50047051  0.62348761  1
  Hf  Hf3  1  0.79914480  0.60490894  -0.01158718  1
  Hf  Hf4  1  0.70513757  0.49221663  0.38624609  1
  Hf  Hf5  1  0.49693652  0.68654854  0.86870976  1
  Hf  Hf6  1  -0.02033405  0.20268490  0.45903402  1
  Hf  Hf7  1  0.10559408  0.50262829  0.62822294  1
  Hf  Hf8  1  0.40178226  0.19516039  0.26116284  1
  Hf  Hf9  1  0.09939285  0.30313991  0.59593076  1
  Hf  Hf10  1  0.20482740  0.39655824  0.75265787  1
  Hf  Hf11  1  0.10395843  0.31698186  0.36559255  1
  Hf  Hf12  1  0.00030852  0.17922769  0.74042714  1
  Hf  Hf13  1  0.20131796  0.19486119  0.74857925  1
  Hf  Hf14  1  0.69399137  0.70720981  0.13175967  1
  Hf  Hf15  1  0.30861269  0.10206629  0.12164171  1
  Hf  Hf16  1  0.39805166  0.40301674  0.51421761  1
  Hf  Hf17  1  0.59247082  0.60322592  0.25839539  1
  Hf  Hf18  1  0.59416459  0.39614202  0.51612943  1
  Hf  Hf19  1  0.30701213  0.30992303  0.88842888  1
  Hf  Hf20  1  0.49071809  0.89831222  0.39379670  1
  Hf  Hf21  1  0.31798600  0.69511162  0.38603412  1
  Hf  Hf22  1  0.59302989  0.38133932  -0.00054620  1
  Hf  Hf23  1  0.10316058  0.50415937  0.12933860  1
  Hf  Hf24  1  0.48687674  0.51269384  0.38712044  1
  Hf  Hf25  1  0.49840597  0.70075646  0.10746694  1
  Hf  Hf26  1  -0.00178851  0.79392694  0.50727560  1
  Hf  Hf27  1  0.80280445  0.39382823  0.01713625  1
  Hf  Hf28  1  0.20291948  0.61363393  -0.01752753  1
  Hf  Hf29  1  0.31277946  0.50149176  0.88313445  1
  Hf  Hf30  1  0.40810605  -0.00817542  0.24860886  1
  Hf  Hf31  1  0.19115127  0.80282511  -0.01411434  1
  Hf  Hf32  1  0.79408227  0.38542028  0.74330475  1
  Hf  Hf33  1  0.90532590  0.09016109  0.89460116  1
  Hf  Hf34  1  0.78735526  0.80843910  -0.00398258  1
  Hf  Hf35  1  0.10431085  0.49256618  0.87921753  1
  Hf  Hf36  1  0.89156850  0.69820512  0.14194672  1
  Hf  Hf37  1  0.00324482  0.38397129  0.74631130  1
  Hf  Hf38  1  0.59608025  0.80598422  0.26513957  1
  Hf  Hf39  1  0.80390386  0.60580077  0.76454451  1
  Zr  Zr40  1  -0.00619321  0.60605720  -0.00985746  1
  Zr  Zr41  1  0.70235217  0.70717845  0.38546079  1
  Zr  Zr42  1  0.10413559  0.69844186  0.13256929  1
  Zr  Zr43  1  -0.00763831  0.81542306  0.73186478  1
  Zr  Zr44  1  0.39116064  0.02250044  0.74546214  1
  Zr  Zr45  1  0.61431417  0.19606814  0.72655610  1
  Zr  Zr46  1  0.19808005  0.59972610  0.49058788  1
  Zr  Zr47  1  0.42842253  0.00396711  -0.00769174  1
  Zr  Zr48  1  0.28947207  0.91667739  0.87312745  1
  Zr  Zr49  1  0.70846247  0.08493683  0.87807416  1
  Zr  Zr50  1  0.00089315  0.60219106  0.49504957  1
  Zr  Zr51  1  0.21329724  0.80002112  0.25366540  1
  Zr  Zr52  1  0.39229400  0.79915572  0.75425915  1
  Zr  Zr53  1  -0.01242488  0.80505139  0.00354555  1
  Zr  Zr54  1  0.69564187  0.28259614  0.88333197  1
  Zr  Zr55  1  0.00705922  0.61969284  0.75565574  1
  Zr  Zr56  1  0.21652490  0.20020594  0.47699367  1
  Zr  Zr57  1  0.89081753  0.09039204  0.13337491  1
  Zr  Zr58  1  0.69681757  0.28788995  0.14521774  1
  Zr  Zr59  1  0.10864305  0.09647358  0.59560993  1
  Zr  Zr60  1  0.80906579  0.01092552  0.72308003  1
  Zr  Zr61  1  0.00197659  0.80371842  0.25419672  1
  Zr  Zr62  1  0.90095728  0.48481001  0.87208498  1
  Zr  Zr63  1  0.90021645  0.28437635  0.88140303  1
  Zr  Zr64  1  0.50269122  0.29748568  0.14592185  1
  Zr  Zr65  1  0.39664126  0.79814917  -0.01955265  1
  Zr  Zr66  1  0.88936897  0.91181644  0.86894546  1
  Zr  Zr67  1  0.60791310  0.59309603  -0.01091953  1
  Zr  Zr68  1  0.29723336  0.29597468  0.62069281  1
  Zr  Zr69  1  0.18000507  0.79574658  0.75579158  1
  Zr  Zr70  1  0.69739670  0.70214391  0.63384161  1
  Zr  Zr71  1  0.42737369  0.20914735  -0.00479060  1
  Zr  Zr72  1  0.50562462  0.30802343  0.36821269  1
  Zr  Zr73  1  0.89852005  0.30019615  0.60301739  1
  Zr  Zr74  1  -0.00510920  0.20428615  0.02749293  1
  Zr  Zr75  1  0.39681314  0.59926559  0.23972876  1
  Zr  Zr76  1  0.29508779  0.11002314  0.88743365  1
  Zr  Zr77  1  0.10164178  0.09722850  0.36656564  1
  Zr  Zr78  1  0.50116331  0.90077086  0.63564239  1
  Zr  Zr79  1  0.28077744  0.90913738  0.62054144  1
  Ta  Ta80  1  0.89593879  0.70110285  0.36908393  1
  Ta  Ta81  1  0.10524067  0.30659200  0.13950134  1
  Ta  Ta82  1  0.59621959  0.39036894  0.73922117  1
  Ta  Ta83  1  -0.00032637  0.39621797  0.02044216  1
  Ta  Ta84  1  0.09352639  0.10272788  0.89138695  1
  Ta  Ta85  1  0.60436331  -0.00014840  0.50901324  1
  Ta  Ta86  1  -0.00362754  -0.00361559  0.25311315  1
  Ta  Ta87  1  0.60037807  0.80885276  -0.02113453  1
  Ta  Ta88  1  0.60330738  -0.00294480  0.25833135  1
  Ta  Ta89  1  0.79542275  0.59580967  0.26141570  1
  Ta  Ta90  1  0.59514186  0.79819390  0.50619295  1
  Ta  Ta91  1  0.30326469  0.30935018  0.12128927  1
  Ta  Ta92  1  0.10276685  0.29500786  0.89173212  1
  Ta  Ta93  1  0.39868780  0.78833860  0.52001674  1
  Ta  Ta94  1  -0.00548153  0.20590928  0.25145456  1
  Ta  Ta95  1  0.39782446  0.58843411  0.73933128  1
  Ta  Ta96  1  0.10371065  0.10047086  0.13868199  1
  Ta  Ta97  1  0.20828923  0.20332809  0.24747417  1
  Ta  Ta98  1  0.40719058  0.79710861  0.24939400  1
  Ta  Ta99  1  0.07994058  0.92206757  0.88366817  1
  Ta  Ta100  1  0.30135594  0.49975888  0.10388915  1
  Ta  Ta101  1  0.88511651  0.89603201  0.37072451  1
  Ta  Ta102  1  0.50489155  0.09286125  0.38892860  1
  Ta  Ta103  1  0.69749428  0.89946938  0.63023614  1
  Ta  Ta104  1  0.50030051  0.10517644  0.61378194  1
  Ta  Ta105  1  0.49775548  0.48217729  0.87061618  1
  Ta  Ta106  1  0.80906847  0.59960347  0.49962953  1
  Ta  Ta107  1  0.40758302  0.20122070  0.49537898  1
  Ta  Ta108  1  0.17194703  0.00593784  0.74817909  1
  Ta  Ta109  1  0.70419597  0.30348242  0.37641752  1
  Ta  Ta110  1  0.90143377  0.50212565  0.62955317  1
  Ta  Ta111  1  0.90078573  0.49939564  0.14537633  1
  Ta  Ta112  1  0.19699693  0.20598948  0.01786764  1
  Ta  Ta113  1  0.10515686  0.89906112  0.38235346  1
  Ta  Ta114  1  0.09894011  0.90935926  0.12601397  1
  Ta  Ta115  1  0.58918172  0.60445322  0.50826143  1
  Ta  Ta116  1  0.80558363  0.19486842  0.26969754  1
  Ta  Ta117  1  0.20487639  -0.00320451  0.25414920  1
  Ta  Ta118  1  0.28738411  0.69090623  0.63364409  1
  Ta  Ta119  1  0.51245055  0.89515473  0.12131345  1
  Ti  Ti120  1  0.88575275  0.10770592  0.59212488  1
  Ti  Ti121  1  0.80414005  0.79587248  0.74788733  1
  Ti  Ti122  1  -0.00840005  0.41593131  0.48695349  1
  Ti  Ti123  1  0.52084327  0.09962519  0.12922399  1
  Ti  Ti124  1  0.62567456  -0.00451626  0.01520959  1
  Ti  Ti125  1  0.70227820  0.90116798  0.39161653  1
  Ti  Ti126  1  0.29681517  0.49556965  0.38345088  1
  Ti  Ti127  1  0.39176257  0.00639875  0.51091949  1
  Ti  Ti128  1  0.21153803  0.40832053  0.24650669  1
  Ti  Ti129  1  0.51511557  0.91279333  0.85590074  1
  Ti  Ti130  1  0.78463263  0.18633576  0.02112910  1
  Ti  Ti131  1  0.29408814  0.50154845  0.62341663  1
  Ti  Ti132  1  0.60714436  0.18355627  0.27176447  1
  Ti  Ti133  1  0.30349270  0.69817099  0.11960867  1
  Ti  Ti134  1  0.71027392  0.08965247  0.38799141  1
  Ti  Ti135  1  0.80706756  0.80299250  0.51657719  1
  Ti  Ti136  1  0.69663197  0.48599657  0.87011568  1
  Ti  Ti137  1  0.39792551  0.41097052  0.24432867  1
  Ti  Ti138  1  0.30489169  0.31343968  0.37024082  1
  Ti  Ti139  1  0.09162588  0.50177356  0.35581964  1
  Ti  Ti140  1  0.80543536  0.19649298  0.74016381  1
  Ti  Ti141  1  0.20865959  0.59900147  0.25429986  1
  Ti  Ti142  1  0.40954217  0.20955255  0.74634353  1
  Ti  Ti143  1  0.50071438  0.69528087  0.63915034  1
  Ti  Ti144  1  0.30128485  0.89515317  0.38840191  1
  Ti  Ti145  1  0.69440660  0.90352981  0.85013676  1
  Ti  Ti146  1  0.30744989  0.08695007  0.37376983  1
  Ti  Ti147  1  0.52322467  0.10564595  0.86366926  1
  Ti  Ti148  1  0.60214568  0.19776156  0.49587914  1
  Ti  Ti149  1  0.19351068  0.79613826  0.50553160  1
  Ti  Ti150  1  0.10301778  0.69986235  0.36586577  1
  Ti  Ti151  1  0.70095509  0.50277738  0.13065776  1
  Ti  Ti152  1  0.88868515  0.33465021  0.35729083  1
  Ti  Ti153  1  0.40818630  0.39700594  0.73487657  1
  Ti  Ti154  1  0.60099190  0.41346708  0.25058748  1
  Ti  Ti155  1  0.78701730  -0.01289131  0.24349245  1
  Ti  Ti156  1  0.18991882  0.00765096  0.00760838  1
  Ti  Ti157  1  0.71434288  0.28908147  0.59687856  1
  Ti  Ti158  1  0.49603274  0.49886591  0.11074697  1
  Ti  Ti159  1  0.60020840  0.58953329  0.75403700  1
  Mo  Mo160  1  0.89144635  0.89876029  0.62119614  1
  Mo  Mo161  1  0.10356045  0.69900761  0.62054572  1
  Mo  Mo162  1  0.89264674  0.89595549  0.14468647  1
  Mo  Mo163  1  0.19691694  0.39797381  0.00668259  1
  Mo  Mo164  1  0.69608985  0.09487532  0.14387914  1
  Mo  Mo165  1  0.09233602  0.71154339  0.87861532  1
  Mo  Mo166  1  0.20418184  0.59903488  0.76007933  1
  Mo  Mo167  1  0.89458903  0.69484588  0.62046485  1
  Mo  Mo168  1  0.69453364  0.89717351  0.13165982  1
  Mo  Mo169  1  0.69376948  0.70738420  0.86183670  1
  Mo  Mo170  1  0.40260690  0.59828263  0.00161772  1
  Mo  Mo171  1  0.50279682  0.50314359  0.63649358  1
  Mo  Mo172  1  0.60105097  0.18122604  0.00232634  1
  Mo  Mo173  1  0.60231721  0.00400426  0.72912052  1
  Mo  Mo174  1  0.50270503  0.29796783  0.85394424  1
  Mo  Mo175  1  0.20560921  -0.00609031  0.47791890  1
  Mo  Mo176  1  0.79884210  0.20273845  0.46741211  1
  Mo  Mo177  1  0.09838100  0.90287331  0.60527995  1
  Mo  Mo178  1  0.79507288  -0.00684080  0.50297817  1
  Mo  Mo179  1  0.40084279  0.60242517  0.52843748  1
  Mo  Mo180  1  0.30411455  0.10249402  0.61841111  1
  Mo  Mo181  1  0.89264069  0.71014531  0.87689887  1
  Mo  Mo182  1  -0.00022277  0.60123444  0.26294371  1
  Mo  Mo183  1  0.79104135  0.40395567  0.23994706  1
  Mo  Mo184  1  0.80503950  0.40596101  0.50356618  1
  Mo  Mo185  1  0.90021385  0.50588638  0.36271355  1
  Mo  Mo186  1  0.00158347  0.00860854  0.72965688  1
  Mo  Mo187  1  0.79431734  0.80331024  0.25512133  1
  Mo  Mo188  1  0.40863492  0.40128168  0.00753446  1
  Mo  Mo189  1  0.79862131  -0.01028720  0.02151976  1
  Mo  Mo190  1  0.00121165  -0.00123052  0.02573619  1
  Mo  Mo191  1  0.89217236  0.08111807  0.36028651  1
  Mo  Mo192  1  0.19640716  0.40856151  0.48418319  1
  Mo  Mo193  1  0.50179860  0.29460161  0.62464205  1
  Mo  Mo194  1  0.60121569  0.79886991  0.76120960  1
  Mo  Mo195  1  0.49795447  0.70337281  0.39338678  1
  Mo  Mo196  1  0.29792218  0.69373958  0.85293384  1
  Mo  Mo197  1  0.70388780  0.10484442  0.59745814  1
  Mo  Mo198  1  -0.00026952  0.40246583  0.24114671  1
  Mo  Mo199  1  0.89745273  0.30020703  0.14656728  1
