# generated using pymatgen
data_HfZrTaTiMo
_symmetry_space_group_name_H-M   'P 1'
_cell_length_a   15.84224569
_cell_length_b   15.83360307
_cell_length_c   15.39440449
_cell_angle_alpha   89.96255810
_cell_angle_beta   89.96073016
_cell_angle_gamma   89.88262200
_symmetry_Int_Tables_number   1
_chemical_formula_structural   HfZrTaTiMo
_chemical_formula_sum   'Hf40 Zr40 Ta40 Ti40 Mo40'
_cell_volume   3861.51997432
_cell_formula_units_Z   40
loop_
 _symmetry_equiv_pos_site_id
 _symmetry_equiv_pos_as_xyz
  1  'x, y, z'
loop_
 _atom_site_type_symbol
 _atom_site_label
 _atom_site_symmetry_multiplicity
 _atom_site_fract_x
 _atom_site_fract_y
 _atom_site_fract_z
 _atom_site_occupancy
  Hf  Hf0  1  0.00794229  0.78736674  -0.02257519  1
  Hf  Hf1  1  0.31335531  0.29419618  0.62088304  1
  Hf  Hf2  1  0.59841030  -0.00455839  0.50432723  1
  Hf  Hf3  1  0.29406444  0.10105297  0.39414935  1
  Hf  Hf4  1  0.89935346  0.29129304  0.11706515  1
  Hf  Hf5  1  0.09314184  0.89017192  0.13351348  1
  Hf  Hf6  1  0.69151581  0.49221245  0.88131358  1
  Hf  Hf7  1  0.11591953  0.50196719  0.36299968  1
  Hf  Hf8  1  0.29906972  0.30606081  0.38265698  1
  Hf  Hf9  1  0.49492290  0.10176313  0.13523678  1
  Hf  Hf10  1  0.19644131  0.80234704  -0.01164698  1
  Hf  Hf11  1  0.89167366  0.49731421  0.88763108  1
  Hf  Hf12  1  0.69640401  0.71198299  0.12525392  1
  Hf  Hf13  1  0.79464867  0.60109497  0.49044652  1
  Hf  Hf14  1  0.30740229  0.89761717  0.12230601  1
  Hf  Hf15  1  0.60096265  0.80595538  0.74514657  1
  Hf  Hf16  1  0.09788107  0.70126597  0.38067533  1
  Hf  Hf17  1  0.30367172  0.48877182  0.86069751  1
  Hf  Hf18  1  0.79596684  0.80367792  0.73534585  1
  Hf  Hf19  1  0.60006000  0.79861247  -0.01247079  1
  Hf  Hf20  1  0.10427369  0.70393709  0.63764415  1
  Hf  Hf21  1  0.10112194  0.50208025  0.65052833  1
  Hf  Hf22  1  0.19589235  0.61299564  -0.00839015  1
  Hf  Hf23  1  0.39205429  0.60019946  -0.01037240  1
  Hf  Hf24  1  0.49012410  0.49605938  0.13149716  1
  Hf  Hf25  1  0.31918920  0.29714139  0.11944049  1
  Hf  Hf26  1  0.19621749  0.20233759  0.24593107  1
  Hf  Hf27  1  0.59165823  0.59680902  -0.00744408  1
  Hf  Hf28  1  0.18254228  0.20810469  0.51179497  1
  Hf  Hf29  1  0.50144253  0.49612797  0.36895615  1
  Hf  Hf30  1  0.00117016  0.59693855  0.50550070  1
  Hf  Hf31  1  0.19800285  0.79755470  0.25966407  1
  Hf  Hf32  1  0.20680215  0.39879317  0.01372542  1
  Hf  Hf33  1  0.00402966  0.18882786  0.76451170  1
  Hf  Hf34  1  0.00232295  0.39348688  0.23359494  1
  Hf  Hf35  1  0.69824944  0.49929026  0.12489296  1
  Hf  Hf36  1  0.49177923  0.69683528  0.62214690  1
  Hf  Hf37  1  0.39618876  0.41558352  0.50257718  1
  Hf  Hf38  1  0.00345511  0.61974071  0.23850810  1
  Hf  Hf39  1  0.70796121  0.10015961  0.38485204  1
  Zr  Zr40  1  -0.00908611  0.60846133  0.77125682  1
  Zr  Zr41  1  0.89354468  0.90025056  0.87519523  1
  Zr  Zr42  1  0.70444994  0.29280761  0.60935355  1
  Zr  Zr43  1  0.01093751  0.39476361  0.51630927  1
  Zr  Zr44  1  0.19725792  0.00481613  0.25093984  1
  Zr  Zr45  1  0.60107863  0.39479311  0.73927748  1
  Zr  Zr46  1  0.51106558  0.29290370  0.86425134  1
  Zr  Zr47  1  0.79718215  0.60732804  0.25482697  1
  Zr  Zr48  1  0.80117282  0.00009290  0.73411074  1
  Zr  Zr49  1  0.80272372  0.39497015  0.75318164  1
  Zr  Zr50  1  0.09822418  0.30646397  0.37275902  1
  Zr  Zr51  1  0.11993949  0.29500611  0.86784410  1
  Zr  Zr52  1  0.49721355  0.89395140  0.12596601  1
  Zr  Zr53  1  0.50057206  0.91251162  0.86937402  1
  Zr  Zr54  1  0.80354642  0.20428232  0.76370121  1
  Zr  Zr55  1  0.90076273  0.69594005  0.62822058  1
  Zr  Zr56  1  0.21483145  0.59381547  0.50933357  1
  Zr  Zr57  1  0.80274329  0.19915360  0.25811573  1
  Zr  Zr58  1  0.70504668  0.89851663  0.38662598  1
  Zr  Zr59  1  0.10695173  0.49770434  0.86651925  1
  Zr  Zr60  1  0.90282524  0.09432961  0.11721596  1
  Zr  Zr61  1  0.89493209  0.89473805  0.11830879  1
  Zr  Zr62  1  0.39151327  0.80629002  0.74833370  1
  Zr  Zr63  1  0.80774180  0.40421229  0.50116188  1
  Zr  Zr64  1  0.79594347  0.80959505  0.25293048  1
  Zr  Zr65  1  0.00781539  0.19801106  -0.01737122  1
  Zr  Zr66  1  0.89365024  0.50851926  0.11246483  1
  Zr  Zr67  1  0.30198435  0.09784409  0.11223401  1
  Zr  Zr68  1  0.00581181  0.39790326  0.00136585  1
  Zr  Zr69  1  0.28978890  0.92313761  0.87883989  1
  Zr  Zr70  1  0.01795290  -0.00700971  -0.01792481  1
  Zr  Zr71  1  -0.00541900  0.00579207  0.26172024  1
  Zr  Zr72  1  0.60342533  0.38334759  0.24304278  1
  Zr  Zr73  1  0.20363928  0.79278976  0.50489410  1
  Zr  Zr74  1  0.67900200  0.10088833  0.86329998  1
  Zr  Zr75  1  0.68870169  0.69026497  0.61934075  1
  Zr  Zr76  1  0.60221221  -0.00787014  0.25586367  1
  Zr  Zr77  1  0.91058886  0.49763117  0.36677609  1
  Zr  Zr78  1  0.49129360  0.70074235  0.13161207  1
  Zr  Zr79  1  0.31367980  0.29412422  0.87402039  1
  Ta  Ta80  1  0.60134760  0.40789658  0.50180096  1
  Ta  Ta81  1  0.29592928  0.70140059  0.13477940  1
  Ta  Ta82  1  0.29620057  0.90597067  0.39296666  1
  Ta  Ta83  1  0.39596531  0.60792334  0.48702269  1
  Ta  Ta84  1  0.91199898  0.27695766  0.61479103  1
  Ta  Ta85  1  0.81198256  -0.00194725  0.52129544  1
  Ta  Ta86  1  0.49768374  0.69685261  0.86550718  1
  Ta  Ta87  1  0.69867976  0.10717216  0.61696456  1
  Ta  Ta88  1  0.38843062  0.60276051  0.26841670  1
  Ta  Ta89  1  0.39879460  0.80120809  0.27560061  1
  Ta  Ta90  1  0.80073954  0.80673290  0.51143879  1
  Ta  Ta91  1  0.20992716  0.18416359  0.73635503  1
  Ta  Ta92  1  0.30452196  0.09549573  0.60277463  1
  Ta  Ta93  1  0.09811650  0.90733920  0.38802428  1
  Ta  Ta94  1  0.10627139  0.51190365  0.12564234  1
  Ta  Ta95  1  0.40113766  0.79438796  0.48897291  1
  Ta  Ta96  1  0.40049080  -0.00312584  0.27289187  1
  Ta  Ta97  1  0.78995517  0.19657773  -0.00910183  1
  Ta  Ta98  1  -0.00825479  0.38321683  0.75431108  1
  Ta  Ta99  1  0.20687476  0.40266717  0.23288447  1
  Ta  Ta100  1  0.50199955  0.50728356  0.62411643  1
  Ta  Ta101  1  0.79936964  0.39239562  0.24999431  1
  Ta  Ta102  1  0.00302772  0.19330464  0.26299696  1
  Ta  Ta103  1  -0.00646502  0.81231944  0.50384532  1
  Ta  Ta104  1  0.59826597  0.00523607  0.00779038  1
  Ta  Ta105  1  0.59915164  0.19927305  0.25523926  1
  Ta  Ta106  1  0.70107529  0.09826623  0.13434876  1
  Ta  Ta107  1  0.78418305  -0.00163517  0.00521163  1
  Ta  Ta108  1  0.89941773  0.71458724  0.38214850  1
  Ta  Ta109  1  0.00606041  0.00231877  0.75016341  1
  Ta  Ta110  1  0.20147616  0.40650232  0.52011389  1
  Ta  Ta111  1  0.58993096  0.38541035  0.01061336  1
  Ta  Ta112  1  0.69967392  0.90141738  0.87806712  1
  Ta  Ta113  1  0.49633606  0.10911099  0.61323568  1
  Ta  Ta114  1  0.39821956  0.39592305  0.25634716  1
  Ta  Ta115  1  0.39335475  0.01162731  0.73736991  1
  Ta  Ta116  1  0.20036105  0.00365874  0.72928605  1
  Ta  Ta117  1  0.50345834  0.29470179  0.39016637  1
  Ta  Ta118  1  0.29928432  0.90231034  0.61172518  1
  Ta  Ta119  1  0.69841707  0.49497112  0.36714518  1
  Ti  Ti120  1  0.89135264  0.09161969  0.88328247  1
  Ti  Ti121  1  0.59914897  0.61047193  0.26213307  1
  Ti  Ti122  1  0.48989026  0.90402448  0.61306832  1
  Ti  Ti123  1  0.00522140  0.60849862  -0.00401346  1
  Ti  Ti124  1  0.89937242  0.29235962  0.38507015  1
  Ti  Ti125  1  0.89713730  0.90957646  0.37683780  1
  Ti  Ti126  1  0.69931669  0.29920888  0.38865437  1
  Ti  Ti127  1  0.40064744  0.60223925  0.75588230  1
  Ti  Ti128  1  0.59616557  0.79459578  0.49255575  1
  Ti  Ti129  1  0.13990314  0.08880587  0.88170861  1
  Ti  Ti130  1  0.89811552  0.49848957  0.63830219  1
  Ti  Ti131  1  0.59602074  0.60042999  0.48451937  1
  Ti  Ti132  1  0.40405379  0.19529211  0.74344486  1
  Ti  Ti133  1  0.39263599  0.79181167  -0.01612405  1
  Ti  Ti134  1  0.78659253  0.38353394  -0.00018130  1
  Ti  Ti135  1  0.59366453  0.79526852  0.27110242  1
  Ti  Ti136  1  0.41482578  0.20047226  -0.00636302  1
  Ti  Ti137  1  0.59549026  0.00099591  0.72805508  1
  Ti  Ti138  1  0.60331982  0.20065197  0.01716389  1
  Ti  Ti139  1  0.20662619  0.38656201  0.73283369  1
  Ti  Ti140  1  0.10227292  0.10703099  0.11338387  1
  Ti  Ti141  1  0.87941867  0.70645885  0.87733947  1
  Ti  Ti142  1  0.40486606  0.00770980  -0.00903444  1
  Ti  Ti143  1  0.49804438  0.10292564  0.38963774  1
  Ti  Ti144  1  0.78697754  0.60117425  0.75885986  1
  Ti  Ti145  1  0.40503049  0.20036631  0.26398724  1
  Ti  Ti146  1  0.00174894  0.81008448  0.75577114  1
  Ti  Ti147  1  0.09761899  0.90418969  0.62302788  1
  Ti  Ti148  1  -0.00196700  0.00748647  0.50146982  1
  Ti  Ti149  1  0.69765283  0.50345410  0.62457153  1
  Ti  Ti150  1  0.50386927  0.29645324  0.61286614  1
  Ti  Ti151  1  0.08714003  0.10431727  0.61799602  1
  Ti  Ti152  1  0.49128649  0.48613079  0.86833081  1
  Ti  Ti153  1  0.30369615  0.50801533  0.12970889  1
  Ti  Ti154  1  0.59825428  0.59847451  0.75938668  1
  Ti  Ti155  1  0.20151915  0.80458904  0.75337197  1
  Ti  Ti156  1  0.90253126  0.71086034  0.11518101  1
  Ti  Ti157  1  0.78884332  0.61585618  -0.00528743  1
  Ti  Ti158  1  0.49648272  0.10137339  0.86202096  1
  Ti  Ti159  1  0.30890128  0.50905375  0.64425907  1
  Mo  Mo160  1  0.69485269  0.29666295  0.88953366  1
  Mo  Mo161  1  0.30180748  0.70093226  0.86228780  1
  Mo  Mo162  1  0.69368761  0.90329663  0.11408351  1
  Mo  Mo163  1  0.89965746  0.29694560  0.89055799  1
  Mo  Mo164  1  0.90475964  0.10079612  0.62080178  1
  Mo  Mo165  1  0.40830710  0.40498480  0.00893080  1
  Mo  Mo166  1  0.79453751  0.79819599  -0.00362484  1
  Mo  Mo167  1  0.20102336  -0.00151394  0.01197072  1
  Mo  Mo168  1  0.59531852  0.19132930  0.72999450  1
  Mo  Mo169  1  0.49944593  0.29012583  0.13007327  1
  Mo  Mo170  1  0.40153555  -0.00323249  0.49875859  1
  Mo  Mo171  1  0.18917454  -0.00096763  0.51528334  1
  Mo  Mo172  1  0.10454405  0.70580761  0.85485866  1
  Mo  Mo173  1  0.60116705  0.20145960  0.49613565  1
  Mo  Mo174  1  0.30563649  0.69989227  0.64073598  1
  Mo  Mo175  1  0.79747057  0.00037222  0.23668991  1
  Mo  Mo176  1  0.80617079  0.19448129  0.49020488  1
  Mo  Mo177  1  0.09524314  0.09922072  0.38896768  1
  Mo  Mo178  1  0.10447196  0.90477666  0.85085328  1
  Mo  Mo179  1  0.70165959  0.29125625  0.11796203  1
  Mo  Mo180  1  0.49613716  0.89940620  0.38372421  1
  Mo  Mo181  1  0.20189969  0.60190547  0.23511666  1
  Mo  Mo182  1  0.21184512  0.60993630  0.75315595  1
  Mo  Mo183  1  0.69649657  0.69806354  0.86706922  1
  Mo  Mo184  1  0.10080060  0.29455273  0.64241615  1
  Mo  Mo185  1  0.29647127  0.69973053  0.36585548  1
  Mo  Mo186  1  0.89863985  0.09558601  0.38733854  1
  Mo  Mo187  1  0.09678989  0.70422924  0.12558682  1
  Mo  Mo188  1  -0.00350779  0.80607769  0.27321406  1
  Mo  Mo189  1  0.10532533  0.29463674  0.13140321  1
  Mo  Mo190  1  0.50237676  0.69815925  0.37826293  1
  Mo  Mo191  1  0.40676598  0.40243103  0.72804009  1
  Mo  Mo192  1  0.30960751  0.10646915  0.87830262  1
  Mo  Mo193  1  0.69356830  0.90039536  0.61214808  1
  Mo  Mo194  1  0.40278253  0.20291688  0.49307313  1
  Mo  Mo195  1  0.29681767  0.49630475  0.36491027  1
  Mo  Mo196  1  -0.00278328  0.19331860  0.48592630  1
  Mo  Mo197  1  0.91328786  0.90179178  0.62812270  1
  Mo  Mo198  1  0.69905211  0.69902671  0.38589066  1
  Mo  Mo199  1  0.20554858  0.19780770  0.00953285  1
