# generated using pymatgen
data_HfZrTaTiMo
_symmetry_space_group_name_H-M   'P 1'
_cell_length_a   15.85697717
_cell_length_b   15.83432035
_cell_length_c   15.42981119
_cell_angle_alpha   90.01693918
_cell_angle_beta   90.06408615
_cell_angle_gamma   90.05317217
_symmetry_Int_Tables_number   1
_chemical_formula_structural   HfZrTaTiMo
_chemical_formula_sum   'Hf40 Zr40 Ta40 Ti40 Mo40'
_cell_volume   3874.18149175
_cell_formula_units_Z   40
loop_
 _symmetry_equiv_pos_site_id
 _symmetry_equiv_pos_as_xyz
  1  'x, y, z'
loop_
 _atom_site_type_symbol
 _atom_site_label
 _atom_site_symmetry_multiplicity
 _atom_site_fract_x
 _atom_site_fract_y
 _atom_site_fract_z
 _atom_site_occupancy
  Hf  Hf0  1  -0.00031549  0.59547992  0.76221383  1
  Hf  Hf1  1  0.78445600  0.18743271  0.24539668  1
  Hf  Hf2  1  0.28990838  0.29877056  0.35328821  1
  Hf  Hf3  1  -0.00315119  0.59956424  -0.00796923  1
  Hf  Hf4  1  0.77954808  0.39607436  0.23917846  1
  Hf  Hf5  1  0.49462500  0.30099179  0.12291293  1
  Hf  Hf6  1  0.59690386  0.61040016  -0.00823409  1
  Hf  Hf7  1  0.59613172  0.60571548  0.50954205  1
  Hf  Hf8  1  0.69562677  0.70931435  0.13290651  1
  Hf  Hf9  1  0.00662390  0.78760313  0.76584121  1
  Hf  Hf10  1  0.29582219  0.49320698  0.88984295  1
  Hf  Hf11  1  0.71242853  0.30336081  0.85602455  1
  Hf  Hf12  1  0.31732480  0.89309166  0.36718413  1
  Hf  Hf13  1  0.29586963  0.69320694  0.63174095  1
  Hf  Hf14  1  0.10418300  0.29878367  0.36970979  1
  Hf  Hf15  1  0.58831865  0.19705715  0.50804989  1
  Hf  Hf16  1  0.49897302  0.50605350  0.13336514  1
  Hf  Hf17  1  0.10120832  0.50044006  0.61530721  1
  Hf  Hf18  1  0.10175665  0.89645400  0.37224102  1
  Hf  Hf19  1  0.88925851  0.48813648  0.87204211  1
  Hf  Hf20  1  0.48927788  0.71712742  0.63876000  1
  Hf  Hf21  1  0.32365281  0.89516031  0.63831973  1
  Hf  Hf22  1  0.10069778  0.29916011  0.60620649  1
  Hf  Hf23  1  0.10069950  0.69117223  0.61698101  1
  Hf  Hf24  1  0.29470548  0.50820719  0.13387208  1
  Hf  Hf25  1  0.60325396  0.80851054  0.51137043  1
  Hf  Hf26  1  0.70069438  0.10633918  0.39618119  1
  Hf  Hf27  1  0.69573128  0.70117820  0.36490902  1
  Hf  Hf28  1  0.89505699  0.90666515  0.85928914  1
  Hf  Hf29  1  0.40137217  0.59019876  0.76570138  1
  Hf  Hf30  1  0.20957036  0.00204259  0.23903930  1
  Hf  Hf31  1  0.72027076  0.90024155  0.36343644  1
  Hf  Hf32  1  0.58368817  0.40691665  0.75015397  1
  Hf  Hf33  1  0.20942468  -0.00350083  0.50635364  1
  Hf  Hf34  1  0.19449339  0.38843541  0.74928821  1
  Hf  Hf35  1  0.39451877  0.60473401  0.48662960  1
  Hf  Hf36  1  0.88983669  0.08430404  0.11996020  1
  Hf  Hf37  1  0.70459704  0.50569060  0.86095802  1
  Hf  Hf38  1  0.47622391  0.29512891  0.62875531  1
  Hf  Hf39  1  0.10203276  0.29577379  0.14613544  1
  Zr  Zr40  1  0.00864411  -0.01215082  0.00322079  1
  Zr  Zr41  1  0.10855572  0.10346781  0.37853234  1
  Zr  Zr42  1  0.80340503  -0.00952602  0.52169490  1
  Zr  Zr43  1  0.69836633  0.10026431  0.64164735  1
  Zr  Zr44  1  0.79560633  0.80641996  -0.00358775  1
  Zr  Zr45  1  0.59770154  0.41005071  -0.00460982  1
  Zr  Zr46  1  0.51045654  0.10700309  0.10645922  1
  Zr  Zr47  1  0.90093873  0.49548259  0.61974357  1
  Zr  Zr48  1  0.10262509  0.89239165  0.62960745  1
  Zr  Zr49  1  0.20747557  0.01221367  0.74409938  1
  Zr  Zr50  1  0.09420696  0.47992095  0.88440053  1
  Zr  Zr51  1  0.89237832  0.71788180  0.36434195  1
  Zr  Zr52  1  0.78855000  0.39725548  0.01721680  1
  Zr  Zr53  1  0.49304004  0.50251461  0.36172073  1
  Zr  Zr54  1  0.90703922  0.29725746  0.87990642  1
  Zr  Zr55  1  0.89620913  0.08817696  0.38196131  1
  Zr  Zr56  1  0.90205089  0.69905336  0.13165739  1
  Zr  Zr57  1  0.30015144  0.70635804  0.87989110  1
  Zr  Zr58  1  0.60268202  0.80658897  -0.01573703  1
  Zr  Zr59  1  0.60987600  0.02569562  0.25559147  1
  Zr  Zr60  1  -0.01169955  0.39965624  0.25972122  1
  Zr  Zr61  1  0.59677171  0.60604741  0.74841381  1
  Zr  Zr62  1  0.21028465  0.78795654  0.49149086  1
  Zr  Zr63  1  0.19502099  0.80901405  0.01096614  1
  Zr  Zr64  1  0.80119667  0.80094135  0.52198686  1
  Zr  Zr65  1  0.28691001  0.29102264  0.89458423  1
  Zr  Zr66  1  -0.00794840  0.39765741  0.48459444  1
  Zr  Zr67  1  0.41894023  0.00407495  0.49838814  1
  Zr  Zr68  1  0.31288943  0.90778300  0.87463737  1
  Zr  Zr69  1  0.89658674  0.29025127  0.12436032  1
  Zr  Zr70  1  0.51656313  0.90650105  0.12426948  1
  Zr  Zr71  1  0.40121227  0.18906018  0.24736093  1
  Zr  Zr72  1  0.59295194  0.40203949  0.50730631  1
  Zr  Zr73  1  0.78697820  0.60227160  0.51239053  1
  Zr  Zr74  1  0.21971094  0.78861522  0.24009878  1
  Zr  Zr75  1  0.00375928  0.79468214  -0.00784081  1
  Zr  Zr76  1  0.60562882  0.20201842  -0.02549277  1
  Zr  Zr77  1  0.90666177  0.10125300  0.86596105  1
  Zr  Zr78  1  0.29404550  0.49239866  0.62342030  1
  Zr  Zr79  1  0.87948531  0.50108915  0.37611921  1
  Ta  Ta80  1  0.58795749  0.20261854  0.75714829  1
  Ta  Ta81  1  0.10425279  0.68982273  0.13634149  1
  Ta  Ta82  1  0.39165577  0.39534007  0.76017233  1
  Ta  Ta83  1  0.20501590  0.19323020  0.02712404  1
  Ta  Ta84  1  0.19196425  0.59880549  0.76753556  1
  Ta  Ta85  1  0.60134192  -0.00664773  0.50848932  1
  Ta  Ta86  1  0.19536212  0.39555031  0.02447803  1
  Ta  Ta87  1  0.62140828  0.00264001  -0.02232214  1
  Ta  Ta88  1  0.40871193  0.79677779  0.01373567  1
  Ta  Ta89  1  0.78977905  0.59786621  0.00776378  1
  Ta  Ta90  1  0.48533641  0.29949246  0.87948198  1
  Ta  Ta91  1  0.79196634  0.18527354  -0.00084074  1
  Ta  Ta92  1  0.09586942  0.50353243  0.13700460  1
  Ta  Ta93  1  0.09745301  0.09605191  0.13229266  1
  Ta  Ta94  1  0.70645100  0.90178986  0.84537409  1
  Ta  Ta95  1  0.30324923  0.10013383  0.37914203  1
  Ta  Ta96  1  0.51249887  0.90245804  0.36316261  1
  Ta  Ta97  1  0.11228421  0.10696380  0.88668874  1
  Ta  Ta98  1  0.40807373  0.00261690  0.24974918  1
  Ta  Ta99  1  0.20196965  0.58518910  0.46941581  1
  Ta  Ta100  1  0.00197445  0.59861877  0.26256459  1
  Ta  Ta101  1  0.19383973  0.60273596  0.00130446  1
  Ta  Ta102  1  0.89887558  0.50337692  0.12733228  1
  Ta  Ta103  1  0.38718433  0.19708651  0.76185081  1
  Ta  Ta104  1  0.91379079  0.10193894  0.62837118  1
  Ta  Ta105  1  0.00086776  -0.00632325  0.25000450  1
  Ta  Ta106  1  0.49210770  0.09376748  0.87259067  1
  Ta  Ta107  1  -0.00582781  0.38486375  0.74075597  1
  Ta  Ta108  1  0.31286065  0.11300141  0.61840189  1
  Ta  Ta109  1  -0.00622646  0.18795830  0.25462054  1
  Ta  Ta110  1  0.40514641  0.60667296  0.00159327  1
  Ta  Ta111  1  0.89578033  0.89607923  0.13838319  1
  Ta  Ta112  1  0.00066552  -0.01004987  0.50671395  1
  Ta  Ta113  1  0.00594361  0.19400297  0.00923667  1
  Ta  Ta114  1  0.80114725  0.21173924  0.51699258  1
  Ta  Ta115  1  0.68656476  0.49834002  0.36361958  1
  Ta  Ta116  1  0.79646408  0.60567388  0.73207036  1
  Ta  Ta117  1  0.00456846  0.60537409  0.47756606  1
  Ta  Ta118  1  0.38123533  0.39671259  0.48303956  1
  Ta  Ta119  1  0.20012548  0.19866724  0.74081781  1
  Ti  Ti120  1  0.90945775  0.69982947  0.62559949  1
  Ti  Ti121  1  0.88280256  0.28936136  0.37547490  1
  Ti  Ti122  1  0.49730757  0.09241310  0.64672808  1
  Ti  Ti123  1  0.20230540  -0.00038384  0.01760736  1
  Ti  Ti124  1  0.01544718  0.20173489  0.74560171  1
  Ti  Ti125  1  0.49412943  0.71516365  0.36191714  1
  Ti  Ti126  1  0.78672453  0.39749421  0.51040436  1
  Ti  Ti127  1  0.41190824  0.80488306  0.49756688  1
  Ti  Ti128  1  0.30006807  0.09996479  0.89233406  1
  Ti  Ti129  1  0.60020071  0.80620008  0.24554602  1
  Ti  Ti130  1  0.01415547  0.00903198  0.74560770  1
  Ti  Ti131  1  0.50428003  0.30070947  0.36308681  1
  Ti  Ti132  1  0.10341932  0.10393014  0.61098073  1
  Ti  Ti133  1  0.31496279  0.90130522  0.12519242  1
  Ti  Ti134  1  0.40851641  -0.00194879  0.00168419  1
  Ti  Ti135  1  0.39417065  0.39974642  0.24790008  1
  Ti  Ti136  1  0.38460495  0.62608132  0.24823481  1
  Ti  Ti137  1  0.10972251  0.90869054  0.86722486  1
  Ti  Ti138  1  0.39478330  0.40071297  0.00758560  1
  Ti  Ti139  1  0.48376262  0.49836485  0.61814851  1
  Ti  Ti140  1  0.40147846  0.20417564  0.48453312  1
  Ti  Ti141  1  0.69622051  0.30677692  0.63854834  1
  Ti  Ti142  1  0.21667967  0.21056275  0.50580262  1
  Ti  Ti143  1  0.00649759  0.80171679  0.24561838  1
  Ti  Ti144  1  0.90457298  0.89824472  0.64884950  1
  Ti  Ti145  1  0.69214334  0.30440678  0.37775145  1
  Ti  Ti146  1  0.49718265  0.71686991  0.86452758  1
  Ti  Ti147  1  0.81730713  0.21176646  0.73241475  1
  Ti  Ti148  1  0.71444884  0.92292281  0.13013274  1
  Ti  Ti149  1  -0.00770630  0.19558621  0.49371372  1
  Ti  Ti150  1  0.09839908  0.28980616  0.88822740  1
  Ti  Ti151  1  -0.00283151  0.80174267  0.49613323  1
  Ti  Ti152  1  0.79351883  0.59599500  0.24079422  1
  Ti  Ti153  1  -0.00009393  0.39478837  0.01520427  1
  Ti  Ti154  1  0.10724746  0.69755553  0.36374041  1
  Ti  Ti155  1  0.87665258  0.69490264  0.87076975  1
  Ti  Ti156  1  0.59466331  0.60417459  0.24607256  1
  Ti  Ti157  1  0.20003523  0.79467212  0.75745737  1
  Ti  Ti158  1  0.67977850  0.28438266  0.12838948  1
  Ti  Ti159  1  0.71379399  0.09690338  0.85080369  1
  Mo  Mo160  1  0.60094503  0.21134458  0.26222166  1
  Mo  Mo161  1  0.19934705  0.59990650  0.25842707  1
  Mo  Mo162  1  0.09776120  0.89648686  0.14046449  1
  Mo  Mo163  1  0.69539348  0.70489602  0.63930576  1
  Mo  Mo164  1  0.59872437  0.00556107  0.76406956  1
  Mo  Mo165  1  0.59489243  0.39835094  0.24834289  1
  Mo  Mo166  1  0.20446542  0.40030672  0.48911788  1
  Mo  Mo167  1  0.30087113  0.29727001  0.62122404  1
  Mo  Mo168  1  0.41274920  0.80339050  0.23486252  1
  Mo  Mo169  1  0.30740723  0.09123525  0.11246972  1
  Mo  Mo170  1  0.31049102  0.70141230  0.37867015  1
  Mo  Mo171  1  0.49105445  0.49656779  0.88936597  1
  Mo  Mo172  1  0.40119822  0.00990345  0.75496392  1
  Mo  Mo173  1  0.80248536  0.79405613  0.73803711  1
  Mo  Mo174  1  0.69371272  0.49559215  0.63389943  1
  Mo  Mo175  1  0.39718558  0.19691831  -0.00639024  1
  Mo  Mo176  1  0.40141422  0.80244421  0.75874662  1
  Mo  Mo177  1  0.30144801  0.30007691  0.12742551  1
  Mo  Mo178  1  0.69522504  0.50914061  0.13731304  1
  Mo  Mo179  1  0.50970072  0.91037434  0.64962669  1
  Mo  Mo180  1  0.90432011  0.29415834  0.61881670  1
  Mo  Mo181  1  0.60099518  0.80669037  0.75413615  1
  Mo  Mo182  1  0.29760337  0.49846535  0.35220916  1
  Mo  Mo183  1  0.69998604  0.10006823  0.11235400  1
  Mo  Mo184  1  0.50075045  0.09977230  0.37994262  1
  Mo  Mo185  1  0.80454053  -0.00027619  0.25427319  1
  Mo  Mo186  1  0.80784458  0.00369380  0.73552619  1
  Mo  Mo187  1  0.10162093  0.49982599  0.36221678  1
  Mo  Mo188  1  0.91111320  0.89678870  0.36574246  1
  Mo  Mo189  1  0.79486941  -0.00208099  -0.01389640  1
  Mo  Mo190  1  0.79675391  0.80211638  0.23689010  1
  Mo  Mo191  1  0.69480055  0.89977645  0.64755786  1
  Mo  Mo192  1  0.20071104  0.40215407  0.23829460  1
  Mo  Mo193  1  0.79912337  0.40080594  0.72979810  1
  Mo  Mo194  1  0.70604075  0.70336521  0.85996756  1
  Mo  Mo195  1  0.49854582  0.70294707  0.13383334  1
  Mo  Mo196  1  0.20239374  0.18958688  0.23712219  1
  Mo  Mo197  1  0.30191394  0.69776665  0.10796582  1
  Mo  Mo198  1  0.10333228  0.69741824  0.87767006  1
  Mo  Mo199  1  0.50265398  0.90546517  0.87035883  1
