# generated using pymatgen
data_HfZrTaTiMo
_symmetry_space_group_name_H-M   'P 1'
_cell_length_a   15.83709596
_cell_length_b   15.83936180
_cell_length_c   15.41375085
_cell_angle_alpha   89.97253863
_cell_angle_beta   90.04055537
_cell_angle_gamma   90.07991135
_symmetry_Int_Tables_number   1
_chemical_formula_structural   HfZrTaTiMo
_chemical_formula_sum   'Hf40 Zr40 Ta40 Ti40 Mo40'
_cell_volume   3866.52641225
_cell_formula_units_Z   40
loop_
 _symmetry_equiv_pos_site_id
 _symmetry_equiv_pos_as_xyz
  1  'x, y, z'
loop_
 _atom_site_type_symbol
 _atom_site_label
 _atom_site_symmetry_multiplicity
 _atom_site_fract_x
 _atom_site_fract_y
 _atom_site_fract_z
 _atom_site_occupancy
  Hf  Hf0  1  0.49402742  0.70701997  0.87684097  1
  Hf  Hf1  1  0.00503248  -0.01248254  0.24821340  1
  Hf  Hf2  1  0.89008208  0.88925323  0.38930424  1
  Hf  Hf3  1  0.59835314  0.20087627  -0.00190992  1
  Hf  Hf4  1  0.19156946  0.61214861  0.50198401  1
  Hf  Hf5  1  0.59917889  0.40384691  -0.01158382  1
  Hf  Hf6  1  0.19635249  -0.01081896  0.49749110  1
  Hf  Hf7  1  0.19331619  0.59130464  0.72339182  1
  Hf  Hf8  1  0.50657272  0.89940365  0.13709385  1
  Hf  Hf9  1  0.19207184  0.79570268  0.27679131  1
  Hf  Hf10  1  0.38776276  0.40800831  0.73140295  1
  Hf  Hf11  1  0.00686227  0.58827402  0.50365501  1
  Hf  Hf12  1  0.39646243  0.60057943  0.25732148  1
  Hf  Hf13  1  0.89820332  0.29666228  0.36597820  1
  Hf  Hf14  1  0.69380941  0.30605013  0.13542090  1
  Hf  Hf15  1  0.10333604  0.10345026  0.87259578  1
  Hf  Hf16  1  0.00777118  0.79615007  0.76102490  1
  Hf  Hf17  1  0.18411888  0.41075146  0.50795494  1
  Hf  Hf18  1  0.80287267  0.59863986  0.49991684  1
  Hf  Hf19  1  0.60976707  0.00209917  0.00193438  1
  Hf  Hf20  1  0.29394698  0.29526772  0.37907394  1
  Hf  Hf21  1  0.69340221  0.71007527  0.87212459  1
  Hf  Hf22  1  0.90135514  0.09663912  0.38527789  1
  Hf  Hf23  1  0.40129272  0.78813810  0.24940800  1
  Hf  Hf24  1  0.20058200  -0.00554414  0.26064847  1
  Hf  Hf25  1  0.10070066  0.30237275  0.12950871  1
  Hf  Hf26  1  0.89552803  0.28611780  0.87153242  1
  Hf  Hf27  1  0.29726424  0.89749827  0.13304139  1
  Hf  Hf28  1  0.70228539  0.73489606  0.37387158  1
  Hf  Hf29  1  0.70369912  0.70977306  0.12405369  1
  Hf  Hf30  1  0.81129507  0.61170531  -0.01092120  1
  Hf  Hf31  1  0.71769810  0.10464667  0.86155942  1
  Hf  Hf32  1  0.40621191  -0.00183013  0.00391163  1
  Hf  Hf33  1  0.90723729  0.50837058  0.11706584  1
  Hf  Hf34  1  0.60282518  -0.00614231  0.51288120  1
  Hf  Hf35  1  0.28349367  0.69754970  0.11489578  1
  Hf  Hf36  1  0.38724451  0.61187803  0.72576048  1
  Hf  Hf37  1  0.59428254  0.61208658  0.25989820  1
  Hf  Hf38  1  -0.00221524  -0.00749496  -0.00743672  1
  Hf  Hf39  1  0.39532121  -0.00970212  0.73467577  1
  Zr  Zr40  1  0.48494136  0.50715786  0.87659649  1
  Zr  Zr41  1  0.79713625  0.39606248  0.48804105  1
  Zr  Zr42  1  0.70530939  0.70472119  0.62845781  1
  Zr  Zr43  1  0.51937318  0.89204937  0.36992532  1
  Zr  Zr44  1  0.69924718  0.11242191  0.62665214  1
  Zr  Zr45  1  0.49472412  0.30810083  0.13599376  1
  Zr  Zr46  1  0.09965526  0.30761603  0.86650442  1
  Zr  Zr47  1  0.10321092  0.10538451  0.37387233  1
  Zr  Zr48  1  0.59425173  0.60189019  0.74738329  1
  Zr  Zr49  1  0.80552389  -0.00640192  0.24885224  1
  Zr  Zr50  1  0.70134278  0.49084129  0.61704927  1
  Zr  Zr51  1  0.91106128  0.89217408  0.61711709  1
  Zr  Zr52  1  0.29723068  0.09887460  0.86708258  1
  Zr  Zr53  1  0.20810165  -0.00005378  0.00058885  1
  Zr  Zr54  1  0.29297665  0.30116009  0.86597029  1
  Zr  Zr55  1  0.09780704  0.29727315  0.36822939  1
  Zr  Zr56  1  0.50009476  0.09939606  0.86783215  1
  Zr  Zr57  1  0.59622307  0.40097984  0.76137148  1
  Zr  Zr58  1  0.00145471  0.19462443  0.00309111  1
  Zr  Zr59  1  0.60101349  0.60588343  0.48967868  1
  Zr  Zr60  1  0.00170914  0.20495807  0.51697141  1
  Zr  Zr61  1  0.79002058  0.18920473  0.24586843  1
  Zr  Zr62  1  0.89946311  0.70548784  0.38906213  1
  Zr  Zr63  1  0.40263248  0.20182056  0.73146572  1
  Zr  Zr64  1  0.80723948  0.59468473  0.76384896  1
  Zr  Zr65  1  0.10280999  0.50846839  0.10965419  1
  Zr  Zr66  1  0.32335494  0.90064991  0.38766352  1
  Zr  Zr67  1  0.50043549  0.49753591  0.60493352  1
  Zr  Zr68  1  0.69772535  0.50525704  0.12872684  1
  Zr  Zr69  1  0.28382806  0.50613730  0.88085918  1
  Zr  Zr70  1  0.79609339  0.18880326  0.01314812  1
  Zr  Zr71  1  0.49582854  0.09041824  0.37871825  1
  Zr  Zr72  1  0.11174259  0.68272228  0.88738104  1
  Zr  Zr73  1  0.21431247  0.79368585  0.74539406  1
  Zr  Zr74  1  0.30564636  0.49389021  0.13001342  1
  Zr  Zr75  1  0.90008193  0.31113012  0.12385149  1
  Zr  Zr76  1  0.08914097  0.70541744  0.11111147  1
  Zr  Zr77  1  0.38957862  0.20104686  0.01102890  1
  Zr  Zr78  1  0.19380122  0.19692745  0.72430065  1
  Zr  Zr79  1  0.78983689  0.39763914  0.76987740  1
  Ta  Ta80  1  0.29968832  0.50177783  0.38584828  1
  Ta  Ta81  1  0.81118079  0.00116871  0.74054042  1
  Ta  Ta82  1  0.80496315  0.80438519  0.75041969  1
  Ta  Ta83  1  0.40394313  0.60201869  0.01276564  1
  Ta  Ta84  1  0.89159979  0.30229451  0.63512349  1
  Ta  Ta85  1  0.91048505  0.69617873  0.62963655  1
  Ta  Ta86  1  0.40190652  0.79913576  0.72909325  1
  Ta  Ta87  1  0.50849083  0.29886462  0.60907273  1
  Ta  Ta88  1  0.19942935  0.40927006  0.25901581  1
  Ta  Ta89  1  0.40037898  0.19847845  0.26217215  1
  Ta  Ta90  1  -0.01098221  0.18946656  0.74298975  1
  Ta  Ta91  1  0.79514488  0.20203834  0.49937926  1
  Ta  Ta92  1  0.59946907  0.00148384  0.74233229  1
  Ta  Ta93  1  0.00447555  0.60575074  0.25819304  1
  Ta  Ta94  1  0.48978148  0.30076017  0.87382152  1
  Ta  Ta95  1  0.49965334  0.89598194  0.86533445  1
  Ta  Ta96  1  0.79208063  -0.00863516  0.50986847  1
  Ta  Ta97  1  0.39977436  0.80388458  0.00260664  1
  Ta  Ta98  1  0.00557671  -0.00474686  0.75617067  1
  Ta  Ta99  1  0.61187089  0.00872820  0.24683836  1
  Ta  Ta100  1  0.70520758  0.89612532  0.13227922  1
  Ta  Ta101  1  0.90008961  0.50196330  0.36518860  1
  Ta  Ta102  1  0.00277640  0.40935734  0.25533161  1
  Ta  Ta103  1  0.40222434  0.20119192  0.49813563  1
  Ta  Ta104  1  0.69804471  0.90442145  0.86186119  1
  Ta  Ta105  1  0.29420759  0.29704400  0.14463378  1
  Ta  Ta106  1  0.30246177  0.10022704  0.38115334  1
  Ta  Ta107  1  0.80760347  0.61143987  0.25098337  1
  Ta  Ta108  1  0.29784312  0.30356602  0.61060303  1
  Ta  Ta109  1  0.60311929  0.21104096  0.75555320  1
  Ta  Ta110  1  0.79602176  0.40418789  -0.01434009  1
  Ta  Ta111  1  -0.00308910  0.19232680  0.23804526  1
  Ta  Ta112  1  0.90256679  0.88104804  0.11567586  1
  Ta  Ta113  1  0.20151103  0.39074216  0.00626011  1
  Ta  Ta114  1  0.29961806  0.09406755  0.60634183  1
  Ta  Ta115  1  -0.00254064  0.79864701  0.25456275  1
  Ta  Ta116  1  0.20103060  -0.01199602  0.74041563  1
  Ta  Ta117  1  0.10909462  0.09943021  0.12713342  1
  Ta  Ta118  1  0.19778570  0.60209418  0.27004606  1
  Ta  Ta119  1  0.49353381  0.50078075  0.38214240  1
  Ti  Ti120  1  0.59932277  0.60035961  -0.00171095  1
  Ti  Ti121  1  0.80047244  -0.00435054  0.00265327  1
  Ti  Ti122  1  0.40274001  0.39884717  0.26791943  1
  Ti  Ti123  1  0.79790632  0.40785035  0.25449594  1
  Ti  Ti124  1  0.30114685  0.10175902  0.14515056  1
  Ti  Ti125  1  0.60533924  0.80995267  0.52098566  1
  Ti  Ti126  1  0.49203988  0.70988708  0.39232829  1
  Ti  Ti127  1  0.11552109  0.89368291  0.88204901  1
  Ti  Ti128  1  0.80026737  0.80593541  -0.01116710  1
  Ti  Ti129  1  0.69684802  0.30068665  0.62256274  1
  Ti  Ti130  1  0.50551673  0.70189403  0.11830940  1
  Ti  Ti131  1  0.39233719  0.60943053  0.50502583  1
  Ti  Ti132  1  0.59785574  0.20225779  0.26409026  1
  Ti  Ti133  1  -0.00600879  0.40232788  0.49487161  1
  Ti  Ti134  1  0.19329481  0.20042483  0.51240804  1
  Ti  Ti135  1  0.70218396  0.50605783  0.36603019  1
  Ti  Ti136  1  0.02544036  0.78858513  0.49792260  1
  Ti  Ti137  1  0.50209474  0.10589224  0.61731836  1
  Ti  Ti138  1  0.60248782  0.39056282  0.47422943  1
  Ti  Ti139  1  0.60317959  0.20969160  0.48342007  1
  Ti  Ti140  1  0.30465377  0.70312437  0.88763328  1
  Ti  Ti141  1  0.39716861  0.39962364  0.00292269  1
  Ti  Ti142  1  0.00116037  0.59012082  0.76118910  1
  Ti  Ti143  1  -0.01498694  0.78757205  -0.01907250  1
  Ti  Ti144  1  0.70133705  0.09507368  0.38427654  1
  Ti  Ti145  1  0.10105492  0.89070365  0.11247822  1
  Ti  Ti146  1  0.09437130  0.08486890  0.62652799  1
  Ti  Ti147  1  0.50333662  0.49979581  0.13314121  1
  Ti  Ti148  1  0.10752636  0.88809698  0.62290916  1
  Ti  Ti149  1  0.90009566  0.09761244  0.61838263  1
  Ti  Ti150  1  0.59346423  0.80695368  0.73624910  1
  Ti  Ti151  1  0.08381011  0.31791904  0.64182773  1
  Ti  Ti152  1  0.90702702  0.48876148  0.63517886  1
  Ti  Ti153  1  0.90421320  0.08703607  0.12513295  1
  Ti  Ti154  1  0.59489701  0.39950479  0.27127031  1
  Ti  Ti155  1  0.00539532  -0.00736885  0.49694689  1
  Ti  Ti156  1  0.39891578  0.39797776  0.49558573  1
  Ti  Ti157  1  0.89293902  0.90419537  0.87243952  1
  Ti  Ti158  1  0.59957865  0.80958314  -0.00155195  1
  Ti  Ti159  1  0.50100337  0.10172251  0.14036510  1
  Mo  Mo160  1  0.20714747  0.59559235  0.00187984  1
  Mo  Mo161  1  0.79525949  0.80460319  0.52451359  1
  Mo  Mo162  1  0.50304412  0.90212232  0.63195994  1
  Mo  Mo163  1  0.90123640  0.70482362  0.85884219  1
  Mo  Mo164  1  0.69282132  0.09424844  0.12381075  1
  Mo  Mo165  1  0.09668105  0.49975758  0.36825204  1
  Mo  Mo166  1  0.30549568  0.69923922  0.39085880  1
  Mo  Mo167  1  0.70471536  0.90874763  0.36991105  1
  Mo  Mo168  1  0.90135363  0.70310614  0.12791294  1
  Mo  Mo169  1  0.50012243  0.70478925  0.61444220  1
  Mo  Mo170  1  -0.00743136  0.40385318  0.76088373  1
  Mo  Mo171  1  0.69727760  0.29826108  0.36042115  1
  Mo  Mo172  1  0.90977128  0.49643053  0.88607176  1
  Mo  Mo173  1  0.20352094  0.79785088  0.49645342  1
  Mo  Mo174  1  0.08883362  0.70284006  0.63245248  1
  Mo  Mo175  1  0.09845318  0.49262408  0.88187850  1
  Mo  Mo176  1  0.80234820  0.19946670  0.73375611  1
  Mo  Mo177  1  0.60271825  0.80070993  0.24254550  1
  Mo  Mo178  1  0.69592609  0.29538126  0.87968038  1
  Mo  Mo179  1  0.40864259  0.80019809  0.51752364  1
  Mo  Mo180  1  0.80824327  0.79931711  0.23879705  1
  Mo  Mo181  1  0.40420850  0.00728506  0.23999932  1
  Mo  Mo182  1  0.90305894  0.08875903  0.86418580  1
  Mo  Mo183  1  0.31032450  0.89034046  0.87687663  1
  Mo  Mo184  1  0.29730509  0.49849827  0.59983278  1
  Mo  Mo185  1  0.70312283  0.90387732  0.64701279  1
  Mo  Mo186  1  -0.00283844  0.59966138  -0.01662780  1
  Mo  Mo187  1  0.49706189  0.29984666  0.38179434  1
  Mo  Mo188  1  0.69718430  0.50631943  0.89319985  1
  Mo  Mo189  1  0.40555917  0.00171156  0.51646037  1
  Mo  Mo190  1  0.09544850  0.69883955  0.37270100  1
  Mo  Mo191  1  0.20805698  0.80482869  -0.01270780  1
  Mo  Mo192  1  0.20256680  0.19779407  0.24444256  1
  Mo  Mo193  1  0.08382917  0.49628189  0.63501305  1
  Mo  Mo194  1  0.00013793  0.40225917  -0.01580445  1
  Mo  Mo195  1  0.30050691  0.89882706  0.60798723  1
  Mo  Mo196  1  0.20446407  0.20190972  0.02149273  1
  Mo  Mo197  1  0.19489994  0.40462148  0.72588411  1
  Mo  Mo198  1  0.29691698  0.70806489  0.60454372  1
  Mo  Mo199  1  0.09010205  0.89644685  0.38509103  1
