# generated using pymatgen
data_HfZrTaTiMo
_symmetry_space_group_name_H-M   'P 1'
_cell_length_a   15.83838380
_cell_length_b   15.83414548
_cell_length_c   15.42385036
_cell_angle_alpha   89.96209489
_cell_angle_beta   90.01038037
_cell_angle_gamma   89.99904096
_symmetry_Int_Tables_number   1
_chemical_formula_structural   HfZrTaTiMo
_chemical_formula_sum   'Hf40 Zr40 Ta40 Ti40 Mo40'
_cell_volume   3868.10446135
_cell_formula_units_Z   40
loop_
 _symmetry_equiv_pos_site_id
 _symmetry_equiv_pos_as_xyz
  1  'x, y, z'
loop_
 _atom_site_type_symbol
 _atom_site_label
 _atom_site_symmetry_multiplicity
 _atom_site_fract_x
 _atom_site_fract_y
 _atom_site_fract_z
 _atom_site_occupancy
  Hf  Hf0  1  0.78924518  0.80832035  0.75628007  1
  Hf  Hf1  1  0.09471948  0.89303730  0.61025896  1
  Hf  Hf2  1  0.89357397  0.10480923  0.62381309  1
  Hf  Hf3  1  0.79729395  0.19456189  0.23698284  1
  Hf  Hf4  1  0.70076512  0.90884472  0.10776286  1
  Hf  Hf5  1  0.42213571  0.80494190  0.75686007  1
  Hf  Hf6  1  0.29371227  0.10143839  0.13796071  1
  Hf  Hf7  1  0.09301599  0.31759138  0.38185709  1
  Hf  Hf8  1  0.50056331  0.69610643  0.36313006  1
  Hf  Hf9  1  -0.00834329  0.20278815  0.24889859  1
  Hf  Hf10  1  0.50510489  0.90523566  0.37949817  1
  Hf  Hf11  1  0.50819844  0.48947308  0.37464393  1
  Hf  Hf12  1  0.30498114  0.69813267  0.63667192  1
  Hf  Hf13  1  0.29692653  0.49321111  0.37358282  1
  Hf  Hf14  1  0.41280483  0.39938389  -0.00132757  1
  Hf  Hf15  1  0.30321704  0.90273140  0.37051721  1
  Hf  Hf16  1  0.39796261  0.59573953  0.50401898  1
  Hf  Hf17  1  0.88662571  0.69589903  0.61400344  1
  Hf  Hf18  1  0.68842031  0.31125295  0.12647204  1
  Hf  Hf19  1  0.80275248  0.79788283  0.24032971  1
  Hf  Hf20  1  0.79948266  0.60101060  0.76843384  1
  Hf  Hf21  1  0.70052312  0.70195830  0.37854794  1
  Hf  Hf22  1  0.20912064  0.40176212  0.00620821  1
  Hf  Hf23  1  0.60998461  0.19951720  0.50289445  1
  Hf  Hf24  1  0.82481641  0.39111378  0.52691791  1
  Hf  Hf25  1  0.79792041  0.19733282  -0.00135535  1
  Hf  Hf26  1  0.21206849  0.21681636  0.50436697  1
  Hf  Hf27  1  -0.00782135  0.79709539  0.24352460  1
  Hf  Hf28  1  0.00143035  -0.00351467  0.24139055  1
  Hf  Hf29  1  0.30619266  0.90367054  0.62179729  1
  Hf  Hf30  1  0.10168571  0.89589183  0.39258346  1
  Hf  Hf31  1  0.40649940  0.19335855  0.50507308  1
  Hf  Hf32  1  0.10548594  0.49287735  0.86465802  1
  Hf  Hf33  1  0.30602202  0.09845502  0.35729357  1
  Hf  Hf34  1  0.70602073  0.92155209  0.36983578  1
  Hf  Hf35  1  0.30906295  0.30062912  0.13628240  1
  Hf  Hf36  1  0.08783934  0.29820987  0.62699102  1
  Hf  Hf37  1  0.70723941  0.50825672  0.62623530  1
  Hf  Hf38  1  0.71573332  0.30798952  0.36866063  1
  Hf  Hf39  1  0.60321419  0.80479279  0.23732274  1
  Zr  Zr40  1  0.28936006  0.69059370  0.12856659  1
  Zr  Zr41  1  0.40448702  0.00117460  0.75960158  1
  Zr  Zr42  1  0.40042694  0.79997099  0.23960793  1
  Zr  Zr43  1  0.89827049  0.48190510  0.36724640  1
  Zr  Zr44  1  0.10353332  0.50927043  0.37205009  1
  Zr  Zr45  1  0.89386816  0.31339926  0.11325408  1
  Zr  Zr46  1  0.11143907  0.69167823  0.61206697  1
  Zr  Zr47  1  0.39289954  0.00534627  -0.00459723  1
  Zr  Zr48  1  0.09401152  0.69819035  0.10958728  1
  Zr  Zr49  1  0.40128764  0.20345067  -0.00451412  1
  Zr  Zr50  1  0.30639853  0.30056311  0.35842395  1
  Zr  Zr51  1  0.60146501  -0.01653240  0.76164380  1
  Zr  Zr52  1  0.60182671  0.58528923  -0.00492499  1
  Zr  Zr53  1  0.40804512  0.79399673  0.50275132  1
  Zr  Zr54  1  0.50611287  0.50665515  0.63245713  1
  Zr  Zr55  1  0.21494200  0.00977641  0.50244911  1
  Zr  Zr56  1  0.09701256  0.10508085  0.37810108  1
  Zr  Zr57  1  0.10702162  0.28870457  0.86863353  1
  Zr  Zr58  1  0.87518957  0.09702712  0.38813151  1
  Zr  Zr59  1  0.39655150  0.58590487  0.24039744  1
  Zr  Zr60  1  -0.00412165  0.60738310  0.24878937  1
  Zr  Zr61  1  0.09294568  0.10282966  0.61216898  1
  Zr  Zr62  1  0.39320634  0.38835134  0.51934965  1
  Zr  Zr63  1  0.18387059  0.80400176  0.24751321  1
  Zr  Zr64  1  0.40634515  0.19584662  0.74643784  1
  Zr  Zr65  1  0.88492040  0.91063136  0.89014306  1
  Zr  Zr66  1  0.90030215  0.89618573  0.38382564  1
  Zr  Zr67  1  0.09859752  0.50470546  0.11842010  1
  Zr  Zr68  1  0.40691104  0.39805494  0.74069950  1
  Zr  Zr69  1  0.39929691  0.58917042  0.00470619  1
  Zr  Zr70  1  0.71557955  0.49564989  0.12325816  1
  Zr  Zr71  1  0.19594059  0.80482372  0.75740109  1
  Zr  Zr72  1  -0.00592879  0.56927825  0.51993908  1
  Zr  Zr73  1  -0.00278846  0.59939157  0.75343595  1
  Zr  Zr74  1  -0.00994916  0.79881247  0.75641728  1
  Zr  Zr75  1  0.29918296  0.29919571  0.86674437  1
  Zr  Zr76  1  0.78649042  0.80658590  0.50354198  1
  Zr  Zr77  1  0.70578763  0.50450999  0.38643777  1
  Zr  Zr78  1  0.09111851  0.91942932  0.88265511  1
  Zr  Zr79  1  0.29416963  0.90518382  0.87552634  1
  Ta  Ta80  1  0.60761178  0.59949884  0.23814963  1
  Ta  Ta81  1  0.00114557  0.19158280  -0.00524017  1
  Ta  Ta82  1  0.20207344  0.39729810  0.73474661  1
  Ta  Ta83  1  0.50605908  0.08440564  0.61900627  1
  Ta  Ta84  1  0.60414801  0.01191466  0.24152768  1
  Ta  Ta85  1  -0.00541008  0.39857808  -0.01398069  1
  Ta  Ta86  1  0.89270233  0.90612567  0.61952405  1
  Ta  Ta87  1  -0.00277309  0.80070191  -0.00424781  1
  Ta  Ta88  1  0.30398398  0.50313715  0.85750571  1
  Ta  Ta89  1  0.89927133  0.29420231  0.86908392  1
  Ta  Ta90  1  0.60408150  0.19636277  0.25051518  1
  Ta  Ta91  1  0.19946532  0.40763155  0.23427178  1
  Ta  Ta92  1  0.68276393  0.71037433  0.63045375  1
  Ta  Ta93  1  0.90044533  0.90263342  0.10844942  1
  Ta  Ta94  1  0.51510017  0.10118962  0.88420263  1
  Ta  Ta95  1  0.59497812  0.61503750  0.50849341  1
  Ta  Ta96  1  0.50879252  0.30001203  0.36805194  1
  Ta  Ta97  1  0.59968628  0.61148888  0.76007361  1
  Ta  Ta98  1  0.69811441  0.70737082  0.88796215  1
  Ta  Ta99  1  0.50649260  0.69620027  0.11769171  1
  Ta  Ta100  1  0.28445634  0.69398032  0.37579156  1
  Ta  Ta101  1  0.60144398  0.39324532  -0.02103511  1
  Ta  Ta102  1  0.41183182  0.00035425  0.23546806  1
  Ta  Ta103  1  0.20480748  0.59794194  -0.01640963  1
  Ta  Ta104  1  0.51081241  0.10194972  0.11366652  1
  Ta  Ta105  1  0.20077396  0.80331380  -0.00173066  1
  Ta  Ta106  1  0.27214417  0.10646043  0.86636215  1
  Ta  Ta107  1  0.10207581  0.70190080  0.88254729  1
  Ta  Ta108  1  -0.00887759  0.00036922  0.74355823  1
  Ta  Ta109  1  -0.00887251  0.59368918  -0.02112781  1
  Ta  Ta110  1  0.39672427  0.79729643  0.00266424  1
  Ta  Ta111  1  0.89032171  0.69490230  0.10187094  1
  Ta  Ta112  1  0.80288691  0.60625679  0.24447903  1
  Ta  Ta113  1  0.50030075  0.70116932  0.88353527  1
  Ta  Ta114  1  0.50093827  0.90447570  0.11034663  1
  Ta  Ta115  1  0.51350397  0.47695980  0.13744753  1
  Ta  Ta116  1  0.29073866  0.90462393  0.12539824  1
  Ta  Ta117  1  0.50523402  0.09627668  0.37782695  1
  Ta  Ta118  1  0.89843891  0.68947006  0.39465317  1
  Ta  Ta119  1  -0.00020188  0.18785224  0.76321291  1
  Ti  Ti120  1  0.70854723  0.08950098  0.87565195  1
  Ti  Ti121  1  0.69876714  0.29271495  0.86645769  1
  Ti  Ti122  1  0.50030242  0.50154552  0.85957625  1
  Ti  Ti123  1  0.80097860  0.00974793  0.22819730  1
  Ti  Ti124  1  -0.00929213  0.39731694  0.74611549  1
  Ti  Ti125  1  0.51667633  0.88902861  0.61262339  1
  Ti  Ti126  1  0.70153594  0.09273121  0.63441032  1
  Ti  Ti127  1  0.79662258  0.40684219  -0.03002601  1
  Ti  Ti128  1  0.19466106  0.19603543  0.00779505  1
  Ti  Ti129  1  0.42092179  0.19681622  0.24327613  1
  Ti  Ti130  1  0.50966674  0.29344636  0.86219635  1
  Ti  Ti131  1  -0.00179836  0.39705846  0.23771343  1
  Ti  Ti132  1  0.79923316  0.19586988  0.75367524  1
  Ti  Ti133  1  0.09592275  0.70194003  0.39854437  1
  Ti  Ti134  1  0.60893621  0.00327815  0.50007234  1
  Ti  Ti135  1  -0.01073564  0.00158301  0.50113060  1
  Ti  Ti136  1  0.89978815  0.09102736  0.87722714  1
  Ti  Ti137  1  0.70297611  0.69786262  0.10864700  1
  Ti  Ti138  1  0.18810722  0.00704858  0.00938305  1
  Ti  Ti139  1  0.30302612  0.10303337  0.63426508  1
  Ti  Ti140  1  0.09664496  0.09897223  0.12846704  1
  Ti  Ti141  1  0.89937522  0.50290377  0.11765473  1
  Ti  Ti142  1  0.69723498  0.90482143  0.89550480  1
  Ti  Ti143  1  0.30394068  0.69636156  0.86852183  1
  Ti  Ti144  1  0.79963383  0.39559119  0.75171955  1
  Ti  Ti145  1  0.69638665  0.90452416  0.62530213  1
  Ti  Ti146  1  0.59407657  0.80135654  -0.00143229  1
  Ti  Ti147  1  0.19179178  0.41676464  0.52415585  1
  Ti  Ti148  1  0.60708161  0.19185608  0.74606110  1
  Ti  Ti149  1  0.60927320  0.39126541  0.51129109  1
  Ti  Ti150  1  0.80382000  0.59288580  -0.02208844  1
  Ti  Ti151  1  0.61138837  0.39912858  0.75431803  1
  Ti  Ti152  1  0.79053704  0.20696982  0.51357902  1
  Ti  Ti153  1  0.29004683  0.51484001  0.64159287  1
  Ti  Ti154  1  0.18610064  0.20676898  0.24867033  1
  Ti  Ti155  1  0.60178297  0.20428123  0.00083286  1
  Ti  Ti156  1  0.51404327  0.29228062  0.63152336  1
  Ti  Ti157  1  -0.02506616  0.22308899  0.49437002  1
  Ti  Ti158  1  0.09597190  0.29975999  0.11762433  1
  Ti  Ti159  1  0.18582714  0.01132071  0.74175576  1
  Mo  Mo160  1  0.09862275  0.90460223  0.10961805  1
  Mo  Mo161  1  0.90238794  0.29914712  0.36626854  1
  Mo  Mo162  1  0.20400728  0.79691775  0.49363681  1
  Mo  Mo163  1  0.19811912  0.19422105  0.73184186  1
  Mo  Mo164  1  0.00224479  0.39552521  0.51854717  1
  Mo  Mo165  1  0.50731286  0.29621130  0.13471349  1
  Mo  Mo166  1  0.69259839  0.10468688  0.37441090  1
  Mo  Mo167  1  0.79351735  0.59777182  0.50757567  1
  Mo  Mo168  1  0.89768648  0.49402166  0.65062362  1
  Mo  Mo169  1  0.60557670  0.40014163  0.26125652  1
  Mo  Mo170  1  0.69809578  0.29638859  0.64375599  1
  Mo  Mo171  1  0.20312754  0.60286578  0.76867942  1
  Mo  Mo172  1  0.40721231  0.39128919  0.24520168  1
  Mo  Mo173  1  -0.00565334  0.79609734  0.50297906  1
  Mo  Mo174  1  0.69633041  0.49494130  0.86393619  1
  Mo  Mo175  1  0.90240627  0.10005260  0.11707866  1
  Mo  Mo176  1  -0.00056513  0.00778769  0.01544377  1
  Mo  Mo177  1  0.79873424  0.00232463  0.74311351  1
  Mo  Mo178  1  0.60049481  0.00614635  -0.00774012  1
  Mo  Mo179  1  0.20589906  0.59711453  0.50038184  1
  Mo  Mo180  1  0.89675620  0.29044174  0.65399477  1
  Mo  Mo181  1  0.50269729  0.89770503  0.90007576  1
  Mo  Mo182  1  0.10449438  0.49701983  0.64491482  1
  Mo  Mo183  1  0.60488915  0.80009341  0.77284437  1
  Mo  Mo184  1  0.79556373  0.79693411  0.00328083  1
  Mo  Mo185  1  0.69668549  0.10453547  0.11509606  1
  Mo  Mo186  1  0.30151704  0.49551386  0.13163687  1
  Mo  Mo187  1  0.59972145  0.80253161  0.49551670  1
  Mo  Mo188  1  0.09541957  0.09899165  0.87675588  1
  Mo  Mo189  1  0.80809747  0.40384750  0.24482053  1
  Mo  Mo190  1  0.19529956  0.60011755  0.26173119  1
  Mo  Mo191  1  0.89990216  0.48816984  0.86771832  1
  Mo  Mo192  1  0.78858559  0.00887119  0.51748187  1
  Mo  Mo193  1  0.40475306  0.60526622  0.75812148  1
  Mo  Mo194  1  0.41170169  0.00409019  0.50738794  1
  Mo  Mo195  1  0.20017733  0.00159770  0.24032924  1
  Mo  Mo196  1  0.29743102  0.29883601  0.62919742  1
  Mo  Mo197  1  0.50660544  0.70409928  0.63795492  1
  Mo  Mo198  1  0.79974899  0.01043455  0.01037928  1
  Mo  Mo199  1  0.89662589  0.70262099  0.89009525  1
