# generated using pymatgen
data_HfZrTaTiMo
_symmetry_space_group_name_H-M   'P 1'
_cell_length_a   15.85110452
_cell_length_b   15.82732602
_cell_length_c   15.41409642
_cell_angle_alpha   90.02015068
_cell_angle_beta   90.00432986
_cell_angle_gamma   90.06399748
_symmetry_Int_Tables_number   1
_chemical_formula_structural   HfZrTaTiMo
_chemical_formula_sum   'Hf40 Zr40 Ta40 Ti40 Mo40'
_cell_volume   3867.09507964
_cell_formula_units_Z   40
loop_
 _symmetry_equiv_pos_site_id
 _symmetry_equiv_pos_as_xyz
  1  'x, y, z'
loop_
 _atom_site_type_symbol
 _atom_site_label
 _atom_site_symmetry_multiplicity
 _atom_site_fract_x
 _atom_site_fract_y
 _atom_site_fract_z
 _atom_site_occupancy
  Hf  Hf0  1  0.32816812  0.11321588  0.11426772  1
  Hf  Hf1  1  0.00833468  0.60601121  0.48076272  1
  Hf  Hf2  1  0.49351499  0.50085322  0.11550609  1
  Hf  Hf3  1  -0.01332114  0.38755769  -0.00594189  1
  Hf  Hf4  1  0.59799735  0.79790513  0.75185176  1
  Hf  Hf5  1  0.29848070  0.29709554  0.88813733  1
  Hf  Hf6  1  0.69164672  0.70843737  0.38590844  1
  Hf  Hf7  1  0.60006398  0.58966197  0.24802596  1
  Hf  Hf8  1  0.80901400  0.80448820  0.75491390  1
  Hf  Hf9  1  0.59807139  0.79364061  -0.00985537  1
  Hf  Hf10  1  0.30276225  0.69685734  0.35876363  1
  Hf  Hf11  1  -0.00587011  0.60575125  0.01102375  1
  Hf  Hf12  1  0.09464894  0.71127877  0.87029325  1
  Hf  Hf13  1  0.80323378  0.20693966  0.51738643  1
  Hf  Hf14  1  0.20564116  0.81583364  0.75076766  1
  Hf  Hf15  1  0.19206520  0.40779983  0.48856357  1
  Hf  Hf16  1  0.29828454  0.70199014  0.87281771  1
  Hf  Hf17  1  0.19606243  0.40154485  0.75959746  1
  Hf  Hf18  1  0.90236679  0.69095640  0.63012558  1
  Hf  Hf19  1  0.30861492  0.29825553  0.38220810  1
  Hf  Hf20  1  0.69821601  0.89667263  0.62524451  1
  Hf  Hf21  1  0.38773082  -0.00998186  0.74275770  1
  Hf  Hf22  1  -0.00611496  0.79781755  0.48979921  1
  Hf  Hf23  1  0.69216743  0.29182900  0.38419559  1
  Hf  Hf24  1  -0.00435118  0.80935045  0.02460143  1
  Hf  Hf25  1  0.79603647  0.60364671  0.25285620  1
  Hf  Hf26  1  0.19933714  0.60665776  0.01443286  1
  Hf  Hf27  1  0.18881917  0.19745382  0.01418595  1
  Hf  Hf28  1  0.10253554  0.89591669  0.61220435  1
  Hf  Hf29  1  0.70104215  0.90171799  0.12018835  1
  Hf  Hf30  1  -0.01182199  0.41172439  0.48328145  1
  Hf  Hf31  1  0.30372870  0.09701886  0.38353656  1
  Hf  Hf32  1  0.89792541  0.90441227  0.35722593  1
  Hf  Hf33  1  0.58671286  0.19776256  0.23958431  1
  Hf  Hf34  1  0.31120155  0.50391998  0.36806073  1
  Hf  Hf35  1  0.09381382  0.50790753  0.62831301  1
  Hf  Hf36  1  0.10230351  0.09751267  0.37584317  1
  Hf  Hf37  1  0.81270695  0.00541052  -0.00979091  1
  Hf  Hf38  1  0.30227570  0.89561137  0.36553071  1
  Hf  Hf39  1  0.88344855  0.48875671  0.12038096  1
  Zr  Zr40  1  0.40206619  0.78656163  0.00698053  1
  Zr  Zr41  1  0.19877723  0.19232643  0.73868429  1
  Zr  Zr42  1  0.60663391  0.57270992  0.73372244  1
  Zr  Zr43  1  0.71202468  0.09923428  0.12775158  1
  Zr  Zr44  1  0.19315150  0.80219978  0.02321199  1
  Zr  Zr45  1  0.00449970  0.19895513  0.72321888  1
  Zr  Zr46  1  0.29229366  0.69410375  0.62607547  1
  Zr  Zr47  1  0.20605006  0.20161426  0.24291317  1
  Zr  Zr48  1  -0.00902986  0.60952758  0.24214876  1
  Zr  Zr49  1  0.81803708  0.59020502  0.48016866  1
  Zr  Zr50  1  0.50402375  0.31557284  0.39084719  1
  Zr  Zr51  1  0.70605068  0.69335378  0.62178356  1
  Zr  Zr52  1  0.09866558  0.50433919  0.88116708  1
  Zr  Zr53  1  0.60734559  0.41117965  -0.00810926  1
  Zr  Zr54  1  0.79046975  0.40564682  0.26320336  1
  Zr  Zr55  1  0.61178800  -0.00876202  0.26393936  1
  Zr  Zr56  1  0.10843600  0.91642843  0.88686070  1
  Zr  Zr57  1  0.29483506  0.08300327  0.89644400  1
  Zr  Zr58  1  0.50991151  0.11286168  0.39596633  1
  Zr  Zr59  1  0.80161138  -0.00634544  0.50008201  1
  Zr  Zr60  1  0.19753515  0.20405441  0.50881589  1
  Zr  Zr61  1  0.71286916  0.30202179  0.11521348  1
  Zr  Zr62  1  0.30792707  0.91198130  0.12196825  1
  Zr  Zr63  1  0.79932384  0.79569278  0.24108897  1
  Zr  Zr64  1  0.80314494  0.79995005  -0.00172539  1
  Zr  Zr65  1  0.30311102  0.50005207  0.12870672  1
  Zr  Zr66  1  0.40442994  0.20109674  0.52939270  1
  Zr  Zr67  1  0.69844473  0.09515983  0.63237093  1
  Zr  Zr68  1  0.70466141  0.30099940  0.86873846  1
  Zr  Zr69  1  0.39975151  0.78983420  0.50852586  1
  Zr  Zr70  1  0.59721009  0.18402447  -0.01016610  1
  Zr  Zr71  1  0.68231881  0.49144291  0.39236665  1
  Zr  Zr72  1  0.59417712  0.40911137  0.54120516  1
  Zr  Zr73  1  0.39520959  0.18955627  0.75092812  1
  Zr  Zr74  1  0.41731822  0.01294420  0.25446564  1
  Zr  Zr75  1  0.48607342  0.29145228  0.10136095  1
  Zr  Zr76  1  0.71110703  0.09748077  0.86117347  1
  Zr  Zr77  1  0.19256960  0.39290853  0.24991031  1
  Zr  Zr78  1  -0.00080757  0.00247374  0.73546754  1
  Zr  Zr79  1  0.82024489  0.20325636  0.74144278  1
  Ta  Ta80  1  0.10226986  0.90131555  0.36132021  1
  Ta  Ta81  1  -0.01086793  0.59429699  0.75964953  1
  Ta  Ta82  1  0.30103080  0.31685072  0.62671046  1
  Ta  Ta83  1  0.09294660  0.28997892  0.87969653  1
  Ta  Ta84  1  0.79035366  0.58895416  -0.00974954  1
  Ta  Ta85  1  0.39748287  0.80132210  0.74758096  1
  Ta  Ta86  1  0.89401753  0.29838781  0.37361985  1
  Ta  Ta87  1  0.49855736  0.30047672  0.86908592  1
  Ta  Ta88  1  0.89947811  0.29232950  0.14178924  1
  Ta  Ta89  1  0.49491291  0.69069216  0.36579000  1
  Ta  Ta90  1  0.58420923  0.59976563  0.51308385  1
  Ta  Ta91  1  0.89804655  0.10591422  0.37067219  1
  Ta  Ta92  1  0.80447986  0.41756721  0.76775025  1
  Ta  Ta93  1  0.50560242  0.90142886  0.12306530  1
  Ta  Ta94  1  0.48894071  0.89712104  0.87701754  1
  Ta  Ta95  1  0.90006039  0.10812261  0.15016793  1
  Ta  Ta96  1  0.49343936  0.69121084  0.64021420  1
  Ta  Ta97  1  0.19675635  0.80193754  0.23616395  1
  Ta  Ta98  1  0.83166480  0.20371952  -0.01327157  1
  Ta  Ta99  1  0.70608021  0.10265346  0.37925296  1
  Ta  Ta100  1  0.19433344  0.40226589  0.00112866  1
  Ta  Ta101  1  0.29494562  0.50007919  0.62026424  1
  Ta  Ta102  1  -0.00722406  0.39865557  0.75885947  1
  Ta  Ta103  1  0.00731506  0.20992992  0.26340909  1
  Ta  Ta104  1  0.59278305  -0.00581706  0.76132604  1
  Ta  Ta105  1  0.50286574  0.88263542  0.37450350  1
  Ta  Ta106  1  0.40501362  -0.00719022  0.50420634  1
  Ta  Ta107  1  0.49821050  0.69133114  0.85786173  1
  Ta  Ta108  1  0.59730171  -0.00476066  -0.01576488  1
  Ta  Ta109  1  0.89946653  0.69848459  0.87741014  1
  Ta  Ta110  1  0.50453903  0.08647312  0.62997133  1
  Ta  Ta111  1  0.09071153  0.10340650  0.88465057  1
  Ta  Ta112  1  -0.00275512  -0.00128828  0.49501385  1
  Ta  Ta113  1  0.69959873  0.68936422  0.86694099  1
  Ta  Ta114  1  0.19140583  0.79265546  0.48633682  1
  Ta  Ta115  1  -0.00219937  0.20648214  0.50033331  1
  Ta  Ta116  1  0.40982528  0.39245095  0.25020559  1
  Ta  Ta117  1  0.69465869  0.68758029  0.11282806  1
  Ta  Ta118  1  0.30683452  0.30717484  0.10989940  1
  Ta  Ta119  1  0.09899566  0.69974516  0.63402993  1
  Ti  Ti120  1  0.09762020  0.31462408  0.61907880  1
  Ti  Ti121  1  0.59397968  0.60176853  -0.00800057  1
  Ti  Ti122  1  0.31027431  0.69253186  0.14846567  1
  Ti  Ti123  1  0.09655738  0.49804028  0.13024676  1
  Ti  Ti124  1  -0.00262826  0.79934079  0.23521050  1
  Ti  Ti125  1  0.90031761  0.92404595  0.14324793  1
  Ti  Ti126  1  0.10890885  0.08703542  0.60204175  1
  Ti  Ti127  1  0.49980884  0.49618772  0.86539384  1
  Ti  Ti128  1  0.30128278  0.90186862  0.89761806  1
  Ti  Ti129  1  0.08934737  0.30330877  0.12197171  1
  Ti  Ti130  1  0.59954263  -0.01064631  0.49378910  1
  Ti  Ti131  1  0.10458405  0.70589232  0.35216403  1
  Ti  Ti132  1  0.40782813  0.58854627  0.50280970  1
  Ti  Ti133  1  0.20027599  0.00752292  0.74215990  1
  Ti  Ti134  1  0.10665897  0.51116380  0.35516349  1
  Ti  Ti135  1  0.59079169  0.79500368  0.50687553  1
  Ti  Ti136  1  0.60345735  0.20878683  0.53161143  1
  Ti  Ti137  1  -0.00146350  0.80518939  0.74489528  1
  Ti  Ti138  1  0.08882668  0.09815279  0.13494016  1
  Ti  Ti139  1  0.80475209  0.80208723  0.49698395  1
  Ti  Ti140  1  0.60053049  0.79525737  0.24690386  1
  Ti  Ti141  1  0.38955779  0.59334854  0.75636446  1
  Ti  Ti142  1  0.89048303  0.33144798  0.61964001  1
  Ti  Ti143  1  0.40007410  0.59296964  -0.01550605  1
  Ti  Ti144  1  0.81626710  -0.00198542  0.74370759  1
  Ti  Ti145  1  0.59816791  0.20153773  0.74528260  1
  Ti  Ti146  1  0.73617451  0.49198580  0.62038543  1
  Ti  Ti147  1  0.00021661  0.01293873  0.01245543  1
  Ti  Ti148  1  0.49717094  0.69826784  0.13679890  1
  Ti  Ti149  1  0.49956449  0.89668587  0.62500716  1
  Ti  Ti150  1  0.59715782  0.39906018  0.23577270  1
  Ti  Ti151  1  0.70289379  0.89918695  0.87123005  1
  Ti  Ti152  1  0.19728915  0.60655635  0.49305477  1
  Ti  Ti153  1  0.49379893  0.31137530  0.65106993  1
  Ti  Ti154  1  0.91492764  0.90591531  0.87544360  1
  Ti  Ti155  1  0.39013175  0.40777671  0.76330057  1
  Ti  Ti156  1  0.20007977  0.00312351  0.23722319  1
  Ti  Ti157  1  0.29035526  0.90545349  0.60458610  1
  Ti  Ti158  1  0.19865877  0.59785203  0.75635412  1
  Ti  Ti159  1  -0.00199496  0.40060762  0.25954832  1
  Mo  Mo160  1  0.88909626  0.69722041  0.10587545  1
  Mo  Mo161  1  0.49635855  0.50176501  0.37609448  1
  Mo  Mo162  1  -0.00057828  0.19636136  0.01557467  1
  Mo  Mo163  1  0.47106961  0.49741380  0.64454275  1
  Mo  Mo164  1  0.60136402  0.39427683  0.75013913  1
  Mo  Mo165  1  0.79856335  0.20201730  0.26213077  1
  Mo  Mo166  1  0.90723376  0.09399033  0.60155931  1
  Mo  Mo167  1  0.69354737  0.50338585  0.11260328  1
  Mo  Mo168  1  0.39790085  0.40677404  -0.02190193  1
  Mo  Mo169  1  0.29835576  0.08798854  0.61167011  1
  Mo  Mo170  1  0.50892424  0.08880726  0.11750711  1
  Mo  Mo171  1  0.39589593  0.40653648  0.51370324  1
  Mo  Mo172  1  0.19988055  -0.01160185  0.48777362  1
  Mo  Mo173  1  0.29812398  0.50300958  0.88502642  1
  Mo  Mo174  1  0.40493851  0.19778537  -0.02371170  1
  Mo  Mo175  1  0.91643276  0.09541548  0.87458096  1
  Mo  Mo176  1  0.80365813  0.39515542  -0.01510961  1
  Mo  Mo177  1  0.69606491  0.50364979  0.87656245  1
  Mo  Mo178  1  0.90171873  0.70893206  0.37336547  1
  Mo  Mo179  1  0.41031345  0.79883989  0.24021800  1
  Mo  Mo180  1  0.89702887  0.49930364  0.88648912  1
  Mo  Mo181  1  0.90404124  0.49944456  0.35435931  1
  Mo  Mo182  1  0.90151135  0.89434917  0.62280447  1
  Mo  Mo183  1  0.00350247  0.00772591  0.25732636  1
  Mo  Mo184  1  0.80453560  0.59971295  0.76578074  1
  Mo  Mo185  1  0.70253537  0.30925170  0.64578938  1
  Mo  Mo186  1  0.09755656  0.70220814  0.13763170  1
  Mo  Mo187  1  0.79885749  0.00380501  0.26293932  1
  Mo  Mo188  1  0.80076285  0.39747845  0.49356892  1
  Mo  Mo189  1  0.50016396  0.09547721  0.85266055  1
  Mo  Mo190  1  0.42116263  0.00123445  -0.00117783  1
  Mo  Mo191  1  0.19768512  0.60234429  0.23915609  1
  Mo  Mo192  1  0.09299919  0.30126410  0.38135373  1
  Mo  Mo193  1  0.90975949  0.29599242  0.86274425  1
  Mo  Mo194  1  0.40859342  0.59373583  0.25324636  1
  Mo  Mo195  1  0.18670999  0.00683800  0.02561235  1
  Mo  Mo196  1  0.40421267  0.21178741  0.25099835  1
  Mo  Mo197  1  0.90635434  0.50219771  0.63328358  1
  Mo  Mo198  1  0.69081220  0.89377659  0.38855738  1
  Mo  Mo199  1  0.09228160  0.91343203  0.14449184  1
