# generated using pymatgen
data_HfZrTaTiMo
_symmetry_space_group_name_H-M   'P 1'
_cell_length_a   15.83643528
_cell_length_b   15.82174099
_cell_length_c   15.40781322
_cell_angle_alpha   89.97276075
_cell_angle_beta   90.00291089
_cell_angle_gamma   89.94602123
_symmetry_Int_Tables_number   1
_chemical_formula_structural   HfZrTaTiMo
_chemical_formula_sum   'Hf40 Zr40 Ta40 Ti40 Mo40'
_cell_volume   3860.57917444
_cell_formula_units_Z   40
loop_
 _symmetry_equiv_pos_site_id
 _symmetry_equiv_pos_as_xyz
  1  'x, y, z'
loop_
 _atom_site_type_symbol
 _atom_site_label
 _atom_site_symmetry_multiplicity
 _atom_site_fract_x
 _atom_site_fract_y
 _atom_site_fract_z
 _atom_site_occupancy
  Hf  Hf0  1  0.01149352  0.80235418  0.25410173  1
  Hf  Hf1  1  0.09581177  0.30452250  0.13525894  1
  Hf  Hf2  1  0.68647701  0.10562479  0.62523151  1
  Hf  Hf3  1  0.68547899  0.10799457  0.37158555  1
  Hf  Hf4  1  0.69534137  0.89963558  0.62389618  1
  Hf  Hf5  1  0.49207025  0.28924809  0.62000563  1
  Hf  Hf6  1  0.49501880  0.09815418  0.37664313  1
  Hf  Hf7  1  0.68687776  0.69578859  0.89277359  1
  Hf  Hf8  1  -0.00463011  0.39993400  0.49261197  1
  Hf  Hf9  1  0.57875265  0.20162710  0.76745409  1
  Hf  Hf10  1  0.01756750  0.00161396  0.73419834  1
  Hf  Hf11  1  0.40014267  0.60476277  0.00354284  1
  Hf  Hf12  1  0.41060273  0.81254444  0.00411825  1
  Hf  Hf13  1  0.60883783  0.79799922  0.25127138  1
  Hf  Hf14  1  0.01371962  0.59869294  0.25820520  1
  Hf  Hf15  1  0.09900502  0.50524642  0.88192973  1
  Hf  Hf16  1  0.21579634  0.81580819  0.00797199  1
  Hf  Hf17  1  0.90596267  0.10119691  0.37200005  1
  Hf  Hf18  1  0.89129598  0.50128294  0.36735635  1
  Hf  Hf19  1  0.28876932  0.28956441  0.61784178  1
  Hf  Hf20  1  0.01156414  0.80789721  -0.00437459  1
  Hf  Hf21  1  0.78208746  0.39287918  0.24668099  1
  Hf  Hf22  1  0.79827318  0.00004533  0.49025589  1
  Hf  Hf23  1  0.59555770  0.59092604  0.23587548  1
  Hf  Hf24  1  0.12618170  0.90496913  0.86196268  1
  Hf  Hf25  1  0.20038544  0.39160381  0.75831991  1
  Hf  Hf26  1  0.00638182  0.01294156  0.23884312  1
  Hf  Hf27  1  0.11826056  0.11260265  0.61155738  1
  Hf  Hf28  1  -0.00650445  0.20733866  0.50600248  1
  Hf  Hf29  1  0.79966850  0.59925700  0.00661895  1
  Hf  Hf30  1  0.78980493  0.00001964  0.76609989  1
  Hf  Hf31  1  0.70399799  0.29522441  0.64180995  1
  Hf  Hf32  1  0.28863607  0.30415636  0.13518123  1
  Hf  Hf33  1  0.20507361  0.60281674  0.26973350  1
  Hf  Hf34  1  0.37845212  0.17946567  0.75482358  1
  Hf  Hf35  1  0.79060373  0.60224568  0.23938450  1
  Hf  Hf36  1  0.60732346  0.59017215  0.74028800  1
  Hf  Hf37  1  0.18603589  0.61839756  0.74221177  1
  Hf  Hf38  1  0.80205781  0.18853005  0.23885930  1
  Hf  Hf39  1  0.57290893  0.39105542  0.01977973  1
  Zr  Zr40  1  0.10603805  0.90248033  0.37917097  1
  Zr  Zr41  1  -0.00001150  0.61342653  -0.00005259  1
  Zr  Zr42  1  0.29895147  0.49728568  0.62427434  1
  Zr  Zr43  1  0.29459273  0.50550974  0.12061961  1
  Zr  Zr44  1  0.89811229  0.89530781  0.63609925  1
  Zr  Zr45  1  0.59414862  0.20358073  0.21994530  1
  Zr  Zr46  1  0.80636969  0.80449649  0.48497766  1
  Zr  Zr47  1  0.02349496  0.78334945  0.74245354  1
  Zr  Zr48  1  0.78641250  0.41395132  0.76781102  1
  Zr  Zr49  1  0.79134697  0.21566406  0.48589409  1
  Zr  Zr50  1  0.00520229  0.60426545  0.49357273  1
  Zr  Zr51  1  -0.00172866  0.41077039  0.75107510  1
  Zr  Zr52  1  0.80773519  0.59923246  0.76734853  1
  Zr  Zr53  1  0.70827107  0.69525570  0.61021253  1
  Zr  Zr54  1  0.01058202  0.00909728  0.00385685  1
  Zr  Zr55  1  0.70104498  0.08012875  0.10473484  1
  Zr  Zr56  1  0.10592330  0.10025628  0.38919127  1
  Zr  Zr57  1  0.90816725  0.30173212  0.12094512  1
  Zr  Zr58  1  0.47288871  0.08574771  0.89293850  1
  Zr  Zr59  1  0.59417759  0.79382308  0.74667558  1
  Zr  Zr60  1  0.60244003  0.39386293  0.50938686  1
  Zr  Zr61  1  0.81056887  0.79925861  -0.00524061  1
  Zr  Zr62  1  0.89963160  0.29541248  0.87815190  1
  Zr  Zr63  1  0.49568208  0.90782998  0.37198729  1
  Zr  Zr64  1  0.10213239  0.49540183  0.11750431  1
  Zr  Zr65  1  0.69392092  0.10089605  0.89416846  1
  Zr  Zr66  1  0.70380692  0.28750549  0.09545898  1
  Zr  Zr67  1  0.40081097  0.40810490  0.25616024  1
  Zr  Zr68  1  0.50730575  0.49882718  0.87684182  1
  Zr  Zr69  1  0.57983381  -0.00581977  0.75966835  1
  Zr  Zr70  1  0.90241681  0.70799360  0.13958935  1
  Zr  Zr71  1  0.41071675  0.60470320  0.73716118  1
  Zr  Zr72  1  0.30161439  0.50319464  0.87148350  1
  Zr  Zr73  1  0.68767013  0.29937567  0.88637123  1
  Zr  Zr74  1  0.39536769  0.40327847  0.48764089  1
  Zr  Zr75  1  0.80526225  0.79148954  0.76612020  1
  Zr  Zr76  1  0.51903860  0.29962156  0.36551311  1
  Zr  Zr77  1  0.30095518  0.72190275  0.85945473  1
  Zr  Zr78  1  0.88619976  0.11046711  0.63739208  1
  Zr  Zr79  1  0.69548833  0.68110073  0.38912974  1
  Ta  Ta80  1  0.39490758  0.80523553  0.49435374  1
  Ta  Ta81  1  0.50768996  0.51053288  0.37812367  1
  Ta  Ta82  1  0.40467631  0.38418222  0.75629303  1
  Ta  Ta83  1  0.70624967  0.50066022  0.60843708  1
  Ta  Ta84  1  0.89899493  0.90743195  0.13197230  1
  Ta  Ta85  1  0.29193981  0.09418501  0.12784529  1
  Ta  Ta86  1  0.09684855  0.29279308  0.88382621  1
  Ta  Ta87  1  0.79351493  -0.01005191  0.25468635  1
  Ta  Ta88  1  0.39329134  0.19316780  0.24602887  1
  Ta  Ta89  1  0.91341630  0.10184871  0.86071621  1
  Ta  Ta90  1  0.09290654  0.29957597  0.36279651  1
  Ta  Ta91  1  0.39886083  0.20435108  0.01835034  1
  Ta  Ta92  1  0.19996029  0.39130873  -0.01103174  1
  Ta  Ta93  1  0.10029560  0.49920960  0.61706500  1
  Ta  Ta94  1  0.59465349  0.59961710  0.02152159  1
  Ta  Ta95  1  0.19713159  0.39987259  0.48111998  1
  Ta  Ta96  1  0.11602234  0.90883523  0.13097300  1
  Ta  Ta97  1  0.57573832  -0.01958675  0.00879727  1
  Ta  Ta98  1  0.10204260  0.30670327  0.61881887  1
  Ta  Ta99  1  0.91443111  0.90399119  0.86457040  1
  Ta  Ta100  1  0.49223817  0.09847509  0.60511952  1
  Ta  Ta101  1  0.30488655  0.10286909  0.59522967  1
  Ta  Ta102  1  0.39598174  0.79769459  0.26288174  1
  Ta  Ta103  1  0.22021960  0.01641632  0.73575850  1
  Ta  Ta104  1  0.30385358  0.70172401  0.39010484  1
  Ta  Ta105  1  0.89400721  0.30819423  0.63878462  1
  Ta  Ta106  1  0.90203950  0.70355546  0.37195079  1
  Ta  Ta107  1  0.11354165  0.10687637  0.86655959  1
  Ta  Ta108  1  0.30333360  0.08888289  0.37813884  1
  Ta  Ta109  1  -0.00018936  -0.00702466  0.51451099  1
  Ta  Ta110  1  0.49452657  0.70480717  0.13387589  1
  Ta  Ta111  1  0.89190337  0.50325074  0.61587303  1
  Ta  Ta112  1  0.20632065  0.79707865  0.25815475  1
  Ta  Ta113  1  0.49731528  0.90192755  0.60796231  1
  Ta  Ta114  1  0.90677180  0.48979505  0.12817514  1
  Ta  Ta115  1  0.68717031  0.89565956  0.89414883  1
  Ta  Ta116  1  0.00834026  0.80179533  0.50488797  1
  Ta  Ta117  1  0.31942390  0.92147435  0.85753135  1
  Ta  Ta118  1  0.19926512  0.19298203  0.25678298  1
  Ta  Ta119  1  0.00949752  0.20721554  0.74197553  1
  Ti  Ti120  1  -0.00188019  0.60383917  0.74598149  1
  Ti  Ti121  1  0.38135782  -0.00781186  0.02180862  1
  Ti  Ti122  1  0.39146558  0.39367595  -0.00108403  1
  Ti  Ti123  1  0.90541678  0.90278154  0.36789313  1
  Ti  Ti124  1  0.82475245  0.17849171  0.00169770  1
  Ti  Ti125  1  0.50424463  0.70308332  0.60542070  1
  Ti  Ti126  1  0.19654357  0.41182924  0.27474353  1
  Ti  Ti127  1  0.50337406  0.70751443  0.88327235  1
  Ti  Ti128  1  0.59158065  0.40180498  0.74722446  1
  Ti  Ti129  1  0.00754658  0.19108557  0.00948885  1
  Ti  Ti130  1  0.21090659  -0.00274139  0.25324776  1
  Ti  Ti131  1  0.11301232  0.70471207  0.12315052  1
  Ti  Ti132  1  0.41013107  0.80950927  0.73882604  1
  Ti  Ti133  1  0.19997705  0.79677233  0.50547103  1
  Ti  Ti134  1  0.49865310  0.69549923  0.38247541  1
  Ti  Ti135  1  0.90305628  0.30035975  0.35269070  1
  Ti  Ti136  1  0.60135644  -0.00311769  0.49423491  1
  Ti  Ti137  1  0.30440800  0.90061240  0.62986204  1
  Ti  Ti138  1  0.60166638  -0.00050120  0.23842092  1
  Ti  Ti139  1  0.40516684  0.59811119  0.50660034  1
  Ti  Ti140  1  0.79561298  0.80409783  0.25710191  1
  Ti  Ti141  1  0.68972821  0.48893968  0.38016125  1
  Ti  Ti142  1  0.69672921  0.49137202  0.11574280  1
  Ti  Ti143  1  0.29502990  0.28133765  0.88223243  1
  Ti  Ti144  1  0.89959211  0.69241783  0.61384267  1
  Ti  Ti145  1  0.20253924  0.61593636  -0.00905775  1
  Ti  Ti146  1  0.20944847  -0.01537668  0.50440519  1
  Ti  Ti147  1  0.19692341  0.19074027  0.01034756  1
  Ti  Ti148  1  0.30244085  0.70597097  0.13303257  1
  Ti  Ti149  1  0.90613459  0.50165721  0.88983657  1
  Ti  Ti150  1  0.49163003  0.90079128  0.14536052  1
  Ti  Ti151  1  0.70298232  0.88940147  0.11479849  1
  Ti  Ti152  1  0.39242135  0.20736523  0.47632976  1
  Ti  Ti153  1  0.81665896  -0.00763806  -0.00993834  1
  Ti  Ti154  1  0.39774148  0.60390369  0.25779165  1
  Ti  Ti155  1  0.30126895  0.70611941  0.61881075  1
  Ti  Ti156  1  0.60010599  0.80472609  0.48770589  1
  Ti  Ti157  1  0.80055521  0.40665568  -0.00476697  1
  Ti  Ti158  1  0.80088685  0.39545354  0.49083700  1
  Ti  Ti159  1  0.20266902  0.59691890  0.49295200  1
  Mo  Mo160  1  0.30029840  0.89920798  0.36967171  1
  Mo  Mo161  1  0.29503662  0.29725129  0.35976616  1
  Mo  Mo162  1  0.19628030  0.20087035  0.75275918  1
  Mo  Mo163  1  0.10862476  0.10629245  0.13217288  1
  Mo  Mo164  1  0.48924868  0.50460808  0.12988995  1
  Mo  Mo165  1  0.90087642  0.09286972  0.12748396  1
  Mo  Mo166  1  0.21155539  0.80881199  0.72910413  1
  Mo  Mo167  1  0.50080985  0.49475912  0.63168861  1
  Mo  Mo168  1  0.57469076  0.19017115  0.00263891  1
  Mo  Mo169  1  0.48435621  0.30080376  0.13513672  1
  Mo  Mo170  1  -0.00269924  0.40396830  0.26230620  1
  Mo  Mo171  1  0.20328560  0.00204014  0.00453794  1
  Mo  Mo172  1  0.39781496  0.00293103  0.23841096  1
  Mo  Mo173  1  0.10696911  0.70525218  0.39007875  1
  Mo  Mo174  1  0.28870381  0.09482471  0.89533255  1
  Mo  Mo175  1  0.59025334  0.59391607  0.51106623  1
  Mo  Mo176  1  0.49087340  0.09258828  0.11920476  1
  Mo  Mo177  1  0.69274576  0.49746536  0.90302250  1
  Mo  Mo178  1  0.70240628  0.30405531  0.36754709  1
  Mo  Mo179  1  0.10247211  0.49897732  0.38536568  1
  Mo  Mo180  1  0.00321759  0.20047564  0.24774664  1
  Mo  Mo181  1  0.69634399  0.70438449  0.11965066  1
  Mo  Mo182  1  0.59600156  0.79846866  0.02263260  1
  Mo  Mo183  1  0.91231263  0.70035749  0.87354166  1
  Mo  Mo184  1  0.11055433  0.70780790  0.88305035  1
  Mo  Mo185  1  0.59872766  0.40662121  0.23343457  1
  Mo  Mo186  1  0.39634523  -0.00448385  0.50530865  1
  Mo  Mo187  1  0.39870147  -0.00061049  0.72795826  1
  Mo  Mo188  1  0.69723230  0.90483196  0.36895413  1
  Mo  Mo189  1  0.80255619  0.59154313  0.48990589  1
  Mo  Mo190  1  0.30685113  0.50866310  0.38614697  1
  Mo  Mo191  1  0.49457201  0.89171599  0.87734639  1
  Mo  Mo192  1  0.00079815  0.39944563  -0.00976155  1
  Mo  Mo193  1  0.10864728  0.69672737  0.60560383  1
  Mo  Mo194  1  0.30190993  0.89728867  0.14782540  1
  Mo  Mo195  1  0.59527378  0.19647174  0.50315399  1
  Mo  Mo196  1  0.11450938  0.90201280  0.61936948  1
  Mo  Mo197  1  0.80240122  0.20001964  0.76375600  1
  Mo  Mo198  1  0.20450837  0.21071899  0.47455791  1
  Mo  Mo199  1  0.48235404  0.29615383  0.87641019  1
