# generated using pymatgen
data_HfZrTaTiMo
_symmetry_space_group_name_H-M   'P 1'
_cell_length_a   15.83542127
_cell_length_b   15.83987902
_cell_length_c   15.39113094
_cell_angle_alpha   89.98216043
_cell_angle_beta   90.04551683
_cell_angle_gamma   89.86758051
_symmetry_Int_Tables_number   1
_chemical_formula_structural   HfZrTaTiMo
_chemical_formula_sum   'Hf40 Zr40 Ta40 Ti40 Mo40'
_cell_volume   3860.56346738
_cell_formula_units_Z   40
loop_
 _symmetry_equiv_pos_site_id
 _symmetry_equiv_pos_as_xyz
  1  'x, y, z'
loop_
 _atom_site_type_symbol
 _atom_site_label
 _atom_site_symmetry_multiplicity
 _atom_site_fract_x
 _atom_site_fract_y
 _atom_site_fract_z
 _atom_site_occupancy
  Hf  Hf0  1  0.42183086  0.40404135  0.25626947  1
  Hf  Hf1  1  0.80933794  -0.00139377  0.01315617  1
  Hf  Hf2  1  0.09395987  0.69606942  0.61277332  1
  Hf  Hf3  1  0.68912409  0.89141194  0.12261392  1
  Hf  Hf4  1  0.40834011  -0.00288606  0.48795793  1
  Hf  Hf5  1  0.80171669  0.80145221  0.25181842  1
  Hf  Hf6  1  0.90040576  0.50893730  0.13546683  1
  Hf  Hf7  1  0.80496492  0.20302453  0.01543150  1
  Hf  Hf8  1  0.69746815  0.69821274  0.37756985  1
  Hf  Hf9  1  0.50864726  0.09666901  0.64017162  1
  Hf  Hf10  1  0.00261579  0.19805229  0.73491988  1
  Hf  Hf11  1  0.89748031  0.10921511  0.38385457  1
  Hf  Hf12  1  0.89528215  0.69375016  0.60725565  1
  Hf  Hf13  1  0.27294756  0.90551745  0.38022398  1
  Hf  Hf14  1  0.70290886  0.50682214  0.61195793  1
  Hf  Hf15  1  0.09257792  0.09837665  0.88051998  1
  Hf  Hf16  1  0.20579939  0.60123686  0.73826969  1
  Hf  Hf17  1  0.00144512  0.39619307  -0.00462540  1
  Hf  Hf18  1  0.90297250  0.29494412  0.87679479  1
  Hf  Hf19  1  0.59980240  0.40402535  0.75195768  1
  Hf  Hf20  1  0.09712722  0.69445070  0.37480647  1
  Hf  Hf21  1  0.70913681  0.29740199  0.37943907  1
  Hf  Hf22  1  0.28792994  0.68939591  0.89475041  1
  Hf  Hf23  1  0.19856624  0.39917750  0.24462850  1
  Hf  Hf24  1  0.90340418  0.50625674  0.61326874  1
  Hf  Hf25  1  0.19603830  0.80451369  0.23993798  1
  Hf  Hf26  1  0.50392608  0.29588585  0.62787218  1
  Hf  Hf27  1  0.68433339  0.09959745  0.13086737  1
  Hf  Hf28  1  0.19568206  0.79798277  0.74601541  1
  Hf  Hf29  1  0.09849988  0.89817953  0.87994674  1
  Hf  Hf30  1  0.09318774  0.50114300  0.13207582  1
  Hf  Hf31  1  0.79469408  0.41072231  0.25020556  1
  Hf  Hf32  1  0.40507769  0.60513594  0.25648384  1
  Hf  Hf33  1  -0.00897926  0.80288942  0.01400568  1
  Hf  Hf34  1  0.90470618  0.90097025  0.87686883  1
  Hf  Hf35  1  0.80613860  0.19725424  0.74104265  1
  Hf  Hf36  1  0.00263312  -0.00068760  0.49813346  1
  Hf  Hf37  1  0.48609129  0.69091754  0.62533089  1
  Hf  Hf38  1  0.00551733  0.39430152  0.73490231  1
  Hf  Hf39  1  0.29440783  0.49642395  0.38232365  1
  Zr  Zr40  1  -0.00184273  -0.00216682  0.24807150  1
  Zr  Zr41  1  0.20492340  0.39892140  0.00118738  1
  Zr  Zr42  1  0.80627027  -0.00165625  0.75063180  1
  Zr  Zr43  1  -0.00561293  0.60439401  -0.00970451  1
  Zr  Zr44  1  0.39836358  -0.00786468  0.26012897  1
  Zr  Zr45  1  0.21764655  -0.02153316  0.00340003  1
  Zr  Zr46  1  0.60206291  0.79139648  0.75623397  1
  Zr  Zr47  1  0.69208871  0.90589854  0.62619492  1
  Zr  Zr48  1  0.78257047  0.01172540  0.49980318  1
  Zr  Zr49  1  0.59520952  0.60068448  0.75811984  1
  Zr  Zr50  1  0.80407273  0.00383795  0.24156917  1
  Zr  Zr51  1  0.31312644  0.50536453  0.11230469  1
  Zr  Zr52  1  0.60229510  0.57268434  0.25818625  1
  Zr  Zr53  1  0.70764322  0.87807765  0.89056964  1
  Zr  Zr54  1  0.31695995  0.51075048  0.61955891  1
  Zr  Zr55  1  0.10782224  0.09258189  0.62540506  1
  Zr  Zr56  1  0.51827236  0.48446877  0.10509940  1
  Zr  Zr57  1  0.29773609  0.89792121  0.61743774  1
  Zr  Zr58  1  0.29806528  0.10231955  0.87447611  1
  Zr  Zr59  1  0.49467869  0.89756071  0.63514965  1
  Zr  Zr60  1  0.59756330  0.20640843  -0.00975623  1
  Zr  Zr61  1  0.37841733  0.81278710  0.00930993  1
  Zr  Zr62  1  0.30693486  0.09898884  0.12504737  1
  Zr  Zr63  1  0.58786400  0.80401059  0.49116298  1
  Zr  Zr64  1  0.80290566  0.20451794  0.24078707  1
  Zr  Zr65  1  0.11052031  0.50768360  0.87133791  1
  Zr  Zr66  1  0.30609065  0.10008703  0.63164750  1
  Zr  Zr67  1  0.20806945  0.21434083  -0.00315370  1
  Zr  Zr68  1  0.89655491  0.50052018  0.86480644  1
  Zr  Zr69  1  0.69704034  0.69104206  0.13069353  1
  Zr  Zr70  1  -0.00778865  0.80074773  0.25535413  1
  Zr  Zr71  1  0.00750829  0.20711306  0.26170956  1
  Zr  Zr72  1  0.70460520  0.30217022  0.86894030  1
  Zr  Zr73  1  0.19483217  0.20713288  0.50020798  1
  Zr  Zr74  1  0.49765312  0.90593258  0.11992763  1
  Zr  Zr75  1  0.09722808  0.10319813  0.11427065  1
  Zr  Zr76  1  0.30317624  0.30126380  0.37485626  1
  Zr  Zr77  1  0.69845972  0.29663916  0.62385269  1
  Zr  Zr78  1  0.49137435  0.10866677  0.12099069  1
  Zr  Zr79  1  0.40949434  0.19671020  0.49670785  1
  Ta  Ta80  1  0.20499788  0.39910599  0.73848040  1
  Ta  Ta81  1  0.79468376  0.80390860  0.49553565  1
  Ta  Ta82  1  -0.00603191  0.80045580  0.74048805  1
  Ta  Ta83  1  0.11491840  0.08573008  0.37528782  1
  Ta  Ta84  1  0.70256027  0.49987353  0.88233880  1
  Ta  Ta85  1  0.39278847  0.79473910  0.25147652  1
  Ta  Ta86  1  0.30719542  0.50190561  0.87784999  1
  Ta  Ta87  1  0.20252420  0.60073775  0.24871733  1
  Ta  Ta88  1  0.39831192  0.79683079  0.47553095  1
  Ta  Ta89  1  0.90967207  0.30776051  0.12924117  1
  Ta  Ta90  1  0.69887587  0.69443079  0.60775567  1
  Ta  Ta91  1  0.59588188  0.20919275  0.25615431  1
  Ta  Ta92  1  0.49451152  0.70014528  0.89424716  1
  Ta  Ta93  1  0.29727654  0.10087222  0.36801491  1
  Ta  Ta94  1  0.80200719  0.79179533  0.73570372  1
  Ta  Ta95  1  0.20139036  0.20045598  0.25260922  1
  Ta  Ta96  1  0.10095500  0.49855206  0.60756644  1
  Ta  Ta97  1  0.79696695  0.40583057  0.01138851  1
  Ta  Ta98  1  0.40045626  0.20830427  0.76004161  1
  Ta  Ta99  1  0.49614121  0.89463233  0.88539834  1
  Ta  Ta100  1  0.91655515  0.49706202  0.38127632  1
  Ta  Ta101  1  0.60822404  0.18629816  0.48656161  1
  Ta  Ta102  1  0.60102468  0.00106756  0.77556539  1
  Ta  Ta103  1  0.59904402  0.00131296  -0.01565816  1
  Ta  Ta104  1  0.39217003  0.78914204  0.76533176  1
  Ta  Ta105  1  0.40122742  0.40678561  0.75325506  1
  Ta  Ta106  1  0.59794052  0.39731983  0.49241140  1
  Ta  Ta107  1  0.68308453  0.32076025  0.12822589  1
  Ta  Ta108  1  0.39957952  -0.00787429  0.76837076  1
  Ta  Ta109  1  0.31841029  0.29244749  0.13678205  1
  Ta  Ta110  1  0.49483236  0.50110858  0.88632265  1
  Ta  Ta111  1  0.68955380  0.90636244  0.36268572  1
  Ta  Ta112  1  0.09298836  0.68939089  0.13404715  1
  Ta  Ta113  1  0.60644293  0.60134825  -0.00648604  1
  Ta  Ta114  1  0.79264236  0.60819637  0.75462793  1
  Ta  Ta115  1  0.20204607  0.59992301  0.49668528  1
  Ta  Ta116  1  0.09259908  0.70457270  0.87531167  1
  Ta  Ta117  1  0.49507983  0.69679122  0.11357196  1
  Ta  Ta118  1  0.89127060  0.90190003  0.38566703  1
  Ta  Ta119  1  -0.00333594  0.80138784  0.49091591  1
  Ti  Ti120  1  0.50542664  0.09971029  0.35789436  1
  Ti  Ti121  1  0.49858038  0.29576310  0.12287520  1
  Ti  Ti122  1  0.39918138  0.38057463  -0.01187598  1
  Ti  Ti123  1  0.09871823  0.29933194  0.12721644  1
  Ti  Ti124  1  0.80139049  0.20168089  0.50920035  1
  Ti  Ti125  1  0.80370706  0.40294852  0.73825658  1
  Ti  Ti126  1  0.49886753  0.30166430  0.86952142  1
  Ti  Ti127  1  0.70821838  0.49609028  0.39448326  1
  Ti  Ti128  1  0.29134881  0.70214636  0.37762741  1
  Ti  Ti129  1  0.90823089  0.30956357  0.37864526  1
  Ti  Ti130  1  0.09602172  0.90508466  0.12154857  1
  Ti  Ti131  1  -0.00025192  0.21166333  0.50803972  1
  Ti  Ti132  1  0.59495608  0.00347279  0.48202241  1
  Ti  Ti133  1  0.50562626  0.29928977  0.37814381  1
  Ti  Ti134  1  0.79886998  0.60664598  -0.00595398  1
  Ti  Ti135  1  0.68861402  0.10230211  0.63806133  1
  Ti  Ti136  1  0.58063333  0.79400308  0.25810660  1
  Ti  Ti137  1  -0.00387058  0.60858734  0.75350077  1
  Ti  Ti138  1  0.90958784  0.09996761  0.88784600  1
  Ti  Ti139  1  0.49721916  0.10334920  0.87670483  1
  Ti  Ti140  1  0.09805171  0.32459323  0.38693471  1
  Ti  Ti141  1  0.20196459  0.21065823  0.74664167  1
  Ti  Ti142  1  0.40585209  0.60602216  0.47926187  1
  Ti  Ti143  1  0.19118438  0.78926903  0.01972312  1
  Ti  Ti144  1  0.88948664  0.71212421  0.87285160  1
  Ti  Ti145  1  0.80998491  0.60213455  0.26904296  1
  Ti  Ti146  1  0.89880031  0.89777846  0.61646381  1
  Ti  Ti147  1  0.10344153  0.89425851  0.61121478  1
  Ti  Ti148  1  0.50180648  0.50098759  0.61750995  1
  Ti  Ti149  1  0.81146510  0.39419903  0.50416810  1
  Ti  Ti150  1  0.10333571  0.29776381  0.86887657  1
  Ti  Ti151  1  0.20141941  -0.00716845  0.75418003  1
  Ti  Ti152  1  0.70782896  0.10205536  0.87525489  1
  Ti  Ti153  1  0.40624571  0.40039007  0.50068195  1
  Ti  Ti154  1  0.00124462  -0.00793214  0.73837585  1
  Ti  Ti155  1  0.90010283  0.09673112  0.61631754  1
  Ti  Ti156  1  0.30464985  0.30478258  0.62585784  1
  Ti  Ti157  1  0.30184517  0.70631791  0.61094643  1
  Ti  Ti158  1  0.89772572  0.69565291  0.13134024  1
  Ti  Ti159  1  0.59005616  0.59769554  0.48835768  1
  Mo  Mo160  1  0.90714399  0.10812905  0.11390147  1
  Mo  Mo161  1  0.79844904  0.59843322  0.48430264  1
  Mo  Mo162  1  0.40647685  0.00486870  -0.01856819  1
  Mo  Mo163  1  0.60681972  0.39519895  0.27022047  1
  Mo  Mo164  1  0.69364610  0.10234559  0.36195402  1
  Mo  Mo165  1  0.29691964  0.89298835  0.86131818  1
  Mo  Mo166  1  -0.00202792  0.59807100  0.26476387  1
  Mo  Mo167  1  0.20114165  0.00251247  0.50569362  1
  Mo  Mo168  1  0.70631484  0.50158630  0.11130175  1
  Mo  Mo169  1  0.19696470  0.60658025  0.01757146  1
  Mo  Mo170  1  0.29501583  0.69693840  0.12490522  1
  Mo  Mo171  1  0.49853416  0.49417898  0.39372140  1
  Mo  Mo172  1  0.29390939  0.90072991  0.14214977  1
  Mo  Mo173  1  0.29942822  0.30930740  0.85332126  1
  Mo  Mo174  1  0.40008238  0.60290031  0.76748660  1
  Mo  Mo175  1  0.00436502  0.39336603  0.50980195  1
  Mo  Mo176  1  0.19431549  0.00308452  0.23984894  1
  Mo  Mo177  1  0.59886216  0.00121630  0.25787600  1
  Mo  Mo178  1  0.49764428  0.89689863  0.36347301  1
  Mo  Mo179  1  0.40127362  0.21133120  -0.01775456  1
  Mo  Mo180  1  0.89462617  0.69830400  0.38651192  1
  Mo  Mo181  1  0.59826998  0.19274819  0.76658854  1
  Mo  Mo182  1  0.00018631  0.39802255  0.25186234  1
  Mo  Mo183  1  0.09335046  0.90008455  0.38509026  1
  Mo  Mo184  1  0.10822763  0.30177307  0.62119649  1
  Mo  Mo185  1  0.20535580  0.40184570  0.51707394  1
  Mo  Mo186  1  0.10261214  0.49783122  0.38217042  1
  Mo  Mo187  1  0.59483831  0.79425779  0.00108344  1
  Mo  Mo188  1  0.00234769  0.59630783  0.48431544  1
  Mo  Mo189  1  0.70662072  0.69417663  0.88386915  1
  Mo  Mo190  1  0.49579428  0.69661467  0.36797243  1
  Mo  Mo191  1  0.80458158  0.79017350  0.01735928  1
  Mo  Mo192  1  0.00122301  0.20639746  0.00151136  1
  Mo  Mo193  1  0.40284808  0.59982938  -0.00047799  1
  Mo  Mo194  1  -0.00011418  0.00188126  0.00951157  1
  Mo  Mo195  1  0.89720177  0.89728267  0.11964991  1
  Mo  Mo196  1  0.19640497  0.79587233  0.50304126  1
  Mo  Mo197  1  0.60137704  0.39966369  -0.01797905  1
  Mo  Mo198  1  0.40406634  0.20365493  0.26305884  1
  Mo  Mo199  1  0.90127047  0.29898510  0.61435016  1
