# generated using pymatgen
data_HfZrTaTiMo
_symmetry_space_group_name_H-M   'P 1'
_cell_length_a   15.84526176
_cell_length_b   15.83623334
_cell_length_c   15.39646145
_cell_angle_alpha   90.00930991
_cell_angle_beta   90.00993602
_cell_angle_gamma   90.06827298
_symmetry_Int_Tables_number   1
_chemical_formula_structural   HfZrTaTiMo
_chemical_formula_sum   'Hf40 Zr40 Ta40 Ti40 Mo40'
_cell_volume   3863.41986748
_cell_formula_units_Z   40
loop_
 _symmetry_equiv_pos_site_id
 _symmetry_equiv_pos_as_xyz
  1  'x, y, z'
loop_
 _atom_site_type_symbol
 _atom_site_label
 _atom_site_symmetry_multiplicity
 _atom_site_fract_x
 _atom_site_fract_y
 _atom_site_fract_z
 _atom_site_occupancy
  Hf  Hf0  1  0.20457397  0.20250645  0.00747514  1
  Hf  Hf1  1  0.89452354  0.30135091  0.36808197  1
  Hf  Hf2  1  0.30350287  0.89583151  0.11407058  1
  Hf  Hf3  1  0.59390336  0.19303558  0.01101546  1
  Hf  Hf4  1  0.79907376  0.59936366  0.75299043  1
  Hf  Hf5  1  0.29730417  0.69576749  0.37464571  1
  Hf  Hf6  1  0.80767061  0.20786839  0.73194343  1
  Hf  Hf7  1  0.50755629  0.70158766  0.11720502  1
  Hf  Hf8  1  0.39925853  -0.00718480  0.75368726  1
  Hf  Hf9  1  0.29916816  0.89068077  0.62761414  1
  Hf  Hf10  1  0.70112898  0.08898514  0.62202264  1
  Hf  Hf11  1  0.39680124  0.20595888  -0.00446916  1
  Hf  Hf12  1  0.20277189  0.19486785  0.49618857  1
  Hf  Hf13  1  0.69887222  0.91323246  0.85988239  1
  Hf  Hf14  1  0.49405142  0.30670850  0.86322440  1
  Hf  Hf15  1  0.51060796  0.09936665  0.85552849  1
  Hf  Hf16  1  0.70219096  0.28747124  0.35898916  1
  Hf  Hf17  1  0.09820667  0.88808662  0.62810208  1
  Hf  Hf18  1  0.49551401  0.29511808  0.14213674  1
  Hf  Hf19  1  -0.02203936  -0.01097408  0.52079801  1
  Hf  Hf20  1  0.20636074  0.40624629  0.47425952  1
  Hf  Hf21  1  0.49309011  0.50697552  0.14096591  1
  Hf  Hf22  1  0.90279617  0.91523267  0.35349970  1
  Hf  Hf23  1  0.40154899  0.59946024  0.76681436  1
  Hf  Hf24  1  -0.00220492  0.58578950  0.74850409  1
  Hf  Hf25  1  0.69653041  0.90060665  0.11751172  1
  Hf  Hf26  1  0.09271708  0.29463481  0.88210057  1
  Hf  Hf27  1  -0.00765142  0.79905938  0.76294782  1
  Hf  Hf28  1  0.59945505  0.20825719  0.50785766  1
  Hf  Hf29  1  0.58896884  0.40241804  0.00076596  1
  Hf  Hf30  1  0.88134758  0.10374333  0.37533805  1
  Hf  Hf31  1  0.09861893  0.47908419  0.62092875  1
  Hf  Hf32  1  0.49685527  0.09768024  0.62469114  1
  Hf  Hf33  1  0.80498524  0.81973876  0.50056146  1
  Hf  Hf34  1  0.09222662  0.30003778  0.37447017  1
  Hf  Hf35  1  0.79716651  0.60850479  0.49233813  1
  Hf  Hf36  1  0.89734114  0.50639543  0.13171020  1
  Hf  Hf37  1  0.20191645  -0.00428647  0.50286161  1
  Hf  Hf38  1  0.39131875  0.39286953  0.27431830  1
  Hf  Hf39  1  0.80741414  0.81826179  -0.01597999  1
  Zr  Zr40  1  0.20426847  -0.00649242  0.25545068  1
  Zr  Zr41  1  0.70047609  0.69712795  0.10182673  1
  Zr  Zr42  1  -0.01315978  -0.00602599  -0.00809499  1
  Zr  Zr43  1  0.09518532  0.88085266  0.38747947  1
  Zr  Zr44  1  0.91644484  0.71061748  0.37798910  1
  Zr  Zr45  1  0.89978321  0.70606156  0.62268303  1
  Zr  Zr46  1  0.69218602  0.91847825  0.37502589  1
  Zr  Zr47  1  0.49166398  0.31281178  0.63606393  1
  Zr  Zr48  1  0.40544154  0.80836175  0.50028814  1
  Zr  Zr49  1  0.49114223  0.50430439  0.62640553  1
  Zr  Zr50  1  0.40450142  0.80593167  0.25106412  1
  Zr  Zr51  1  0.50500714  0.70018329  0.62156539  1
  Zr  Zr52  1  0.80751398  0.40336877  0.74529123  1
  Zr  Zr53  1  0.80358628  0.41200755  0.49629034  1
  Zr  Zr54  1  0.09997777  0.10006687  0.87867737  1
  Zr  Zr55  1  0.78791968  0.79459743  0.25454310  1
  Zr  Zr56  1  0.10354704  0.69786701  0.61335200  1
  Zr  Zr57  1  0.00328927  0.79904444  -0.00619131  1
  Zr  Zr58  1  0.10258826  0.30241335  0.13993244  1
  Zr  Zr59  1  0.50169326  0.70501396  0.37974500  1
  Zr  Zr60  1  0.10533109  0.89971576  0.11617385  1
  Zr  Zr61  1  0.21095023  0.19911094  0.26302469  1
  Zr  Zr62  1  0.28984016  0.89764048  0.87904483  1
  Zr  Zr63  1  0.69693007  0.50501430  0.12807230  1
  Zr  Zr64  1  0.00459107  0.39781696  0.01687959  1
  Zr  Zr65  1  0.69273347  0.50742464  0.62339229  1
  Zr  Zr66  1  0.08085567  0.08574682  0.37124103  1
  Zr  Zr67  1  0.70407630  0.29993174  0.87885061  1
  Zr  Zr68  1  0.10824523  0.69039413  0.88060893  1
  Zr  Zr69  1  0.90078551  0.69689596  0.11745142  1
  Zr  Zr70  1  0.89695284  0.10419544  0.12581583  1
  Zr  Zr71  1  0.21305879  0.58033233  0.74309708  1
  Zr  Zr72  1  0.70208699  0.29704338  0.14207693  1
  Zr  Zr73  1  0.59322162  0.40301160  0.48625178  1
  Zr  Zr74  1  0.30544611  0.69179494  0.11982957  1
  Zr  Zr75  1  0.19717700  0.20134845  0.74135013  1
  Zr  Zr76  1  0.40493778  0.00992771  -0.00581818  1
  Zr  Zr77  1  0.70552701  0.10121452  0.86988242  1
  Zr  Zr78  1  0.91947748  0.31845416  0.60444343  1
  Zr  Zr79  1  0.89668217  0.10841685  0.88007188  1
  Ta  Ta80  1  0.70156479  0.49905947  0.36282367  1
  Ta  Ta81  1  0.70017870  0.89617984  0.64093094  1
  Ta  Ta82  1  0.10867593  0.48495990  0.87340688  1
  Ta  Ta83  1  0.40759847  0.00138094  0.24950525  1
  Ta  Ta84  1  0.40311814  0.58595358  -0.01227239  1
  Ta  Ta85  1  0.69561810  0.71040773  0.63793355  1
  Ta  Ta86  1  0.10777632  0.69215159  0.12092821  1
  Ta  Ta87  1  0.89501922  0.69079521  0.88193262  1
  Ta  Ta88  1  0.39133864  0.20502206  0.74823057  1
  Ta  Ta89  1  0.60577517  0.20947661  0.73428556  1
  Ta  Ta90  1  0.90367464  0.49355915  0.88803854  1
  Ta  Ta91  1  0.19871147  0.79214083  0.24933095  1
  Ta  Ta92  1  0.60874311  0.61495199  0.26203892  1
  Ta  Ta93  1  0.50381997  0.89906230  0.11344489  1
  Ta  Ta94  1  0.69871105  0.70468363  0.87669278  1
  Ta  Ta95  1  0.40248311  0.79318624  0.76294917  1
  Ta  Ta96  1  -0.00690864  0.00371657  0.74453854  1
  Ta  Ta97  1  0.41206085  0.79701551  -0.01597029  1
  Ta  Ta98  1  0.30378764  0.10220874  0.62261280  1
  Ta  Ta99  1  0.10456248  0.90097836  0.86912723  1
  Ta  Ta100  1  0.00904972  0.79674528  0.23706899  1
  Ta  Ta101  1  0.70433642  0.50172310  0.88552361  1
  Ta  Ta102  1  0.29730734  0.31212335  0.61883655  1
  Ta  Ta103  1  0.80221168  0.60363148  0.26566490  1
  Ta  Ta104  1  0.39736364  0.39868854  0.48154387  1
  Ta  Ta105  1  0.40865415  0.19094074  0.26751222  1
  Ta  Ta106  1  -0.00112243  0.41368564  0.25935499  1
  Ta  Ta107  1  0.59742714  0.60000751  0.76820882  1
  Ta  Ta108  1  -0.00141921  0.20038277  0.73420630  1
  Ta  Ta109  1  0.29722160  0.49835082  0.14215551  1
  Ta  Ta110  1  0.30615906  0.10244238  0.13336571  1
  Ta  Ta111  1  0.30361416  0.69321449  0.61532227  1
  Ta  Ta112  1  0.51204765  0.09381203  0.38333507  1
  Ta  Ta113  1  0.40074136  0.20642227  0.48953580  1
  Ta  Ta114  1  -0.00266734  0.57932221  0.49203042  1
  Ta  Ta115  1  0.20192770  0.59103412  0.49533184  1
  Ta  Ta116  1  0.29811018  0.69503692  0.88908157  1
  Ta  Ta117  1  0.89705658  0.90488380  0.13883628  1
  Ta  Ta118  1  0.09826040  0.10004022  0.12481620  1
  Ta  Ta119  1  0.80194526  0.39886608  0.00680112  1
  Ti  Ti120  1  0.31052330  0.09074097  0.38025335  1
  Ti  Ti121  1  0.80067188  0.20425730  0.01211616  1
  Ti  Ti122  1  0.89556968  0.30310334  0.14292951  1
  Ti  Ti123  1  0.00711707  0.59024055  -0.00214611  1
  Ti  Ti124  1  0.60710574  0.40682415  0.75453824  1
  Ti  Ti125  1  0.40402134  -0.00023831  0.50110550  1
  Ti  Ti126  1  0.10717899  0.50758198  0.14609132  1
  Ti  Ti127  1  0.20306022  0.58498278  0.00283959  1
  Ti  Ti128  1  0.19708065  0.00133529  0.74347378  1
  Ti  Ti129  1  0.20589219  0.40294970  0.01055173  1
  Ti  Ti130  1  0.60694258  0.60582397  0.48693906  1
  Ti  Ti131  1  0.78248014  0.01777739  0.23536086  1
  Ti  Ti132  1  0.59032222  0.59854428  -0.02028652  1
  Ti  Ti133  1  0.49770880  0.51121809  0.36556400  1
  Ti  Ti134  1  0.20722121  0.78668831  0.75358096  1
  Ti  Ti135  1  0.29968616  0.89571398  0.37914241  1
  Ti  Ti136  1  0.28835465  0.31013732  0.86919154  1
  Ti  Ti137  1  0.59349655  0.01109725  0.23400055  1
  Ti  Ti138  1  0.79822786  0.20387220  0.51558236  1
  Ti  Ti139  1  0.50604535  0.91119684  0.37809102  1
  Ti  Ti140  1  0.69602669  0.09749923  0.38807042  1
  Ti  Ti141  1  0.39240351  0.58604231  0.49430926  1
  Ti  Ti142  1  0.20279157  0.00597152  0.00101486  1
  Ti  Ti143  1  0.30127708  0.30337140  0.13674996  1
  Ti  Ti144  1  0.58901075  0.79910837  0.76603494  1
  Ti  Ti145  1  0.09787463  0.09733840  0.62351867  1
  Ti  Ti146  1  0.29616403  0.10461635  0.86641228  1
  Ti  Ti147  1  0.59915759  0.00124723  0.00249792  1
  Ti  Ti148  1  0.10448935  0.29872478  0.61320281  1
  Ti  Ti149  1  0.39176578  0.40315042  -0.00014044  1
  Ti  Ti150  1  0.59998984  0.80533539  0.25424157  1
  Ti  Ti151  1  0.90462030  0.29690060  0.88666902  1
  Ti  Ti152  1  0.37524338  0.41293416  0.75597360  1
  Ti  Ti153  1  0.60911491  0.80449128  0.50064286  1
  Ti  Ti154  1  -0.00399036  0.19569406  0.24730359  1
  Ti  Ti155  1  0.10278529  0.69289328  0.37817204  1
  Ti  Ti156  1  -0.00315563  0.19250952  0.50484214  1
  Ti  Ti157  1  0.59427369  0.40076884  0.26131519  1
  Ti  Ti158  1  0.00056180  0.39291258  0.75668210  1
  Ti  Ti159  1  0.51104574  0.89984309  0.63134484  1
  Mo  Mo160  1  0.80021241  0.40512436  0.24868410  1
  Mo  Mo161  1  0.19926497  0.60416705  0.25052721  1
  Mo  Mo162  1  0.89225841  0.89958955  0.64334611  1
  Mo  Mo163  1  0.10179687  0.51109515  0.35906646  1
  Mo  Mo164  1  0.19949986  0.40466496  0.25664559  1
  Mo  Mo165  1  0.89653087  0.90615784  0.85518670  1
  Mo  Mo166  1  -0.00032351  0.79457345  0.50406968  1
  Mo  Mo167  1  0.90850690  0.50487203  0.62606111  1
  Mo  Mo168  1  0.59958351  0.17939643  0.24933671  1
  Mo  Mo169  1  0.49575979  0.09715583  0.13252737  1
  Mo  Mo170  1  0.20337271  0.79028462  0.49765239  1
  Mo  Mo171  1  0.59776573  0.80693200  -0.01718387  1
  Mo  Mo172  1  0.79613103  0.79701791  0.76219793  1
  Mo  Mo173  1  0.00672884  0.60784844  0.25110808  1
  Mo  Mo174  1  -0.00143622  -0.00087292  0.23863247  1
  Mo  Mo175  1  0.69917467  0.70527049  0.38561739  1
  Mo  Mo176  1  0.80890835  0.00065807  0.73340300  1
  Mo  Mo177  1  0.30029932  0.50792590  0.35957311  1
  Mo  Mo178  1  0.19682154  0.39096176  0.74952377  1
  Mo  Mo179  1  0.59323743  -0.00968617  0.51198810  1
  Mo  Mo180  1  0.79592297  0.19649145  0.24600677  1
  Mo  Mo181  1  0.50164223  0.69847631  0.88118429  1
  Mo  Mo182  1  0.50561193  0.29204929  0.36648942  1
  Mo  Mo183  1  0.59729203  -0.00251057  0.73703552  1
  Mo  Mo184  1  -0.00283085  0.20509940  0.02000345  1
  Mo  Mo185  1  0.29486584  0.49159448  0.89258164  1
  Mo  Mo186  1  0.90032482  0.50542264  0.35826937  1
  Mo  Mo187  1  0.80073332  0.59712437  -0.01464568  1
  Mo  Mo188  1  0.49973383  0.49137924  0.87028631  1
  Mo  Mo189  1  0.79550483  0.00136980  0.51194215  1
  Mo  Mo190  1  0.40555751  0.59853416  0.25350965  1
  Mo  Mo191  1  0.79361188  0.00225395  0.01067909  1
  Mo  Mo192  1  0.69709846  0.09719579  0.11178381  1
  Mo  Mo193  1  0.69794523  0.30373848  0.62601621  1
  Mo  Mo194  1  0.20547624  0.79411050  -0.00211075  1
  Mo  Mo195  1  0.90271853  0.10636629  0.61865071  1
  Mo  Mo196  1  0.50484445  0.90023915  0.87774183  1
  Mo  Mo197  1  0.30089674  0.29203160  0.38156456  1
  Mo  Mo198  1  0.00489002  0.40442182  0.47596777  1
  Mo  Mo199  1  0.30197012  0.49566949  0.61353791  1
