# generated using pymatgen
data_HfZrTaTiMo
_symmetry_space_group_name_H-M   'P 1'
_cell_length_a   15.85208446
_cell_length_b   15.83219400
_cell_length_c   15.42124816
_cell_angle_alpha   90.01908936
_cell_angle_beta   89.98650684
_cell_angle_gamma   89.98998931
_symmetry_Int_Tables_number   1
_chemical_formula_structural   HfZrTaTiMo
_chemical_formula_sum   'Hf40 Zr40 Ta40 Ti40 Mo40'
_cell_volume   3870.32079574
_cell_formula_units_Z   40
loop_
 _symmetry_equiv_pos_site_id
 _symmetry_equiv_pos_as_xyz
  1  'x, y, z'
loop_
 _atom_site_type_symbol
 _atom_site_label
 _atom_site_symmetry_multiplicity
 _atom_site_fract_x
 _atom_site_fract_y
 _atom_site_fract_z
 _atom_site_occupancy
  Hf  Hf0  1  0.38655609  -0.00228221  0.24927826  1
  Hf  Hf1  1  0.90007326  0.68932862  0.63345043  1
  Hf  Hf2  1  0.49576837  0.30960452  0.14371785  1
  Hf  Hf3  1  0.58648326  0.00666934  0.73596622  1
  Hf  Hf4  1  0.91849921  0.70850131  0.88178413  1
  Hf  Hf5  1  0.91043138  0.49385331  0.85723967  1
  Hf  Hf6  1  0.49775930  0.09145515  0.88631861  1
  Hf  Hf7  1  0.30727052  0.68354487  0.10625188  1
  Hf  Hf8  1  0.81132808  0.01117969  0.73456913  1
  Hf  Hf9  1  0.19121998  0.40413899  -0.02228497  1
  Hf  Hf10  1  0.61047864  0.60413961  0.26502288  1
  Hf  Hf11  1  0.59670320  0.00819481  0.49330597  1
  Hf  Hf12  1  0.89435116  0.29650067  0.61168763  1
  Hf  Hf13  1  0.41873300  -0.00749803  0.01898995  1
  Hf  Hf14  1  0.48794376  0.52208101  0.13492847  1
  Hf  Hf15  1  0.79566856  0.19678345  0.26913498  1
  Hf  Hf16  1  0.59835112  0.40701883  0.73772136  1
  Hf  Hf17  1  0.60401593  0.20512804  0.48999589  1
  Hf  Hf18  1  0.69860139  0.29259315  0.87048790  1
  Hf  Hf19  1  0.39079569  0.61171514  0.50388411  1
  Hf  Hf20  1  -0.00207123  0.38972823  -0.01122389  1
  Hf  Hf21  1  0.68974388  0.50280994  0.87870346  1
  Hf  Hf22  1  0.21250181  0.78986996  0.74532506  1
  Hf  Hf23  1  0.20359926  0.59554327  0.25458565  1
  Hf  Hf24  1  0.79791004  0.80946292  0.75621415  1
  Hf  Hf25  1  0.71195325  0.50355953  0.61923329  1
  Hf  Hf26  1  0.09773247  0.89059531  0.89046027  1
  Hf  Hf27  1  0.09895768  0.49454477  0.36984561  1
  Hf  Hf28  1  0.50306774  0.29595499  0.87710275  1
  Hf  Hf29  1  0.29706113  0.28860139  0.87439394  1
  Hf  Hf30  1  0.09403498  0.10943414  0.10486782  1
  Hf  Hf31  1  0.79947551  0.19867197  0.00797331  1
  Hf  Hf32  1  0.60626810  0.60864522  0.49110716  1
  Hf  Hf33  1  0.31241066  0.89630623  0.89163976  1
  Hf  Hf34  1  0.90501930  0.49901499  0.13652566  1
  Hf  Hf35  1  0.59933879  0.19773459  0.02096031  1
  Hf  Hf36  1  0.00326906  -0.00959637  0.24334409  1
  Hf  Hf37  1  0.20197829  0.78915160  0.50697682  1
  Hf  Hf38  1  0.90225170  0.29873116  0.13469811  1
  Hf  Hf39  1  0.08789146  0.69905720  0.37152273  1
  Zr  Zr40  1  0.19814537  0.79531926  0.23671032  1
  Zr  Zr41  1  0.40837835  0.18487770  0.73646484  1
  Zr  Zr42  1  0.69947269  0.70599319  0.12067966  1
  Zr  Zr43  1  0.29138362  0.10704337  0.11816781  1
  Zr  Zr44  1  0.01082544  0.20201236  0.25986273  1
  Zr  Zr45  1  0.60488014  0.20379086  0.72079257  1
  Zr  Zr46  1  0.90662251  0.49524057  0.63280929  1
  Zr  Zr47  1  0.60605089  0.83586061  -0.00968571  1
  Zr  Zr48  1  0.29334656  0.30001198  0.38881784  1
  Zr  Zr49  1  0.59381490  0.40619632  0.00685434  1
  Zr  Zr50  1  0.39544966  0.41418051  -0.00785770  1
  Zr  Zr51  1  0.20556484  -0.00912821  0.75227156  1
  Zr  Zr52  1  0.62047403  0.40205141  0.48744862  1
  Zr  Zr53  1  0.00692006  0.80921573  0.73739250  1
  Zr  Zr54  1  0.20632425  -0.01082405  0.48689685  1
  Zr  Zr55  1  0.08998024  0.09542371  0.88706370  1
  Zr  Zr56  1  0.80101451  0.39632719  -0.00546373  1
  Zr  Zr57  1  0.49354426  0.49804820  0.37564890  1
  Zr  Zr58  1  0.29373455  0.29927107  0.62442553  1
  Zr  Zr59  1  0.69722156  0.09293834  0.87486361  1
  Zr  Zr60  1  0.69620725  0.90310998  0.62718759  1
  Zr  Zr61  1  0.70242180  0.50337530  0.13165502  1
  Zr  Zr62  1  0.51645932  0.89703435  0.15050889  1
  Zr  Zr63  1  0.09804570  0.49762820  0.12845021  1
  Zr  Zr64  1  0.48666445  0.71501823  0.36594787  1
  Zr  Zr65  1  0.90898348  0.10074482  0.38882089  1
  Zr  Zr66  1  0.37988552  0.40808690  0.24995184  1
  Zr  Zr67  1  0.81261973  0.81603501  0.00466505  1
  Zr  Zr68  1  0.19561039  0.18676294  0.74900276  1
  Zr  Zr69  1  0.29222056  0.49603678  0.62825801  1
  Zr  Zr70  1  0.19259832  -0.00294632  0.24920515  1
  Zr  Zr71  1  0.79495104  0.60345928  0.76363363  1
  Zr  Zr72  1  0.89313175  0.87948174  0.36272563  1
  Zr  Zr73  1  0.49289532  0.90097424  0.36695307  1
  Zr  Zr74  1  0.40288983  0.81069846  0.74474120  1
  Zr  Zr75  1  0.88690812  0.09069373  0.13114930  1
  Zr  Zr76  1  0.59850700  0.80694908  0.49899416  1
  Zr  Zr77  1  0.69479812  0.70463793  0.88656247  1
  Zr  Zr78  1  0.40393525  0.40747073  0.75625159  1
  Zr  Zr79  1  0.39657050  0.61017775  0.75440555  1
  Ta  Ta80  1  0.50354567  0.10259759  0.14735346  1
  Ta  Ta81  1  -0.00181445  0.39990585  0.49611918  1
  Ta  Ta82  1  0.48969997  0.10839821  0.36734001  1
  Ta  Ta83  1  0.69876426  0.70031591  0.62491003  1
  Ta  Ta84  1  0.49502288  0.31102550  0.60163740  1
  Ta  Ta85  1  0.10135144  0.68265060  0.63251701  1
  Ta  Ta86  1  0.40098153  0.20209407  0.01379625  1
  Ta  Ta87  1  0.20186696  0.59735534  0.76523020  1
  Ta  Ta88  1  0.09062814  0.89171751  0.38066243  1
  Ta  Ta89  1  0.60033273  0.20501350  0.26334382  1
  Ta  Ta90  1  0.30769570  0.08130533  0.61720799  1
  Ta  Ta91  1  0.80784006  0.80076088  0.51477501  1
  Ta  Ta92  1  -0.01070023  0.18444526  0.73373985  1
  Ta  Ta93  1  0.90764068  0.50646500  0.36984376  1
  Ta  Ta94  1  -0.00574553  -0.01255287  0.51034152  1
  Ta  Ta95  1  0.09545350  0.49168107  0.64540861  1
  Ta  Ta96  1  0.90491804  0.91365378  0.87051475  1
  Ta  Ta97  1  0.79556651  0.38756175  0.75118740  1
  Ta  Ta98  1  0.41723657  0.78990758  0.00983538  1
  Ta  Ta99  1  0.39975784  0.19406661  0.50097692  1
  Ta  Ta100  1  0.69980458  0.30522143  0.14800043  1
  Ta  Ta101  1  0.28389724  0.30041593  0.11380330  1
  Ta  Ta102  1  0.09413296  0.30122239  0.62787541  1
  Ta  Ta103  1  0.80932909  0.59660854  -0.00550554  1
  Ta  Ta104  1  0.09838078  0.09728731  0.61250366  1
  Ta  Ta105  1  -0.00111761  0.79496730  0.51425793  1
  Ta  Ta106  1  0.79906222  -0.00446143  0.49423565  1
  Ta  Ta107  1  0.00226572  0.59618616  0.50251608  1
  Ta  Ta108  1  0.59113966  0.60720663  0.74369518  1
  Ta  Ta109  1  0.19422503  0.59697936  0.50122502  1
  Ta  Ta110  1  -0.01591719  -0.01584363  0.01609145  1
  Ta  Ta111  1  0.91009324  0.69038473  0.11090419  1
  Ta  Ta112  1  0.61568688  0.01193177  0.27384070  1
  Ta  Ta113  1  0.90203346  0.09857685  0.88448418  1
  Ta  Ta114  1  0.59617849  0.80647446  0.75526419  1
  Ta  Ta115  1  -0.00019986  0.79029796  0.22709468  1
  Ta  Ta116  1  0.72382316  0.71653611  0.37700505  1
  Ta  Ta117  1  0.19003179  0.38505681  0.25210015  1
  Ta  Ta118  1  0.49273727  0.30343800  0.37405414  1
  Ta  Ta119  1  0.81529240  0.61416668  0.25744404  1
  Ti  Ti120  1  0.10819681  0.70107847  0.88219067  1
  Ti  Ti121  1  0.78613969  -0.00639271  -0.00374133  1
  Ti  Ti122  1  0.28973623  0.49701436  0.11828643  1
  Ti  Ti123  1  0.49939572  0.50351035  0.60909151  1
  Ti  Ti124  1  0.10368447  0.69425969  0.10397387  1
  Ti  Ti125  1  0.80678262  0.60055652  0.48561215  1
  Ti  Ti126  1  0.19956858  0.19313717  0.50819069  1
  Ti  Ti127  1  0.00000132  0.39018057  0.26411545  1
  Ti  Ti128  1  0.30333947  0.09505010  0.88998590  1
  Ti  Ti129  1  0.38694427  0.61296650  0.26286741  1
  Ti  Ti130  1  0.80245512  0.19685646  0.73998529  1
  Ti  Ti131  1  0.10720461  0.90170618  0.61845557  1
  Ti  Ti132  1  0.58108264  0.61373834  0.00405071  1
  Ti  Ti133  1  0.08973849  0.29222858  0.85958428  1
  Ti  Ti134  1  0.29745217  0.88792980  0.11533939  1
  Ti  Ti135  1  0.69677165  0.09463263  0.13750002  1
  Ti  Ti136  1  0.09963559  0.09501270  0.39070057  1
  Ti  Ti137  1  0.10192073  0.29474912  0.11312651  1
  Ti  Ti138  1  0.38661517  0.20502589  0.24802742  1
  Ti  Ti139  1  0.09433680  0.29000461  0.39618434  1
  Ti  Ti140  1  0.01159809  0.58885682  -0.01430405  1
  Ti  Ti141  1  0.79488224  0.22010594  0.48201395  1
  Ti  Ti142  1  0.48046652  0.91824974  0.62020038  1
  Ti  Ti143  1  0.19544577  0.20211284  0.25577329  1
  Ti  Ti144  1  0.79636083  0.40485395  0.27430105  1
  Ti  Ti145  1  0.61909783  0.80272298  0.26222461  1
  Ti  Ti146  1  0.49717206  0.70850029  0.87454927  1
  Ti  Ti147  1  0.19115942  0.40184251  0.50360358  1
  Ti  Ti148  1  0.19890456  -0.00747359  0.00674630  1
  Ti  Ti149  1  0.39313528  -0.00219268  0.48412370  1
  Ti  Ti150  1  0.38795707  0.80423041  0.51470456  1
  Ti  Ti151  1  0.90241035  0.28529772  0.86385957  1
  Ti  Ti152  1  0.71807924  0.91403101  0.15167310  1
  Ti  Ti153  1  0.30144582  0.87306841  0.36420413  1
  Ti  Ti154  1  0.29540673  0.49851071  0.38727573  1
  Ti  Ti155  1  0.21042907  0.59137154  -0.02651229  1
  Ti  Ti156  1  0.29539749  0.10571743  0.37449909  1
  Ti  Ti157  1  0.50311073  0.70724614  0.62368843  1
  Ti  Ti158  1  -0.00151911  0.00326101  0.73212105  1
  Ti  Ti159  1  0.71439807  0.11124291  0.60526783  1
  Mo  Mo160  1  0.39615738  0.00287180  0.75351247  1
  Mo  Mo161  1  0.10146176  0.89452802  0.10800526  1
  Mo  Mo162  1  0.30172835  0.90110643  0.61928479  1
  Mo  Mo163  1  0.29599329  0.69561513  0.61918877  1
  Mo  Mo164  1  0.00699331  0.19810440  0.50847754  1
  Mo  Mo165  1  0.80482315  0.79454515  0.23310835  1
  Mo  Mo166  1  0.00236750  0.60368025  0.24543698  1
  Mo  Mo167  1  -0.00332023  0.38014302  0.74978578  1
  Mo  Mo168  1  0.50548204  0.51571440  0.87672272  1
  Mo  Mo169  1  0.90597151  0.69840219  0.38376065  1
  Mo  Mo170  1  0.39815763  0.40098139  0.49935963  1
  Mo  Mo171  1  0.70617938  0.89929559  0.37382252  1
  Mo  Mo172  1  0.29307643  0.69808589  0.38112257  1
  Mo  Mo173  1  -0.00682170  0.20008686  -0.00386884  1
  Mo  Mo174  1  0.39277941  0.79409897  0.22787825  1
  Mo  Mo175  1  0.29919095  0.49905428  0.86304122  1
  Mo  Mo176  1  0.01195282  0.60376408  0.76118997  1
  Mo  Mo177  1  0.69749886  0.30847972  0.36005567  1
  Mo  Mo178  1  0.50107586  0.70385255  0.13975890  1
  Mo  Mo179  1  0.60893682  0.00938283  0.02108970  1
  Mo  Mo180  1  0.09884987  0.49618040  0.85654085  1
  Mo  Mo181  1  0.70220780  0.91323053  0.85810812  1
  Mo  Mo182  1  0.60125678  0.40343591  0.25951556  1
  Mo  Mo183  1  0.50379855  0.90595553  0.87281603  1
  Mo  Mo184  1  0.90247423  0.89914478  0.62487064  1
  Mo  Mo185  1  0.19270411  0.39523719  0.75922810  1
  Mo  Mo186  1  0.71183760  0.51218364  0.37088624  1
  Mo  Mo187  1  0.80855843  0.40700587  0.48100828  1
  Mo  Mo188  1  0.89894353  0.10161956  0.60394367  1
  Mo  Mo189  1  0.89749852  0.89413601  0.13891378  1
  Mo  Mo190  1  0.90344492  0.30817459  0.38434803  1
  Mo  Mo191  1  0.49393697  0.09948473  0.59943961  1
  Mo  Mo192  1  0.20620767  0.79502692  0.00424316  1
  Mo  Mo193  1  0.79753634  -0.00121918  0.27212082  1
  Mo  Mo194  1  0.30293224  0.70351889  0.89286896  1
  Mo  Mo195  1  0.19792796  0.20365905  -0.01628533  1
  Mo  Mo196  1  0.40541383  0.60156243  -0.01908119  1
  Mo  Mo197  1  0.70577773  0.30281148  0.62535707  1
  Mo  Mo198  1  0.70169933  0.10454964  0.38877654  1
  Mo  Mo199  1  0.00716962  0.79693524  0.01153730  1
