# generated using pymatgen
data_HfZrTaTiMo
_symmetry_space_group_name_H-M   'P 1'
_cell_length_a   15.84540586
_cell_length_b   15.85009663
_cell_length_c   15.42001446
_cell_angle_alpha   90.01809129
_cell_angle_beta   90.03415534
_cell_angle_gamma   89.88698299
_symmetry_Int_Tables_number   1
_chemical_formula_structural   HfZrTaTiMo
_chemical_formula_sum   'Hf40 Zr40 Ta40 Ti40 Mo40'
_cell_volume   3872.74693884
_cell_formula_units_Z   40
loop_
 _symmetry_equiv_pos_site_id
 _symmetry_equiv_pos_as_xyz
  1  'x, y, z'
loop_
 _atom_site_type_symbol
 _atom_site_label
 _atom_site_symmetry_multiplicity
 _atom_site_fract_x
 _atom_site_fract_y
 _atom_site_fract_z
 _atom_site_occupancy
  Hf  Hf0  1  0.60160011  -0.00123975  0.23819752  1
  Hf  Hf1  1  0.39676720  0.57544454  -0.00377810  1
  Hf  Hf2  1  0.69406933  0.50783092  0.62702219  1
  Hf  Hf3  1  0.69775470  0.30329980  0.10644016  1
  Hf  Hf4  1  0.80435565  -0.01097634  0.76077129  1
  Hf  Hf5  1  -0.02253619  0.80486225  0.75172403  1
  Hf  Hf6  1  0.89933692  0.89544042  0.13519011  1
  Hf  Hf7  1  0.41279444  -0.00990270  0.51368515  1
  Hf  Hf8  1  0.41161287  0.39372515  0.77570784  1
  Hf  Hf9  1  0.20652351  0.20500627  0.24877540  1
  Hf  Hf10  1  0.20023749  -0.00330181  0.24904022  1
  Hf  Hf11  1  0.00844967  0.41543793  0.00703697  1
  Hf  Hf12  1  0.60799878  0.79027298  0.76494381  1
  Hf  Hf13  1  0.10074747  0.69331086  0.85904573  1
  Hf  Hf14  1  0.89259041  0.70199109  0.12991660  1
  Hf  Hf15  1  0.30865459  0.31925498  0.12418410  1
  Hf  Hf16  1  0.79169042  0.62992482  0.74491156  1
  Hf  Hf17  1  0.20217962  0.19313328  0.01193773  1
  Hf  Hf18  1  0.09626068  0.30827021  0.37633930  1
  Hf  Hf19  1  0.49353976  0.50177268  0.62861504  1
  Hf  Hf20  1  0.90036178  0.28860793  0.38739533  1
  Hf  Hf21  1  0.30103672  0.88377930  0.12452806  1
  Hf  Hf22  1  0.79406986  0.60282575  0.50046251  1
  Hf  Hf23  1  0.90469947  0.11105771  0.86645383  1
  Hf  Hf24  1  0.69554610  0.50273216  0.37340539  1
  Hf  Hf25  1  0.29545378  0.49424597  0.64529233  1
  Hf  Hf26  1  0.40126218  0.17268436  0.01626251  1
  Hf  Hf27  1  0.58988372  0.60196786  0.23611225  1
  Hf  Hf28  1  -0.00666825  0.60138721  -0.00344719  1
  Hf  Hf29  1  0.19965769  0.80127346  0.73460845  1
  Hf  Hf30  1  0.49115142  0.28915885  0.37030713  1
  Hf  Hf31  1  0.38037432  0.39135371  0.49020980  1
  Hf  Hf32  1  0.57589899  0.41656691  -0.00336809  1
  Hf  Hf33  1  -0.00414608  0.80315106  0.27101383  1
  Hf  Hf34  1  0.70786189  0.29499205  0.63348700  1
  Hf  Hf35  1  0.10607429  0.11129571  0.62472929  1
  Hf  Hf36  1  0.50820366  0.09081109  0.37418521  1
  Hf  Hf37  1  0.81109362  0.41976330  -0.00262062  1
  Hf  Hf38  1  0.21566610  -0.01174652  0.52008764  1
  Hf  Hf39  1  0.30045431  0.28745665  0.87849310  1
  Zr  Zr40  1  0.70497184  0.29888552  0.88270807  1
  Zr  Zr41  1  0.59992561  0.39912767  0.49384500  1
  Zr  Zr42  1  0.31515051  0.10041256  0.37929234  1
  Zr  Zr43  1  0.71382849  0.50952489  0.12919559  1
  Zr  Zr44  1  0.48403424  0.69534151  0.12078598  1
  Zr  Zr45  1  0.00689144  0.00136202  0.00121982  1
  Zr  Zr46  1  0.69333748  0.51697067  0.86631753  1
  Zr  Zr47  1  0.62474323  0.19936068  0.48238805  1
  Zr  Zr48  1  0.19690059  0.79482077  -0.00807895  1
  Zr  Zr49  1  0.38768277  0.78886207  0.50724496  1
  Zr  Zr50  1  0.10867893  0.10738058  0.86322792  1
  Zr  Zr51  1  0.59916099  0.39507590  0.75968254  1
  Zr  Zr52  1  0.68968217  0.90904327  0.88889589  1
  Zr  Zr53  1  0.10636095  0.31332491  0.12626964  1
  Zr  Zr54  1  0.59876918  0.39561886  0.24470991  1
  Zr  Zr55  1  0.19456452  0.59380215  0.00345298  1
  Zr  Zr56  1  0.41102558  -0.01416301  0.73213280  1
  Zr  Zr57  1  0.10032670  0.30416742  0.86801774  1
  Zr  Zr58  1  0.21174738  -0.00175884  0.00208117  1
  Zr  Zr59  1  0.30215526  0.88951335  0.37072148  1
  Zr  Zr60  1  0.80390814  0.20157779  0.23734510  1
  Zr  Zr61  1  0.49236082  0.28440714  0.61841639  1
  Zr  Zr62  1  0.48826829  0.50583700  0.36903166  1
  Zr  Zr63  1  0.20798276  0.60442819  0.50332302  1
  Zr  Zr64  1  0.09726094  0.10958123  0.38399309  1
  Zr  Zr65  1  0.09929902  0.90248102  0.39357148  1
  Zr  Zr66  1  -0.01382020  0.60610832  0.73079296  1
  Zr  Zr67  1  0.90650957  0.30847206  0.86862639  1
  Zr  Zr68  1  0.70348860  0.88908668  0.12483419  1
  Zr  Zr69  1  0.10559787  0.31104788  0.63332963  1
  Zr  Zr70  1  0.22227345  0.21880316  0.49447863  1
  Zr  Zr71  1  0.60040829  0.78358919  -0.00416787  1
  Zr  Zr72  1  -0.02336324  0.02401570  0.50754239  1
  Zr  Zr73  1  0.09339833  0.70358993  0.13492107  1
  Zr  Zr74  1  0.62105877  -0.01503901  0.50348880  1
  Zr  Zr75  1  0.72108177  0.09997422  0.63095029  1
  Zr  Zr76  1  0.90243222  0.49912465  0.38349105  1
  Zr  Zr77  1  0.31790558  0.11666871  0.63546407  1
  Zr  Zr78  1  0.69478082  0.11062364  0.88126595  1
  Zr  Zr79  1  0.80980917  0.00452301  0.00395571  1
  Ta  Ta80  1  0.00027391  -0.00009669  0.73931675  1
  Ta  Ta81  1  0.60023409  -0.00785653  0.74112440  1
  Ta  Ta82  1  0.68696894  0.70323223  0.37919207  1
  Ta  Ta83  1  0.50274585  0.89063200  0.37128545  1
  Ta  Ta84  1  0.08849873  0.70470904  0.60973010  1
  Ta  Ta85  1  0.09738089  0.70168177  0.39518262  1
  Ta  Ta86  1  -0.00400328  0.00773819  0.25125013  1
  Ta  Ta87  1  0.30110636  0.30139748  0.65076783  1
  Ta  Ta88  1  0.60539130  0.19734202  0.24436354  1
  Ta  Ta89  1  0.69892203  0.89614734  0.35192334  1
  Ta  Ta90  1  0.68696750  0.71953242  0.60546796  1
  Ta  Ta91  1  0.20393675  -0.00500238  0.73856321  1
  Ta  Ta92  1  0.09788029  0.49747017  0.84711989  1
  Ta  Ta93  1  0.29438872  0.69026652  0.13867338  1
  Ta  Ta94  1  0.49070870  0.90138086  0.88882692  1
  Ta  Ta95  1  0.49367123  0.89435198  0.11242046  1
  Ta  Ta96  1  0.89690957  0.29264389  0.61583460  1
  Ta  Ta97  1  -0.00034845  0.20396242  0.23852858  1
  Ta  Ta98  1  0.40393145  -0.00438761  0.23473471  1
  Ta  Ta99  1  -0.00318671  0.80319223  -0.01483761  1
  Ta  Ta100  1  0.09014500  0.89784269  0.61909604  1
  Ta  Ta101  1  0.40447378  0.19446028  0.23612392  1
  Ta  Ta102  1  0.09981024  0.09780841  0.13184800  1
  Ta  Ta103  1  0.30290209  0.69204328  0.85745393  1
  Ta  Ta104  1  0.52002378  0.87432298  0.61887091  1
  Ta  Ta105  1  0.10132126  0.90360822  0.86014657  1
  Ta  Ta106  1  0.30424172  0.89612921  0.86562913  1
  Ta  Ta107  1  0.81062285  0.79732812  -0.02381835  1
  Ta  Ta108  1  0.49696249  0.29952829  0.11923956  1
  Ta  Ta109  1  0.50099293  0.08907369  0.87389104  1
  Ta  Ta110  1  0.72731015  0.08699740  0.36528855  1
  Ta  Ta111  1  0.88648214  0.71744016  0.60344748  1
  Ta  Ta112  1  0.88317442  0.90391746  0.61640865  1
  Ta  Ta113  1  0.29191166  0.50439390  0.85668505  1
  Ta  Ta114  1  0.20136860  0.41023058  0.48909601  1
  Ta  Ta115  1  0.31140741  0.09110745  0.86079852  1
  Ta  Ta116  1  -0.00433116  0.40352739  0.25255745  1
  Ta  Ta117  1  0.88057034  0.91989019  0.36921982  1
  Ta  Ta118  1  0.10302738  0.50528993  0.14914668  1
  Ta  Ta119  1  0.09918785  0.50319398  0.62788426  1
  Ti  Ti120  1  -0.00178644  0.60531244  0.26685805  1
  Ti  Ti121  1  0.09597673  0.50690388  0.38091760  1
  Ti  Ti122  1  0.49780134  0.69722180  0.37942101  1
  Ti  Ti123  1  0.78421255  0.81792434  0.48620370  1
  Ti  Ti124  1  0.59735357  0.59754180  0.01114372  1
  Ti  Ti125  1  0.79838793  0.61244938  -0.01152400  1
  Ti  Ti126  1  0.50197593  0.68089863  0.87022826  1
  Ti  Ti127  1  0.70191445  0.10251265  0.11817849  1
  Ti  Ti128  1  0.70907471  0.70358778  0.12995149  1
  Ti  Ti129  1  0.90406846  0.50794954  0.85918178  1
  Ti  Ti130  1  0.50393971  0.27776113  0.89816383  1
  Ti  Ti131  1  0.59541959  0.19442831  0.75274243  1
  Ti  Ti132  1  0.80196776  0.61066578  0.26550818  1
  Ti  Ti133  1  0.00179741  0.40507044  0.50766621  1
  Ti  Ti134  1  -0.00524727  0.20524588  0.73574584  1
  Ti  Ti135  1  0.80119231  0.39679267  0.25530746  1
  Ti  Ti136  1  0.20903059  0.41457744  -0.00890142  1
  Ti  Ti137  1  0.50351501  0.68909078  0.62180002  1
  Ti  Ti138  1  0.89675582  0.49703236  0.61504866  1
  Ti  Ti139  1  0.29839470  0.50090566  0.14795464  1
  Ti  Ti140  1  0.09628670  0.89595650  0.12820482  1
  Ti  Ti141  1  0.80922750  0.40379512  0.74569084  1
  Ti  Ti142  1  0.58358080  0.01201231  0.01453889  1
  Ti  Ti143  1  0.90287790  0.31264574  0.12399074  1
  Ti  Ti144  1  0.51389006  0.10217299  0.61885139  1
  Ti  Ti145  1  0.39249039  0.78785327  -0.01176307  1
  Ti  Ti146  1  0.40334850  0.79293848  0.25249221  1
  Ti  Ti147  1  0.79098679  0.38898339  0.49551936  1
  Ti  Ti148  1  0.19398767  0.79375844  0.25646384  1
  Ti  Ti149  1  0.59366256  0.79466663  0.24609771  1
  Ti  Ti150  1  0.90435529  0.50883044  0.14287793  1
  Ti  Ti151  1  0.81444677  0.20105399  0.01098295  1
  Ti  Ti152  1  0.89465338  0.70655739  0.38915383  1
  Ti  Ti153  1  0.40947922  0.79225772  0.75086153  1
  Ti  Ti154  1  0.30067181  0.69341189  0.36626237  1
  Ti  Ti155  1  0.19641490  0.60021218  0.26548695  1
  Ti  Ti156  1  0.30550006  0.69029295  0.64040742  1
  Ti  Ti157  1  -0.01230289  0.81056525  0.49565474  1
  Ti  Ti158  1  -0.00026500  0.20168481  0.01542794  1
  Ti  Ti159  1  0.39425075  0.59365524  0.49627503  1
  Mo  Mo160  1  0.49628171  0.51132099  0.86307757  1
  Mo  Mo161  1  0.39381274  0.39636910  -0.01413605  1
  Mo  Mo162  1  0.80427620  0.20646072  0.75572239  1
  Mo  Mo163  1  0.70504774  0.29469109  0.36689927  1
  Mo  Mo164  1  0.19567956  0.60440529  0.73397258  1
  Mo  Mo165  1  0.90886089  0.90485329  0.87475010  1
  Mo  Mo166  1  0.47473023  0.48630170  0.13812163  1
  Mo  Mo167  1  0.41452582  0.19412211  0.76705630  1
  Mo  Mo168  1  0.40957371  0.19888054  0.49600344  1
  Mo  Mo169  1  -0.00915701  0.40746016  0.72908258  1
  Mo  Mo170  1  0.00238322  0.20884187  0.51323570  1
  Mo  Mo171  1  0.20030373  0.39882098  0.76087355  1
  Mo  Mo172  1  0.90041896  0.10579353  0.64458662  1
  Mo  Mo173  1  0.39947082  -0.01176525  0.00549678  1
  Mo  Mo174  1  0.19724294  0.79615498  0.51808825  1
  Mo  Mo175  1  0.50509975  0.09625138  0.13553051  1
  Mo  Mo176  1  0.59684659  0.60784169  0.73185766  1
  Mo  Mo177  1  0.29213261  0.50510000  0.36612082  1
  Mo  Mo178  1  0.90891127  0.10531399  0.12851365  1
  Mo  Mo179  1  0.81721786  0.18518839  0.49154773  1
  Mo  Mo180  1  0.19666669  0.41061557  0.26874136  1
  Mo  Mo181  1  0.80124866  0.00003194  0.23098263  1
  Mo  Mo182  1  0.30113893  0.30459692  0.35397510  1
  Mo  Mo183  1  0.20612990  0.19595660  0.75387974  1
  Mo  Mo184  1  0.90464781  0.10283960  0.35834438  1
  Mo  Mo185  1  0.79714022  0.80235726  0.75938414  1
  Mo  Mo186  1  0.39475603  0.39814398  0.25694752  1
  Mo  Mo187  1  0.59118886  0.60646420  0.50409444  1
  Mo  Mo188  1  0.69685799  0.69738754  0.88465901  1
  Mo  Mo189  1  0.89978644  0.69615082  0.87955912  1
  Mo  Mo190  1  -0.00489761  0.60401449  0.50595313  1
  Mo  Mo191  1  0.79832775  -0.00116464  0.50038916  1
  Mo  Mo192  1  0.59331776  0.79885536  0.48322264  1
  Mo  Mo193  1  0.40337046  0.60274837  0.75449961  1
  Mo  Mo194  1  0.59673385  0.19661390  0.01552000  1
  Mo  Mo195  1  0.79710195  0.79189039  0.26729448  1
  Mo  Mo196  1  0.30824462  0.88763424  0.63793323  1
  Mo  Mo197  1  0.70426551  0.89005251  0.63344151  1
  Mo  Mo198  1  0.39032396  0.60443671  0.25611512  1
  Mo  Mo199  1  0.29957817  0.09182372  0.13903874  1
