# generated using pymatgen
data_HfZrTaTiMo
_symmetry_space_group_name_H-M   'P 1'
_cell_length_a   15.83022839
_cell_length_b   15.83231675
_cell_length_c   15.39940962
_cell_angle_alpha   90.00137076
_cell_angle_beta   90.03738917
_cell_angle_gamma   89.95878223
_symmetry_Int_Tables_number   1
_chemical_formula_structural   HfZrTaTiMo
_chemical_formula_sum   'Hf40 Zr40 Ta40 Ti40 Mo40'
_cell_volume   3859.53973887
_cell_formula_units_Z   40
loop_
 _symmetry_equiv_pos_site_id
 _symmetry_equiv_pos_as_xyz
  1  'x, y, z'
loop_
 _atom_site_type_symbol
 _atom_site_label
 _atom_site_symmetry_multiplicity
 _atom_site_fract_x
 _atom_site_fract_y
 _atom_site_fract_z
 _atom_site_occupancy
  Hf  Hf0  1  0.80197761  -0.00064421  0.24382552  1
  Hf  Hf1  1  0.80797130  0.80280361  0.26809586  1
  Hf  Hf2  1  0.68787444  0.29649372  0.86915892  1
  Hf  Hf3  1  0.30047699  0.90585656  0.85701948  1
  Hf  Hf4  1  0.39291798  0.81121865  0.49504530  1
  Hf  Hf5  1  0.60183813  -0.00070038  0.23149978  1
  Hf  Hf6  1  0.70135723  0.10411669  0.36850257  1
  Hf  Hf7  1  0.90738660  0.69676400  0.64037820  1
  Hf  Hf8  1  0.20098873  0.38734917  0.75128463  1
  Hf  Hf9  1  0.00152755  0.39883176  0.76061131  1
  Hf  Hf10  1  0.30187263  0.49732155  0.61960898  1
  Hf  Hf11  1  0.09306959  0.29783761  0.61421938  1
  Hf  Hf12  1  0.89881203  0.89773908  0.62295514  1
  Hf  Hf13  1  0.00195357  0.80257119  0.26897439  1
  Hf  Hf14  1  0.30056689  0.09285875  0.35717761  1
  Hf  Hf15  1  0.79561839  0.78064062  0.49009322  1
  Hf  Hf16  1  0.80622402  0.20330817  0.00290885  1
  Hf  Hf17  1  0.00834152  0.38574182  0.25982244  1
  Hf  Hf18  1  0.51096258  0.12027134  0.63820513  1
  Hf  Hf19  1  0.21300232  0.19590829  0.50661386  1
  Hf  Hf20  1  0.40390422  0.39351758  0.49460774  1
  Hf  Hf21  1  0.60625291  0.20746494  0.23415889  1
  Hf  Hf22  1  0.29866067  0.50099374  0.37929113  1
  Hf  Hf23  1  0.20851578  -0.00840979  0.50766954  1
  Hf  Hf24  1  0.48850875  0.50997838  0.11692850  1
  Hf  Hf25  1  0.81714915  0.58025322  0.51887064  1
  Hf  Hf26  1  0.28871173  0.10834955  0.13061143  1
  Hf  Hf27  1  0.69274267  0.28824497  0.64768186  1
  Hf  Hf28  1  0.30655275  0.68927851  0.12375468  1
  Hf  Hf29  1  -0.01461372  0.38977535  -0.02534552  1
  Hf  Hf30  1  -0.00276983  0.00219845  0.74651580  1
  Hf  Hf31  1  0.50190377  0.31557892  0.64022349  1
  Hf  Hf32  1  0.10053054  0.89087518  0.62494974  1
  Hf  Hf33  1  0.50423531  0.90985003  0.38018396  1
  Hf  Hf34  1  -0.00076700  0.60252219  -0.00893358  1
  Hf  Hf35  1  0.88437853  0.29855167  0.64113529  1
  Hf  Hf36  1  0.61061417  0.80179755  0.76350923  1
  Hf  Hf37  1  0.59867111  0.21155482  0.48682053  1
  Hf  Hf38  1  0.29448554  0.89934186  0.14251008  1
  Hf  Hf39  1  0.10193736  0.49067890  0.11502349  1
  Zr  Zr40  1  0.70408788  0.89370007  0.61415882  1
  Zr  Zr41  1  -0.02743435  0.40283357  0.50211566  1
  Zr  Zr42  1  0.60729619  0.01402238  0.50631625  1
  Zr  Zr43  1  0.30512543  0.69498433  0.87209423  1
  Zr  Zr44  1  0.70396139  0.70126348  0.12855189  1
  Zr  Zr45  1  0.89630435  0.49942373  0.35978068  1
  Zr  Zr46  1  0.29995184  0.48769371  0.11996854  1
  Zr  Zr47  1  0.49376894  0.51616174  0.62137497  1
  Zr  Zr48  1  0.29341032  0.10376052  0.87471937  1
  Zr  Zr49  1  0.79064374  0.40171672  -0.00067705  1
  Zr  Zr50  1  0.80156829  0.59607019  -0.00172671  1
  Zr  Zr51  1  0.09937618  0.29415195  0.11188193  1
  Zr  Zr52  1  0.31146097  0.69114862  0.61862624  1
  Zr  Zr53  1  0.49570608  0.11158398  0.88254553  1
  Zr  Zr54  1  0.18559229  0.20872585  0.25386271  1
  Zr  Zr55  1  0.10005916  0.69827501  0.86423901  1
  Zr  Zr56  1  0.61872724  0.40182428  0.49747262  1
  Zr  Zr57  1  0.90260745  0.49644598  0.13404519  1
  Zr  Zr58  1  0.70442378  0.50026900  0.36406701  1
  Zr  Zr59  1  0.48721348  0.10814213  0.11572520  1
  Zr  Zr60  1  0.10688686  0.90325662  0.85545870  1
  Zr  Zr61  1  0.40752717  0.79622728  0.25809017  1
  Zr  Zr62  1  0.80171557  0.00059404  -0.00449986  1
  Zr  Zr63  1  0.39778780  0.01656380  0.50624444  1
  Zr  Zr64  1  0.40583238  0.80888456  0.00292467  1
  Zr  Zr65  1  0.10376011  0.69500276  0.61741960  1
  Zr  Zr66  1  0.00279903  -0.00080154  -0.00555868  1
  Zr  Zr67  1  0.62125801  0.61328034  0.51308682  1
  Zr  Zr68  1  0.19461199  0.80262213  0.00252360  1
  Zr  Zr69  1  -0.00776515  0.79830950  0.47957620  1
  Zr  Zr70  1  0.49274499  0.30890405  0.88517229  1
  Zr  Zr71  1  0.09711411  0.09606212  0.37572311  1
  Zr  Zr72  1  0.59783431  0.60461583  0.75014758  1
  Zr  Zr73  1  0.60766200  0.59531100  -0.00641138  1
  Zr  Zr74  1  0.90493373  0.70263425  0.13432842  1
  Zr  Zr75  1  0.49760908  0.90862431  0.87051752  1
  Zr  Zr76  1  0.62021889  0.01564010  0.75953405  1
  Zr  Zr77  1  0.50367175  0.90228107  0.62782119  1
  Zr  Zr78  1  0.19375537  0.00391184  0.01123964  1
  Zr  Zr79  1  0.19545889  0.59444188  0.25052520  1
  Ta  Ta80  1  0.29537592  0.70101847  0.38617263  1
  Ta  Ta81  1  -0.01602651  0.19681284  0.49553362  1
  Ta  Ta82  1  0.41045473  0.78914586  0.74523766  1
  Ta  Ta83  1  0.30347697  0.49789263  0.88541379  1
  Ta  Ta84  1  0.29890354  0.30175316  0.36788606  1
  Ta  Ta85  1  0.50425196  0.70570635  0.11737643  1
  Ta  Ta86  1  -0.00470653  0.00345350  0.49887238  1
  Ta  Ta87  1  0.89942400  0.10103648  0.86601274  1
  Ta  Ta88  1  0.80535881  0.80091077  0.76633097  1
  Ta  Ta89  1  0.40524542  -0.00227538  0.24327901  1
  Ta  Ta90  1  0.00114812  0.20187333  0.75716908  1
  Ta  Ta91  1  0.39334407  0.40914656  0.75852752  1
  Ta  Ta92  1  0.48701499  0.31176540  0.11940450  1
  Ta  Ta93  1  0.89001473  0.10376911  0.62981378  1
  Ta  Ta94  1  0.60266013  -0.00124374  0.00901387  1
  Ta  Ta95  1  0.60276620  0.80252076  0.25497957  1
  Ta  Ta96  1  0.60873980  0.20232962  0.01536951  1
  Ta  Ta97  1  0.10017199  0.70260761  0.12529686  1
  Ta  Ta98  1  0.80764367  0.79931302  -0.01881447  1
  Ta  Ta99  1  0.70028876  0.90140457  0.38213689  1
  Ta  Ta100  1  0.09356418  0.10022129  0.62173799  1
  Ta  Ta101  1  0.09579355  0.29964380  0.39303911  1
  Ta  Ta102  1  0.10314277  0.68973805  0.38808218  1
  Ta  Ta103  1  0.91127581  0.10311570  0.13361816  1
  Ta  Ta104  1  -0.00589893  0.80244629  -0.01185260  1
  Ta  Ta105  1  0.90440685  0.89778210  0.12234481  1
  Ta  Ta106  1  0.79110524  0.38617189  0.23658516  1
  Ta  Ta107  1  0.59220795  0.60529376  0.24601400  1
  Ta  Ta108  1  0.79812381  -0.00763081  0.76318033  1
  Ta  Ta109  1  0.19957679  0.59715116  0.00003043  1
  Ta  Ta110  1  0.59650038  0.40418036  0.23827055  1
  Ta  Ta111  1  0.70468454  0.89087720  0.11613570  1
  Ta  Ta112  1  0.10817794  0.49552556  0.88182222  1
  Ta  Ta113  1  0.38546779  0.21452623  0.74508833  1
  Ta  Ta114  1  0.50383598  0.50692471  0.37616258  1
  Ta  Ta115  1  0.50039160  0.30576441  0.35964949  1
  Ta  Ta116  1  0.29947976  0.89686216  0.64155189  1
  Ta  Ta117  1  0.00306556  0.19577490  -0.01949746  1
  Ta  Ta118  1  0.79609142  0.21459637  0.49096877  1
  Ta  Ta119  1  0.20237081  0.58369728  0.74936336  1
  Ti  Ti120  1  0.60807929  0.80336780  -0.00929294  1
  Ti  Ti121  1  0.20482525  0.78907569  0.74410458  1
  Ti  Ti122  1  0.40475075  0.60486653  0.26382353  1
  Ti  Ti123  1  0.09380763  0.89747677  0.13766203  1
  Ti  Ti124  1  0.00460329  0.60340329  0.25752350  1
  Ti  Ti125  1  0.49756512  0.10854780  0.36477644  1
  Ti  Ti126  1  0.50877920  0.71197059  0.61141504  1
  Ti  Ti127  1  0.19828006  0.59398021  0.50272749  1
  Ti  Ti128  1  0.39926901  0.40557258  0.25719149  1
  Ti  Ti129  1  0.88901360  0.51515873  0.85971787  1
  Ti  Ti130  1  0.20028197  0.39562167  0.50136788  1
  Ti  Ti131  1  0.20748021  0.37965639  -0.01818511  1
  Ti  Ti132  1  0.37369550  0.21983368  0.00123476  1
  Ti  Ti133  1  0.71052329  0.48811716  0.64566767  1
  Ti  Ti134  1  0.39582494  0.01309977  0.73867273  1
  Ti  Ti135  1  0.08874343  0.09961494  0.13827673  1
  Ti  Ti136  1  0.40019944  0.20552093  0.50139590  1
  Ti  Ti137  1  0.78307047  0.17799443  0.76365631  1
  Ti  Ti138  1  0.71413076  0.68740947  0.86678713  1
  Ti  Ti139  1  0.79974153  0.20170864  0.23985187  1
  Ti  Ti140  1  0.49715016  0.50152055  0.88029073  1
  Ti  Ti141  1  0.50726956  0.69998090  0.38835662  1
  Ti  Ti142  1  0.60365710  0.40234121  0.01358501  1
  Ti  Ti143  1  0.89832316  0.10541128  0.36670140  1
  Ti  Ti144  1  0.00431676  0.59304373  0.75413351  1
  Ti  Ti145  1  0.80725540  0.01026538  0.49460735  1
  Ti  Ti146  1  0.19746961  0.79525288  0.26180845  1
  Ti  Ti147  1  0.08853791  0.50174149  0.61739693  1
  Ti  Ti148  1  0.39795890  -0.00445648  0.01147122  1
  Ti  Ti149  1  0.90924551  0.29089977  0.12976515  1
  Ti  Ti150  1  0.20007122  0.19825608  0.73588180  1
  Ti  Ti151  1  0.49677944  0.69520357  0.88506005  1
  Ti  Ti152  1  0.40093384  0.20853548  0.24820288  1
  Ti  Ti153  1  0.11452288  0.90000536  0.37909610  1
  Ti  Ti154  1  0.79946204  0.40239106  0.76958954  1
  Ti  Ti155  1  0.10817678  0.10469416  0.86340198  1
  Ti  Ti156  1  0.09791453  0.49626823  0.38624281  1
  Ti  Ti157  1  0.70208321  0.69071386  0.36113420  1
  Ti  Ti158  1  -0.00318785  -0.00678764  0.26143970  1
  Ti  Ti159  1  0.29402946  0.30876130  0.13737332  1
  Mo  Mo160  1  0.69250869  0.49393166  0.86004195  1
  Mo  Mo161  1  0.79379189  0.59578496  0.23894690  1
  Mo  Mo162  1  0.89633756  0.91483414  0.38671326  1
  Mo  Mo163  1  0.90397159  0.89898490  0.86953009  1
  Mo  Mo164  1  0.70887499  0.70285140  0.64012702  1
  Mo  Mo165  1  0.20241640  0.80067683  0.48991018  1
  Mo  Mo166  1  0.70129748  0.89570989  0.89066760  1
  Mo  Mo167  1  -0.00093556  0.79959361  0.75864265  1
  Mo  Mo168  1  0.50846627  0.89436515  0.12340312  1
  Mo  Mo169  1  0.19192623  -0.00792321  0.24367666  1
  Mo  Mo170  1  0.69816942  0.30157059  0.12330279  1
  Mo  Mo171  1  0.89324855  0.28915766  0.85875330  1
  Mo  Mo172  1  -0.01067547  0.19776194  0.26397812  1
  Mo  Mo173  1  0.29586160  0.90054486  0.35793421  1
  Mo  Mo174  1  0.19150573  0.19772880  0.00465039  1
  Mo  Mo175  1  0.69860230  0.09935774  0.89687409  1
  Mo  Mo176  1  0.90039106  0.49611567  0.64899729  1
  Mo  Mo177  1  0.29571413  0.29602904  0.86957193  1
  Mo  Mo178  1  0.30096749  0.10243887  0.63332891  1
  Mo  Mo179  1  0.19737317  0.39767438  0.26933199  1
  Mo  Mo180  1  0.20032869  0.00867707  0.73025409  1
  Mo  Mo181  1  0.00421540  0.59280335  0.49647284  1
  Mo  Mo182  1  0.59582837  0.40847823  0.75704508  1
  Mo  Mo183  1  0.70127958  0.30147494  0.35695179  1
  Mo  Mo184  1  0.70722970  0.09875815  0.11857705  1
  Mo  Mo185  1  0.89040938  0.29240633  0.36537438  1
  Mo  Mo186  1  0.60582227  0.79889584  0.48038984  1
  Mo  Mo187  1  0.30263403  0.30198758  0.62165103  1
  Mo  Mo188  1  0.89983472  0.68429149  0.36624147  1
  Mo  Mo189  1  0.71435180  0.10637443  0.61660288  1
  Mo  Mo190  1  0.90426539  0.69856549  0.86077195  1
  Mo  Mo191  1  0.69307084  0.50092298  0.14026287  1
  Mo  Mo192  1  0.79929454  0.59752286  0.74154661  1
  Mo  Mo193  1  0.39549114  0.39964226  -0.00594019  1
  Mo  Mo194  1  0.39963863  0.59934218  0.76487635  1
  Mo  Mo195  1  0.10463792  0.28875299  0.87718740  1
  Mo  Mo196  1  0.59308003  0.20073175  0.76336043  1
  Mo  Mo197  1  0.40259899  0.60224036  -0.01068175  1
  Mo  Mo198  1  0.40581283  0.60432640  0.48194692  1
  Mo  Mo199  1  0.79320129  0.39172672  0.50833258  1
