# generated using pymatgen
data_HfZrTaTiMo
_symmetry_space_group_name_H-M   'P 1'
_cell_length_a   15.84846906
_cell_length_b   15.83260727
_cell_length_c   15.38264819
_cell_angle_alpha   90.00250705
_cell_angle_beta   89.99472188
_cell_angle_gamma   89.91463936
_symmetry_Int_Tables_number   1
_chemical_formula_structural   HfZrTaTiMo
_chemical_formula_sum   'Hf40 Zr40 Ta40 Ti40 Mo40'
_cell_volume   3859.84956714
_cell_formula_units_Z   40
loop_
 _symmetry_equiv_pos_site_id
 _symmetry_equiv_pos_as_xyz
  1  'x, y, z'
loop_
 _atom_site_type_symbol
 _atom_site_label
 _atom_site_symmetry_multiplicity
 _atom_site_fract_x
 _atom_site_fract_y
 _atom_site_fract_z
 _atom_site_occupancy
  Hf  Hf0  1  0.80052945  0.39923268  0.51883510  1
  Hf  Hf1  1  0.30046660  0.09825288  0.13356299  1
  Hf  Hf2  1  0.60118551  0.00394998  0.73922688  1
  Hf  Hf3  1  0.40380042  0.60362062  -0.01231836  1
  Hf  Hf4  1  0.50157898  0.09875821  0.13919595  1
  Hf  Hf5  1  0.79504620  0.19355128  0.23146152  1
  Hf  Hf6  1  0.89729093  0.68958375  0.86750208  1
  Hf  Hf7  1  0.39159284  0.79633506  0.49274876  1
  Hf  Hf8  1  0.60567329  0.19957090  0.51836481  1
  Hf  Hf9  1  0.40320161  0.79165708  0.26489059  1
  Hf  Hf10  1  0.50231921  0.30136800  0.64660150  1
  Hf  Hf11  1  0.00640634  0.00280343  0.76603469  1
  Hf  Hf12  1  0.80215085  0.01010031  0.74745774  1
  Hf  Hf13  1  0.40014986  0.39042176  0.51036369  1
  Hf  Hf14  1  0.90021339  0.09679151  0.37348007  1
  Hf  Hf15  1  0.61600154  0.40152169  0.25192138  1
  Hf  Hf16  1  0.69057715  0.70072918  0.12816789  1
  Hf  Hf17  1  0.50017334  0.89966465  0.13943318  1
  Hf  Hf18  1  0.41005026  0.40584583  0.23693650  1
  Hf  Hf19  1  0.00018903  0.19152458  0.75657895  1
  Hf  Hf20  1  0.90112238  0.49059045  0.37068636  1
  Hf  Hf21  1  0.70060436  0.49389455  0.09496424  1
  Hf  Hf22  1  0.19439687  0.60541599  0.00439825  1
  Hf  Hf23  1  0.09895808  0.09939060  0.11312920  1
  Hf  Hf24  1  0.61724579  0.19869591  0.75183302  1
  Hf  Hf25  1  0.29287706  0.90751208  0.36845664  1
  Hf  Hf26  1  0.48965929  0.90286297  0.61711497  1
  Hf  Hf27  1  0.18332196  0.80835816  0.48532276  1
  Hf  Hf28  1  -0.00341019  0.59865882  0.49913183  1
  Hf  Hf29  1  0.18942248  0.79605277  0.24870157  1
  Hf  Hf30  1  0.10457764  0.28289451  0.89549328  1
  Hf  Hf31  1  0.28769009  0.10292380  0.89544588  1
  Hf  Hf32  1  0.79761753  0.79232766  0.50199540  1
  Hf  Hf33  1  0.49769063  0.49147473  0.38777593  1
  Hf  Hf34  1  0.79243168  0.59287651  0.24372693  1
  Hf  Hf35  1  0.80277357  0.38953308  0.22863231  1
  Hf  Hf36  1  0.20751634  0.59991145  0.76039501  1
  Hf  Hf37  1  0.19933102  0.39895577  0.49386642  1
  Hf  Hf38  1  0.20380457  0.19432900  0.48754774  1
  Hf  Hf39  1  0.20087958  0.40459921  0.24278738  1
  Zr  Zr40  1  0.78808275  0.78962183  -0.00745406  1
  Zr  Zr41  1  0.49585494  0.10423924  0.87056407  1
  Zr  Zr42  1  0.41006944  0.19404899  0.50581504  1
  Zr  Zr43  1  0.20642810  0.39665292  0.74815680  1
  Zr  Zr44  1  0.19206333  0.80753490  0.00806049  1
  Zr  Zr45  1  0.08925252  0.70211430  0.87029289  1
  Zr  Zr46  1  0.09757810  0.50486617  0.62913883  1
  Zr  Zr47  1  0.39733394  0.59726094  0.24843959  1
  Zr  Zr48  1  0.80421583  -0.00789345  0.00533187  1
  Zr  Zr49  1  0.59695481  0.59972092  0.26232534  1
  Zr  Zr50  1  0.88544353  0.50027780  0.88167714  1
  Zr  Zr51  1  0.79712045  0.80403746  0.74418491  1
  Zr  Zr52  1  0.61117764  0.61055687  -0.02993159  1
  Zr  Zr53  1  0.89041915  0.69231519  0.36981143  1
  Zr  Zr54  1  0.91689029  0.90337123  0.61919258  1
  Zr  Zr55  1  0.41412047  0.40526547  -0.00311307  1
  Zr  Zr56  1  0.00179344  0.19558995  0.49995754  1
  Zr  Zr57  1  0.30029444  0.30189959  0.89630573  1
  Zr  Zr58  1  0.49724292  0.69592806  0.62841959  1
  Zr  Zr59  1  0.69070578  0.90167210  0.12672915  1
  Zr  Zr60  1  0.19781804  0.19131173  0.74458419  1
  Zr  Zr61  1  -0.00975157  0.80045372  0.01365427  1
  Zr  Zr62  1  -0.00268065  0.39252783  0.00103118  1
  Zr  Zr63  1  0.29717025  0.91238843  0.13729735  1
  Zr  Zr64  1  0.20125534  0.81290706  0.74918883  1
  Zr  Zr65  1  0.59783488  0.01252384  0.50165093  1
  Zr  Zr66  1  0.09652426  0.70821467  0.62633306  1
  Zr  Zr67  1  0.38565540  -0.00482124  0.75215869  1
  Zr  Zr68  1  0.09614260  0.50001999  0.88456971  1
  Zr  Zr69  1  0.60785286  0.39536512  0.51063878  1
  Zr  Zr70  1  0.61007965  0.60276790  0.50656332  1
  Zr  Zr71  1  0.39607499  0.40485700  0.75700510  1
  Zr  Zr72  1  0.61440676  0.00897975  0.26864868  1
  Zr  Zr73  1  0.30977428  0.30018355  0.35684940  1
  Zr  Zr74  1  0.89638919  0.29610385  0.37423251  1
  Zr  Zr75  1  0.29547560  0.09168586  0.62160078  1
  Zr  Zr76  1  0.30575711  0.70344623  0.12129175  1
  Zr  Zr77  1  0.49533036  0.71688233  0.85540481  1
  Zr  Zr78  1  0.52333815  0.29702278  0.12655466  1
  Zr  Zr79  1  0.09910887  0.29651451  0.62171470  1
  Ta  Ta80  1  0.79442861  0.80419111  0.25728718  1
  Ta  Ta81  1  0.90471281  0.69513484  0.63514273  1
  Ta  Ta82  1  0.90205601  0.49930025  0.64446980  1
  Ta  Ta83  1  0.39051347  0.59993420  0.75366802  1
  Ta  Ta84  1  0.69232447  0.90230704  0.87048353  1
  Ta  Ta85  1  0.79763212  0.59830599  0.52109998  1
  Ta  Ta86  1  0.30251035  0.29610791  0.12162102  1
  Ta  Ta87  1  0.80790089  0.19903139  0.74302514  1
  Ta  Ta88  1  -0.00055694  0.39339854  0.23153588  1
  Ta  Ta89  1  0.80389146  0.00166968  0.50024984  1
  Ta  Ta90  1  0.50655590  0.70704293  0.11954601  1
  Ta  Ta91  1  0.69967479  0.50351436  0.65004439  1
  Ta  Ta92  1  0.69981981  0.90162479  0.61499365  1
  Ta  Ta93  1  -0.00278032  0.39184406  0.76419175  1
  Ta  Ta94  1  0.72154934  0.29692463  0.88523022  1
  Ta  Ta95  1  0.09369991  0.49695594  0.36308959  1
  Ta  Ta96  1  0.51173983  0.28525881  0.36105224  1
  Ta  Ta97  1  -0.00124285  0.59803337  0.23753646  1
  Ta  Ta98  1  0.09310332  0.30326108  0.36382728  1
  Ta  Ta99  1  0.19895657  0.59997354  0.25312951  1
  Ta  Ta100  1  0.40972516  0.19890848  0.00832653  1
  Ta  Ta101  1  0.69134204  0.10844178  0.11024500  1
  Ta  Ta102  1  0.39868519  0.00699623  0.48594139  1
  Ta  Ta103  1  0.60815890  0.39849462  0.76764195  1
  Ta  Ta104  1  0.60427430  0.79921519  0.49664591  1
  Ta  Ta105  1  0.09036248  0.69597000  0.36227178  1
  Ta  Ta106  1  0.19849186  0.60398070  0.48148422  1
  Ta  Ta107  1  0.79760781  0.20012657  0.52391158  1
  Ta  Ta108  1  0.50219505  0.90258408  0.37907288  1
  Ta  Ta109  1  0.90077296  0.89918854  0.87372246  1
  Ta  Ta110  1  -0.00466558  0.80357739  0.48140079  1
  Ta  Ta111  1  0.89893721  0.50284701  0.11032058  1
  Ta  Ta112  1  0.29536998  0.69562632  0.61262898  1
  Ta  Ta113  1  0.30286887  0.50890383  0.61220341  1
  Ta  Ta114  1  0.18702317  -0.00514667  0.76867355  1
  Ta  Ta115  1  0.09876386  0.50217861  0.12295130  1
  Ta  Ta116  1  0.40293896  -0.00378524  -0.00191254  1
  Ta  Ta117  1  0.59295671  0.80792288  -0.01421803  1
  Ta  Ta118  1  0.08134317  0.91250014  0.13293280  1
  Ta  Ta119  1  0.30820919  0.10314945  0.35405779  1
  Ti  Ti120  1  0.89348832  0.69913729  0.12861959  1
  Ti  Ti121  1  0.90887958  0.09470621  0.61548290  1
  Ti  Ti122  1  0.70821588  0.09868969  0.88770463  1
  Ti  Ti123  1  -0.01314479  0.80884606  0.25150233  1
  Ti  Ti124  1  0.51290612  0.51208788  0.11440567  1
  Ti  Ti125  1  0.59190440  -0.00036790  -0.00840019  1
  Ti  Ti126  1  0.17809067  0.00785936  0.26419499  1
  Ti  Ti127  1  0.01748543  -0.01067180  0.47307654  1
  Ti  Ti128  1  0.29766185  0.90005804  0.88786305  1
  Ti  Ti129  1  0.39340065  0.20297247  0.74902866  1
  Ti  Ti130  1  0.90079531  0.28450241  0.10558635  1
  Ti  Ti131  1  0.10275188  0.07467328  0.61216096  1
  Ti  Ti132  1  0.71067736  0.49916958  0.38459431  1
  Ti  Ti133  1  0.19348872  0.20352069  0.24886171  1
  Ti  Ti134  1  0.90515417  0.30301109  0.63440529  1
  Ti  Ti135  1  -0.00030775  0.39985803  0.50202674  1
  Ti  Ti136  1  0.70665039  0.11354151  0.38201496  1
  Ti  Ti137  1  0.60362672  0.79401397  0.27617605  1
  Ti  Ti138  1  0.80824266  -0.00520115  0.24678644  1
  Ti  Ti139  1  0.38384213  0.80315953  0.73786450  1
  Ti  Ti140  1  0.10501336  0.29592320  0.11641434  1
  Ti  Ti141  1  0.40560715  0.80790685  0.00180144  1
  Ti  Ti142  1  0.00631388  0.81190401  0.75260088  1
  Ti  Ti143  1  0.30018799  0.70935792  0.87890035  1
  Ti  Ti144  1  0.60422324  0.39643939  -0.02754410  1
  Ti  Ti145  1  0.49671866  0.69170170  0.39081805  1
  Ti  Ti146  1  0.30303502  0.50623359  0.38181535  1
  Ti  Ti147  1  0.90032340  0.11050943  0.89448882  1
  Ti  Ti148  1  0.60070192  0.20425348  -0.01669768  1
  Ti  Ti149  1  0.90923478  0.08610049  0.11980603  1
  Ti  Ti150  1  0.49531107  0.90229366  0.86606807  1
  Ti  Ti151  1  0.28014284  0.90780620  0.60644413  1
  Ti  Ti152  1  0.60374503  0.80324125  0.73976433  1
  Ti  Ti153  1  0.50442024  0.50578867  0.85988069  1
  Ti  Ti154  1  0.70736195  0.90185862  0.38488846  1
  Ti  Ti155  1  0.00109671  0.19599781  0.24420411  1
  Ti  Ti156  1  0.70570352  0.29716260  0.37931267  1
  Ti  Ti157  1  0.80093513  0.39262482  0.75537710  1
  Ti  Ti158  1  0.29843250  0.49794584  0.11223590  1
  Ti  Ti159  1  0.50072754  0.50433556  0.63445409  1
  Mo  Mo160  1  0.29421261  0.69468304  0.38213632  1
  Mo  Mo161  1  0.71135591  0.09742558  0.62260691  1
  Mo  Mo162  1  0.59806658  0.59855376  0.75396591  1
  Mo  Mo163  1  0.30222127  0.50906610  0.88935040  1
  Mo  Mo164  1  0.89971273  0.29260948  0.87253953  1
  Mo  Mo165  1  0.30074306  0.30332190  0.62428774  1
  Mo  Mo166  1  0.70366874  0.29534372  0.09881374  1
  Mo  Mo167  1  0.80108157  0.60491259  0.00605952  1
  Mo  Mo168  1  0.70009366  0.70155681  0.63810458  1
  Mo  Mo169  1  0.20266004  0.40307872  0.01851172  1
  Mo  Mo170  1  0.10134102  0.91059275  0.61775589  1
  Mo  Mo171  1  0.50771134  0.29777903  0.87111639  1
  Mo  Mo172  1  0.40598971  0.20297125  0.23804360  1
  Mo  Mo173  1  0.79705907  0.60046192  0.74011735  1
  Mo  Mo174  1  -0.00676379  0.00401188  0.25436832  1
  Mo  Mo175  1  0.49770156  0.10030793  0.64190564  1
  Mo  Mo176  1  0.40801247  0.00078227  0.26751741  1
  Mo  Mo177  1  0.19697085  0.00580762  0.47575350  1
  Mo  Mo178  1  0.61546268  0.20251357  0.25577052  1
  Mo  Mo179  1  0.09973640  0.10906106  0.36396922  1
  Mo  Mo180  1  0.69844399  0.70070707  0.85143637  1
  Mo  Mo181  1  0.70471707  0.49730190  0.86840943  1
  Mo  Mo182  1  -0.00385599  0.60735056  0.02378084  1
  Mo  Mo183  1  -0.00306971  0.19299100  0.00258416  1
  Mo  Mo184  1  -0.00035556  0.59613523  0.74329135  1
  Mo  Mo185  1  0.19726916  -0.00507872  -0.00512298  1
  Mo  Mo186  1  0.50162369  0.10496123  0.36201279  1
  Mo  Mo187  1  0.70878600  0.30498439  0.64481283  1
  Mo  Mo188  1  0.80106142  0.39310048  0.00127590  1
  Mo  Mo189  1  0.39812337  0.59506869  0.50523900  1
  Mo  Mo190  1  -0.00293858  -0.00526037  -0.00995870  1
  Mo  Mo191  1  0.08824932  0.90020023  0.35316141  1
  Mo  Mo192  1  0.89318452  0.90180609  0.37280213  1
  Mo  Mo193  1  0.89518885  0.89885856  0.14015963  1
  Mo  Mo194  1  0.69838450  0.69941302  0.37362866  1
  Mo  Mo195  1  0.09049751  0.70112023  0.14374365  1
  Mo  Mo196  1  0.20387153  0.19967728  0.02069435  1
  Mo  Mo197  1  0.80153871  0.19262521  0.00985569  1
  Mo  Mo198  1  0.09799670  0.09454184  0.89902495  1
  Mo  Mo199  1  0.09564376  0.90125257  0.89123117  1
