# generated using pymatgen
data_HfZrTaTiMo
_symmetry_space_group_name_H-M   'P 1'
_cell_length_a   15.82885175
_cell_length_b   15.84022093
_cell_length_c   15.41308482
_cell_angle_alpha   89.97130960
_cell_angle_beta   90.01760166
_cell_angle_gamma   89.79502733
_symmetry_Int_Tables_number   1
_chemical_formula_structural   HfZrTaTiMo
_chemical_formula_sum   'Hf40 Zr40 Ta40 Ti40 Mo40'
_cell_volume   3864.53602648
_cell_formula_units_Z   40
loop_
 _symmetry_equiv_pos_site_id
 _symmetry_equiv_pos_as_xyz
  1  'x, y, z'
loop_
 _atom_site_type_symbol
 _atom_site_label
 _atom_site_symmetry_multiplicity
 _atom_site_fract_x
 _atom_site_fract_y
 _atom_site_fract_z
 _atom_site_occupancy
  Hf  Hf0  1  0.50992184  0.68205948  0.38055753  1
  Hf  Hf1  1  0.71700647  0.88832535  0.38885078  1
  Hf  Hf2  1  0.09948689  0.69437910  0.11647240  1
  Hf  Hf3  1  0.21246681  0.20068256  0.00858436  1
  Hf  Hf4  1  0.67889939  0.51782873  0.37747150  1
  Hf  Hf5  1  0.09195941  0.50337364  0.62788210  1
  Hf  Hf6  1  0.09817077  0.30507731  0.87191527  1
  Hf  Hf7  1  0.21143671  -0.00630589  0.74171921  1
  Hf  Hf8  1  0.90928665  0.10466876  0.87623504  1
  Hf  Hf9  1  0.59134141  0.59798783  0.22509281  1
  Hf  Hf10  1  0.09054194  0.50997141  0.36589809  1
  Hf  Hf11  1  0.08511335  0.50548839  0.11504916  1
  Hf  Hf12  1  0.59278215  0.39193778  0.00633012  1
  Hf  Hf13  1  0.59906349  0.59860936  0.75371790  1
  Hf  Hf14  1  -0.00222693  -0.00033772  0.24023980  1
  Hf  Hf15  1  0.10411238  0.71893414  0.37226435  1
  Hf  Hf16  1  0.79688835  0.82819531  0.22404050  1
  Hf  Hf17  1  0.61138324  0.39757550  0.75758258  1
  Hf  Hf18  1  0.29620434  0.30179299  0.85430405  1
  Hf  Hf19  1  0.50807273  0.08943500  0.62168494  1
  Hf  Hf20  1  0.59813496  0.19666000  0.00225939  1
  Hf  Hf21  1  0.28949762  0.49587907  0.63711763  1
  Hf  Hf22  1  0.61163745  -0.02016671  0.75301201  1
  Hf  Hf23  1  0.69666132  0.70100346  0.89038427  1
  Hf  Hf24  1  0.88905085  0.71279433  0.63462736  1
  Hf  Hf25  1  0.70325881  0.29285478  0.13280872  1
  Hf  Hf26  1  0.70844910  0.10228713  0.87614261  1
  Hf  Hf27  1  -0.00001477  0.20771449  0.00771108  1
  Hf  Hf28  1  0.39205456  0.39637962  0.49272312  1
  Hf  Hf29  1  0.71831137  0.09405770  0.37173286  1
  Hf  Hf30  1  0.60175916  0.19695598  0.49189526  1
  Hf  Hf31  1  0.79146991  0.80986067  0.77614654  1
  Hf  Hf32  1  0.89070248  0.71483424  0.35166630  1
  Hf  Hf33  1  0.70887647  0.30313362  0.36842480  1
  Hf  Hf34  1  0.10806478  0.09853563  0.87366053  1
  Hf  Hf35  1  0.10800662  0.31271522  0.63570917  1
  Hf  Hf36  1  0.89743541  0.48706876  0.90219437  1
  Hf  Hf37  1  0.40086894  0.59040229  0.49870106  1
  Hf  Hf38  1  0.11035548  0.10902544  0.36380738  1
  Hf  Hf39  1  0.49440318  0.29195275  0.85552455  1
  Zr  Zr40  1  0.91020217  0.08318222  0.62144792  1
  Zr  Zr41  1  0.90812441  0.69974202  0.11884963  1
  Zr  Zr42  1  0.50540256  0.89499641  0.13118588  1
  Zr  Zr43  1  0.70038061  0.30105910  0.61637165  1
  Zr  Zr44  1  0.39862322  0.78434733  0.25241455  1
  Zr  Zr45  1  -0.01237970  0.60833901  0.49390469  1
  Zr  Zr46  1  0.90214021  0.30636280  0.62815965  1
  Zr  Zr47  1  0.61172931  0.77445027  0.49523304  1
  Zr  Zr48  1  0.20938200  0.60760889  0.25512088  1
  Zr  Zr49  1  0.30095326  0.69675815  0.87947383  1
  Zr  Zr50  1  0.58371128  0.59034191  0.00455935  1
  Zr  Zr51  1  0.10405135  0.30519661  0.13548954  1
  Zr  Zr52  1  -0.00836530  0.81618632  0.49496726  1
  Zr  Zr53  1  0.28961879  0.88674285  0.38893656  1
  Zr  Zr54  1  0.80010629  0.40681024  0.49482023  1
  Zr  Zr55  1  0.49100905  0.70097724  0.87021900  1
  Zr  Zr56  1  0.69355879  0.71444889  0.10917621  1
  Zr  Zr57  1  0.08803275  0.90913963  0.62798655  1
  Zr  Zr58  1  0.61086358  0.19237670  0.74569904  1
  Zr  Zr59  1  0.20923574  0.80170289  0.00732956  1
  Zr  Zr60  1  0.09590564  0.70285803  0.62490314  1
  Zr  Zr61  1  0.71647721  0.08485353  0.12973614  1
  Zr  Zr62  1  0.60882320  -0.01824730  0.26331311  1
  Zr  Zr63  1  0.29672931  0.49993736  0.86469013  1
  Zr  Zr64  1  0.30913226  0.30606046  0.14230905  1
  Zr  Zr65  1  0.01070930  0.20861447  0.50379653  1
  Zr  Zr66  1  0.80139760  0.59365627  0.76417532  1
  Zr  Zr67  1  0.40884999  0.19486266  0.00834780  1
  Zr  Zr68  1  0.50190848  0.08980075  0.14081517  1
  Zr  Zr69  1  0.71900795  0.89323139  0.61179269  1
  Zr  Zr70  1  0.90637538  0.10906122  0.36869839  1
  Zr  Zr71  1  0.88665270  0.50909533  0.36309173  1
  Zr  Zr72  1  0.39621829  0.80560668  0.73681496  1
  Zr  Zr73  1  0.40762599  0.19905146  0.26553539  1
  Zr  Zr74  1  0.39533919  0.19376612  0.50020142  1
  Zr  Zr75  1  0.20154822  0.80542804  0.23349343  1
  Zr  Zr76  1  0.39796822  0.39613354  -0.00037817  1
  Zr  Zr77  1  0.31028589  0.09779806  0.86833932  1
  Zr  Zr78  1  -0.00426603  0.80234085  0.76930536  1
  Zr  Zr79  1  0.77998224  0.62648239  0.49759523  1
  Ta  Ta80  1  0.19834567  0.80048640  0.75610156  1
  Ta  Ta81  1  -0.00914174  0.40694138  0.76120468  1
  Ta  Ta82  1  0.48112217  0.48647892  0.13681494  1
  Ta  Ta83  1  0.09575439  0.30023830  0.35798642  1
  Ta  Ta84  1  0.39473558  0.18909664  0.72491952  1
  Ta  Ta85  1  0.60326575  0.19868696  0.25862596  1
  Ta  Ta86  1  0.10599867  0.10217706  0.13091794  1
  Ta  Ta87  1  0.81190716  -0.00506677  0.75682083  1
  Ta  Ta88  1  0.89416430  0.92369260  0.09847737  1
  Ta  Ta89  1  0.40031435  -0.00640359  0.49982282  1
  Ta  Ta90  1  0.09767538  0.50203695  0.88479452  1
  Ta  Ta91  1  0.28446594  0.29055664  0.37024876  1
  Ta  Ta92  1  0.29357895  0.69924348  0.61862831  1
  Ta  Ta93  1  0.90147925  0.30118915  0.35599669  1
  Ta  Ta94  1  0.78986707  0.60028125  0.22865670  1
  Ta  Ta95  1  0.10379524  0.90817038  0.88487634  1
  Ta  Ta96  1  0.21139878  0.00234186  0.01319822  1
  Ta  Ta97  1  0.49811379  0.30259471  0.62633531  1
  Ta  Ta98  1  0.10369680  0.10031201  0.62838974  1
  Ta  Ta99  1  0.18953964  0.60817513  0.75674412  1
  Ta  Ta100  1  0.19912698  -0.00735422  0.24580689  1
  Ta  Ta101  1  0.48527079  0.49800979  0.85703323  1
  Ta  Ta102  1  0.50799456  0.88847670  0.61178348  1
  Ta  Ta103  1  -0.00688880  0.40968318  0.24682444  1
  Ta  Ta104  1  0.19350411  0.39945144  0.48457527  1
  Ta  Ta105  1  0.30591393  0.09042479  0.14502285  1
  Ta  Ta106  1  0.00280689  0.20139159  0.74768348  1
  Ta  Ta107  1  -0.00064044  0.40304834  0.48680625  1
  Ta  Ta108  1  0.39362586  0.59292413  0.25539885  1
  Ta  Ta109  1  0.40534115  -0.00597520  -0.00368506  1
  Ta  Ta110  1  0.59819824  -0.00213419  -0.01255281  1
  Ta  Ta111  1  0.20184626  0.40875667  0.25951125  1
  Ta  Ta112  1  0.20172323  0.60017824  0.49051439  1
  Ta  Ta113  1  0.60431307  -0.00398272  0.49488224  1
  Ta  Ta114  1  0.30513895  0.90055539  0.87989047  1
  Ta  Ta115  1  0.90434000  0.91115005  0.89498282  1
  Ta  Ta116  1  0.69733212  0.50359682  0.62087500  1
  Ta  Ta117  1  0.89734276  0.50614641  0.62625627  1
  Ta  Ta118  1  0.59399239  0.39892700  0.24687419  1
  Ta  Ta119  1  0.49366544  0.49364523  0.64092022  1
  Ti  Ti120  1  0.31422731  0.90786859  0.13043404  1
  Ti  Ti121  1  0.50030718  0.08455492  0.37513147  1
  Ti  Ti122  1  0.49667667  0.88820869  0.38958386  1
  Ti  Ti123  1  0.89583889  0.69727008  0.90054698  1
  Ti  Ti124  1  0.50414234  0.30420137  0.37545832  1
  Ti  Ti125  1  0.80689172  0.20324763  0.74741363  1
  Ti  Ti126  1  0.00039544  0.80492848  -0.00342539  1
  Ti  Ti127  1  0.20437322  0.19424874  0.73607492  1
  Ti  Ti128  1  0.39537328  0.59756851  0.01497856  1
  Ti  Ti129  1  0.49791678  0.09219534  0.86031552  1
  Ti  Ti130  1  0.49659467  0.89729202  0.86773661  1
  Ti  Ti131  1  0.72102167  0.30329068  0.88578012  1
  Ti  Ti132  1  0.79497403  0.58567964  0.02065286  1
  Ti  Ti133  1  0.69212217  0.70478371  0.64524919  1
  Ti  Ti134  1  0.60161953  0.79242226  0.25335273  1
  Ti  Ti135  1  0.19390997  0.00198328  0.49973384  1
  Ti  Ti136  1  0.81025415  0.20476230  0.00706105  1
  Ti  Ti137  1  0.20521010  0.20078404  0.50897460  1
  Ti  Ti138  1  0.19854211  0.40203293  0.00028150  1
  Ti  Ti139  1  0.09523400  0.90770116  0.10718752  1
  Ti  Ti140  1  0.29753038  0.89236903  0.60586402  1
  Ti  Ti141  1  0.70046058  0.49224770  0.89346966  1
  Ti  Ti142  1  0.40422438  0.79748699  0.01148166  1
  Ti  Ti143  1  0.29721720  0.30529089  0.63034219  1
  Ti  Ti144  1  0.39545961  0.40533862  0.27102487  1
  Ti  Ti145  1  0.40039784  -0.00637625  0.73274992  1
  Ti  Ti146  1  0.00322831  0.81595673  0.24269694  1
  Ti  Ti147  1  0.09985094  0.69564264  0.89021400  1
  Ti  Ti148  1  0.58723197  0.41007639  0.49812084  1
  Ti  Ti149  1  0.59163224  0.80934517  -0.00580173  1
  Ti  Ti150  1  0.49703258  0.69571009  0.62930694  1
  Ti  Ti151  1  0.28838204  0.50494461  0.12155288  1
  Ti  Ti152  1  0.29964288  0.09142015  0.36934009  1
  Ti  Ti153  1  0.89867550  0.91617855  0.37849736  1
  Ti  Ti154  1  0.71222237  0.09173046  0.61806780  1
  Ti  Ti155  1  0.90098814  0.30803811  0.13369531  1
  Ti  Ti156  1  0.80176540  0.40228674  0.75228451  1
  Ti  Ti157  1  0.80751380  0.20052343  0.50209018  1
  Ti  Ti158  1  -0.00597550  0.60095795  0.76775815  1
  Ti  Ti159  1  0.79296406  0.41254748  0.23491103  1
  Mo  Mo160  1  0.29525429  0.49545029  0.37864921  1
  Mo  Mo161  1  0.59748105  0.79870804  0.74955689  1
  Mo  Mo162  1  0.40287006  0.79356560  0.50927037  1
  Mo  Mo163  1  0.80047656  0.80835295  -0.00278201  1
  Mo  Mo164  1  0.79745749  0.39064670  0.01417533  1
  Mo  Mo165  1  0.69977582  0.90181309  0.88952839  1
  Mo  Mo166  1  0.81055510  0.00021628  0.50635604  1
  Mo  Mo167  1  0.80159673  0.01147019  -0.01484170  1
  Mo  Mo168  1  0.01053234  0.00890366  0.00677491  1
  Mo  Mo169  1  0.80995477  -0.00035280  0.24488983  1
  Mo  Mo170  1  -0.00197347  0.60357355  -0.01324038  1
  Mo  Mo171  1  -0.00232674  0.39516514  0.00228030  1
  Mo  Mo172  1  0.89614938  0.49602622  0.11961609  1
  Mo  Mo173  1  0.69902960  0.90439789  0.09829760  1
  Mo  Mo174  1  0.69344130  0.49151394  0.11783037  1
  Mo  Mo175  1  0.90089447  0.90362677  0.62984469  1
  Mo  Mo176  1  0.39595450  -0.00979022  0.27889756  1
  Mo  Mo177  1  0.09582980  0.91167361  0.37565600  1
  Mo  Mo178  1  0.59060792  0.58926013  0.52621646  1
  Mo  Mo179  1  0.48950843  0.69676380  0.12335640  1
  Mo  Mo180  1  0.30263099  0.69748735  0.39831536  1
  Mo  Mo181  1  0.90448658  0.11162113  0.12678728  1
  Mo  Mo182  1  0.80964409  0.79686737  0.49672522  1
  Mo  Mo183  1  0.20081400  0.59285806  -0.00344963  1
  Mo  Mo184  1  0.18973921  0.40432227  0.75465374  1
  Mo  Mo185  1  0.01139262  0.00506074  0.48197013  1
  Mo  Mo186  1  0.29803279  0.09084021  0.61461677  1
  Mo  Mo187  1  0.49717774  0.49381450  0.36344464  1
  Mo  Mo188  1  0.39313676  0.60050094  0.73323537  1
  Mo  Mo189  1  0.19760996  0.79868294  0.51027923  1
  Mo  Mo190  1  0.80651343  0.20514806  0.24190461  1
  Mo  Mo191  1  0.00535931  -0.00051508  0.76508316  1
  Mo  Mo192  1  0.50294958  0.29920762  0.14800413  1
  Mo  Mo193  1  -0.00694939  0.60671798  0.24909782  1
  Mo  Mo194  1  0.20422485  0.19677533  0.24635567  1
  Mo  Mo195  1  0.70588240  0.70175270  0.34188560  1
  Mo  Mo196  1  0.00020079  0.20635368  0.23381701  1
  Mo  Mo197  1  0.30507838  0.69224592  0.11267844  1
  Mo  Mo198  1  0.89617816  0.29751858  0.86570513  1
  Mo  Mo199  1  0.39878720  0.39207782  0.73934231  1
