# generated using pymatgen
data_HfZrTaTiMo
_symmetry_space_group_name_H-M   'P 1'
_cell_length_a   15.82914214
_cell_length_b   15.84102241
_cell_length_c   15.41067715
_cell_angle_alpha   89.97489390
_cell_angle_beta   90.04337774
_cell_angle_gamma   89.99433137
_symmetry_Int_Tables_number   1
_chemical_formula_structural   HfZrTaTiMo
_chemical_formula_sum   'Hf40 Zr40 Ta40 Ti40 Mo40'
_cell_volume   3864.22264423
_cell_formula_units_Z   40
loop_
 _symmetry_equiv_pos_site_id
 _symmetry_equiv_pos_as_xyz
  1  'x, y, z'
loop_
 _atom_site_type_symbol
 _atom_site_label
 _atom_site_symmetry_multiplicity
 _atom_site_fract_x
 _atom_site_fract_y
 _atom_site_fract_z
 _atom_site_occupancy
  Hf  Hf0  1  0.01336781  0.80384046  0.50732418  1
  Hf  Hf1  1  0.69666249  0.29927746  0.62488034  1
  Hf  Hf2  1  0.80288419  -0.00709884  0.24368735  1
  Hf  Hf3  1  0.68981042  0.29767771  0.38013683  1
  Hf  Hf4  1  0.08722749  0.49712137  0.11935760  1
  Hf  Hf5  1  0.29617771  0.69969831  0.86274628  1
  Hf  Hf6  1  0.29678975  0.49914524  0.13409742  1
  Hf  Hf7  1  0.49067479  0.09189928  0.13385270  1
  Hf  Hf8  1  0.79332141  0.19707128  0.24400822  1
  Hf  Hf9  1  0.59921100  -0.00005477  0.74747778  1
  Hf  Hf10  1  0.50131905  0.68838067  0.38159153  1
  Hf  Hf11  1  0.39918089  -0.01840598  -0.01094609  1
  Hf  Hf12  1  0.08755336  0.27974805  0.87044230  1
  Hf  Hf13  1  0.00826900  0.81870484  0.76006893  1
  Hf  Hf14  1  0.81128406  0.60270073  0.51386391  1
  Hf  Hf15  1  0.29899490  0.49407138  0.87798249  1
  Hf  Hf16  1  0.19655304  0.61240465  0.01963995  1
  Hf  Hf17  1  0.60231880  0.79874518  0.74940650  1
  Hf  Hf18  1  0.21062379  0.81202380  0.01319973  1
  Hf  Hf19  1  0.50258344  0.10347050  0.87863235  1
  Hf  Hf20  1  0.70817228  0.31776073  0.13237924  1
  Hf  Hf21  1  0.79943283  0.60221468  0.26725180  1
  Hf  Hf22  1  0.71069896  0.88052543  0.10841955  1
  Hf  Hf23  1  0.80076394  0.59964971  0.75015644  1
  Hf  Hf24  1  0.49665846  0.49702642  0.38929561  1
  Hf  Hf25  1  0.09732509  0.67711944  0.37209435  1
  Hf  Hf26  1  0.30317487  0.10076656  0.36560620  1
  Hf  Hf27  1  0.38287791  0.18510775  0.00720662  1
  Hf  Hf28  1  0.89871533  0.09714608  0.37680548  1
  Hf  Hf29  1  0.60553320  0.40001667  -0.00612321  1
  Hf  Hf30  1  0.01518632  0.00747194  -0.00429624  1
  Hf  Hf31  1  0.69257571  0.50007638  0.38999757  1
  Hf  Hf32  1  0.90949184  0.88729733  0.10973682  1
  Hf  Hf33  1  0.09798754  0.50617557  0.87515618  1
  Hf  Hf34  1  0.08923825  0.30844065  0.63285261  1
  Hf  Hf35  1  0.18969170  0.19731553  0.22747070  1
  Hf  Hf36  1  0.19016143  0.38565762  0.00371337  1
  Hf  Hf37  1  0.59905568  0.80513374  0.50256945  1
  Hf  Hf38  1  0.60853939  0.19840164  0.01782583  1
  Hf  Hf39  1  0.49448255  0.90071289  0.61679921  1
  Zr  Zr40  1  0.17736132  0.40505166  0.48603055  1
  Zr  Zr41  1  0.61615181  0.00765793  0.24689864  1
  Zr  Zr42  1  0.88797583  0.49358393  0.11228929  1
  Zr  Zr43  1  0.50746035  0.70250339  0.11956691  1
  Zr  Zr44  1  0.70528395  0.90102656  0.87976626  1
  Zr  Zr45  1  -0.00314536  0.60205307  0.23729372  1
  Zr  Zr46  1  0.10403952  0.70914129  0.87218033  1
  Zr  Zr47  1  0.39318048  0.20138961  0.74665257  1
  Zr  Zr48  1  0.58197040  0.40429954  0.74686534  1
  Zr  Zr49  1  0.93453243  0.50921728  0.40013832  1
  Zr  Zr50  1  0.91256143  0.11686107  0.86624475  1
  Zr  Zr51  1  0.61779127  0.79594069  0.25812510  1
  Zr  Zr52  1  0.91107858  0.91462615  0.62524783  1
  Zr  Zr53  1  0.37913984  0.39376156  0.49380839  1
  Zr  Zr54  1  0.50424059  0.49039529  0.11866707  1
  Zr  Zr55  1  0.50385769  0.69564518  0.88127503  1
  Zr  Zr56  1  0.41550680  0.58580204  0.74562259  1
  Zr  Zr57  1  0.19677613  0.59616986  0.50863156  1
  Zr  Zr58  1  0.30595729  0.30067320  0.12597763  1
  Zr  Zr59  1  0.91605478  0.48900780  0.62672090  1
  Zr  Zr60  1  0.81040500  0.38910002  0.49332931  1
  Zr  Zr61  1  0.70473905  0.70704749  0.62218942  1
  Zr  Zr62  1  0.19797510  0.20976991  0.50146894  1
  Zr  Zr63  1  0.70576109  0.70225273  0.39459083  1
  Zr  Zr64  1  0.29433807  0.49121542  0.63611044  1
  Zr  Zr65  1  0.41383765  0.39192753  0.25855960  1
  Zr  Zr66  1  0.19936148  0.78549008  0.24176682  1
  Zr  Zr67  1  0.80196840  0.01471292  0.00615147  1
  Zr  Zr68  1  0.09186116  0.10073655  0.37070213  1
  Zr  Zr69  1  0.30391806  0.70077289  0.63589016  1
  Zr  Zr70  1  0.29656395  0.09512884  0.61548667  1
  Zr  Zr71  1  0.28794977  0.28622260  0.87493353  1
  Zr  Zr72  1  0.70822118  0.10985303  0.86642811  1
  Zr  Zr73  1  0.88168462  0.70213521  0.12100065  1
  Zr  Zr74  1  0.29956427  0.90002903  0.62662426  1
  Zr  Zr75  1  0.20959789  0.01672557  0.02159775  1
  Zr  Zr76  1  0.19985315  0.79616460  0.49496959  1
  Zr  Zr77  1  0.50039828  0.89282640  0.13390114  1
  Zr  Zr78  1  0.49516860  0.10005448  0.61031611  1
  Zr  Zr79  1  0.39631062  0.60443184  0.00700572  1
  Ta  Ta80  1  0.80622863  0.80661137  0.75452014  1
  Ta  Ta81  1  0.29954059  0.89873970  0.36802609  1
  Ta  Ta82  1  0.19989381  -0.00506062  0.24591966  1
  Ta  Ta83  1  0.59145605  0.20497741  0.74119570  1
  Ta  Ta84  1  0.39911712  -0.00097584  0.76112427  1
  Ta  Ta85  1  -0.01734755  0.61584542  -0.01227631  1
  Ta  Ta86  1  0.50443171  0.10710185  0.37569904  1
  Ta  Ta87  1  0.48822228  0.30087145  0.60513487  1
  Ta  Ta88  1  -0.00381855  0.39039559  0.25977657  1
  Ta  Ta89  1  0.39772280  0.79604784  0.48358317  1
  Ta  Ta90  1  0.28820194  0.89826641  0.86317733  1
  Ta  Ta91  1  -0.00653210  0.80288504  0.26200504  1
  Ta  Ta92  1  0.71038754  0.90689525  0.61946224  1
  Ta  Ta93  1  0.69685061  0.29639453  0.86357095  1
  Ta  Ta94  1  0.69657027  0.49399681  0.62080819  1
  Ta  Ta95  1  0.29160653  0.29826157  0.35776219  1
  Ta  Ta96  1  0.40289196  0.79485854  0.26618038  1
  Ta  Ta97  1  0.70579256  0.50838123  0.12981287  1
  Ta  Ta98  1  0.89832761  0.50385615  0.87291017  1
  Ta  Ta99  1  0.49304546  0.29882038  0.89032148  1
  Ta  Ta100  1  0.88977192  0.29836831  0.85930614  1
  Ta  Ta101  1  0.40927915  0.80808651  0.76230855  1
  Ta  Ta102  1  0.60136117  0.00051271  0.00454968  1
  Ta  Ta103  1  0.28875514  0.50821501  0.35508072  1
  Ta  Ta104  1  0.60247123  0.59487955  0.24849464  1
  Ta  Ta105  1  0.81027880  0.21742064  0.01171211  1
  Ta  Ta106  1  0.69968908  0.10199409  0.38956064  1
  Ta  Ta107  1  0.81055442  0.40144133  0.27009314  1
  Ta  Ta108  1  0.19247112  -0.00507399  0.48566642  1
  Ta  Ta109  1  0.89718022  0.29284224  0.64279461  1
  Ta  Ta110  1  0.50403589  0.90620056  0.37364293  1
  Ta  Ta111  1  -0.00826250  0.20827270  0.23812853  1
  Ta  Ta112  1  0.09557494  0.89948516  0.13243127  1
  Ta  Ta113  1  0.90439862  0.90264376  0.39039738  1
  Ta  Ta114  1  0.91282028  0.70595297  0.63598154  1
  Ta  Ta115  1  0.59253037  0.20989891  0.24425020  1
  Ta  Ta116  1  0.70432249  0.10183667  0.62312398  1
  Ta  Ta117  1  0.71453984  0.90897956  0.39699555  1
  Ta  Ta118  1  0.60248341  0.59490796  0.74226041  1
  Ta  Ta119  1  0.79245294  0.40500034  -0.02182947  1
  Ti  Ti120  1  0.80790822  0.00593192  0.74612426  1
  Ti  Ti121  1  0.82255985  0.78144831  -0.03086134  1
  Ti  Ti122  1  0.39804388  0.38863456  0.74710101  1
  Ti  Ti123  1  0.00698848  0.20433261  0.02208854  1
  Ti  Ti124  1  0.40693088  0.20291643  0.25027794  1
  Ti  Ti125  1  0.60423868  0.00404704  0.50009740  1
  Ti  Ti126  1  0.49602333  0.49408705  0.88640577  1
  Ti  Ti127  1  0.60032480  0.39982744  0.25090032  1
  Ti  Ti128  1  0.40220869  0.60471353  0.24118245  1
  Ti  Ti129  1  0.59096965  0.80686780  -0.01371669  1
  Ti  Ti130  1  0.11043801  0.91554850  0.63119589  1
  Ti  Ti131  1  0.09650522  0.50916472  0.64826964  1
  Ti  Ti132  1  0.19797396  0.39255685  0.75517341  1
  Ti  Ti133  1  0.90826448  0.91092208  0.87649503  1
  Ti  Ti134  1  0.59530223  0.20115582  0.50122914  1
  Ti  Ti135  1  0.90278285  0.10248182  0.12637630  1
  Ti  Ti136  1  0.70174094  0.69255811  0.10895638  1
  Ti  Ti137  1  -0.00276796  -0.00259784  0.24302918  1
  Ti  Ti138  1  0.09651680  0.90037436  0.36542322  1
  Ti  Ti139  1  -0.00385626  0.40087117  0.76525009  1
  Ti  Ti140  1  0.49037519  0.69857305  0.61825049  1
  Ti  Ti141  1  0.28084420  0.09407929  0.86431924  1
  Ti  Ti142  1  0.80953050  0.00985318  0.51145294  1
  Ti  Ti143  1  0.59126915  0.59439894  0.52169829  1
  Ti  Ti144  1  0.10820797  0.70172557  0.65191041  1
  Ti  Ti145  1  0.31504868  0.90043760  0.14544584  1
  Ti  Ti146  1  -0.00639039  0.19734399  0.50920779  1
  Ti  Ti147  1  0.18299161  0.18326597  0.73138052  1
  Ti  Ti148  1  0.80697437  0.80212922  0.26564973  1
  Ti  Ti149  1  -0.01478314  0.38849954  -0.00739225  1
  Ti  Ti150  1  0.02173354  0.02106922  0.75468090  1
  Ti  Ti151  1  0.90611714  0.70775183  0.39594447  1
  Ti  Ti152  1  0.61547913  0.59090618  -0.01041240  1
  Ti  Ti153  1  0.80554684  0.19737884  0.50713402  1
  Ti  Ti154  1  0.18457645  0.39556582  0.24884062  1
  Ti  Ti155  1  0.30103762  0.68710461  0.36830430  1
  Ti  Ti156  1  0.79115665  0.40333706  0.75575293  1
  Ti  Ti157  1  0.39834908  -0.00242378  0.48357457  1
  Ti  Ti158  1  0.70378241  0.69420791  0.87407703  1
  Ti  Ti159  1  0.07762661  0.71574884  0.11362555  1
  Mo  Mo160  1  0.69449312  0.49960125  0.85763464  1
  Mo  Mo161  1  0.39489395  0.60152765  0.49987028  1
  Mo  Mo162  1  0.20077574  0.59435305  0.75019746  1
  Mo  Mo163  1  0.00499691  0.80921968  -0.02063343  1
  Mo  Mo164  1  0.08985634  0.30516569  0.11983604  1
  Mo  Mo165  1  0.50013518  0.90200741  0.87330637  1
  Mo  Mo166  1  0.00035169  0.60284276  0.75116709  1
  Mo  Mo167  1  0.49613735  0.49701995  0.60898159  1
  Mo  Mo168  1  0.09397838  0.09415754  0.60693313  1
  Mo  Mo169  1  -0.00020518  0.37022869  0.48198157  1
  Mo  Mo170  1  0.10595371  0.49461336  0.35544728  1
  Mo  Mo171  1  0.89806189  0.30864867  0.12459379  1
  Mo  Mo172  1  0.20223743  0.80695357  0.74366368  1
  Mo  Mo173  1  0.09313458  0.29268055  0.36526783  1
  Mo  Mo174  1  0.08828892  0.09396689  0.14099048  1
  Mo  Mo175  1  0.01228704  0.61773924  0.53019393  1
  Mo  Mo176  1  0.49758117  0.29088678  0.38850823  1
  Mo  Mo177  1  0.70309232  0.10192326  0.12269337  1
  Mo  Mo178  1  0.00795177  0.00317198  0.49956664  1
  Mo  Mo179  1  0.39694090  0.80513397  -0.01580036  1
  Mo  Mo180  1  0.90444350  0.70067907  0.85345108  1
  Mo  Mo181  1  0.19932832  0.59821022  0.23229342  1
  Mo  Mo182  1  0.39986353  0.39326083  -0.00688035  1
  Mo  Mo183  1  0.39568307  0.20298079  0.48360932  1
  Mo  Mo184  1  0.50270694  0.29582849  0.11309397  1
  Mo  Mo185  1  0.11013347  0.11021470  0.88019254  1
  Mo  Mo186  1  0.79297081  0.20107322  0.73825071  1
  Mo  Mo187  1  0.11062225  0.91606267  0.87216478  1
  Mo  Mo188  1  0.59470095  0.39775734  0.51191233  1
  Mo  Mo189  1  0.30693344  0.08920124  0.14878821  1
  Mo  Mo190  1  0.81030135  0.80942001  0.50834749  1
  Mo  Mo191  1  0.90124899  0.10368278  0.62993365  1
  Mo  Mo192  1  0.40451409  -0.00328413  0.26785626  1
  Mo  Mo193  1  0.89906296  0.28595700  0.37467915  1
  Mo  Mo194  1  0.29172760  0.29877502  0.63794968  1
  Mo  Mo195  1  0.18706958  0.18969044  0.01576623  1
  Mo  Mo196  1  0.79305773  0.59778474  -0.02231566  1
  Mo  Mo197  1  -0.00114092  0.19760947  0.73495125  1
  Mo  Mo198  1  0.19668639  0.00331014  0.74932341  1
  Mo  Mo199  1  0.30945141  0.70827152  0.13673365  1
