# generated using pymatgen
data_HfZrTaTiMo
_symmetry_space_group_name_H-M   'P 1'
_cell_length_a   15.83388322
_cell_length_b   15.84268406
_cell_length_c   15.41344849
_cell_angle_alpha   90.01519486
_cell_angle_beta   90.00470620
_cell_angle_gamma   89.96778743
_symmetry_Int_Tables_number   1
_chemical_formula_structural   HfZrTaTiMo
_chemical_formula_sum   'Hf40 Zr40 Ta40 Ti40 Mo40'
_cell_volume   3866.48143429
_cell_formula_units_Z   40
loop_
 _symmetry_equiv_pos_site_id
 _symmetry_equiv_pos_as_xyz
  1  'x, y, z'
loop_
 _atom_site_type_symbol
 _atom_site_label
 _atom_site_symmetry_multiplicity
 _atom_site_fract_x
 _atom_site_fract_y
 _atom_site_fract_z
 _atom_site_occupancy
  Hf  Hf0  1  0.68726456  0.69184142  0.87330752  1
  Hf  Hf1  1  0.89933019  0.92215413  0.12174851  1
  Hf  Hf2  1  0.80190880  0.81526892  0.25169559  1
  Hf  Hf3  1  0.61317307  0.39452162  0.77343063  1
  Hf  Hf4  1  0.79148112  -0.00256146  0.49935534  1
  Hf  Hf5  1  0.00694323  0.40799849  0.23318091  1
  Hf  Hf6  1  0.09256903  0.70341345  0.37646618  1
  Hf  Hf7  1  0.10830474  0.29168640  0.11653395  1
  Hf  Hf8  1  0.69330096  0.10761846  0.63547638  1
  Hf  Hf9  1  0.90099524  0.70892533  0.12792338  1
  Hf  Hf10  1  0.10729646  0.10854899  0.62273949  1
  Hf  Hf11  1  0.30368305  0.50574359  0.11098199  1
  Hf  Hf12  1  0.60109896  0.40404888  0.23564797  1
  Hf  Hf13  1  0.79927615  0.80419278  -0.00880332  1
  Hf  Hf14  1  0.70574530  0.29675235  0.62754609  1
  Hf  Hf15  1  0.40692900  0.60066733  0.49830682  1
  Hf  Hf16  1  0.29857594  0.30264413  0.37200301  1
  Hf  Hf17  1  0.00077799  0.37802579  0.52122027  1
  Hf  Hf18  1  0.71008132  0.29824765  0.12185223  1
  Hf  Hf19  1  0.90547390  0.30451531  0.89047682  1
  Hf  Hf20  1  0.69222043  0.91038925  0.13152499  1
  Hf  Hf21  1  0.29643605  0.90721112  0.63124908  1
  Hf  Hf22  1  0.90156637  0.70224467  0.36623030  1
  Hf  Hf23  1  0.80152726  -0.00426469  0.75694765  1
  Hf  Hf24  1  0.79287457  0.60722285  0.49783396  1
  Hf  Hf25  1  0.30088737  0.89674180  0.85926113  1
  Hf  Hf26  1  0.20123242  0.19187426  0.24929307  1
  Hf  Hf27  1  0.90402225  0.51106422  0.87676368  1
  Hf  Hf28  1  0.00827588  0.40144722  0.00882470  1
  Hf  Hf29  1  0.72511449  0.09654061  0.13848756  1
  Hf  Hf30  1  0.19885889  0.59800977  0.74689788  1
  Hf  Hf31  1  0.49315977  0.69374781  0.11357777  1
  Hf  Hf32  1  0.30699087  0.10420647  0.62776060  1
  Hf  Hf33  1  0.30409003  0.29448796  0.64194613  1
  Hf  Hf34  1  0.89587872  0.10792284  0.61592058  1
  Hf  Hf35  1  0.79588620  0.58781251  0.24138165  1
  Hf  Hf36  1  0.30375724  0.30054326  0.11766639  1
  Hf  Hf37  1  0.80184882  0.39812312  0.49822769  1
  Hf  Hf38  1  0.58662708  0.59117127  0.25255259  1
  Hf  Hf39  1  0.28537633  0.91157646  0.11655972  1
  Zr  Zr40  1  0.09681789  0.30132692  0.36743868  1
  Zr  Zr41  1  0.69158061  0.70351672  0.12729849  1
  Zr  Zr42  1  0.09833363  0.49641203  0.86789359  1
  Zr  Zr43  1  0.39033582  0.80516434  0.00633648  1
  Zr  Zr44  1  0.51126246  0.50710680  0.88232779  1
  Zr  Zr45  1  0.39523108  0.80160921  0.24268102  1
  Zr  Zr46  1  0.41390748  0.01547033  0.75581419  1
  Zr  Zr47  1  0.08385680  0.69836225  0.86053202  1
  Zr  Zr48  1  0.07264867  0.71640871  0.64088720  1
  Zr  Zr49  1  0.90499074  0.09604572  0.37959100  1
  Zr  Zr50  1  0.31068963  0.10073524  0.37627614  1
  Zr  Zr51  1  0.50457796  0.49074019  0.63431865  1
  Zr  Zr52  1  0.39492677  0.59472044  0.75509299  1
  Zr  Zr53  1  0.09981267  0.08608150  0.11623391  1
  Zr  Zr54  1  0.19521903  0.59770925  0.51327995  1
  Zr  Zr55  1  0.18839636  0.79548904  -0.00303402  1
  Zr  Zr56  1  0.00244053  0.60769357  0.01479276  1
  Zr  Zr57  1  0.90897118  0.49355881  0.37378026  1
  Zr  Zr58  1  0.48496112  0.29969559  0.87469474  1
  Zr  Zr59  1  0.41210597  0.19282574  0.50052202  1
  Zr  Zr60  1  0.80441350  0.39754051  0.76221760  1
  Zr  Zr61  1  -0.00666395  0.59978178  0.51015570  1
  Zr  Zr62  1  0.40521616  -0.00497190  0.23787439  1
  Zr  Zr63  1  0.69354349  0.71061861  0.35908832  1
  Zr  Zr64  1  0.40700827  0.40943462  0.24084643  1
  Zr  Zr65  1  0.39928704  0.60142842  0.26541514  1
  Zr  Zr66  1  -0.00171968  0.20462440  0.75027099  1
  Zr  Zr67  1  0.50973513  0.28305831  0.64207663  1
  Zr  Zr68  1  0.60599642  0.79674288  0.50153508  1
  Zr  Zr69  1  0.69539344  0.50761004  0.62743508  1
  Zr  Zr70  1  -0.00430381  0.00103378  0.75233529  1
  Zr  Zr71  1  0.89909014  0.28254603  0.12311759  1
  Zr  Zr72  1  0.19819250  0.59859270  0.25940827  1
  Zr  Zr73  1  0.30095006  0.71467932  0.39539052  1
  Zr  Zr74  1  0.50853091  0.69770611  0.63644817  1
  Zr  Zr75  1  0.50642396  0.90437098  0.87642326  1
  Zr  Zr76  1  0.49766643  0.29388487  0.35951383  1
  Zr  Zr77  1  0.17851885  0.81430463  0.51531568  1
  Zr  Zr78  1  0.49582565  0.70955430  0.86862435  1
  Zr  Zr79  1  0.61080917  0.19326217  0.48041426  1
  Ta  Ta80  1  0.59596043  0.59562639  0.47994522  1
  Ta  Ta81  1  0.29681238  0.49016090  0.39181727  1
  Ta  Ta82  1  0.40589725  0.19657022  0.00818703  1
  Ta  Ta83  1  0.80581005  0.20695677  0.48743862  1
  Ta  Ta84  1  0.60220505  0.19193440  0.24076193  1
  Ta  Ta85  1  0.59907971  0.39646833  0.48670949  1
  Ta  Ta86  1  0.19850122  0.39639297  0.51805124  1
  Ta  Ta87  1  0.68753071  0.91645435  0.36475944  1
  Ta  Ta88  1  0.49625090  0.90297173  0.62008257  1
  Ta  Ta89  1  0.49015933  0.89573002  0.39306274  1
  Ta  Ta90  1  0.30047270  0.90406051  0.38932997  1
  Ta  Ta91  1  0.00263703  0.59703743  0.23707924  1
  Ta  Ta92  1  0.09619645  0.10064552  0.38557651  1
  Ta  Ta93  1  0.20913805  0.39676117  -0.01440496  1
  Ta  Ta94  1  0.00503663  0.80844416  0.24757363  1
  Ta  Ta95  1  0.79607081  0.20070700  0.77125720  1
  Ta  Ta96  1  0.79780733  0.19078929  -0.01564277  1
  Ta  Ta97  1  0.60141966  0.19793574  0.00409226  1
  Ta  Ta98  1  0.80372631  0.00441972  -0.02035293  1
  Ta  Ta99  1  0.89781011  0.50271874  0.63521920  1
  Ta  Ta100  1  0.00892462  -0.01285626  0.51296843  1
  Ta  Ta101  1  0.90522543  0.88115939  0.62354232  1
  Ta  Ta102  1  0.70819766  0.29746881  0.35653646  1
  Ta  Ta103  1  0.40316986  0.39624196  0.50607120  1
  Ta  Ta104  1  0.19955143  0.00679257  0.49621627  1
  Ta  Ta105  1  0.30193039  0.71034611  0.63114139  1
  Ta  Ta106  1  0.10093775  0.89531466  0.85751198  1
  Ta  Ta107  1  0.00055277  -0.00395494  -0.02304075  1
  Ta  Ta108  1  0.19609890  -0.00302069  0.26315072  1
  Ta  Ta109  1  0.10812827  0.29372975  0.87369042  1
  Ta  Ta110  1  0.39109522  0.60280099  -0.01471883  1
  Ta  Ta111  1  0.09514279  0.90411823  0.37341157  1
  Ta  Ta112  1  0.19672091  0.80832138  0.25059172  1
  Ta  Ta113  1  0.60121813  0.39913018  0.00884595  1
  Ta  Ta114  1  0.09674391  0.49467694  0.63852297  1
  Ta  Ta115  1  0.20447004  0.39475706  0.75371550  1
  Ta  Ta116  1  0.19849195  0.00451478  -0.02498981  1
  Ta  Ta117  1  0.59532214  0.00235715  0.50487850  1
  Ta  Ta118  1  0.79320274  0.59849935  0.00103524  1
  Ta  Ta119  1  0.90526841  0.29414305  0.36285676  1
  Ti  Ti120  1  0.51059693  0.08289290  0.36360191  1
  Ti  Ti121  1  0.57778055  0.81353911  0.24905035  1
  Ti  Ti122  1  0.79823773  0.60211462  0.75893344  1
  Ti  Ti123  1  0.59889666  0.00417977  0.74620833  1
  Ti  Ti124  1  0.70466351  0.70119823  0.63707676  1
  Ti  Ti125  1  0.19226929  0.21032391  0.49874701  1
  Ti  Ti126  1  -0.00174412  0.18641859  0.23991949  1
  Ti  Ti127  1  0.80470184  0.79646367  0.75965090  1
  Ti  Ti128  1  -0.00003710  0.39366187  0.74260433  1
  Ti  Ti129  1  0.20668178  0.60066254  -0.02081486  1
  Ti  Ti130  1  0.80379413  0.39922765  0.24658718  1
  Ti  Ti131  1  0.69553585  0.89922990  0.87130534  1
  Ti  Ti132  1  0.70214806  0.89752390  0.62868135  1
  Ti  Ti133  1  -0.00812378  0.80698628  -0.01325936  1
  Ti  Ti134  1  0.29423219  0.71203560  0.85423811  1
  Ti  Ti135  1  0.29483880  0.09835294  0.11696074  1
  Ti  Ti136  1  0.09555752  0.90040813  0.12096636  1
  Ti  Ti137  1  0.20269517  0.40728979  0.24652673  1
  Ti  Ti138  1  0.80188826  0.80061152  0.49906003  1
  Ti  Ti139  1  0.20569712  0.19545281  -0.01437432  1
  Ti  Ti140  1  0.40954815  0.19372531  0.22907850  1
  Ti  Ti141  1  0.19625261  0.01367490  0.76095786  1
  Ti  Ti142  1  0.31553598  0.47860360  0.87322334  1
  Ti  Ti143  1  0.40115014  0.00776039  -0.00367646  1
  Ti  Ti144  1  0.60541526  0.00407221  -0.00174158  1
  Ti  Ti145  1  0.88707165  0.49280688  0.11247200  1
  Ti  Ti146  1  0.69871982  0.49281491  0.37326256  1
  Ti  Ti147  1  0.59719122  0.80598053  0.00380996  1
  Ti  Ti148  1  0.00102591  0.18284010  -0.00870460  1
  Ti  Ti149  1  0.11670251  0.50722082  0.11535009  1
  Ti  Ti150  1  0.28858158  0.69571070  0.12213362  1
  Ti  Ti151  1  0.68925978  0.09931707  0.87084284  1
  Ti  Ti152  1  0.90358539  0.90019350  0.38194810  1
  Ti  Ti153  1  0.30213200  0.49551797  0.62469823  1
  Ti  Ti154  1  0.00025061  -0.00056794  0.25261524  1
  Ti  Ti155  1  0.60346512  0.80757258  0.74411405  1
  Ti  Ti156  1  0.51155515  0.08928045  0.11934414  1
  Ti  Ti157  1  0.10324441  0.70461260  0.13127906  1
  Ti  Ti158  1  0.31054878  0.11626527  0.87028430  1
  Ti  Ti159  1  0.10288506  0.49429595  0.38369206  1
  Mo  Mo160  1  -0.01839381  0.80286780  0.76601233  1
  Mo  Mo161  1  -0.01513068  0.59694758  0.73863045  1
  Mo  Mo162  1  0.50472328  0.10071247  0.89762193  1
  Mo  Mo163  1  0.40553616  0.19755365  0.75894689  1
  Mo  Mo164  1  0.79809943  0.40087790  -0.00523899  1
  Mo  Mo165  1  0.49876527  0.50148344  0.10111943  1
  Mo  Mo166  1  0.50860795  0.09494258  0.62521407  1
  Mo  Mo167  1  0.61260866  0.59912131  0.75232822  1
  Mo  Mo168  1  0.10702638  0.29936302  0.64301037  1
  Mo  Mo169  1  0.89420822  0.29706994  0.62882400  1
  Mo  Mo170  1  0.40476209  -0.00083528  0.50237969  1
  Mo  Mo171  1  -0.01310493  0.80691996  0.49217266  1
  Mo  Mo172  1  0.50311267  0.90390819  0.10503153  1
  Mo  Mo173  1  0.80535481  0.00152727  0.26682092  1
  Mo  Mo174  1  0.49850416  0.49287222  0.38783680  1
  Mo  Mo175  1  0.40363072  0.39941549  0.01121866  1
  Mo  Mo176  1  0.10346251  0.10131416  0.87733762  1
  Mo  Mo177  1  0.90561308  0.09543559  0.11375521  1
  Mo  Mo178  1  0.69823862  0.29603359  0.89495664  1
  Mo  Mo179  1  0.70268592  0.49668220  0.11207693  1
  Mo  Mo180  1  0.20461448  0.19739712  0.76765626  1
  Mo  Mo181  1  0.87989228  0.70191697  0.63384748  1
  Mo  Mo182  1  0.39919949  0.40035962  0.73894005  1
  Mo  Mo183  1  0.39845119  0.80240287  0.51643981  1
  Mo  Mo184  1  0.89070281  0.69955338  0.87414738  1
  Mo  Mo185  1  0.59855913  0.60070273  0.01193439  1
  Mo  Mo186  1  0.40050843  0.80436774  0.73553315  1
  Mo  Mo187  1  0.70167803  0.09889636  0.36097399  1
  Mo  Mo188  1  0.59989610  0.19021596  0.77324738  1
  Mo  Mo189  1  0.89742280  0.89667900  0.87634745  1
  Mo  Mo190  1  0.80624949  0.19931894  0.26250425  1
  Mo  Mo191  1  0.19306838  0.80578121  0.74192537  1
  Mo  Mo192  1  0.30131790  0.29884112  0.87572976  1
  Mo  Mo193  1  0.50012230  0.70587586  0.37626366  1
  Mo  Mo194  1  0.00246079  0.19693935  0.50749196  1
  Mo  Mo195  1  0.09631800  0.91014947  0.64420598  1
  Mo  Mo196  1  0.70477102  0.49928060  0.89452304  1
  Mo  Mo197  1  0.50405282  0.29015638  0.12307482  1
  Mo  Mo198  1  0.89793204  0.10188340  0.87645805  1
  Mo  Mo199  1  0.59530492  -0.00132976  0.24890507  1
