# generated using pymatgen
data_HfZrTaTiMo
_symmetry_space_group_name_H-M   'P 1'
_cell_length_a   15.82639685
_cell_length_b   15.84112981
_cell_length_c   15.40084096
_cell_angle_alpha   89.99134800
_cell_angle_beta   89.99096844
_cell_angle_gamma   89.93241201
_symmetry_Int_Tables_number   1
_chemical_formula_structural   HfZrTaTiMo
_chemical_formula_sum   'Hf40 Zr40 Ta40 Ti40 Mo40'
_cell_volume   3861.11136139
_cell_formula_units_Z   40
loop_
 _symmetry_equiv_pos_site_id
 _symmetry_equiv_pos_as_xyz
  1  'x, y, z'
loop_
 _atom_site_type_symbol
 _atom_site_label
 _atom_site_symmetry_multiplicity
 _atom_site_fract_x
 _atom_site_fract_y
 _atom_site_fract_z
 _atom_site_occupancy
  Hf  Hf0  1  0.89932288  0.90829208  0.37515564  1
  Hf  Hf1  1  0.19253541  0.20075289  0.73749336  1
  Hf  Hf2  1  0.52058988  0.69591802  0.63892294  1
  Hf  Hf3  1  0.29679713  0.89700854  0.63715292  1
  Hf  Hf4  1  0.47989562  0.31091226  0.36375077  1
  Hf  Hf5  1  0.50533812  0.90441592  0.62129969  1
  Hf  Hf6  1  0.70697603  0.90905105  0.35320798  1
  Hf  Hf7  1  0.89557881  0.49971087  0.37533916  1
  Hf  Hf8  1  0.80598426  0.59434295  0.23301677  1
  Hf  Hf9  1  0.89897282  0.91047800  0.10720919  1
  Hf  Hf10  1  0.70195904  0.91178476  0.61446638  1
  Hf  Hf11  1  0.30622929  0.49772008  0.88131470  1
  Hf  Hf12  1  0.18844559  0.19787258  0.22920901  1
  Hf  Hf13  1  0.39560348  0.19770364  0.73754047  1
  Hf  Hf14  1  0.41344803  0.59420089  0.50786289  1
  Hf  Hf15  1  0.40714579  0.38890667  0.74890398  1
  Hf  Hf16  1  0.71024144  0.30052577  0.14142952  1
  Hf  Hf17  1  0.81388029  0.39702639  -0.00883111  1
  Hf  Hf18  1  0.59399395  0.20558563  0.01469343  1
  Hf  Hf19  1  0.49902955  0.90041545  0.12827764  1
  Hf  Hf20  1  0.89472727  0.90194320  0.63228452  1
  Hf  Hf21  1  0.80126950  0.20092753  0.00591289  1
  Hf  Hf22  1  0.20124154  0.80045499  0.49606043  1
  Hf  Hf23  1  0.59811656  0.80204266  0.48092080  1
  Hf  Hf24  1  0.69455838  0.28998061  0.62304592  1
  Hf  Hf25  1  0.30345001  0.90974590  0.88221309  1
  Hf  Hf26  1  0.59330977  0.20335230  0.76188803  1
  Hf  Hf27  1  0.18477127  0.20686583  0.00656796  1
  Hf  Hf28  1  0.40350642  0.79922823  0.48622524  1
  Hf  Hf29  1  0.10982672  0.70537655  0.64454849  1
  Hf  Hf30  1  0.19441600  0.39700371  0.75048593  1
  Hf  Hf31  1  0.41433582  0.58984551  0.74861585  1
  Hf  Hf32  1  0.41071313  0.80978517  0.76646028  1
  Hf  Hf33  1  0.68535674  0.49980256  0.62796213  1
  Hf  Hf34  1  0.88304055  0.89523042  0.88417940  1
  Hf  Hf35  1  0.19766345  0.60553700  -0.01288386  1
  Hf  Hf36  1  0.00593285  0.39199269  0.26398006  1
  Hf  Hf37  1  0.30950972  0.48616843  0.37569396  1
  Hf  Hf38  1  0.70765084  0.70417540  0.35727558  1
  Hf  Hf39  1  0.21223346  0.38246637  0.51309038  1
  Zr  Zr40  1  0.79661497  0.19372457  0.48313371  1
  Zr  Zr41  1  0.90041209  0.09461471  0.88873518  1
  Zr  Zr42  1  0.01231958  0.79267495  -0.01255402  1
  Zr  Zr43  1  0.29652619  0.10046132  0.89054159  1
  Zr  Zr44  1  0.28794036  0.11873739  0.38010738  1
  Zr  Zr45  1  0.29792074  0.90000141  0.11390917  1
  Zr  Zr46  1  0.61371731  0.82384280  0.76938634  1
  Zr  Zr47  1  0.60989083  0.01755071  0.47588557  1
  Zr  Zr48  1  0.61119558  0.59564826  0.47935579  1
  Zr  Zr49  1  0.60605729  0.60775577  0.01773209  1
  Zr  Zr50  1  0.70786226  0.70777179  0.63409585  1
  Zr  Zr51  1  0.00763373  0.58948842  0.51745876  1
  Zr  Zr52  1  0.69412943  0.90407119  0.12971786  1
  Zr  Zr53  1  0.50614765  0.49900219  0.89246106  1
  Zr  Zr54  1  0.30171326  0.70106983  0.13264194  1
  Zr  Zr55  1  0.10038981  0.48477145  0.11614083  1
  Zr  Zr56  1  0.79027249  0.39396276  0.48853411  1
  Zr  Zr57  1  0.59654631  0.40045886  0.76066280  1
  Zr  Zr58  1  0.39581623  0.00789791  0.50070074  1
  Zr  Zr59  1  0.90034870  0.69281262  0.87248135  1
  Zr  Zr60  1  -0.00426721  0.19570344  0.26684651  1
  Zr  Zr61  1  0.80764140  0.58107497  0.74854402  1
  Zr  Zr62  1  0.00641239  0.80329206  0.50039238  1
  Zr  Zr63  1  0.10997834  0.49534793  0.38196163  1
  Zr  Zr64  1  0.60418729  0.60034232  0.23494617  1
  Zr  Zr65  1  0.71081746  0.70702527  0.87632737  1
  Zr  Zr66  1  0.49866957  0.09411904  0.13436460  1
  Zr  Zr67  1  0.10505816  0.69362663  0.36603224  1
  Zr  Zr68  1  0.30008558  0.68321075  0.36223472  1
  Zr  Zr69  1  0.90274926  0.70270464  0.63577773  1
  Zr  Zr70  1  0.10711461  0.69867473  0.12981593  1
  Zr  Zr71  1  0.48931486  0.09667937  0.89130580  1
  Zr  Zr72  1  0.90323976  0.69975914  0.37343733  1
  Zr  Zr73  1  0.19580152  0.01150555  0.74537029  1
  Zr  Zr74  1  0.80573217  0.38636936  0.75628542  1
  Zr  Zr75  1  0.09621195  0.09225001  0.39395079  1
  Zr  Zr76  1  0.30842621  0.70413312  0.63790995  1
  Zr  Zr77  1  0.28819447  0.91389108  0.37079043  1
  Zr  Zr78  1  -0.00464670  0.00465385  0.24323105  1
  Zr  Zr79  1  0.51088139  0.11248941  0.61120487  1
  Ta  Ta80  1  0.00144429  0.80266095  0.24260185  1
  Ta  Ta81  1  0.70365885  0.50207360  0.88763367  1
  Ta  Ta82  1  0.90594584  0.70042583  0.11551052  1
  Ta  Ta83  1  0.29988888  0.49723050  0.11271805  1
  Ta  Ta84  1  0.50827115  0.69785749  0.87530098  1
  Ta  Ta85  1  0.69534235  0.09414218  0.88751111  1
  Ta  Ta86  1  0.20181096  0.59124632  0.75002621  1
  Ta  Ta87  1  0.69670910  0.29565774  0.88285037  1
  Ta  Ta88  1  0.09651792  0.89963507  0.64172225  1
  Ta  Ta89  1  0.19018523  0.00399721  0.52436252  1
  Ta  Ta90  1  0.78652000  -0.00138128  0.76086638  1
  Ta  Ta91  1  -0.00227668  0.39311753  0.75770612  1
  Ta  Ta92  1  0.18984092  0.00992075  0.22802772  1
  Ta  Ta93  1  0.00699408  0.80460123  0.76639112  1
  Ta  Ta94  1  -0.00538947  0.00638436  0.75090487  1
  Ta  Ta95  1  0.19772801  0.39299694  -0.01196512  1
  Ta  Ta96  1  -0.00507999  0.38341289  0.49521127  1
  Ta  Ta97  1  -0.00207260  0.58701624  -0.00750018  1
  Ta  Ta98  1  0.70872088  0.49078339  0.12186591  1
  Ta  Ta99  1  0.91224282  0.29501182  0.13224823  1
  Ta  Ta100  1  0.49449209  0.50508350  0.35382819  1
  Ta  Ta101  1  0.38312725  0.22310974  0.50490137  1
  Ta  Ta102  1  0.40773670  0.39008353  0.00984464  1
  Ta  Ta103  1  0.20674439  0.59204991  0.52059044  1
  Ta  Ta104  1  0.59936919  0.20375616  0.25653882  1
  Ta  Ta105  1  0.48868288  0.11001530  0.36470470  1
  Ta  Ta106  1  0.40713654  0.79318879  -0.00891577  1
  Ta  Ta107  1  0.60042074  0.21512978  0.46903835  1
  Ta  Ta108  1  0.60232409  0.39316652  0.01067407  1
  Ta  Ta109  1  -0.00732841  0.20075218  0.74603828  1
  Ta  Ta110  1  0.30610654  0.29566769  0.88183385  1
  Ta  Ta111  1  0.00069734  0.59553997  0.23791229  1
  Ta  Ta112  1  0.29301064  0.30572716  0.12009619  1
  Ta  Ta113  1  0.40459231  0.60555021  0.00893606  1
  Ta  Ta114  1  0.00891564  0.58182631  0.75211500  1
  Ta  Ta115  1  0.79851074  0.80282370  0.49569007  1
  Ta  Ta116  1  0.39710805  0.80478092  0.25684455  1
  Ta  Ta117  1  0.09869420  0.90058870  0.11366041  1
  Ta  Ta118  1  0.30817777  0.49158395  0.62701174  1
  Ta  Ta119  1  0.49690449  0.69790871  0.35225322  1
  Ti  Ti120  1  0.59606912  0.40711549  0.47601635  1
  Ti  Ti121  1  -0.01014022  0.20092167  0.50506245  1
  Ti  Ti122  1  0.80046338  0.59791197  0.50557520  1
  Ti  Ti123  1  0.19102087  0.00752905  0.01101121  1
  Ti  Ti124  1  0.09068473  0.10446578  0.88271504  1
  Ti  Ti125  1  0.80697292  0.19376476  0.26218899  1
  Ti  Ti126  1  0.11579060  0.28536732  0.39140278  1
  Ti  Ti127  1  0.38338121  0.00865137  0.24571680  1
  Ti  Ti128  1  0.70122013  0.09955051  0.62716328  1
  Ti  Ti129  1  0.79752399  0.19320865  0.75695699  1
  Ti  Ti130  1  0.50607434  0.91132953  0.89928968  1
  Ti  Ti131  1  0.00351684  0.38029939  -0.01933909  1
  Ti  Ti132  1  0.20227822  0.58015204  0.24182298  1
  Ti  Ti133  1  0.40471106  0.00913931  0.74104082  1
  Ti  Ti134  1  0.20138008  0.38777747  0.24948145  1
  Ti  Ti135  1  0.90621480  0.47924810  0.61816147  1
  Ti  Ti136  1  0.90664631  0.48745550  0.12251245  1
  Ti  Ti137  1  0.06768300  0.10493852  0.10413190  1
  Ti  Ti138  1  0.59738047  0.00746100  0.76088704  1
  Ti  Ti139  1  0.20115170  0.79652433  -0.01813149  1
  Ti  Ti140  1  0.10017123  0.91261709  0.87650655  1
  Ti  Ti141  1  0.30400876  0.69946885  0.86572168  1
  Ti  Ti142  1  0.70410372  0.09310953  0.13616804  1
  Ti  Ti143  1  0.38773244  0.20709491  0.23586202  1
  Ti  Ti144  1  0.80663429  0.59796462  0.00914262  1
  Ti  Ti145  1  0.50027830  0.90997595  0.35420974  1
  Ti  Ti146  1  0.88769099  0.10070388  0.62577738  1
  Ti  Ti147  1  0.09774397  0.49456297  0.87731539  1
  Ti  Ti148  1  -0.00668487  0.00303238  0.51590934  1
  Ti  Ti149  1  0.19489351  0.81229230  0.25183626  1
  Ti  Ti150  1  0.50080794  0.71182260  0.13501117  1
  Ti  Ti151  1  0.49947371  0.49477846  0.12778705  1
  Ti  Ti152  1  0.50347992  0.31386573  0.60409319  1
  Ti  Ti153  1  0.09852242  0.90620094  0.37255460  1
  Ti  Ti154  1  0.39353526  0.40178298  0.22986285  1
  Ti  Ti155  1  0.60580538  0.40226964  0.25285916  1
  Ti  Ti156  1  0.39626859  0.20365440  0.02089602  1
  Ti  Ti157  1  0.60581771  0.80100946  0.00115344  1
  Ti  Ti158  1  0.08617471  0.30085601  0.62173820  1
  Ti  Ti159  1  0.80953701  0.80030954  0.23298774  1
  Mo  Mo160  1  0.09928510  0.49281309  0.62484342  1
  Mo  Mo161  1  0.19483617  0.19911192  0.52251415  1
  Mo  Mo162  1  0.80657581  0.39672276  0.25045295  1
  Mo  Mo163  1  0.80294888  0.00392584  0.49836861  1
  Mo  Mo164  1  0.69758713  0.91014814  0.89796669  1
  Mo  Mo165  1  0.69907875  0.10266081  0.35234255  1
  Mo  Mo166  1  0.89958863  0.29059842  0.86449153  1
  Mo  Mo167  1  0.39616552  -0.00245858  0.01312763  1
  Mo  Mo168  1  0.80498241  0.01247670  0.24005252  1
  Mo  Mo169  1  0.88940283  0.10556112  0.11662444  1
  Mo  Mo170  1  0.30277470  0.30162832  0.63911616  1
  Mo  Mo171  1  0.49493683  0.29520755  0.89292687  1
  Mo  Mo172  1  0.59355765  0.80285760  0.25422612  1
  Mo  Mo173  1  0.40729150  0.40392290  0.50513584  1
  Mo  Mo174  1  0.29862791  0.10325136  0.61240830  1
  Mo  Mo175  1  0.29441503  0.30071006  0.35669343  1
  Mo  Mo176  1  0.59399835  0.00959033  0.25881986  1
  Mo  Mo177  1  0.00380429  0.00146862  -0.00713332  1
  Mo  Mo178  1  0.90674825  0.49560013  0.88309839  1
  Mo  Mo179  1  0.69771407  0.30498591  0.35585413  1
  Mo  Mo180  1  0.08172310  0.10086568  0.61925487  1
  Mo  Mo181  1  0.29594269  0.10167934  0.11712845  1
  Mo  Mo182  1  0.09821901  0.29391241  0.86559151  1
  Mo  Mo183  1  0.09204722  0.30367567  0.12125902  1
  Mo  Mo184  1  0.60530045  0.59792237  0.76692032  1
  Mo  Mo185  1  0.60031495  0.00319598  0.00299185  1
  Mo  Mo186  1  0.69995984  0.49775634  0.35566291  1
  Mo  Mo187  1  0.79534628  0.79154727  0.01709800  1
  Mo  Mo188  1  0.89951552  0.29248666  0.63214550  1
  Mo  Mo189  1  0.40047977  0.59472258  0.22749208  1
  Mo  Mo190  1  0.89528422  0.09302825  0.39102134  1
  Mo  Mo191  1  0.49843214  0.30495365  0.14244534  1
  Mo  Mo192  1  0.80391251  0.81443039  0.74623997  1
  Mo  Mo193  1  0.19887292  0.80250383  0.77429045  1
  Mo  Mo194  1  -0.00609811  0.20926740  -0.00759879  1
  Mo  Mo195  1  0.70869253  0.70548290  0.12408468  1
  Mo  Mo196  1  0.50645529  0.49527684  0.61604425  1
  Mo  Mo197  1  0.90207789  0.29782436  0.36799854  1
  Mo  Mo198  1  0.79202026  0.00307608  0.00652497  1
  Mo  Mo199  1  0.10608285  0.69258045  0.85902576  1
