# generated using pymatgen
data_HfZrTaTiMo
_symmetry_space_group_name_H-M   'P 1'
_cell_length_a   15.85415248
_cell_length_b   15.83315408
_cell_length_c   15.36977811
_cell_angle_alpha   89.93538700
_cell_angle_beta   89.99977964
_cell_angle_gamma   89.95481050
_symmetry_Int_Tables_number   1
_chemical_formula_structural   HfZrTaTiMo
_chemical_formula_sum   'Hf40 Zr40 Ta40 Ti40 Mo40'
_cell_volume   3858.13709252
_cell_formula_units_Z   40
loop_
 _symmetry_equiv_pos_site_id
 _symmetry_equiv_pos_as_xyz
  1  'x, y, z'
loop_
 _atom_site_type_symbol
 _atom_site_label
 _atom_site_symmetry_multiplicity
 _atom_site_fract_x
 _atom_site_fract_y
 _atom_site_fract_z
 _atom_site_occupancy
  Hf  Hf0  1  0.09823049  0.51330838  0.59668789  1
  Hf  Hf1  1  0.39297000  0.39908329  0.75688845  1
  Hf  Hf2  1  0.69059536  0.29862735  0.11134824  1
  Hf  Hf3  1  0.60786355  0.79745457  0.01036024  1
  Hf  Hf4  1  0.90108361  0.71107919  0.11778935  1
  Hf  Hf5  1  0.79556544  0.81547832  -0.00985654  1
  Hf  Hf6  1  0.89860551  0.10109119  0.11884732  1
  Hf  Hf7  1  0.00381299  0.20558655  0.74516888  1
  Hf  Hf8  1  0.79047633  0.61163774  0.24185982  1
  Hf  Hf9  1  0.90213889  0.50190325  0.11323392  1
  Hf  Hf10  1  0.00126952  0.40440584  0.73823948  1
  Hf  Hf11  1  0.81344904  0.40837421  0.75971674  1
  Hf  Hf12  1  0.78859616  0.81508192  0.23706918  1
  Hf  Hf13  1  0.60490141  0.60285979  0.49937061  1
  Hf  Hf14  1  0.60320040  -0.00610688  -0.00568329  1
  Hf  Hf15  1  0.10530702  0.89756717  0.84746982  1
  Hf  Hf16  1  0.89329624  0.70702154  0.39205394  1
  Hf  Hf17  1  0.69485431  0.29715508  0.88399513  1
  Hf  Hf18  1  0.70073185  0.50832980  0.64118301  1
  Hf  Hf19  1  0.80189776  -0.00076599  0.75816935  1
  Hf  Hf20  1  0.80498503  0.79555248  0.74550920  1
  Hf  Hf21  1  0.01448818  -0.00024866  -0.00697846  1
  Hf  Hf22  1  0.69297062  0.29349096  0.64221476  1
  Hf  Hf23  1  0.29787351  0.69964243  0.12483296  1
  Hf  Hf24  1  0.19988845  0.18472021  0.48707366  1
  Hf  Hf25  1  0.70583788  0.29161301  0.36554913  1
  Hf  Hf26  1  0.58575837  0.40113138  0.76733603  1
  Hf  Hf27  1  0.60764634  -0.00755049  0.24237853  1
  Hf  Hf28  1  0.59829147  0.39700357  0.49436910  1
  Hf  Hf29  1  0.51051047  0.89569832  0.39116968  1
  Hf  Hf30  1  0.50424067  0.10121750  0.62860520  1
  Hf  Hf31  1  0.00065221  0.60169472  0.25816786  1
  Hf  Hf32  1  0.70522276  0.09495311  0.38265749  1
  Hf  Hf33  1  -0.00407333  0.59911612  0.75285862  1
  Hf  Hf34  1  0.30896077  0.29964782  0.13661256  1
  Hf  Hf35  1  0.28976535  0.30419010  0.36675170  1
  Hf  Hf36  1  0.78981088  0.61642956  -0.00383140  1
  Hf  Hf37  1  0.69883682  0.89879455  0.39552711  1
  Hf  Hf38  1  0.00092061  0.40115888  0.24435393  1
  Hf  Hf39  1  0.39913299  0.80682029  0.00013554  1
  Zr  Zr40  1  0.80119475  0.39075830  0.23755773  1
  Zr  Zr41  1  0.89123178  0.90176754  0.39419596  1
  Zr  Zr42  1  0.69938641  0.50489455  0.87383164  1
  Zr  Zr43  1  0.10718531  0.09247627  0.14191023  1
  Zr  Zr44  1  0.29830485  0.50656022  0.59820696  1
  Zr  Zr45  1  0.78806007  0.40271522  0.50006198  1
  Zr  Zr46  1  0.09768909  0.28794257  0.89300641  1
  Zr  Zr47  1  0.10627870  0.08517804  0.63938399  1
  Zr  Zr48  1  0.49117745  0.68799549  0.13073882  1
  Zr  Zr49  1  0.48818513  0.69486546  0.62165530  1
  Zr  Zr50  1  0.89162508  0.10457824  0.37327602  1
  Zr  Zr51  1  0.68116374  0.49895773  0.12226162  1
  Zr  Zr52  1  0.29257062  0.51218288  0.89608325  1
  Zr  Zr53  1  0.40177678  0.01545838  -0.01202117  1
  Zr  Zr54  1  0.59961530  0.19789070  0.24560208  1
  Zr  Zr55  1  0.90967550  0.10800157  0.88414247  1
  Zr  Zr56  1  0.38439917  0.80877067  0.51215619  1
  Zr  Zr57  1  0.29601464  0.29994339  0.61352161  1
  Zr  Zr58  1  -0.00328629  0.80620915  0.26047644  1
  Zr  Zr59  1  0.01491584  -0.00129376  0.48919182  1
  Zr  Zr60  1  0.40705292  0.20016045  0.26814944  1
  Zr  Zr61  1  0.21245327  0.18153529  0.00547647  1
  Zr  Zr62  1  0.49995743  0.89389489  0.86267458  1
  Zr  Zr63  1  0.30279219  0.29165662  0.87949681  1
  Zr  Zr64  1  0.89316428  0.50161968  0.37921610  1
  Zr  Zr65  1  0.09029728  0.49447908  0.89167143  1
  Zr  Zr66  1  0.91030450  0.31188949  0.89991051  1
  Zr  Zr67  1  0.90065445  0.09925997  0.62490361  1
  Zr  Zr68  1  0.10533814  0.70276302  0.12866169  1
  Zr  Zr69  1  0.89256160  0.29436726  0.61253671  1
  Zr  Zr70  1  0.00215784  0.39339218  0.49167268  1
  Zr  Zr71  1  0.10803317  0.70039510  0.87617324  1
  Zr  Zr72  1  0.58325761  0.59792417  -0.01319375  1
  Zr  Zr73  1  0.19258929  0.40481730  0.74699045  1
  Zr  Zr74  1  0.38936768  0.60286500  0.75628255  1
  Zr  Zr75  1  0.20920236  -0.02392658  0.49468893  1
  Zr  Zr76  1  0.21149610  -0.00463694  -0.01560466  1
  Zr  Zr77  1  0.20209848  0.39841220  0.01761450  1
  Zr  Zr78  1  0.29869372  0.90546281  0.14054911  1
  Zr  Zr79  1  0.49411973  0.49661769  0.61799439  1
  Ta  Ta80  1  -0.00035555  0.60439082  -0.00159679  1
  Ta  Ta81  1  0.89854006  0.51133792  0.61008641  1
  Ta  Ta82  1  0.00545794  0.80960838  -0.00063360  1
  Ta  Ta83  1  0.19836812  0.81044481  -0.00091667  1
  Ta  Ta84  1  0.10471691  0.89837206  0.14153527  1
  Ta  Ta85  1  0.50046827  0.70183348  0.38085310  1
  Ta  Ta86  1  0.40290815  0.39327151  0.48206278  1
  Ta  Ta87  1  0.59719803  0.80001045  0.73552831  1
  Ta  Ta88  1  0.29482549  0.70781638  0.88227774  1
  Ta  Ta89  1  0.60278801  -0.00024042  0.74959447  1
  Ta  Ta90  1  0.59964857  0.79732038  0.24056998  1
  Ta  Ta91  1  0.49546591  0.90286773  0.13163841  1
  Ta  Ta92  1  -0.01205340  0.20556244  0.24247907  1
  Ta  Ta93  1  0.30542446  0.09542784  0.62876396  1
  Ta  Ta94  1  0.49905968  0.50274004  0.37243323  1
  Ta  Ta95  1  0.20539056  0.59977015  0.26032188  1
  Ta  Ta96  1  0.70034587  0.90484933  0.62876731  1
  Ta  Ta97  1  0.57999872  0.19110015  -0.00188621  1
  Ta  Ta98  1  0.90797214  0.69389302  0.60956631  1
  Ta  Ta99  1  0.11205958  0.49542364  0.37618003  1
  Ta  Ta100  1  0.91035628  0.89936104  0.62566419  1
  Ta  Ta101  1  0.40172938  0.80007836  0.26252594  1
  Ta  Ta102  1  0.10037120  0.29754157  0.35817989  1
  Ta  Ta103  1  0.10605110  0.70136644  0.38791986  1
  Ta  Ta104  1  0.60322106  0.20060151  0.50033195  1
  Ta  Ta105  1  0.69231881  0.10395779  0.87409800  1
  Ta  Ta106  1  0.10441435  0.29473483  0.13679984  1
  Ta  Ta107  1  0.19492256  0.60681229  0.73526184  1
  Ta  Ta108  1  0.51067708  0.09190966  0.39185124  1
  Ta  Ta109  1  0.49630435  0.29433061  0.62585143  1
  Ta  Ta110  1  0.69194937  0.50437101  0.36119840  1
  Ta  Ta111  1  0.40582623  -0.00072645  0.27235458  1
  Ta  Ta112  1  0.30812638  0.50750329  0.12800720  1
  Ta  Ta113  1  0.69210033  0.70732927  0.37268814  1
  Ta  Ta114  1  0.90525818  0.91049480  0.11621984  1
  Ta  Ta115  1  0.89574082  0.28846351  0.37695323  1
  Ta  Ta116  1  0.20964512  0.79229096  0.72070904  1
  Ta  Ta117  1  0.40325899  0.19700416  0.49369664  1
  Ta  Ta118  1  0.20681000  -0.00404221  0.27709376  1
  Ta  Ta119  1  0.49279566  0.09826742  0.12963228  1
  Ti  Ti120  1  0.29807839  0.49918888  0.37552971  1
  Ti  Ti121  1  0.60376481  0.79676649  0.52374909  1
  Ti  Ti122  1  0.78807451  0.60535027  0.50213817  1
  Ti  Ti123  1  0.00596770  0.79195987  0.73163918  1
  Ti  Ti124  1  0.49072253  0.27795157  0.87161623  1
  Ti  Ti125  1  0.79604438  -0.00262088  -0.01388619  1
  Ti  Ti126  1  0.40437682  -0.00772101  0.74046614  1
  Ti  Ti127  1  0.78897549  0.79177248  0.52492947  1
  Ti  Ti128  1  0.80041093  0.00294400  0.24173631  1
  Ti  Ti129  1  0.40690735  0.40273773  0.25684752  1
  Ti  Ti130  1  0.59345289  0.60246006  0.25135070  1
  Ti  Ti131  1  0.01838481  0.80605441  0.50856976  1
  Ti  Ti132  1  0.80218133  0.20228142  0.76316547  1
  Ti  Ti133  1  0.70023296  0.09688239  0.11513052  1
  Ti  Ti134  1  0.31832697  0.10631041  0.84826058  1
  Ti  Ti135  1  0.00322017  0.19580962  0.49293889  1
  Ti  Ti136  1  0.30245348  0.89256302  0.85084164  1
  Ti  Ti137  1  0.10906785  0.50565735  0.12784766  1
  Ti  Ti138  1  0.41318957  0.39435522  -0.00376685  1
  Ti  Ti139  1  0.39837774  0.59993517  0.26454647  1
  Ti  Ti140  1  0.10609082  0.29786920  0.60889200  1
  Ti  Ti141  1  0.91200032  0.89894961  0.86537535  1
  Ti  Ti142  1  0.80947825  0.60665501  0.75673606  1
  Ti  Ti143  1  0.49120303  0.48986364  0.12060975  1
  Ti  Ti144  1  0.30519376  0.09875791  0.14669142  1
  Ti  Ti145  1  0.90775728  0.70642798  0.87931162  1
  Ti  Ti146  1  0.69000457  0.71083082  0.85932564  1
  Ti  Ti147  1  0.29731278  0.70289284  0.38420988  1
  Ti  Ti148  1  0.79830515  0.40759280  -0.00015711  1
  Ti  Ti149  1  0.59066971  0.60309385  0.75671019  1
  Ti  Ti150  1  0.48773861  0.70291664  0.86829031  1
  Ti  Ti151  1  0.20557814  0.20221787  0.74483820  1
  Ti  Ti152  1  0.79626115  0.00354143  0.51898712  1
  Ti  Ti153  1  0.70073369  0.10746854  0.63313613  1
  Ti  Ti154  1  0.40014013  -0.00046541  0.50161347  1
  Ti  Ti155  1  -0.00303282  -0.00391542  0.25832810  1
  Ti  Ti156  1  0.79743826  0.19772642  0.00289994  1
  Ti  Ti157  1  0.09833327  0.10587133  0.35778475  1
  Ti  Ti158  1  0.10893863  0.09654852  0.85882904  1
  Ti  Ti159  1  0.58559726  0.39417157  0.25358526  1
  Mo  Mo160  1  0.20326498  0.40969703  0.24122646  1
  Mo  Mo161  1  0.70060735  0.90079202  0.85450043  1
  Mo  Mo162  1  0.50270799  0.90339811  0.62506590  1
  Mo  Mo163  1  0.49938889  0.10106014  0.85604509  1
  Mo  Mo164  1  0.30246075  0.90611577  0.64076647  1
  Mo  Mo165  1  0.10295190  0.89195226  0.36264766  1
  Mo  Mo166  1  0.09851359  0.69815886  0.60758113  1
  Mo  Mo167  1  0.20393734  0.79811495  0.26564696  1
  Mo  Mo168  1  0.21280233  0.00001419  0.75437949  1
  Mo  Mo169  1  0.40059684  0.59910771  0.47500559  1
  Mo  Mo170  1  0.79892503  0.19475444  0.22749220  1
  Mo  Mo171  1  0.30758923  0.09522619  0.38362732  1
  Mo  Mo172  1  0.09907531  0.89596143  0.63972903  1
  Mo  Mo173  1  0.59818943  0.19693954  0.75991096  1
  Mo  Mo174  1  0.00712147  0.20025713  0.02298538  1
  Mo  Mo175  1  0.19903165  0.60770654  0.01723896  1
  Mo  Mo176  1  0.90015841  0.51166712  0.89213205  1
  Mo  Mo177  1  0.49121919  0.49782086  0.88019208  1
  Mo  Mo178  1  0.40355073  0.19605513  0.01242272  1
  Mo  Mo179  1  0.69419052  0.70211743  0.13422641  1
  Mo  Mo180  1  0.39903777  0.19945506  0.73176560  1
  Mo  Mo181  1  0.70317872  0.90954104  0.12201649  1
  Mo  Mo182  1  0.29172403  0.69412048  0.60659422  1
  Mo  Mo183  1  0.50332166  0.29909136  0.38593621  1
  Mo  Mo184  1  0.20321739  0.60276447  0.48105162  1
  Mo  Mo185  1  0.19824863  0.19478733  0.25716620  1
  Mo  Mo186  1  0.58472004  0.39192456  -0.01236604  1
  Mo  Mo187  1  0.39434290  0.79779495  0.74148499  1
  Mo  Mo188  1  -0.00363671  0.60390725  0.48271098  1
  Mo  Mo189  1  0.19900571  0.39427218  0.48630839  1
  Mo  Mo190  1  -0.00122905  -0.00519799  0.75697983  1
  Mo  Mo191  1  0.19674689  0.79774664  0.50944801  1
  Mo  Mo192  1  0.30645367  0.89124414  0.36771252  1
  Mo  Mo193  1  0.60339948  0.00005122  0.52285258  1
  Mo  Mo194  1  0.00373826  0.40175350  0.02588399  1
  Mo  Mo195  1  0.70248430  0.69672698  0.64049818  1
  Mo  Mo196  1  0.90104787  0.29815196  0.10943568  1
  Mo  Mo197  1  0.49792227  0.30439506  0.11561528  1
  Mo  Mo198  1  0.39558504  0.60191243  -0.00639113  1
  Mo  Mo199  1  0.79302888  0.19848748  0.50785541  1
