# generated using pymatgen
data_HfZrTaTiMo
_symmetry_space_group_name_H-M   'P 1'
_cell_length_a   15.84130661
_cell_length_b   15.82857062
_cell_length_c   15.40136922
_cell_angle_alpha   89.95756483
_cell_angle_beta   89.95936394
_cell_angle_gamma   89.98611418
_symmetry_Int_Tables_number   1
_chemical_formula_structural   HfZrTaTiMo
_chemical_formula_sum   'Hf40 Zr40 Ta40 Ti40 Mo40'
_cell_volume   3861.81788140
_cell_formula_units_Z   40
loop_
 _symmetry_equiv_pos_site_id
 _symmetry_equiv_pos_as_xyz
  1  'x, y, z'
loop_
 _atom_site_type_symbol
 _atom_site_label
 _atom_site_symmetry_multiplicity
 _atom_site_fract_x
 _atom_site_fract_y
 _atom_site_fract_z
 _atom_site_occupancy
  Hf  Hf0  1  0.70799627  0.68239172  0.88243859  1
  Hf  Hf1  1  0.90707047  0.90510408  0.88290112  1
  Hf  Hf2  1  0.41295049  0.41216913  0.77011599  1
  Hf  Hf3  1  0.09508695  0.90084877  0.10627916  1
  Hf  Hf4  1  0.00395518  0.79962085  0.48803766  1
  Hf  Hf5  1  0.89862143  0.89164657  0.12072493  1
  Hf  Hf6  1  0.81435072  0.60017452  0.25608541  1
  Hf  Hf7  1  0.18962790  0.21470004  0.25191572  1
  Hf  Hf8  1  0.59545236  0.38271179  0.24604863  1
  Hf  Hf9  1  0.39486961  0.00614433  0.51534759  1
  Hf  Hf10  1  0.68628102  0.88444951  0.12276106  1
  Hf  Hf11  1  0.78484813  0.40488742  0.74465162  1
  Hf  Hf12  1  0.80917064  0.37871222  0.49316201  1
  Hf  Hf13  1  0.89687165  0.49950484  0.61187927  1
  Hf  Hf14  1  0.00844335  0.59204706  0.24958068  1
  Hf  Hf15  1  0.19939298  0.59973805  0.47898760  1
  Hf  Hf16  1  0.39782584  0.20802652  0.25985967  1
  Hf  Hf17  1  0.19843795  -0.00238948  0.74497359  1
  Hf  Hf18  1  0.39247951  0.01167134  0.74802381  1
  Hf  Hf19  1  0.30259478  0.70219246  0.13583074  1
  Hf  Hf20  1  0.19902437  0.79967895  0.74716957  1
  Hf  Hf21  1  0.29608211  0.90631454  0.88746381  1
  Hf  Hf22  1  0.00655398  0.01705236  0.49798130  1
  Hf  Hf23  1  0.29518496  0.50287501  0.12891223  1
  Hf  Hf24  1  0.00459818  0.00364996  0.24611439  1
  Hf  Hf25  1  0.19897116  0.01073404  0.24933477  1
  Hf  Hf26  1  0.30389745  0.11211495  0.11737253  1
  Hf  Hf27  1  0.69793450  0.48844349  0.89863846  1
  Hf  Hf28  1  0.79971175  0.00504120  0.74718981  1
  Hf  Hf29  1  0.78512620  0.19446282  0.25392991  1
  Hf  Hf30  1  0.30187676  0.70413971  0.61104197  1
  Hf  Hf31  1  0.39508833  0.80928006  0.74442371  1
  Hf  Hf32  1  0.50115000  0.90146844  0.39347474  1
  Hf  Hf33  1  0.59220616  0.38974239  0.02812899  1
  Hf  Hf34  1  0.60518977  0.79484507  0.74890170  1
  Hf  Hf35  1  0.09557397  0.89802444  0.89360543  1
  Hf  Hf36  1  0.09976854  0.28468324  0.62763554  1
  Hf  Hf37  1  0.27306141  0.11488796  0.60759855  1
  Hf  Hf38  1  0.50109990  0.48991330  0.61078968  1
  Hf  Hf39  1  0.00245143  0.78958355  0.26048168  1
  Zr  Zr40  1  0.80614496  0.79235328  0.48652481  1
  Zr  Zr41  1  0.00224933  0.60004262  0.47758247  1
  Zr  Zr42  1  -0.01040209  0.21221177  0.49021814  1
  Zr  Zr43  1  0.69875519  0.89942423  0.87676328  1
  Zr  Zr44  1  -0.00980457  0.39469885  0.74932708  1
  Zr  Zr45  1  0.30623308  0.50736918  0.62545001  1
  Zr  Zr46  1  0.70136647  0.89699513  0.62463914  1
  Zr  Zr47  1  0.19924659  0.80853147  0.25034852  1
  Zr  Zr48  1  0.58862865  -0.00709035  0.24202791  1
  Zr  Zr49  1  0.70296072  0.49151778  0.37289787  1
  Zr  Zr50  1  0.40718434  0.60086328  0.00811497  1
  Zr  Zr51  1  0.30149173  0.31489942  0.62362955  1
  Zr  Zr52  1  0.39648151  0.22038993  0.48860455  1
  Zr  Zr53  1  0.89293173  0.29832752  0.88678206  1
  Zr  Zr54  1  0.80017863  0.19549518  0.49672048  1
  Zr  Zr55  1  0.80561500  0.00233417  0.50126085  1
  Zr  Zr56  1  0.30734420  0.48409379  0.35960097  1
  Zr  Zr57  1  0.08601057  0.09400662  0.87115037  1
  Zr  Zr58  1  0.00807659  0.79666252  0.75409144  1
  Zr  Zr59  1  0.90070486  0.29114609  0.12663570  1
  Zr  Zr60  1  0.30882742  0.71512381  0.37485035  1
  Zr  Zr61  1  0.60290493  0.56343164  0.75415759  1
  Zr  Zr62  1  0.10436336  0.50447989  0.88132530  1
  Zr  Zr63  1  0.30548902  0.91200791  0.11214984  1
  Zr  Zr64  1  0.91088947  0.89946662  0.63127685  1
  Zr  Zr65  1  0.79277110  0.00290167  0.00809337  1
  Zr  Zr66  1  0.49895366  0.68358908  0.86489207  1
  Zr  Zr67  1  0.51467527  0.71672868  0.14080755  1
  Zr  Zr68  1  -0.00092080  0.60276918  0.75680553  1
  Zr  Zr69  1  0.40375492  0.20285110  0.76447438  1
  Zr  Zr70  1  0.41185535  0.80680398  -0.00137683  1
  Zr  Zr71  1  0.58857160  0.00890860  0.74698635  1
  Zr  Zr72  1  0.10752681  0.49605584  0.62422320  1
  Zr  Zr73  1  0.79998399  0.39104653  0.24688781  1
  Zr  Zr74  1  0.79565926  0.20772822  0.74042472  1
  Zr  Zr75  1  0.29874464  0.31487940  0.11830074  1
  Zr  Zr76  1  0.70877549  0.67655853  0.62464827  1
  Zr  Zr77  1  0.60115652  0.79084765  0.50388215  1
  Zr  Zr78  1  0.20782356  0.20370753  0.77298418  1
  Zr  Zr79  1  0.49600625  0.68487004  0.62839110  1
  Ta  Ta80  1  0.79342011  -0.00322950  0.24931010  1
  Ta  Ta81  1  0.69626755  0.10737438  0.88050899  1
  Ta  Ta82  1  0.28734600  0.10397043  0.38547407  1
  Ta  Ta83  1  0.90273227  0.69482488  0.62190403  1
  Ta  Ta84  1  0.69545154  0.29478916  0.89011362  1
  Ta  Ta85  1  0.30000735  0.90743605  0.39444174  1
  Ta  Ta86  1  0.68717297  0.10403185  0.61504899  1
  Ta  Ta87  1  0.90045486  0.90641653  0.36656445  1
  Ta  Ta88  1  0.41139722  0.01887674  -0.01601766  1
  Ta  Ta89  1  0.19922833  0.20785638  -0.00525687  1
  Ta  Ta90  1  0.80013185  0.78849733  -0.00149604  1
  Ta  Ta91  1  0.10172593  0.69663958  0.11278584  1
  Ta  Ta92  1  0.10280977  0.70065704  0.61307674  1
  Ta  Ta93  1  0.08577611  0.31782572  0.37456574  1
  Ta  Ta94  1  0.50501317  0.70468602  0.36446751  1
  Ta  Ta95  1  0.80919985  0.78547843  0.75916156  1
  Ta  Ta96  1  0.39479285  0.00676717  0.26027463  1
  Ta  Ta97  1  0.30246804  0.51087650  0.88200019  1
  Ta  Ta98  1  0.10756620  0.90878691  0.38426812  1
  Ta  Ta99  1  0.50584297  0.30477802  0.62861808  1
  Ta  Ta100  1  0.80665370  0.59527958  0.47702450  1
  Ta  Ta101  1  0.92285011  0.46937275  0.37471139  1
  Ta  Ta102  1  -0.00061876  0.59717210  0.00762784  1
  Ta  Ta103  1  0.49713158  0.09840627  0.38171287  1
  Ta  Ta104  1  0.69640232  0.69889385  0.36256397  1
  Ta  Ta105  1  0.00398659  0.19194133  0.00873416  1
  Ta  Ta106  1  0.59008172  0.19215734  0.00570481  1
  Ta  Ta107  1  0.19074175  0.60257523  0.25831780  1
  Ta  Ta108  1  0.00329750  0.39900035  0.00977149  1
  Ta  Ta109  1  0.80013719  0.80116322  0.25540570  1
  Ta  Ta110  1  0.60191619  0.59285671  0.24743916  1
  Ta  Ta111  1  0.89116893  0.50153132  0.89692021  1
  Ta  Ta112  1  0.68712466  0.08767007  0.38106402  1
  Ta  Ta113  1  0.60089497  0.59388840  0.02108195  1
  Ta  Ta114  1  0.59593480  0.20455398  0.48709774  1
  Ta  Ta115  1  0.89893977  0.10020446  0.87551765  1
  Ta  Ta116  1  0.09660749  0.30382526  0.88565114  1
  Ta  Ta117  1  0.41078286  0.59648377  0.47772325  1
  Ta  Ta118  1  0.58740866  0.38911515  0.47673632  1
  Ta  Ta119  1  0.41118220  0.82537992  0.24825691  1
  Ti  Ti120  1  0.60019175  0.79229087  -0.01098921  1
  Ti  Ti121  1  0.00335057  0.19993994  0.24508428  1
  Ti  Ti122  1  0.92024593  0.11384095  0.64553186  1
  Ti  Ti123  1  0.69567176  0.48936721  0.60079092  1
  Ti  Ti124  1  0.90084496  0.09384712  0.12520469  1
  Ti  Ti125  1  0.40469039  0.39997989  -0.00712512  1
  Ti  Ti126  1  0.40394932  0.20791169  -0.01426785  1
  Ti  Ti127  1  0.69041675  0.09787356  0.12564038  1
  Ti  Ti128  1  0.80911633  0.59321326  0.75396469  1
  Ti  Ti129  1  0.01622196  0.39509756  0.22777547  1
  Ti  Ti130  1  0.51398659  0.30572740  0.87619058  1
  Ti  Ti131  1  0.19959932  0.39212587  0.48827323  1
  Ti  Ti132  1  0.19524433  0.01977438  0.00197456  1
  Ti  Ti133  1  0.59960630  0.59242872  0.48036462  1
  Ti  Ti134  1  0.10422886  0.69694375  0.89541763  1
  Ti  Ti135  1  0.29855499  0.69744989  0.87476274  1
  Ti  Ti136  1  0.50186082  0.11498478  0.61495774  1
  Ti  Ti137  1  0.11404095  0.49734346  0.11209726  1
  Ti  Ti138  1  0.89908752  0.10034920  0.36125766  1
  Ti  Ti139  1  0.79313639  0.19462249  0.00979113  1
  Ti  Ti140  1  0.60057582  0.20414278  0.75273090  1
  Ti  Ti141  1  0.50196125  0.90410318  0.87241736  1
  Ti  Ti142  1  0.59108730  0.00148823  0.00041535  1
  Ti  Ti143  1  0.68663113  0.30195363  0.61660227  1
  Ti  Ti144  1  0.90314173  0.69259416  0.89027722  1
  Ti  Ti145  1  0.20414976  0.60723818  0.75114224  1
  Ti  Ti146  1  0.49313663  0.10263476  0.12820357  1
  Ti  Ti147  1  0.20604107  0.79082579  0.00230508  1
  Ti  Ti148  1  0.59406694  0.19790527  0.25263094  1
  Ti  Ti149  1  0.79614354  0.39234848  0.01939775  1
  Ti  Ti150  1  0.70593657  0.50176804  0.12959752  1
  Ti  Ti151  1  0.90158633  0.69903297  0.11826833  1
  Ti  Ti152  1  0.20710255  0.40009138  0.76533372  1
  Ti  Ti153  1  0.48861636  0.49340813  0.14028574  1
  Ti  Ti154  1  0.69743091  0.90010353  0.37639288  1
  Ti  Ti155  1  0.11196792  0.90582139  0.60820902  1
  Ti  Ti156  1  0.40665123  0.60220239  0.25707725  1
  Ti  Ti157  1  0.70707065  0.69707757  0.13192967  1
  Ti  Ti158  1  0.49737913  0.89803491  0.61700626  1
  Ti  Ti159  1  0.90139950  0.50035384  0.11825571  1
  Mo  Mo160  1  0.89861611  0.70056666  0.36631989  1
  Mo  Mo161  1  0.49052637  0.28705546  0.12574111  1
  Mo  Mo162  1  0.10156628  0.30454684  0.10907337  1
  Mo  Mo163  1  0.50166749  0.50323141  0.36280133  1
  Mo  Mo164  1  0.09451815  0.10871601  0.36307313  1
  Mo  Mo165  1  0.28959115  0.30268761  0.37579589  1
  Mo  Mo166  1  0.18510722  0.20607877  0.47792405  1
  Mo  Mo167  1  0.60491903  0.80144874  0.26192026  1
  Mo  Mo168  1  0.10611749  0.70359142  0.37765932  1
  Mo  Mo169  1  0.19257814  0.00774582  0.49684303  1
  Mo  Mo170  1  0.19902000  0.80603937  0.50198716  1
  Mo  Mo171  1  0.09262578  0.10090844  0.63904874  1
  Mo  Mo172  1  -0.00075187  0.20103625  0.76766933  1
  Mo  Mo173  1  0.60460984  0.38431166  0.75253104  1
  Mo  Mo174  1  0.90386129  0.29633182  0.34961136  1
  Mo  Mo175  1  0.00348809  -0.00070632  0.73595790  1
  Mo  Mo176  1  0.40284130  0.40506660  0.49282614  1
  Mo  Mo177  1  0.40166676  0.80105345  0.50807011  1
  Mo  Mo178  1  0.18970561  0.40509620  0.25100121  1
  Mo  Mo179  1  0.59633332  0.00742575  0.50985138  1
  Mo  Mo180  1  0.00314670  0.39681692  0.51272064  1
  Mo  Mo181  1  0.10031870  0.10767064  0.12160017  1
  Mo  Mo182  1  0.20286458  0.60702513  0.00352959  1
  Mo  Mo183  1  0.50736331  0.10708675  0.87519325  1
  Mo  Mo184  1  0.80142561  0.59633348  0.02263821  1
  Mo  Mo185  1  -0.00347505  0.78965402  -0.00301945  1
  Mo  Mo186  1  0.29583799  0.90127439  0.61070507  1
  Mo  Mo187  1  0.39298159  0.59900880  0.76040788  1
  Mo  Mo188  1  0.89938849  0.30000183  0.63884433  1
  Mo  Mo189  1  0.20228551  0.40537033  -0.01455053  1
  Mo  Mo190  1  0.50623281  0.49347922  0.89636111  1
  Mo  Mo191  1  0.40170482  0.39694037  0.24439776  1
  Mo  Mo192  1  -0.00464639  0.00653995  0.01734766  1
  Mo  Mo193  1  0.49377336  0.30255565  0.36327226  1
  Mo  Mo194  1  0.69499993  0.28287156  0.11377762  1
  Mo  Mo195  1  0.10404782  0.49239659  0.36853142  1
  Mo  Mo196  1  0.29876925  0.10360983  0.89134728  1
  Mo  Mo197  1  0.69394509  0.28674435  0.37798635  1
  Mo  Mo198  1  0.30236335  0.31152266  0.89015162  1
  Mo  Mo199  1  0.50042623  0.91349869  0.11265095  1
