# generated using pymatgen
data_HfZrTaTiMo
_symmetry_space_group_name_H-M   'P 1'
_cell_length_a   15.82427031
_cell_length_b   15.84554238
_cell_length_c   15.37897618
_cell_angle_alpha   90.07826666
_cell_angle_beta   89.95215547
_cell_angle_gamma   90.03293313
_symmetry_Int_Tables_number   1
_chemical_formula_structural   HfZrTaTiMo
_chemical_formula_sum   'Hf40 Zr40 Ta40 Ti40 Mo40'
_cell_volume   3856.18267047
_cell_formula_units_Z   40
loop_
 _symmetry_equiv_pos_site_id
 _symmetry_equiv_pos_as_xyz
  1  'x, y, z'
loop_
 _atom_site_type_symbol
 _atom_site_label
 _atom_site_symmetry_multiplicity
 _atom_site_fract_x
 _atom_site_fract_y
 _atom_site_fract_z
 _atom_site_occupancy
  Hf  Hf0  1  -0.00525369  0.80453417  0.24427358  1
  Hf  Hf1  1  0.30945215  0.90976201  0.36551442  1
  Hf  Hf2  1  0.88881812  0.90041851  0.37205206  1
  Hf  Hf3  1  0.49671255  0.89118179  0.36979418  1
  Hf  Hf4  1  0.00921245  0.40294208  0.50078774  1
  Hf  Hf5  1  -0.00047839  0.59291764  0.00205152  1
  Hf  Hf6  1  0.88642604  0.92653250  0.13314234  1
  Hf  Hf7  1  0.80033991  0.39636247  0.76708817  1
  Hf  Hf8  1  0.71136218  0.48859191  0.11901994  1
  Hf  Hf9  1  0.37724043  -0.00659770  -0.00457236  1
  Hf  Hf10  1  0.20109998  0.39625820  0.26533888  1
  Hf  Hf11  1  0.20240580  0.81135372  0.24384444  1
  Hf  Hf12  1  0.48565735  0.88929879  0.12123245  1
  Hf  Hf13  1  0.58890098  -0.00019629  0.51593453  1
  Hf  Hf14  1  0.30549324  0.29324606  0.39519387  1
  Hf  Hf15  1  0.50167265  0.68813609  0.64400517  1
  Hf  Hf16  1  0.01265509  0.40298530  0.26781441  1
  Hf  Hf17  1  0.38628651  -0.01192708  0.52938260  1
  Hf  Hf18  1  0.70742594  0.49717065  0.35665875  1
  Hf  Hf19  1  0.89592110  0.50767010  0.37691344  1
  Hf  Hf20  1  0.89155045  0.10560470  0.83466126  1
  Hf  Hf21  1  0.79488129  0.81875789  -0.00950671  1
  Hf  Hf22  1  0.59730928  0.40732241  0.48573384  1
  Hf  Hf23  1  -0.00696961  0.00328787  0.50947983  1
  Hf  Hf24  1  -0.00739274  0.79996800  0.51364616  1
  Hf  Hf25  1  0.60526822  0.38399806  0.24052409  1
  Hf  Hf26  1  0.19659537  0.59325851  0.25264592  1
  Hf  Hf27  1  0.41300240  0.39648912  0.76332404  1
  Hf  Hf28  1  0.20557992  0.59459357  -0.00264588  1
  Hf  Hf29  1  0.00280527  0.60515444  0.50880794  1
  Hf  Hf30  1  -0.00066166  0.80805274  0.74369252  1
  Hf  Hf31  1  0.20248764  0.40990799  0.50178083  1
  Hf  Hf32  1  0.09491061  0.70557101  0.37530187  1
  Hf  Hf33  1  0.50625329  0.30167155  0.61548132  1
  Hf  Hf34  1  0.70797837  0.69959690  0.35352915  1
  Hf  Hf35  1  0.59836216  0.58629718  0.78188972  1
  Hf  Hf36  1  0.40336843  0.59025306  0.49946794  1
  Hf  Hf37  1  -0.00688636  0.59671776  0.23431521  1
  Hf  Hf38  1  0.10538447  0.70571310  0.11403480  1
  Hf  Hf39  1  0.49955805  0.88600597  0.64507004  1
  Zr  Zr40  1  0.60144540  0.60578612  0.49419640  1
  Zr  Zr41  1  -0.00246561  0.81671542  -0.00344687  1
  Zr  Zr42  1  0.90138676  0.70446554  0.87340371  1
  Zr  Zr43  1  0.59696351  0.20108001  0.75895053  1
  Zr  Zr44  1  -0.00767272  0.02008150  0.26693053  1
  Zr  Zr45  1  0.11138801  0.91905382  0.38409182  1
  Zr  Zr46  1  0.82041127  0.37942216  0.23844730  1
  Zr  Zr47  1  0.70780532  0.30216308  0.61044601  1
  Zr  Zr48  1  0.18950785  0.01336470  -0.00402118  1
  Zr  Zr49  1  0.10611651  0.70549971  0.87318093  1
  Zr  Zr50  1  0.10083928  0.91542091  0.85575340  1
  Zr  Zr51  1  0.21228378  0.80716074  0.51569166  1
  Zr  Zr52  1  0.69516573  0.50317968  0.62749635  1
  Zr  Zr53  1  0.20323801  0.60254774  0.50463672  1
  Zr  Zr54  1  0.39519442  0.39306772  -0.00253034  1
  Zr  Zr55  1  0.40265807  0.58952541  -0.00332898  1
  Zr  Zr56  1  -0.01190584  0.21221835  -0.02235979  1
  Zr  Zr57  1  0.79871529  0.60873474  0.50552445  1
  Zr  Zr58  1  0.89503147  0.49681553  0.63164449  1
  Zr  Zr59  1  0.30603766  0.28240894  0.86654740  1
  Zr  Zr60  1  0.07933769  0.11574781  0.13041810  1
  Zr  Zr61  1  0.09619866  0.91539310  0.12754946  1
  Zr  Zr62  1  0.40687718  0.18241318  0.51833302  1
  Zr  Zr63  1  0.60063160  -0.01594417  -0.01479605  1
  Zr  Zr64  1  -0.01655386  0.01446368  -0.01522059  1
  Zr  Zr65  1  0.61200438  0.18792078  0.24177398  1
  Zr  Zr66  1  0.78306219  -0.00580756  0.51074993  1
  Zr  Zr67  1  0.60542544  0.39665989  0.77677505  1
  Zr  Zr68  1  0.31278897  0.71234627  0.12348948  1
  Zr  Zr69  1  0.50568794  0.69777325  0.36195617  1
  Zr  Zr70  1  0.50995794  0.69876017  0.10984334  1
  Zr  Zr71  1  0.50252493  0.29085680  0.37801661  1
  Zr  Zr72  1  0.19400109  0.20430597  -0.00713748  1
  Zr  Zr73  1  0.60533902  0.79792345  0.77834638  1
  Zr  Zr74  1  0.30602785  0.70759966  0.86550409  1
  Zr  Zr75  1  0.48618642  0.08545722  0.36742749  1
  Zr  Zr76  1  0.31169784  0.70505357  0.36678280  1
  Zr  Zr77  1  0.79553855  0.80070472  0.51087618  1
  Zr  Zr78  1  0.38737810  0.19198742  0.23877521  1
  Zr  Zr79  1  0.18889013  0.20531170  0.25421851  1
  Ta  Ta80  1  0.10381035  0.50223195  0.64339997  1
  Ta  Ta81  1  0.10550306  0.48952997  0.11558176  1
  Ta  Ta82  1  0.39491247  -0.00136067  0.74929186  1
  Ta  Ta83  1  0.00518855  0.39196068  0.75482109  1
  Ta  Ta84  1  0.28298554  0.09422802  0.39590060  1
  Ta  Ta85  1  0.30492300  0.30672559  0.62106673  1
  Ta  Ta86  1  0.40463138  0.58783694  0.23500772  1
  Ta  Ta87  1  0.60804138  0.80188569  0.50932411  1
  Ta  Ta88  1  0.59422751  -0.00286761  0.24043525  1
  Ta  Ta89  1  0.31079831  0.50198162  0.64021935  1
  Ta  Ta90  1  0.70540345  0.08789603  0.11404038  1
  Ta  Ta91  1  0.71119319  0.28795107  0.38925772  1
  Ta  Ta92  1  0.71540435  0.28640882  0.89507878  1
  Ta  Ta93  1  0.09238751  0.31073784  0.12062337  1
  Ta  Ta94  1  0.21970179  0.82387563  -0.00245040  1
  Ta  Ta95  1  0.49478121  0.09239961  0.11249586  1
  Ta  Ta96  1  0.80617316  0.59147494  0.00115811  1
  Ta  Ta97  1  0.88572244  0.11570817  0.39433638  1
  Ta  Ta98  1  0.89076362  0.69815244  0.64894276  1
  Ta  Ta99  1  0.50508506  0.28773329  0.11000653  1
  Ta  Ta100  1  0.70347762  0.69926720  0.11428568  1
  Ta  Ta101  1  0.68893993  0.89844978  0.36245062  1
  Ta  Ta102  1  0.00957528  0.39682695  -0.02097384  1
  Ta  Ta103  1  0.60322065  0.59152631  0.23216447  1
  Ta  Ta104  1  0.82488335  0.38595034  0.00028215  1
  Ta  Ta105  1  0.09712561  0.11867789  0.40023488  1
  Ta  Ta106  1  0.69402184  0.89864673  0.12878209  1
  Ta  Ta107  1  0.49782837  0.49426892  0.35541063  1
  Ta  Ta108  1  0.69977420  0.70295088  0.64794546  1
  Ta  Ta109  1  0.29641484  0.48840140  0.12915259  1
  Ta  Ta110  1  0.79238005  0.59779959  0.77411280  1
  Ta  Ta111  1  0.20424146  0.39746755  0.74923625  1
  Ta  Ta112  1  0.60435614  0.18394995  -0.00277625  1
  Ta  Ta113  1  0.09509947  0.11279464  0.83778284  1
  Ta  Ta114  1  0.10556226  0.50134582  0.86292873  1
  Ta  Ta115  1  0.89336165  0.10918038  0.62634287  1
  Ta  Ta116  1  0.48575070  0.10094832  0.87775180  1
  Ta  Ta117  1  -0.01261721  0.21966368  0.27278564  1
  Ta  Ta118  1  0.78351044  0.01554911  0.26238185  1
  Ta  Ta119  1  0.71858159  0.27779760  0.10667558  1
  Ti  Ti120  1  0.89438851  0.69995491  0.36231597  1
  Ti  Ti121  1  0.29354323  0.29773645  0.11591572  1
  Ti  Ti122  1  0.60539727  0.58276073  -0.00316416  1
  Ti  Ti123  1  0.21035714  0.01900428  0.23887030  1
  Ti  Ti124  1  0.69015757  0.10248637  0.38931156  1
  Ti  Ti125  1  0.70010049  0.69737510  0.89678701  1
  Ti  Ti126  1  0.69351857  0.10375335  0.63254922  1
  Ti  Ti127  1  0.10315784  0.90864535  0.62389656  1
  Ti  Ti128  1  0.19806262  0.39816774  -0.01855159  1
  Ti  Ti129  1  0.09703501  0.11253395  0.61766177  1
  Ti  Ti130  1  0.20299158  0.00660069  0.72614591  1
  Ti  Ti131  1  0.48490658  0.89372338  0.87567133  1
  Ti  Ti132  1  0.70182110  0.09919167  0.86523289  1
  Ti  Ti133  1  0.31404918  0.49493161  0.36878900  1
  Ti  Ti134  1  0.49924286  0.49640783  0.63050252  1
  Ti  Ti135  1  0.89265706  0.70299134  0.11692651  1
  Ti  Ti136  1  0.19867846  0.20814654  0.72919573  1
  Ti  Ti137  1  0.20480597  0.60091244  0.74678469  1
  Ti  Ti138  1  0.30350552  0.50225832  0.86117410  1
  Ti  Ti139  1  0.20575325  0.80723609  0.74167113  1
  Ti  Ti140  1  -0.00088665  0.59849607  0.75201158  1
  Ti  Ti141  1  0.90513999  0.49720691  0.87492167  1
  Ti  Ti142  1  0.88195782  0.12626483  0.13557047  1
  Ti  Ti143  1  0.40153609  0.39049714  0.23712213  1
  Ti  Ti144  1  0.89339961  0.29962982  0.40380587  1
  Ti  Ti145  1  0.40635582  0.79294496  0.51159511  1
  Ti  Ti146  1  0.40070827  0.19117036  0.73511794  1
  Ti  Ti147  1  0.79829717  0.00554842  -0.01829721  1
  Ti  Ti148  1  0.50542376  0.28896706  0.89984830  1
  Ti  Ti149  1  0.29154859  0.09661783  0.85647472  1
  Ti  Ti150  1  0.31520960  0.69956486  0.64404888  1
  Ti  Ti151  1  0.59586112  -0.00020287  0.75655659  1
  Ti  Ti152  1  0.60065517  0.79741206  0.23906351  1
  Ti  Ti153  1  0.88818017  0.91010968  0.64436552  1
  Ti  Ti154  1  0.49716941  0.69783801  0.88798735  1
  Ti  Ti155  1  0.79737451  0.80342167  0.23720844  1
  Ti  Ti156  1  0.50482584  0.48467304  0.11907831  1
  Ti  Ti157  1  0.79629860  0.80881143  0.76424879  1
  Ti  Ti158  1  0.90189484  0.29770034  0.62158855  1
  Ti  Ti159  1  0.10223958  0.69912291  0.63526644  1
  Mo  Mo160  1  0.89387421  0.91392415  0.85182660  1
  Mo  Mo161  1  0.29260904  0.90691661  0.85149779  1
  Mo  Mo162  1  0.19789653  0.00743285  0.51921858  1
  Mo  Mo163  1  0.39798699  0.80548952  -0.01932098  1
  Mo  Mo164  1  0.79303972  0.20542352  0.73483572  1
  Mo  Mo165  1  0.70958711  0.49153044  0.90407834  1
  Mo  Mo166  1  0.39833581  0.18851035  0.00742885  1
  Mo  Mo167  1  0.90206126  0.29708811  0.85519047  1
  Mo  Mo168  1  0.91451875  0.48920868  0.11051111  1
  Mo  Mo169  1  0.60245329  0.79637138  -0.00835622  1
  Mo  Mo170  1  0.40414051  0.79533387  0.25068085  1
  Mo  Mo171  1  0.00104225  0.00560314  0.72435992  1
  Mo  Mo172  1  0.10422188  0.30667992  0.62920680  1
  Mo  Mo173  1  -0.00176647  0.20667547  0.50925832  1
  Mo  Mo174  1  0.40305798  0.79764320  0.76145543  1
  Mo  Mo175  1  0.80556535  0.18388670  -0.00890376  1
  Mo  Mo176  1  0.60943077  0.38426000  0.00679374  1
  Mo  Mo177  1  0.80191186  0.40245402  0.49349064  1
  Mo  Mo178  1  0.39284351  0.00128163  0.23543711  1
  Mo  Mo179  1  0.29544230  0.10573531  0.12078487  1
  Mo  Mo180  1  0.10482638  0.30088025  0.85338084  1
  Mo  Mo181  1  0.91383261  0.29395630  0.12480970  1
  Mo  Mo182  1  0.00178725  0.20855329  0.72658471  1
  Mo  Mo183  1  0.40689331  0.59106003  0.76153557  1
  Mo  Mo184  1  0.19912250  0.20560174  0.51873323  1
  Mo  Mo185  1  0.40092383  0.40825972  0.50697263  1
  Mo  Mo186  1  0.29961588  0.89174313  0.64057838  1
  Mo  Mo187  1  0.70309286  0.90942826  0.86452236  1
  Mo  Mo188  1  0.10336294  0.50914217  0.37766239  1
  Mo  Mo189  1  0.60217214  0.18987453  0.50091292  1
  Mo  Mo190  1  0.50415522  0.49094295  0.89741846  1
  Mo  Mo191  1  0.29478643  0.10297202  0.63290943  1
  Mo  Mo192  1  0.50305408  0.09416736  0.64931329  1
  Mo  Mo193  1  0.69426341  0.89498222  0.64529208  1
  Mo  Mo194  1  0.79652891  0.19542604  0.51351990  1
  Mo  Mo195  1  0.78537467  0.00166629  0.73634107  1
  Mo  Mo196  1  0.80427886  0.60523532  0.22065814  1
  Mo  Mo197  1  0.29907744  0.90786502  0.13819013  1
  Mo  Mo198  1  0.09919837  0.29853588  0.39569656  1
  Mo  Mo199  1  0.80107408  0.19519141  0.26308989  1
