# generated using pymatgen
data_HfZrTaTiMo
_symmetry_space_group_name_H-M   'P 1'
_cell_length_a   15.83199529
_cell_length_b   15.83569361
_cell_length_c   15.40408517
_cell_angle_alpha   89.96283200
_cell_angle_beta   89.98772656
_cell_angle_gamma   89.99722407
_symmetry_Int_Tables_number   1
_chemical_formula_structural   HfZrTaTiMo
_chemical_formula_sum   'Hf40 Zr40 Ta40 Ti40 Mo40'
_cell_volume   3861.96694080
_cell_formula_units_Z   40
loop_
 _symmetry_equiv_pos_site_id
 _symmetry_equiv_pos_as_xyz
  1  'x, y, z'
loop_
 _atom_site_type_symbol
 _atom_site_label
 _atom_site_symmetry_multiplicity
 _atom_site_fract_x
 _atom_site_fract_y
 _atom_site_fract_z
 _atom_site_occupancy
  Hf  Hf0  1  0.90177891  0.91128534  0.61685270  1
  Hf  Hf1  1  0.09164263  0.30427278  0.37095719  1
  Hf  Hf2  1  0.40954326  0.21300721  0.25340867  1
  Hf  Hf3  1  0.88850190  0.69703357  0.86726586  1
  Hf  Hf4  1  0.30729235  0.10523774  0.89875667  1
  Hf  Hf5  1  0.30827669  0.91458483  0.61997128  1
  Hf  Hf6  1  0.59956068  0.79729224  0.50486820  1
  Hf  Hf7  1  0.89535600  0.50690925  0.64343925  1
  Hf  Hf8  1  0.80371066  0.00267267  0.24860834  1
  Hf  Hf9  1  0.60757860  0.58632824  0.25683985  1
  Hf  Hf10  1  0.89990216  0.70724110  0.11480990  1
  Hf  Hf11  1  0.78386561  0.39693923  0.74629665  1
  Hf  Hf12  1  0.79654722  0.59326040  0.25329556  1
  Hf  Hf13  1  0.29591409  0.90665928  0.88085935  1
  Hf  Hf14  1  0.10501499  0.29441116  0.11501817  1
  Hf  Hf15  1  0.40180988  0.80337364  0.49520582  1
  Hf  Hf16  1  0.49330669  0.50665382  0.88186276  1
  Hf  Hf17  1  -0.00808739  0.80941328  0.26105061  1
  Hf  Hf18  1  0.59059839  0.80237297  0.00680825  1
  Hf  Hf19  1  0.89993236  0.48604765  0.37969194  1
  Hf  Hf20  1  0.41398315  0.61357104  0.72587978  1
  Hf  Hf21  1  0.20293273  0.79952862  0.50146355  1
  Hf  Hf22  1  0.30637274  0.29919170  0.61219394  1
  Hf  Hf23  1  0.00822347  0.60576860  -0.00375884  1
  Hf  Hf24  1  -0.01207664  0.39223317  0.23703122  1
  Hf  Hf25  1  -0.00038671  0.39649509  0.51605508  1
  Hf  Hf26  1  0.87423322  0.09898166  0.88263646  1
  Hf  Hf27  1  0.40426446  0.58876574  0.25439153  1
  Hf  Hf28  1  0.51122275  0.09531527  0.88209022  1
  Hf  Hf29  1  0.69768120  0.70273222  0.12920801  1
  Hf  Hf30  1  0.52394782  0.50475940  0.59801648  1
  Hf  Hf31  1  0.29825514  0.50469523  0.88971993  1
  Hf  Hf32  1  0.11117798  0.10106999  0.87894851  1
  Hf  Hf33  1  0.21702277  0.59271020  0.72815791  1
  Hf  Hf34  1  0.57703757  0.38471943  0.27972807  1
  Hf  Hf35  1  0.80065744  0.59939673  0.50136040  1
  Hf  Hf36  1  0.11679861  0.69747383  0.86432549  1
  Hf  Hf37  1  0.39941978  0.01319618  0.74879123  1
  Hf  Hf38  1  0.49048623  0.88798519  0.86467027  1
  Hf  Hf39  1  0.00616545  -0.00944198  -0.01934970  1
  Zr  Zr40  1  0.59364281  0.39379594  0.74816599  1
  Zr  Zr41  1  0.88866306  0.09381030  0.39823973  1
  Zr  Zr42  1  0.89702013  0.49897880  0.86976389  1
  Zr  Zr43  1  -0.01205190  0.19486346  0.24934351  1
  Zr  Zr44  1  0.89650174  0.70305681  0.37842887  1
  Zr  Zr45  1  0.39927451  0.60784072  0.49536046  1
  Zr  Zr46  1  0.30174862  0.30460313  0.88224972  1
  Zr  Zr47  1  0.78898721  0.80376140  0.73748756  1
  Zr  Zr48  1  0.39622161  0.41020768  0.73663788  1
  Zr  Zr49  1  0.19869076  0.18919352  0.25483651  1
  Zr  Zr50  1  0.10103488  0.90137425  0.12950547  1
  Zr  Zr51  1  0.19771856  0.40912328  0.51015854  1
  Zr  Zr52  1  0.01138985  0.59832374  0.51069973  1
  Zr  Zr53  1  0.91039641  0.27900387  0.65080541  1
  Zr  Zr54  1  0.19852780  0.79997896  0.00124289  1
  Zr  Zr55  1  -0.00127041  0.60080778  0.23924226  1
  Zr  Zr56  1  0.11006456  0.30176004  0.87646779  1
  Zr  Zr57  1  0.51057041  0.48580119  0.12439858  1
  Zr  Zr58  1  0.71194868  0.10307683  0.11933896  1
  Zr  Zr59  1  0.79331488  0.38281123  0.51736111  1
  Zr  Zr60  1  0.70925977  0.90209049  0.37910640  1
  Zr  Zr61  1  0.69364068  0.67915341  0.62662974  1
  Zr  Zr62  1  0.10469267  0.50687163  0.36128076  1
  Zr  Zr63  1  0.08579787  0.10918057  0.62628016  1
  Zr  Zr64  1  0.78316999  0.39177846  0.25781518  1
  Zr  Zr65  1  0.30429300  0.49765068  0.12277868  1
  Zr  Zr66  1  0.29850198  0.91238162  0.13164777  1
  Zr  Zr67  1  0.89404906  0.90728591  0.10823651  1
  Zr  Zr68  1  0.00455208  0.00946517  0.25919395  1
  Zr  Zr69  1  0.38265522  0.18381575  0.48493912  1
  Zr  Zr70  1  0.32408315  0.70808150  0.86970518  1
  Zr  Zr71  1  0.68951897  0.91186552  0.86217712  1
  Zr  Zr72  1  0.21047343  0.01693805  0.49176649  1
  Zr  Zr73  1  0.21443854  0.19558424  0.73929981  1
  Zr  Zr74  1  -0.00272425  0.39869858  -0.00371987  1
  Zr  Zr75  1  0.00203946  0.80693435  0.75622841  1
  Zr  Zr76  1  0.68630466  0.30496182  0.12338154  1
  Zr  Zr77  1  0.51230307  0.09622107  0.13290290  1
  Zr  Zr78  1  0.88304511  0.49390382  0.11187349  1
  Zr  Zr79  1  0.00226320  0.80102123  0.49861664  1
  Ta  Ta80  1  0.10971149  0.09422078  0.10596705  1
  Ta  Ta81  1  0.10870371  0.49948170  0.11888822  1
  Ta  Ta82  1  0.10287270  0.90788646  0.63067827  1
  Ta  Ta83  1  0.50734390  0.90394825  0.36439076  1
  Ta  Ta84  1  0.69018391  0.70106234  0.87228495  1
  Ta  Ta85  1  0.40821086  0.39241458  0.00269726  1
  Ta  Ta86  1  0.50394748  0.70737813  0.35951029  1
  Ta  Ta87  1  0.40549107  0.80125431  0.02328090  1
  Ta  Ta88  1  0.59903422  -0.00287617  0.50594591  1
  Ta  Ta89  1  0.40873598  0.61577146  0.01488542  1
  Ta  Ta90  1  0.11175727  0.70038660  0.36430110  1
  Ta  Ta91  1  0.69736564  0.50044980  0.88565301  1
  Ta  Ta92  1  0.40041401  0.00852406  0.25835910  1
  Ta  Ta93  1  0.60719005  0.19736883  0.27163196  1
  Ta  Ta94  1  -0.00261404  0.19655169  -0.00830930  1
  Ta  Ta95  1  0.50150675  0.70397248  0.14621843  1
  Ta  Ta96  1  0.60280459  0.59352084  0.75941473  1
  Ta  Ta97  1  0.79761014  0.80568759  0.24722846  1
  Ta  Ta98  1  0.11466924  0.49798689  0.87807206  1
  Ta  Ta99  1  0.78761348  0.80807274  -0.00513722  1
  Ta  Ta100  1  0.89343539  0.29107878  0.86952020  1
  Ta  Ta101  1  0.10261406  0.70360604  0.63533824  1
  Ta  Ta102  1  0.41045812  0.20480344  0.01760612  1
  Ta  Ta103  1  0.88781596  0.90369048  0.87246643  1
  Ta  Ta104  1  0.59773573  0.19172608  0.73671299  1
  Ta  Ta105  1  0.88451157  0.28406841  0.10746897  1
  Ta  Ta106  1  0.49112198  0.09763666  0.60910905  1
  Ta  Ta107  1  0.50158365  0.29441244  0.60725282  1
  Ta  Ta108  1  0.10600840  0.90596083  0.37433096  1
  Ta  Ta109  1  0.20533421  0.60621704  0.51273499  1
  Ta  Ta110  1  0.29617671  0.50195550  0.37141896  1
  Ta  Ta111  1  0.68870002  0.49189814  0.40156025  1
  Ta  Ta112  1  0.00094317  0.80078242  -0.02096831  1
  Ta  Ta113  1  0.69692905  0.28223005  0.87139830  1
  Ta  Ta114  1  0.20484816  0.39964418  0.24395268  1
  Ta  Ta115  1  0.59699156  0.60495650  0.00027749  1
  Ta  Ta116  1  0.21143495  0.80500942  0.73862905  1
  Ta  Ta117  1  0.79031260  0.00957330  0.72837249  1
  Ta  Ta118  1  0.29499386  0.69992123  0.35953551  1
  Ta  Ta119  1  -0.00824985  0.00921631  0.75599690  1
  Ti  Ti120  1  0.90176290  0.69675242  0.63655016  1
  Ti  Ti121  1  0.60201574  0.00721837  0.73019806  1
  Ti  Ti122  1  0.79839456  0.80338829  0.51085787  1
  Ti  Ti123  1  0.49925497  0.90063280  0.62770378  1
  Ti  Ti124  1  0.39991617  0.80634322  0.25071899  1
  Ti  Ti125  1  0.29882731  0.70343601  0.14134779  1
  Ti  Ti126  1  -0.00703630  0.20366699  0.49362711  1
  Ti  Ti127  1  0.20552232  0.60764843  0.01099269  1
  Ti  Ti128  1  0.10419853  0.70342918  0.13285367  1
  Ti  Ti129  1  0.69855732  0.09648146  0.38793345  1
  Ti  Ti130  1  0.60379918  0.20233326  0.49736016  1
  Ti  Ti131  1  0.69868557  0.70251105  0.37317954  1
  Ti  Ti132  1  0.90289509  0.10013312  0.10543427  1
  Ti  Ti133  1  0.30492889  0.30271865  0.12473677  1
  Ti  Ti134  1  0.00505799  0.00295413  0.49558758  1
  Ti  Ti135  1  0.30380354  0.90747973  0.36875186  1
  Ti  Ti136  1  0.29565715  0.30637264  0.37341521  1
  Ti  Ti137  1  0.19904474  0.00198839  0.74706381  1
  Ti  Ti138  1  0.79395413  0.19543671  0.51694734  1
  Ti  Ti139  1  0.01210901  0.59500638  0.75260018  1
  Ti  Ti140  1  0.50337066  0.09375858  0.37939873  1
  Ti  Ti141  1  0.29820436  0.09950096  0.12265365  1
  Ti  Ti142  1  0.58311807  0.78632756  0.73950996  1
  Ti  Ti143  1  0.49737073  0.29173033  0.87305814  1
  Ti  Ti144  1  0.78983849  0.60342355  -0.00254361  1
  Ti  Ti145  1  0.20034682  0.80741612  0.25473066  1
  Ti  Ti146  1  0.09871300  0.29786692  0.63724006  1
  Ti  Ti147  1  0.60049417  0.20256088  -0.00184267  1
  Ti  Ti148  1  0.61005292  -0.00832923  0.00675770  1
  Ti  Ti149  1  0.40835202  0.20151238  0.74202371  1
  Ti  Ti150  1  0.18974078  0.20185691  0.49231794  1
  Ti  Ti151  1  0.79984400  0.20511247  0.26597690  1
  Ti  Ti152  1  0.41315286  -0.00655979  0.01344043  1
  Ti  Ti153  1  0.78909985  0.39038876  -0.01040907  1
  Ti  Ti154  1  0.20348688  0.40783792  0.73359473  1
  Ti  Ti155  1  0.51641430  0.90180249  0.15243909  1
  Ti  Ti156  1  0.78503075  0.18580406  0.73901171  1
  Ti  Ti157  1  0.40887034  0.40054235  0.47978436  1
  Ti  Ti158  1  0.59692285  0.39342014  -0.01139723  1
  Ti  Ti159  1  0.00846387  0.40035933  0.75701150  1
  Mo  Mo160  1  0.30260544  0.10225200  0.62731374  1
  Mo  Mo161  1  0.31023057  0.49763850  0.60211998  1
  Mo  Mo162  1  0.60007740  0.60861115  0.47414823  1
  Mo  Mo163  1  0.79181121  -0.00155930  0.51822090  1
  Mo  Mo164  1  0.20603569  0.00075868  -0.00494358  1
  Mo  Mo165  1  0.68856164  0.10018704  0.87662911  1
  Mo  Mo166  1  0.59875407  0.38536461  0.49467917  1
  Mo  Mo167  1  0.69162603  0.09886745  0.60779310  1
  Mo  Mo168  1  0.79185699  -0.00489848  0.00284910  1
  Mo  Mo169  1  0.20188656  0.60626862  0.23681529  1
  Mo  Mo170  1  0.60574041  0.80111409  0.25289581  1
  Mo  Mo171  1  0.69080743  0.89788722  0.63013732  1
  Mo  Mo172  1  0.09959154  0.49967549  0.64287119  1
  Mo  Mo173  1  0.69009668  0.28944830  0.63351081  1
  Mo  Mo174  1  0.10140988  0.90271641  0.85245043  1
  Mo  Mo175  1  0.60406907  0.00708552  0.26659621  1
  Mo  Mo176  1  0.40324494  0.80665830  0.73209949  1
  Mo  Mo177  1  0.50308382  0.70139152  0.87857176  1
  Mo  Mo178  1  0.69722855  0.49391402  0.61326150  1
  Mo  Mo179  1  0.70313959  0.28557388  0.38379508  1
  Mo  Mo180  1  0.49805333  0.28858708  0.39671789  1
  Mo  Mo181  1  0.20860206  0.20076423  0.01710314  1
  Mo  Mo182  1  0.30035965  0.09885939  0.35577348  1
  Mo  Mo183  1  0.90070088  0.89964458  0.39467638  1
  Mo  Mo184  1  0.69580536  0.90090209  0.13369024  1
  Mo  Mo185  1  0.69837164  0.50049738  0.09836290  1
  Mo  Mo186  1  0.09760253  0.10455123  0.39157521  1
  Mo  Mo187  1  0.38981028  0.39437533  0.26650175  1
  Mo  Mo188  1  0.49813760  0.49992594  0.38408595  1
  Mo  Mo189  1  0.50096424  0.29681390  0.12191180  1
  Mo  Mo190  1  0.89469052  0.29320439  0.38790512  1
  Mo  Mo191  1  0.40936891  -0.00501476  0.48169036  1
  Mo  Mo192  1  -0.00304194  0.19540454  0.77382317  1
  Mo  Mo193  1  0.89788202  0.09812464  0.62112560  1
  Mo  Mo194  1  0.30271448  0.71049223  0.62253370  1
  Mo  Mo195  1  0.79370383  0.20261653  -0.00616693  1
  Mo  Mo196  1  0.50477807  0.70472961  0.61610275  1
  Mo  Mo197  1  0.78981003  0.59607187  0.75736378  1
  Mo  Mo198  1  0.20059152  0.00265241  0.26375159  1
  Mo  Mo199  1  0.20653262  0.40392732  0.01306373  1
