# generated using pymatgen
data_HfZrTaTiMo
_symmetry_space_group_name_H-M   'P 1'
_cell_length_a   15.84196567
_cell_length_b   15.83179857
_cell_length_c   15.38965292
_cell_angle_alpha   89.98491756
_cell_angle_beta   89.96025731
_cell_angle_gamma   89.85919405
_symmetry_Int_Tables_number   1
_chemical_formula_structural   HfZrTaTiMo
_chemical_formula_sum   'Hf40 Zr40 Ta40 Ti40 Mo40'
_cell_volume   3859.81703228
_cell_formula_units_Z   40
loop_
 _symmetry_equiv_pos_site_id
 _symmetry_equiv_pos_as_xyz
  1  'x, y, z'
loop_
 _atom_site_type_symbol
 _atom_site_label
 _atom_site_symmetry_multiplicity
 _atom_site_fract_x
 _atom_site_fract_y
 _atom_site_fract_z
 _atom_site_occupancy
  Hf  Hf0  1  0.70076592  0.89844010  0.35672050  1
  Hf  Hf1  1  0.28970156  0.30306974  0.36587571  1
  Hf  Hf2  1  0.09271680  0.11057411  0.38780590  1
  Hf  Hf3  1  0.40705619  -0.00208620  0.75562544  1
  Hf  Hf4  1  0.68649998  0.29019917  0.61843443  1
  Hf  Hf5  1  0.00652065  -0.00175168  0.74433077  1
  Hf  Hf6  1  0.80004997  0.39839198  0.49482308  1
  Hf  Hf7  1  0.70310277  0.09836364  0.88318113  1
  Hf  Hf8  1  0.20059761  0.79535733  0.75518598  1
  Hf  Hf9  1  0.08192416  0.31828349  0.85534007  1
  Hf  Hf10  1  0.20134300  -0.00277067  0.51646160  1
  Hf  Hf11  1  0.09679879  0.31295285  0.37801648  1
  Hf  Hf12  1  0.90219938  0.10362371  0.88056811  1
  Hf  Hf13  1  0.91772500  0.67842575  0.87312926  1
  Hf  Hf14  1  0.92082925  0.69969180  0.11497018  1
  Hf  Hf15  1  0.49563975  0.49864958  0.12790486  1
  Hf  Hf16  1  0.81353581  0.59745645  0.25364115  1
  Hf  Hf17  1  0.40061469  0.20972123  0.75657400  1
  Hf  Hf18  1  0.28490076  0.51440161  0.12230184  1
  Hf  Hf19  1  0.60633782  0.00306939  0.51254212  1
  Hf  Hf20  1  0.29507860  0.31234688  0.12259644  1
  Hf  Hf21  1  0.90741944  0.90042434  0.12581301  1
  Hf  Hf22  1  0.79372542  0.18800134  0.73730991  1
  Hf  Hf23  1  0.10094177  0.90099367  0.36612790  1
  Hf  Hf24  1  0.60371097  0.59621489  0.00877929  1
  Hf  Hf25  1  0.17018827  0.41612426  0.00132381  1
  Hf  Hf26  1  0.61041216  0.00160409  0.74080546  1
  Hf  Hf27  1  0.79646674  0.40185302  0.74068002  1
  Hf  Hf28  1  0.39137357  -0.00516570  0.25101568  1
  Hf  Hf29  1  0.38869665  0.61192945  0.25433908  1
  Hf  Hf30  1  0.90473956  0.88476931  0.36308579  1
  Hf  Hf31  1  0.60468798  -0.00220718  0.00900407  1
  Hf  Hf32  1  0.09113207  0.09360918  0.11219608  1
  Hf  Hf33  1  0.80536323  -0.00990828  0.49523049  1
  Hf  Hf34  1  0.60616027  0.79786472  0.00560134  1
  Hf  Hf35  1  0.80680426  0.79625817  -0.00498861  1
  Hf  Hf36  1  0.09512726  0.50142901  0.37375271  1
  Hf  Hf37  1  0.89275064  0.31416802  0.14454806  1
  Hf  Hf38  1  0.19353198  0.20234717  0.74962658  1
  Hf  Hf39  1  0.71906170  0.87770755  0.62570079  1
  Zr  Zr40  1  0.29308360  0.09940219  0.37893580  1
  Zr  Zr41  1  0.39782466  0.41147357  0.48858347  1
  Zr  Zr42  1  0.60574767  0.79080403  0.75497310  1
  Zr  Zr43  1  0.58699287  0.59517335  0.75944052  1
  Zr  Zr44  1  0.70468202  0.49557657  0.87605424  1
  Zr  Zr45  1  0.49049140  0.89482251  0.12264165  1
  Zr  Zr46  1  0.68788590  0.49991036  0.62204000  1
  Zr  Zr47  1  -0.00898939  0.01153780  0.24934073  1
  Zr  Zr48  1  0.40875410  0.00438946  -0.01004345  1
  Zr  Zr49  1  -0.00659273  0.22648545  0.00819227  1
  Zr  Zr50  1  0.90688920  0.10404865  0.61960844  1
  Zr  Zr51  1  0.00325319  -0.00917723  0.51036876  1
  Zr  Zr52  1  0.40615164  -0.00459524  0.50312030  1
  Zr  Zr53  1  0.19188145  0.21086917  -0.00185645  1
  Zr  Zr54  1  0.80844820  0.18272059  0.26816921  1
  Zr  Zr55  1  0.70317399  0.29317416  0.13049598  1
  Zr  Zr56  1  0.29634837  0.10167264  0.87532852  1
  Zr  Zr57  1  0.19541643  0.79914924  0.50804534  1
  Zr  Zr58  1  0.49712213  0.30129320  0.12766906  1
  Zr  Zr59  1  0.50603353  0.09931016  0.37018765  1
  Zr  Zr60  1  0.81575879  0.58267406  0.00855819  1
  Zr  Zr61  1  0.20099738  0.60655042  0.50401261  1
  Zr  Zr62  1  0.20859307  0.79342363  0.25999577  1
  Zr  Zr63  1  0.19323791  0.19660146  0.23766999  1
  Zr  Zr64  1  0.50334749  0.30040820  0.87870439  1
  Zr  Zr65  1  0.49549944  0.69769841  0.62187536  1
  Zr  Zr66  1  0.29624116  0.71334426  0.10325796  1
  Zr  Zr67  1  0.50883541  0.70187588  0.36857566  1
  Zr  Zr68  1  0.69529981  0.49361143  0.36481067  1
  Zr  Zr69  1  0.71019327  0.48014727  0.13825777  1
  Zr  Zr70  1  0.50683794  0.29668764  0.36121926  1
  Zr  Zr71  1  0.79651382  0.19419074  0.48892886  1
  Zr  Zr72  1  0.39606924  0.59726816  0.48577522  1
  Zr  Zr73  1  0.09799859  0.50174100  0.63525629  1
  Zr  Zr74  1  0.30896918  0.89236191  0.63792383  1
  Zr  Zr75  1  0.40069682  0.20760420  0.50553461  1
  Zr  Zr76  1  0.60544362  0.79853196  0.49958224  1
  Zr  Zr77  1  0.30275776  0.31955433  0.64003905  1
  Zr  Zr78  1  0.30377939  0.09693557  0.11186786  1
  Zr  Zr79  1  0.69928343  0.28946140  0.87891204  1
  Ta  Ta80  1  0.89857172  0.29932716  0.85580995  1
  Ta  Ta81  1  -0.00176840  0.79955247  0.51891077  1
  Ta  Ta82  1  0.70854835  0.70099498  0.36870353  1
  Ta  Ta83  1  0.80617174  -0.00975512  0.74749568  1
  Ta  Ta84  1  0.39621049  0.80479375  0.26348436  1
  Ta  Ta85  1  0.30286934  0.10388779  0.63208156  1
  Ta  Ta86  1  0.19923808  0.20934577  0.51572045  1
  Ta  Ta87  1  0.79846310  0.60300033  0.49333451  1
  Ta  Ta88  1  0.29222955  0.31431837  0.87809215  1
  Ta  Ta89  1  0.02454923  0.78634403  -0.01579226  1
  Ta  Ta90  1  0.39509777  0.40807209  0.25408578  1
  Ta  Ta91  1  0.09405722  0.10107492  0.87856205  1
  Ta  Ta92  1  0.19144982  -0.01077941  -0.00648388  1
  Ta  Ta93  1  0.39659548  0.43230754  0.77492789  1
  Ta  Ta94  1  0.59510509  0.18639898  0.01863744  1
  Ta  Ta95  1  0.39188390  0.80225508  0.47962582  1
  Ta  Ta96  1  0.50917880  0.11594709  0.63064358  1
  Ta  Ta97  1  -0.00046809  0.20598367  0.24850339  1
  Ta  Ta98  1  0.60041616  0.60252282  0.24201595  1
  Ta  Ta99  1  0.08376527  0.52049173  0.85589464  1
  Ta  Ta100  1  0.28155176  0.50068522  0.35598066  1
  Ta  Ta101  1  0.40390439  0.78992341  0.77034972  1
  Ta  Ta102  1  0.39274417  0.40841665  -0.00924945  1
  Ta  Ta103  1  0.90880343  0.30127241  0.62368059  1
  Ta  Ta104  1  0.80604626  0.78956622  0.76401542  1
  Ta  Ta105  1  0.00470555  0.60686333  0.24984117  1
  Ta  Ta106  1  0.70691626  0.89811527  0.87310088  1
  Ta  Ta107  1  0.49164923  0.70066159  0.12061207  1
  Ta  Ta108  1  0.90580915  0.89537959  0.87334161  1
  Ta  Ta109  1  0.59018473  0.39799462  0.48842418  1
  Ta  Ta110  1  -0.00158944  0.79858791  0.74466191  1
  Ta  Ta111  1  0.81682292  0.38778557  -0.00806113  1
  Ta  Ta112  1  0.71287574  0.89944939  0.13619514  1
  Ta  Ta113  1  0.59815498  0.59210928  0.49137572  1
  Ta  Ta114  1  0.60191872  0.79507350  0.23600122  1
  Ta  Ta115  1  0.50174139  0.31319849  0.63350800  1
  Ta  Ta116  1  0.20288647  0.40752232  0.51108617  1
  Ta  Ta117  1  0.88448351  0.70522444  0.61900947  1
  Ta  Ta118  1  0.10334949  0.88391574  0.12184199  1
  Ta  Ta119  1  0.09152329  0.30489741  0.62607948  1
  Ti  Ti120  1  0.70627014  0.69273266  0.88135568  1
  Ti  Ti121  1  0.39772475  0.19559823  0.24269172  1
  Ti  Ti122  1  0.21884434  0.59729509  0.75563510  1
  Ti  Ti123  1  0.51358499  0.10742022  0.86555360  1
  Ti  Ti124  1  0.29721992  0.69976375  0.88499783  1
  Ti  Ti125  1  0.69275184  0.09563856  0.37298036  1
  Ti  Ti126  1  0.50732047  0.90246599  0.36689598  1
  Ti  Ti127  1  0.19923197  0.00066811  0.74934433  1
  Ti  Ti128  1  0.10263277  0.89849063  0.86916663  1
  Ti  Ti129  1  0.70650610  0.69785714  0.12955059  1
  Ti  Ti130  1  0.80418930  -0.00616604  -0.00213969  1
  Ti  Ti131  1  0.60046543  0.00227873  0.23414147  1
  Ti  Ti132  1  0.49977303  0.89183528  0.62996761  1
  Ti  Ti133  1  0.00179841  -0.01183176  -0.00736051  1
  Ti  Ti134  1  0.50760521  0.89495620  0.87697480  1
  Ti  Ti135  1  0.49787505  0.69736312  0.88958885  1
  Ti  Ti136  1  0.08781747  0.70427748  0.37497824  1
  Ti  Ti137  1  0.91004489  0.49504827  0.37655096  1
  Ti  Ti138  1  0.31209452  0.69236342  0.63381623  1
  Ti  Ti139  1  0.79535049  0.60318157  0.73915426  1
  Ti  Ti140  1  0.48529088  0.50118687  0.62947178  1
  Ti  Ti141  1  0.59075907  0.40225271  0.75661559  1
  Ti  Ti142  1  0.29707923  0.89443759  0.10604090  1
  Ti  Ti143  1  0.71358915  0.09279301  0.12600696  1
  Ti  Ti144  1  0.17304213  0.61777668  -0.00868507  1
  Ti  Ti145  1  0.60443021  0.19300825  0.24054194  1
  Ti  Ti146  1  -0.00627698  0.60642041  0.50298265  1
  Ti  Ti147  1  0.09838046  0.11156542  0.62390674  1
  Ti  Ti148  1  0.39704356  0.59573278  -0.01241439  1
  Ti  Ti149  1  0.81044360  0.78866403  0.24562177  1
  Ti  Ti150  1  0.90080979  0.50285173  0.61975553  1
  Ti  Ti151  1  0.20454103  0.41492803  0.75835854  1
  Ti  Ti152  1  0.40396481  0.20415668  -0.00386977  1
  Ti  Ti153  1  0.91155166  0.48863080  0.86107852  1
  Ti  Ti154  1  0.60031146  0.39729336  0.00041908  1
  Ti  Ti155  1  0.09279428  0.69356848  0.64016442  1
  Ti  Ti156  1  0.20149151  -0.00521368  0.23932748  1
  Ti  Ti157  1  0.91161732  0.30305362  0.37950265  1
  Ti  Ti158  1  0.89294888  0.10377791  0.11067169  1
  Ti  Ti159  1  0.30170874  0.89524305  0.88157489  1
  Mo  Mo160  1  0.49985352  0.50186025  0.89444040  1
  Mo  Mo161  1  0.10656055  0.70070874  0.12854637  1
  Mo  Mo162  1  0.09392441  0.50910243  0.14153781  1
  Mo  Mo163  1  0.79708649  -0.00272588  0.25292999  1
  Mo  Mo164  1  0.70108179  0.09031306  0.62120581  1
  Mo  Mo165  1  -0.01811981  0.60450137  0.72774554  1
  Mo  Mo166  1  0.19280212  0.40562888  0.23415372  1
  Mo  Mo167  1  0.10059414  0.69464823  0.85203530  1
  Mo  Mo168  1  0.70340644  0.68946983  0.61102579  1
  Mo  Mo169  1  0.28586071  0.50987568  0.89642428  1
  Mo  Mo170  1  -0.00267457  0.40511105  0.51175520  1
  Mo  Mo171  1  -0.00333439  0.40741989  0.24809516  1
  Mo  Mo172  1  0.90790643  0.69479066  0.38844484  1
  Mo  Mo173  1  0.80384917  0.39108964  0.27999668  1
  Mo  Mo174  1  0.00336726  0.20713811  0.49564356  1
  Mo  Mo175  1  0.40187567  0.79815477  -0.01944612  1
  Mo  Mo176  1  0.90487554  0.49769035  0.13870152  1
  Mo  Mo177  1  0.09250461  0.31056788  0.14087954  1
  Mo  Mo178  1  0.30379509  0.50882384  0.63520422  1
  Mo  Mo179  1  0.29352136  0.70142243  0.37900429  1
  Mo  Mo180  1  0.00676975  0.79492414  0.24345369  1
  Mo  Mo181  1  0.80761102  0.79069453  0.48449006  1
  Mo  Mo182  1  0.19185009  0.60688880  0.25474392  1
  Mo  Mo183  1  0.10206380  0.89773616  0.64189082  1
  Mo  Mo184  1  0.01381259  0.58415254  0.00801274  1
  Mo  Mo185  1  -0.01300238  0.41721986  0.00649763  1
  Mo  Mo186  1  0.50538040  0.10246976  0.13717584  1
  Mo  Mo187  1  0.80052412  0.19739883  0.00462290  1
  Mo  Mo188  1  0.29922337  0.90398092  0.37908901  1
  Mo  Mo189  1  0.69560540  0.29358139  0.37490959  1
  Mo  Mo190  1  0.00064858  0.20027763  0.75255005  1
  Mo  Mo191  1  0.49942895  0.50082905  0.35478763  1
  Mo  Mo192  1  0.39565015  0.60610219  0.76988314  1
  Mo  Mo193  1  0.90002825  0.89060054  0.63922340  1
  Mo  Mo194  1  0.59855549  0.19985564  0.74404114  1
  Mo  Mo195  1  0.90593453  0.09843950  0.38574016  1
  Mo  Mo196  1  0.59563056  0.39808096  0.25802095  1
  Mo  Mo197  1  0.59704607  0.20122474  0.50394065  1
  Mo  Mo198  1  -0.00761698  0.40551108  0.73451374  1
  Mo  Mo199  1  0.19766707  0.80520988  -0.02090837  1
