# generated using pymatgen
data_HfZrTaTiMo
_symmetry_space_group_name_H-M   'P 1'
_cell_length_a   15.84744398
_cell_length_b   15.82704690
_cell_length_c   15.39098971
_cell_angle_alpha   90.01854891
_cell_angle_beta   89.94096404
_cell_angle_gamma   89.85947764
_symmetry_Int_Tables_number   1
_chemical_formula_structural   HfZrTaTiMo
_chemical_formula_sum   'Hf40 Zr40 Ta40 Ti40 Mo40'
_cell_volume   3860.32707209
_cell_formula_units_Z   40
loop_
 _symmetry_equiv_pos_site_id
 _symmetry_equiv_pos_as_xyz
  1  'x, y, z'
loop_
 _atom_site_type_symbol
 _atom_site_label
 _atom_site_symmetry_multiplicity
 _atom_site_fract_x
 _atom_site_fract_y
 _atom_site_fract_z
 _atom_site_occupancy
  Hf  Hf0  1  -0.00720260  0.79464366  -0.01144162  1
  Hf  Hf1  1  0.12336750  0.89801044  0.88314249  1
  Hf  Hf2  1  -0.00136266  0.61384003  0.23823012  1
  Hf  Hf3  1  0.90150449  0.91016504  0.63679297  1
  Hf  Hf4  1  0.39435445  0.39775270  0.25485684  1
  Hf  Hf5  1  0.70116220  0.49176783  0.37690828  1
  Hf  Hf6  1  0.90073791  0.69492298  0.63762779  1
  Hf  Hf7  1  0.69209319  0.69647440  0.87107707  1
  Hf  Hf8  1  0.39165765  0.19882123  0.48590241  1
  Hf  Hf9  1  -0.00617338  0.20892093  0.50005057  1
  Hf  Hf10  1  0.39581362  0.39940420  0.75530345  1
  Hf  Hf11  1  0.39492486  0.60247823  0.25838389  1
  Hf  Hf12  1  0.10680612  0.10923550  0.65076604  1
  Hf  Hf13  1  0.48991231  0.29246886  0.88627469  1
  Hf  Hf14  1  0.30469970  0.10453305  0.87848737  1
  Hf  Hf15  1  0.69274181  0.08829321  0.11809224  1
  Hf  Hf16  1  0.47960789  0.70305111  0.86127463  1
  Hf  Hf17  1  0.89418532  0.30038892  0.64246786  1
  Hf  Hf18  1  0.70496234  0.69875323  0.38655397  1
  Hf  Hf19  1  0.89560124  0.10449870  0.87108224  1
  Hf  Hf20  1  -0.00169400  0.59921479  -0.00569282  1
  Hf  Hf21  1  0.21138467  0.79546953  0.74228297  1
  Hf  Hf22  1  0.58758888  0.59587628  0.26201999  1
  Hf  Hf23  1  0.39010771  0.41506671  -0.00373839  1
  Hf  Hf24  1  0.18254695  0.39701141  0.50459039  1
  Hf  Hf25  1  0.11055319  0.29952928  0.11486886  1
  Hf  Hf26  1  0.41331133  0.01065472  0.01359787  1
  Hf  Hf27  1  0.78250441  -0.00187921  0.76542009  1
  Hf  Hf28  1  -0.00274222  0.18437195  0.23229850  1
  Hf  Hf29  1  0.70223699  0.89495932  0.11520707  1
  Hf  Hf30  1  0.50093889  0.29609098  0.36866902  1
  Hf  Hf31  1  0.38601760  0.61933358  0.01500265  1
  Hf  Hf32  1  0.29108483  0.29512229  0.62437322  1
  Hf  Hf33  1  0.80451180  0.60777024  0.24877824  1
  Hf  Hf34  1  0.19854241  0.18940141  0.48689274  1
  Hf  Hf35  1  0.10995850  0.49221394  0.12263676  1
  Hf  Hf36  1  0.09706294  0.69954519  0.38696271  1
  Hf  Hf37  1  0.01104859  0.79629286  0.75798515  1
  Hf  Hf38  1  0.09637652  0.50256046  0.37174176  1
  Hf  Hf39  1  -0.00194056  -0.00472364  -0.00953376  1
  Zr  Zr40  1  0.32648035  0.89896639  0.87669247  1
  Zr  Zr41  1  0.89421727  0.11405240  0.65152114  1
  Zr  Zr42  1  0.20520880  0.79924598  0.24283941  1
  Zr  Zr43  1  0.20990411  0.20243770  0.24777895  1
  Zr  Zr44  1  0.09954545  0.08365836  0.36668521  1
  Zr  Zr45  1  0.60332509  0.39266213  0.49622672  1
  Zr  Zr46  1  0.30041028  0.52817310  0.85866628  1
  Zr  Zr47  1  0.22068845  0.00643565  0.22872400  1
  Zr  Zr48  1  0.81578382  -0.00517174  0.24284804  1
  Zr  Zr49  1  -0.00076858  0.57962593  0.52637664  1
  Zr  Zr50  1  0.49614519  0.29899934  0.62164520  1
  Zr  Zr51  1  0.68721460  0.29734427  0.88854765  1
  Zr  Zr52  1  0.70203347  0.90288595  0.38711923  1
  Zr  Zr53  1  0.89382907  0.29496363  0.86805407  1
  Zr  Zr54  1  0.60594913  0.19016124  0.49417191  1
  Zr  Zr55  1  0.00620740  0.40249487  -0.01639307  1
  Zr  Zr56  1  0.89799968  0.49399293  0.37810023  1
  Zr  Zr57  1  0.00531015  0.40753330  0.75304222  1
  Zr  Zr58  1  -0.00756648  0.39927397  0.24041002  1
  Zr  Zr59  1  0.69565101  0.50081311  0.12593295  1
  Zr  Zr60  1  -0.00386904  0.80536953  0.23476564  1
  Zr  Zr61  1  0.79232024  0.80324400  0.75497883  1
  Zr  Zr62  1  0.79585342  0.40927192  -0.00254025  1
  Zr  Zr63  1  0.91234768  0.90269241  0.38695956  1
  Zr  Zr64  1  0.29542278  0.71297941  0.39693960  1
  Zr  Zr65  1  0.60249056  0.79576504  0.26029719  1
  Zr  Zr66  1  0.69126572  0.50472809  0.87101819  1
  Zr  Zr67  1  0.69916591  0.70397110  0.11438392  1
  Zr  Zr68  1  0.00238346  0.01171000  0.51445695  1
  Zr  Zr69  1  0.89849671  0.30217223  0.11348767  1
  Zr  Zr70  1  0.70581133  0.10471203  0.36460549  1
  Zr  Zr71  1  0.40417016  0.81317601  0.25650383  1
  Zr  Zr72  1  0.11514153  0.89590109  0.39230932  1
  Zr  Zr73  1  0.69860556  0.49055310  0.62849869  1
  Zr  Zr74  1  0.50426611  0.09587173  0.63442139  1
  Zr  Zr75  1  0.59942555  0.20600497  0.23649207  1
  Zr  Zr76  1  0.11274742  0.89886633  0.10295739  1
  Zr  Zr77  1  0.08803609  0.30117670  0.36570989  1
  Zr  Zr78  1  0.58289013  0.59909057  0.00432586  1
  Zr  Zr79  1  0.80272431  0.80021030  0.51655233  1
  Ta  Ta80  1  0.48861946  0.08769016  0.36085494  1
  Ta  Ta81  1  0.58673675  0.80712307  -0.01713527  1
  Ta  Ta82  1  0.79201143  0.19417216  0.00872640  1
  Ta  Ta83  1  0.59836336  0.80933836  0.74601753  1
  Ta  Ta84  1  0.29506159  0.50610539  0.38979989  1
  Ta  Ta85  1  0.59276779  0.39663346  0.74819218  1
  Ta  Ta86  1  0.12000018  0.68829997  0.87893312  1
  Ta  Ta87  1  0.49087415  0.50196777  0.61973230  1
  Ta  Ta88  1  0.20237088  0.39705223  0.75618646  1
  Ta  Ta89  1  0.30057817  0.49642081  0.61999879  1
  Ta  Ta90  1  0.40001380  0.00987188  0.50748035  1
  Ta  Ta91  1  0.79765590  0.01714708  0.50833448  1
  Ta  Ta92  1  0.59883573  0.79559523  0.51976276  1
  Ta  Ta93  1  0.23005987  0.77878708  -0.00467853  1
  Ta  Ta94  1  0.89771835  0.50653887  0.12298579  1
  Ta  Ta95  1  0.10877190  0.69664975  0.10777433  1
  Ta  Ta96  1  0.11020814  0.90598104  0.62680032  1
  Ta  Ta97  1  0.59771765  0.59947464  0.50743247  1
  Ta  Ta98  1  0.00973210  0.79385265  0.52382730  1
  Ta  Ta99  1  0.00740478  -0.00532652  0.76594843  1
  Ta  Ta100  1  0.39445407  0.19198285  0.23332905  1
  Ta  Ta101  1  0.49597556  0.09338299  0.86169923  1
  Ta  Ta102  1  0.88508835  0.29416802  0.36760672  1
  Ta  Ta103  1  0.20470099  0.59977449  0.24356870  1
  Ta  Ta104  1  0.50182465  0.90920278  0.62308287  1
  Ta  Ta105  1  0.49982264  0.50677370  0.86051874  1
  Ta  Ta106  1  0.19327397  0.59841709  0.51768699  1
  Ta  Ta107  1  0.59987197  0.19951495  0.75510203  1
  Ta  Ta108  1  0.00651180  0.19352724  -0.00398277  1
  Ta  Ta109  1  0.40493980  0.80202678  0.72585771  1
  Ta  Ta110  1  0.79884487  0.20283393  0.22978409  1
  Ta  Ta111  1  0.59127757  -0.00874951  0.25552430  1
  Ta  Ta112  1  0.81325096  0.79610624  0.24570621  1
  Ta  Ta113  1  0.49393309  0.70092127  0.40217456  1
  Ta  Ta114  1  0.30899591  0.69645284  0.61331584  1
  Ta  Ta115  1  0.30507538  0.91786375  0.39263856  1
  Ta  Ta116  1  0.59535089  0.39693549  0.24425286  1
  Ta  Ta117  1  0.11170245  0.09966908  0.87544930  1
  Ta  Ta118  1  0.68818633  0.91749437  0.61868776  1
  Ta  Ta119  1  0.79703851  0.59527359  0.51675173  1
  Ti  Ti120  1  0.79991001  -0.01018096  -0.01497153  1
  Ti  Ti121  1  0.00586172  -0.00452103  0.22314914  1
  Ti  Ti122  1  0.39476963  0.40052049  0.48673015  1
  Ti  Ti123  1  0.69634918  0.10209680  0.63232066  1
  Ti  Ti124  1  0.79097918  0.40136212  0.75654406  1
  Ti  Ti125  1  0.29918709  0.09910175  0.63529051  1
  Ti  Ti126  1  0.19561691  0.60012379  0.72920983  1
  Ti  Ti127  1  0.49583274  0.71376936  0.12647621  1
  Ti  Ti128  1  0.90388425  0.70034882  0.39319403  1
  Ti  Ti129  1  0.21094339  0.40116665  0.26055311  1
  Ti  Ti130  1  0.57911239  0.19026109  0.01563572  1
  Ti  Ti131  1  0.31344930  0.89402860  0.10915808  1
  Ti  Ti132  1  0.09567653  0.29419685  0.63993414  1
  Ti  Ti133  1  0.39302324  0.20269259  0.75156442  1
  Ti  Ti134  1  0.20968117  0.58978091  0.01167838  1
  Ti  Ti135  1  0.00945782  0.59604271  0.74838272  1
  Ti  Ti136  1  0.11456274  0.29112256  0.87451639  1
  Ti  Ti137  1  0.80740068  0.60982575  -0.00024873  1
  Ti  Ti138  1  0.30272964  0.90283632  0.60917071  1
  Ti  Ti139  1  0.79529919  0.59589137  0.73947930  1
  Ti  Ti140  1  0.89952006  0.10290947  0.37149210  1
  Ti  Ti141  1  0.20812995  0.19820899  0.00131512  1
  Ti  Ti142  1  0.70287657  0.28937755  0.63830157  1
  Ti  Ti143  1  0.11181468  0.50273511  0.87356542  1
  Ti  Ti144  1  0.49789795  0.90038281  0.39711053  1
  Ti  Ti145  1  0.79592262  0.20583487  0.49700893  1
  Ti  Ti146  1  0.30097888  0.30900752  0.11020378  1
  Ti  Ti147  1  0.50790455  0.90196743  0.12595634  1
  Ti  Ti148  1  0.59642665  -0.00585702  -0.01464925  1
  Ti  Ti149  1  0.80992080  0.39385048  0.50580755  1
  Ti  Ti150  1  0.48832589  0.49806362  0.13057233  1
  Ti  Ti151  1  0.89727320  0.09033694  0.10770210  1
  Ti  Ti152  1  0.78764727  0.39025910  0.23952128  1
  Ti  Ti153  1  0.59171284  0.60855088  0.72971560  1
  Ti  Ti154  1  0.21347824  -0.00366026  0.74913794  1
  Ti  Ti155  1  0.89371317  0.50879366  0.86391111  1
  Ti  Ti156  1  0.58690399  0.39636254  0.01491830  1
  Ti  Ti157  1  0.89842537  0.69280367  0.86242070  1
  Ti  Ti158  1  0.80563062  0.80322657  -0.01441951  1
  Ti  Ti159  1  0.68825708  0.10371483  0.88431181  1
  Mo  Mo160  1  0.30031548  0.70312548  0.13763790  1
  Mo  Mo161  1  0.20870694  0.00594399  0.51662601  1
  Mo  Mo162  1  0.20979003  0.00159085  0.00300337  1
  Mo  Mo163  1  0.49214472  0.30362039  0.11940426  1
  Mo  Mo164  1  0.29764417  0.30492610  0.37792390  1
  Mo  Mo165  1  0.40153603  0.60174088  0.72514584  1
  Mo  Mo166  1  0.20492121  0.40129867  -0.02009755  1
  Mo  Mo167  1  0.89793541  0.70139994  0.11070670  1
  Mo  Mo168  1  0.50133422  0.70185257  0.62156879  1
  Mo  Mo169  1  0.59809649  -0.00088602  0.48551449  1
  Mo  Mo170  1  0.29653906  0.49804408  0.13514391  1
  Mo  Mo171  1  0.39905965  0.59434948  0.50125754  1
  Mo  Mo172  1  0.41145051  0.80367088  0.00769157  1
  Mo  Mo173  1  0.40365281  0.80841199  0.51031274  1
  Mo  Mo174  1  0.30034177  0.70319255  0.85446201  1
  Mo  Mo175  1  -0.00833108  0.39081479  0.51812768  1
  Mo  Mo176  1  0.10405840  0.69833885  0.63082120  1
  Mo  Mo177  1  0.90062345  0.89842962  0.86703678  1
  Mo  Mo178  1  0.89554914  0.49467450  0.63850431  1
  Mo  Mo179  1  0.29646262  0.30074900  0.88286001  1
  Mo  Mo180  1  0.71106164  0.30363284  0.36441700  1
  Mo  Mo181  1  0.40184240  0.20480851  0.01481444  1
  Mo  Mo182  1  0.20814402  0.20547871  0.76158991  1
  Mo  Mo183  1  0.69572955  0.69967475  0.63290030  1
  Mo  Mo184  1  0.59997423  0.00009535  0.76413194  1
  Mo  Mo185  1  0.10150590  0.10081281  0.10218401  1
  Mo  Mo186  1  0.50138360  0.90454381  0.85537951  1
  Mo  Mo187  1  0.50094492  0.09360900  0.13860607  1
  Mo  Mo188  1  0.20061547  0.80177092  0.51946501  1
  Mo  Mo189  1  0.39696049  0.00015457  0.73178738  1
  Mo  Mo190  1  0.01017925  0.20017563  0.77361391  1
  Mo  Mo191  1  0.77981523  0.20154494  0.76152837  1
  Mo  Mo192  1  0.10571473  0.49079361  0.63919463  1
  Mo  Mo193  1  0.30611609  0.09423330  0.37213050  1
  Mo  Mo194  1  0.89331199  0.89896304  0.11059052  1
  Mo  Mo195  1  0.69159509  0.29826216  0.11112143  1
  Mo  Mo196  1  0.69526300  0.89860976  0.89018503  1
  Mo  Mo197  1  0.40396266  -0.00225002  0.23752163  1
  Mo  Mo198  1  0.49519009  0.50141582  0.38994166  1
  Mo  Mo199  1  0.30069243  0.10577822  0.10553667  1
