# generated using pymatgen
data_HfZrTaTiMo
_symmetry_space_group_name_H-M   'P 1'
_cell_length_a   15.83795595
_cell_length_b   15.83313257
_cell_length_c   15.42260120
_cell_angle_alpha   89.97122982
_cell_angle_beta   90.02629925
_cell_angle_gamma   90.11931285
_symmetry_Int_Tables_number   1
_chemical_formula_structural   HfZrTaTiMo
_chemical_formula_sum   'Hf40 Zr40 Ta40 Ti40 Mo40'
_cell_volume   3867.43092406
_cell_formula_units_Z   40
loop_
 _symmetry_equiv_pos_site_id
 _symmetry_equiv_pos_as_xyz
  1  'x, y, z'
loop_
 _atom_site_type_symbol
 _atom_site_label
 _atom_site_symmetry_multiplicity
 _atom_site_fract_x
 _atom_site_fract_y
 _atom_site_fract_z
 _atom_site_occupancy
  Hf  Hf0  1  0.50269255  0.90892795  0.62458697  1
  Hf  Hf1  1  0.50876077  0.10082142  0.63471862  1
  Hf  Hf2  1  0.91173217  0.09610691  0.60469941  1
  Hf  Hf3  1  0.30600856  0.30238899  0.11514827  1
  Hf  Hf4  1  0.49412064  0.50323880  0.37726981  1
  Hf  Hf5  1  0.20307005  0.00544925  0.24765076  1
  Hf  Hf6  1  0.78572888  0.40244036  -0.00505835  1
  Hf  Hf7  1  0.19502055  0.58773931  0.23015100  1
  Hf  Hf8  1  0.59930583  0.80766411  0.77106383  1
  Hf  Hf9  1  -0.00918776  0.79255026  0.03373237  1
  Hf  Hf10  1  0.39447182  0.39660747  0.74315072  1
  Hf  Hf11  1  0.00685275  -0.00360166  0.74900818  1
  Hf  Hf12  1  -0.01603663  0.60218512  0.72637457  1
  Hf  Hf13  1  0.89534604  0.69227322  0.87432959  1
  Hf  Hf14  1  -0.01290435  0.40159048  0.00300662  1
  Hf  Hf15  1  0.50251077  0.90675251  0.36772951  1
  Hf  Hf16  1  0.68141026  0.49415188  0.85303796  1
  Hf  Hf17  1  0.69043247  0.69531236  0.12180606  1
  Hf  Hf18  1  0.81351655  0.79208560  0.73966099  1
  Hf  Hf19  1  0.30045822  0.90804050  0.88426954  1
  Hf  Hf20  1  0.52629786  0.30957981  0.86255450  1
  Hf  Hf21  1  0.19358017  0.40311268  -0.00298781  1
  Hf  Hf22  1  0.20452682  0.00626290  0.75425359  1
  Hf  Hf23  1  0.29756660  0.30165610  0.37883953  1
  Hf  Hf24  1  0.70414939  0.50549625  0.37944408  1
  Hf  Hf25  1  -0.00124474  0.60203317  0.23450784  1
  Hf  Hf26  1  0.60236200  0.61069507  0.50383112  1
  Hf  Hf27  1  0.40963131  0.80243822  -0.00135418  1
  Hf  Hf28  1  0.19922038  0.79460772  0.01931421  1
  Hf  Hf29  1  0.40000489  0.20314105  0.51507387  1
  Hf  Hf30  1  0.08609984  0.29311611  0.88199241  1
  Hf  Hf31  1  0.89600368  0.69413495  0.37805948  1
  Hf  Hf32  1  0.50185248  0.30451421  0.12573461  1
  Hf  Hf33  1  0.69575064  0.30595845  0.12743283  1
  Hf  Hf34  1  0.18971116  0.18001562  0.50054903  1
  Hf  Hf35  1  0.77758898  0.37698031  0.73843428  1
  Hf  Hf36  1  0.51288483  0.10538919  0.86209212  1
  Hf  Hf37  1  0.19838496  0.80603395  0.73437796  1
  Hf  Hf38  1  0.51434944  0.50253811  0.13151091  1
  Hf  Hf39  1  0.50351924  0.70123035  0.12673893  1
  Zr  Zr40  1  0.40919993  0.00751208  0.00316212  1
  Zr  Zr41  1  0.81296079  0.00039400  0.74801746  1
  Zr  Zr42  1  0.29283506  0.50647931  0.87332172  1
  Zr  Zr43  1  0.10036999  0.89806438  0.37258437  1
  Zr  Zr44  1  0.41042761  0.79750557  0.49330425  1
  Zr  Zr45  1  0.49611877  0.30434354  0.37022439  1
  Zr  Zr46  1  0.18487494  0.39935039  0.75290151  1
  Zr  Zr47  1  0.88931063  0.28772682  0.87116600  1
  Zr  Zr48  1  0.29513588  0.70366835  0.87342611  1
  Zr  Zr49  1  0.70971713  0.12165221  0.86364711  1
  Zr  Zr50  1  0.60492300  0.40145774  0.51462076  1
  Zr  Zr51  1  0.11239838  0.49369455  0.40358988  1
  Zr  Zr52  1  0.08872107  0.70325182  0.86988474  1
  Zr  Zr53  1  0.09762716  0.69353876  0.38274608  1
  Zr  Zr54  1  0.29684060  0.49464575  0.39016270  1
  Zr  Zr55  1  -0.00383191  0.59395728  0.01665802  1
  Zr  Zr56  1  0.27758977  0.49665212  0.61021239  1
  Zr  Zr57  1  0.39142720  0.60379253  0.24189726  1
  Zr  Zr58  1  0.20044296  0.19954950  0.74726571  1
  Zr  Zr59  1  0.18488236  0.60508276  0.73149627  1
  Zr  Zr60  1  0.00421583  0.20129496  0.25726326  1
  Zr  Zr61  1  0.89427382  0.09033730  0.36623114  1
  Zr  Zr62  1  0.79526533  0.59304159  0.00904435  1
  Zr  Zr63  1  0.60882066  0.80000084  0.26280863  1
  Zr  Zr64  1  0.40566303  0.19923337  -0.01105654  1
  Zr  Zr65  1  0.08808770  0.30516850  0.61769474  1
  Zr  Zr66  1  0.50640060  0.71193155  0.63654150  1
  Zr  Zr67  1  0.09786620  0.89706837  0.89028033  1
  Zr  Zr68  1  0.09940992  0.09814147  0.89682436  1
  Zr  Zr69  1  0.29777083  0.69201913  0.38509093  1
  Zr  Zr70  1  0.70984047  0.90556213  0.88680276  1
  Zr  Zr71  1  0.80044164  0.19337651  0.01948015  1
  Zr  Zr72  1  0.20077269  0.79102581  0.23855525  1
  Zr  Zr73  1  0.49976437  0.10625880  0.36621016  1
  Zr  Zr74  1  0.89720627  0.49570279  0.37916029  1
  Zr  Zr75  1  0.10321869  0.91873803  0.60424939  1
  Zr  Zr76  1  0.90651903  0.89243983  0.88572005  1
  Zr  Zr77  1  0.00883327  0.40233483  0.25050310  1
  Zr  Zr78  1  0.70134307  0.89994490  0.62209938  1
  Zr  Zr79  1  0.71234013  0.10729800  0.62068030  1
  Ta  Ta80  1  0.90845868  0.09713390  0.89000930  1
  Ta  Ta81  1  0.41613864  0.41184877  -0.01663159  1
  Ta  Ta82  1  -0.00542866  0.59441084  0.51893589  1
  Ta  Ta83  1  0.79154887  0.60275219  0.24407869  1
  Ta  Ta84  1  0.51007524  0.10171363  0.13569024  1
  Ta  Ta85  1  0.70727772  0.30163139  0.38091716  1
  Ta  Ta86  1  0.61204279  0.80342658  0.48489331  1
  Ta  Ta87  1  0.30846908  0.90509045  0.61668026  1
  Ta  Ta88  1  -0.00405784  0.19084845  0.74411976  1
  Ta  Ta89  1  0.50574277  0.50621916  0.64008746  1
  Ta  Ta90  1  0.20705567  0.19354332  0.00782362  1
  Ta  Ta91  1  0.39793804  0.80397497  0.24493028  1
  Ta  Ta92  1  0.30810640  0.49530651  0.10986218  1
  Ta  Ta93  1  0.40212348  0.60153373  -0.00121089  1
  Ta  Ta94  1  0.40041579  0.00146368  0.24205972  1
  Ta  Ta95  1  0.89796402  0.29881161  0.13454684  1
  Ta  Ta96  1  0.60852375  0.20240541  0.25445770  1
  Ta  Ta97  1  0.39748971  0.20130060  0.74742942  1
  Ta  Ta98  1  0.20064038  0.39638248  0.23551843  1
  Ta  Ta99  1  0.60486352  0.00350205  0.49021164  1
  Ta  Ta100  1  0.20606692  0.80019254  0.50836104  1
  Ta  Ta101  1  0.09961059  0.10208224  0.12606650  1
  Ta  Ta102  1  0.60649466  0.40246093  0.25892233  1
  Ta  Ta103  1  0.70240961  0.69320256  0.87357271  1
  Ta  Ta104  1  0.59968206  0.80197530  -0.01115875  1
  Ta  Ta105  1  0.30773608  0.90290363  0.12412745  1
  Ta  Ta106  1  0.80157139  0.00020603  0.02252974  1
  Ta  Ta107  1  0.30104069  0.08981118  0.62485184  1
  Ta  Ta108  1  0.20289585  0.20325604  0.24104285  1
  Ta  Ta109  1  0.40153114  0.60026026  0.51991188  1
  Ta  Ta110  1  0.60371130  0.20250785  0.49982110  1
  Ta  Ta111  1  -0.00809177  -0.00050534  0.02482314  1
  Ta  Ta112  1  0.39979795  0.00603989  0.49417062  1
  Ta  Ta113  1  0.19410849  0.60148665  0.01608205  1
  Ta  Ta114  1  0.30240016  0.90218418  0.37614030  1
  Ta  Ta115  1  0.79977363  0.59771397  0.52381061  1
  Ta  Ta116  1  0.80111275  0.80825618  0.25838556  1
  Ta  Ta117  1  0.40372024  0.39616925  0.52333488  1
  Ta  Ta118  1  0.79594902  0.79579468  0.49108651  1
  Ta  Ta119  1  0.39258681  0.60631255  0.73871971  1
  Ti  Ti120  1  0.40186955  0.00029952  0.75945541  1
  Ti  Ti121  1  0.60463578  0.19765811  0.00855571  1
  Ti  Ti122  1  0.59327459  0.58842091  -0.01434933  1
  Ti  Ti123  1  0.61498854  0.00315287  0.25183948  1
  Ti  Ti124  1  0.89812151  0.09763426  0.13962779  1
  Ti  Ti125  1  0.89483885  0.29003386  0.62628482  1
  Ti  Ti126  1  0.09939663  0.90499952  0.13038591  1
  Ti  Ti127  1  0.09561209  0.29613345  0.11524496  1
  Ti  Ti128  1  0.90869206  0.89527701  0.61316550  1
  Ti  Ti129  1  0.00045970  0.20008860  0.48046828  1
  Ti  Ti130  1  0.89019618  0.49427720  0.85183225  1
  Ti  Ti131  1  0.80425400  -0.01442027  0.48677458  1
  Ti  Ti132  1  0.01793168  0.01509174  0.47766771  1
  Ti  Ti133  1  -0.01437865  0.38831457  0.49256233  1
  Ti  Ti134  1  0.50254993  0.69463976  0.36720884  1
  Ti  Ti135  1  0.51027933  0.90288693  0.13068771  1
  Ti  Ti136  1  0.39424716  0.40324729  0.24636717  1
  Ti  Ti137  1  0.69866892  0.90164890  0.12426091  1
  Ti  Ti138  1  0.81013417  0.21032707  0.48584973  1
  Ti  Ti139  1  0.80010555  0.79901137  0.01672934  1
  Ti  Ti140  1  -0.00802290  0.80011980  0.24414339  1
  Ti  Ti141  1  0.10687356  0.30088765  0.37783361  1
  Ti  Ti142  1  0.60781469  -0.00099217  0.75598434  1
  Ti  Ti143  1  0.49996465  0.69031021  0.86921224  1
  Ti  Ti144  1  0.20835483  0.00694149  0.01586407  1
  Ti  Ti145  1  0.89332800  0.47985282  0.62904913  1
  Ti  Ti146  1  0.07982127  0.50326791  0.86934375  1
  Ti  Ti147  1  0.39864085  0.80796033  0.75664771  1
  Ti  Ti148  1  0.60465418  0.00341659  0.00264818  1
  Ti  Ti149  1  0.79441339  0.19773639  0.25087216  1
  Ti  Ti150  1  0.79838080  0.39475440  0.25468137  1
  Ti  Ti151  1  0.08749516  0.71347401  0.61485239  1
  Ti  Ti152  1  0.70007039  0.69434880  0.64055185  1
  Ti  Ti153  1  0.30065642  0.29705544  0.88071454  1
  Ti  Ti154  1  0.30002930  0.10033009  0.37110617  1
  Ti  Ti155  1  0.39486047  0.19637668  0.24135458  1
  Ti  Ti156  1  -0.00877239  0.80545295  0.49341177  1
  Ti  Ti157  1  0.88603922  0.49123045  0.13658506  1
  Ti  Ti158  1  -0.00523853  -0.00845750  0.24757472  1
  Ti  Ti159  1  0.70343997  0.09883844  0.37562357  1
  Mo  Mo160  1  0.88761233  0.70176804  0.14288385  1
  Mo  Mo161  1  0.19955962  0.37701254  0.50774077  1
  Mo  Mo162  1  -0.00217111  0.19593257  0.02331387  1
  Mo  Mo163  1  0.69409353  0.29794642  0.88636937  1
  Mo  Mo164  1  0.81266308  0.19352724  0.74172965  1
  Mo  Mo165  1  0.70614957  0.90809234  0.37925376  1
  Mo  Mo166  1  0.60299735  0.60010146  0.26619263  1
  Mo  Mo167  1  0.09650153  0.69979726  0.13486179  1
  Mo  Mo168  1  0.10046096  0.49053152  0.11730690  1
  Mo  Mo169  1  0.70003824  0.50570052  0.63273124  1
  Mo  Mo170  1  0.59659936  0.39942182  0.72731377  1
  Mo  Mo171  1  0.59762388  0.40726019  0.00472412  1
  Mo  Mo172  1  0.10407911  0.10214549  0.35285163  1
  Mo  Mo173  1  0.50467290  0.29674856  0.63506525  1
  Mo  Mo174  1  0.69745080  0.49764000  0.14188448  1
  Mo  Mo175  1  0.59530681  0.60602743  0.75732961  1
  Mo  Mo176  1  0.30479133  0.10289339  0.13358211  1
  Mo  Mo177  1  0.30523088  0.10599037  0.86495442  1
  Mo  Mo178  1  0.19266963  0.61595224  0.52044496  1
  Mo  Mo179  1  0.49287836  0.50813508  0.85723067  1
  Mo  Mo180  1  0.80497087  0.39729061  0.50897084  1
  Mo  Mo181  1  0.70861468  0.29685754  0.60016061  1
  Mo  Mo182  1  0.70529473  0.69773868  0.37774475  1
  Mo  Mo183  1  0.79452204  -0.00197893  0.24173624  1
  Mo  Mo184  1  0.21175047  -0.00036161  0.48435384  1
  Mo  Mo185  1  0.89695493  0.70871070  0.60746070  1
  Mo  Mo186  1  0.09629418  0.10163301  0.62149442  1
  Mo  Mo187  1  -0.01264163  0.39825129  0.75389740  1
  Mo  Mo188  1  0.90311744  0.89604653  0.37099296  1
  Mo  Mo189  1  0.30538466  0.69890490  0.11524184  1
  Mo  Mo190  1  -0.00046482  0.80147580  0.73023530  1
  Mo  Mo191  1  0.69456597  0.09701758  0.13614443  1
  Mo  Mo192  1  0.79589897  0.59522316  0.73535776  1
  Mo  Mo193  1  0.30238503  0.70797867  0.62417172  1
  Mo  Mo194  1  0.89434918  0.29885891  0.36668607  1
  Mo  Mo195  1  0.89369187  0.90294265  0.14172855  1
  Mo  Mo196  1  0.29983822  0.29257333  0.62118608  1
  Mo  Mo197  1  0.61695167  0.21797715  0.72754186  1
  Mo  Mo198  1  0.50435164  0.90484250  0.87437634  1
  Mo  Mo199  1  0.08121021  0.49325805  0.61386012  1
