# generated using pymatgen
data_HfZrTaTiMo
_symmetry_space_group_name_H-M   'P 1'
_cell_length_a   15.84512821
_cell_length_b   15.82775980
_cell_length_c   15.39398844
_cell_angle_alpha   90.02649163
_cell_angle_beta   90.06637047
_cell_angle_gamma   90.19227547
_symmetry_Int_Tables_number   1
_chemical_formula_structural   HfZrTaTiMo
_chemical_formula_sum   'Hf40 Zr40 Ta40 Ti40 Mo40'
_cell_volume   3860.67799635
_cell_formula_units_Z   40
loop_
 _symmetry_equiv_pos_site_id
 _symmetry_equiv_pos_as_xyz
  1  'x, y, z'
loop_
 _atom_site_type_symbol
 _atom_site_label
 _atom_site_symmetry_multiplicity
 _atom_site_fract_x
 _atom_site_fract_y
 _atom_site_fract_z
 _atom_site_occupancy
  Hf  Hf0  1  0.20776503  0.39686032  0.23581670  1
  Hf  Hf1  1  0.08567610  0.69464527  0.13164977  1
  Hf  Hf2  1  0.19835878  0.79675154  0.50529040  1
  Hf  Hf3  1  0.90098708  0.10549603  0.11467138  1
  Hf  Hf4  1  0.19868627  0.59966300  0.49732458  1
  Hf  Hf5  1  0.51708629  0.70229866  0.36923120  1
  Hf  Hf6  1  0.19965290  0.39815926  -0.00126173  1
  Hf  Hf7  1  0.39577963  0.59540062  0.25044840  1
  Hf  Hf8  1  0.29403615  0.90685791  0.85907641  1
  Hf  Hf9  1  0.29986112  0.10043191  0.86532082  1
  Hf  Hf10  1  -0.00867361  0.20742329  0.50153738  1
  Hf  Hf11  1  0.89306471  0.30850350  0.35952672  1
  Hf  Hf12  1  0.31725853  0.29412942  0.39145327  1
  Hf  Hf13  1  0.00896903  0.19655148  0.26740501  1
  Hf  Hf14  1  0.40051381  0.80118280  0.73469162  1
  Hf  Hf15  1  0.29284558  0.48987910  0.37962093  1
  Hf  Hf16  1  0.76822144  0.59757290  0.23149750  1
  Hf  Hf17  1  0.81190084  -0.00602164  0.75718066  1
  Hf  Hf18  1  0.70283949  0.68574012  0.63317284  1
  Hf  Hf19  1  0.30464515  0.10863849  0.62955245  1
  Hf  Hf20  1  0.08858680  0.70861428  0.87170754  1
  Hf  Hf21  1  0.20032995  0.19622735  0.25856227  1
  Hf  Hf22  1  0.69095315  0.68635209  0.87518379  1
  Hf  Hf23  1  0.51989293  0.89603545  0.61184333  1
  Hf  Hf24  1  0.50631437  0.09945553  0.88074816  1
  Hf  Hf25  1  0.70038954  0.10064752  0.62332035  1
  Hf  Hf26  1  0.80183588  -0.00016014  0.25911789  1
  Hf  Hf27  1  0.29977207  0.70440110  0.87042650  1
  Hf  Hf28  1  0.88644826  0.50480957  0.61828873  1
  Hf  Hf29  1  0.10483029  0.31286887  0.62711979  1
  Hf  Hf30  1  0.61305080  0.40881397  0.25632633  1
  Hf  Hf31  1  0.71696235  0.89621337  0.61661981  1
  Hf  Hf32  1  0.00881993  -0.00149950  -0.00716461  1
  Hf  Hf33  1  0.19540131  0.59553196  -0.00332622  1
  Hf  Hf34  1  0.80591302  0.59932514  0.00232668  1
  Hf  Hf35  1  0.30589152  0.49575888  0.86263101  1
  Hf  Hf36  1  0.39817055  -0.00501374  0.00405940  1
  Hf  Hf37  1  0.78243652  0.20024803  -0.00790149  1
  Hf  Hf38  1  0.91065436  0.10826676  0.87740222  1
  Hf  Hf39  1  0.90262413  0.90006380  0.11447383  1
  Zr  Zr40  1  0.51561283  0.29838491  0.11244689  1
  Zr  Zr41  1  0.20170156  0.20629810  0.51039106  1
  Zr  Zr42  1  0.40445926  0.20189802  0.24479512  1
  Zr  Zr43  1  0.19154986  0.00370630  0.25933901  1
  Zr  Zr44  1  0.08452205  0.70244914  0.63283062  1
  Zr  Zr45  1  0.20209533  0.20894080  0.74883931  1
  Zr  Zr46  1  0.30884903  0.29800694  0.11265407  1
  Zr  Zr47  1  0.89735161  0.90120142  0.39982985  1
  Zr  Zr48  1  0.50320529  0.90057621  0.13673662  1
  Zr  Zr49  1  0.69552427  0.89822270  0.86893196  1
  Zr  Zr50  1  0.28943532  0.69779175  0.13872889  1
  Zr  Zr51  1  0.59948955  0.40407775  0.48495721  1
  Zr  Zr52  1  0.69486865  0.87809618  0.38855941  1
  Zr  Zr53  1  0.19338202  0.80727401  0.00236374  1
  Zr  Zr54  1  0.88593979  0.69918064  0.36009585  1
  Zr  Zr55  1  0.60018349  0.79825024  0.00703093  1
  Zr  Zr56  1  0.90392899  0.29927037  0.13037991  1
  Zr  Zr57  1  0.40647751  0.59738425  0.50181402  1
  Zr  Zr58  1  0.39736758  -0.00406807  0.51071744  1
  Zr  Zr59  1  -0.00252108  0.00597088  0.25767057  1
  Zr  Zr60  1  0.49934358  0.89381908  0.37609079  1
  Zr  Zr61  1  0.58934641  0.78174335  0.74880666  1
  Zr  Zr62  1  0.09496432  0.90365481  0.85754239  1
  Zr  Zr63  1  0.39273008  0.79213654  0.50525933  1
  Zr  Zr64  1  0.39194260  0.00451446  0.25135587  1
  Zr  Zr65  1  0.10196595  0.50514982  0.62912690  1
  Zr  Zr66  1  -0.01543868  0.40717215  0.74795974  1
  Zr  Zr67  1  -0.00159149  0.40747713  0.48928677  1
  Zr  Zr68  1  0.39806632  0.79517971  0.00719593  1
  Zr  Zr69  1  0.60468164  0.00405354  0.25711541  1
  Zr  Zr70  1  0.41107928  0.00290168  0.73703461  1
  Zr  Zr71  1  0.41913986  0.61067638  0.75054053  1
  Zr  Zr72  1  -0.00957582  0.60567881  0.48388412  1
  Zr  Zr73  1  0.02038395  0.41495127  0.25055941  1
  Zr  Zr74  1  0.70812090  0.47982818  0.87906259  1
  Zr  Zr75  1  0.08986866  0.29751835  0.87268332  1
  Zr  Zr76  1  0.88978537  0.31134038  0.88147682  1
  Zr  Zr77  1  0.70159532  0.29938074  0.63414397  1
  Zr  Zr78  1  0.69471453  0.49488074  0.64119480  1
  Zr  Zr79  1  0.49310656  0.11373307  0.38564124  1
  Ta  Ta80  1  0.60118124  0.59463876  0.01568624  1
  Ta  Ta81  1  0.81224336  0.59247682  0.77080082  1
  Ta  Ta82  1  0.60443357  0.21072393  0.48453877  1
  Ta  Ta83  1  0.69420643  0.10627160  0.13025416  1
  Ta  Ta84  1  0.19638327  0.60151109  0.75554203  1
  Ta  Ta85  1  0.29579858  0.10162110  0.11227282  1
  Ta  Ta86  1  0.10084101  0.09872219  0.85536202  1
  Ta  Ta87  1  0.79359755  0.40237869  0.48537022  1
  Ta  Ta88  1  0.28851449  0.90308558  0.13543112  1
  Ta  Ta89  1  0.80801741  0.79252351  0.76080784  1
  Ta  Ta90  1  0.79669739  0.19444443  0.25769946  1
  Ta  Ta91  1  0.09254450  0.89597967  0.39465674  1
  Ta  Ta92  1  0.41973355  0.21681699  0.75176861  1
  Ta  Ta93  1  0.09395629  0.09633330  0.62690294  1
  Ta  Ta94  1  0.19679594  0.19385012  -0.01174052  1
  Ta  Ta95  1  -0.01382425  0.20100180  0.72775983  1
  Ta  Ta96  1  -0.00274632  0.80713271  0.25304894  1
  Ta  Ta97  1  0.40978147  0.40011790  0.25355556  1
  Ta  Ta98  1  0.79516973  0.80175988  0.23552039  1
  Ta  Ta99  1  0.60753597  0.00710962  0.49429476  1
  Ta  Ta100  1  0.49827745  0.89724047  0.87481430  1
  Ta  Ta101  1  0.09756875  0.89879952  0.12679866  1
  Ta  Ta102  1  0.50679938  0.10620615  0.11523042  1
  Ta  Ta103  1  0.08406909  0.90048060  0.61846709  1
  Ta  Ta104  1  0.50256210  0.49356695  0.63912905  1
  Ta  Ta105  1  0.80918966  0.79826459  -0.00937394  1
  Ta  Ta106  1  0.90771019  0.50959922  0.13582447  1
  Ta  Ta107  1  0.58639320  0.38462091  0.76938576  1
  Ta  Ta108  1  0.60873844  0.00735043  -0.00108391  1
  Ta  Ta109  1  0.30237677  0.49525333  0.63751208  1
  Ta  Ta110  1  0.79590075  0.00215511  -0.01221255  1
  Ta  Ta111  1  0.89104728  0.09329043  0.60911614  1
  Ta  Ta112  1  0.50917501  0.50351823  0.88294792  1
  Ta  Ta113  1  0.29655660  0.09932297  0.39666275  1
  Ta  Ta114  1  0.09589288  0.09197954  0.40392120  1
  Ta  Ta115  1  0.31394862  0.31651233  0.63203808  1
  Ta  Ta116  1  0.49983259  0.49394036  0.12013970  1
  Ta  Ta117  1  0.00267009  0.41234162  0.00969896  1
  Ta  Ta118  1  0.70186994  0.29592736  0.13774821  1
  Ta  Ta119  1  0.20012272  -0.00682264  0.51380069  1
  Ti  Ti120  1  0.89991894  0.70194995  0.13134942  1
  Ti  Ti121  1  0.51155930  0.11278221  0.61954733  1
  Ti  Ti122  1  0.60526308  0.19838569  0.76679897  1
  Ti  Ti123  1  0.41003338  0.40343141  0.49960598  1
  Ti  Ti124  1  0.09587029  0.49874316  0.86882087  1
  Ti  Ti125  1  0.29492891  0.69034403  0.63259374  1
  Ti  Ti126  1  0.29158439  0.90019162  0.37310111  1
  Ti  Ti127  1  0.60406083  0.00193183  0.74987076  1
  Ti  Ti128  1  0.09887545  0.29005033  0.11479055  1
  Ti  Ti129  1  -0.00814529  -0.00035782  0.73732837  1
  Ti  Ti130  1  -0.00463120  0.60110072  -0.00698029  1
  Ti  Ti131  1  0.70556037  0.90493139  0.11788034  1
  Ti  Ti132  1  0.60953072  0.59892180  0.49592707  1
  Ti  Ti133  1  0.79761072  0.20698503  0.48909190  1
  Ti  Ti134  1  0.40091118  0.20031273  -0.00982373  1
  Ti  Ti135  1  0.62008749  0.77978640  0.23232687  1
  Ti  Ti136  1  0.70395632  0.10442474  0.37954010  1
  Ti  Ti137  1  0.29271808  0.69966765  0.36546677  1
  Ti  Ti138  1  0.19036626  0.80422619  0.25804029  1
  Ti  Ti139  1  0.30775458  0.30440923  0.86663632  1
  Ti  Ti140  1  0.50551710  0.30231038  0.62075604  1
  Ti  Ti141  1  0.30670499  0.49899040  0.11907263  1
  Ti  Ti142  1  0.80138467  0.40181713  0.01941074  1
  Ti  Ti143  1  0.18044056  0.58502943  0.25457059  1
  Ti  Ti144  1  0.19889392  0.00252852  0.00042106  1
  Ti  Ti145  1  0.40803412  0.40127675  -0.01106033  1
  Ti  Ti146  1  0.88702477  0.50511747  0.35517171  1
  Ti  Ti147  1  0.10159982  0.10376978  0.11664803  1
  Ti  Ti148  1  0.40382574  0.60140126  0.00052073  1
  Ti  Ti149  1  0.89479090  0.69906829  0.62806864  1
  Ti  Ti150  1  0.49971848  0.69315557  0.13362276  1
  Ti  Ti151  1  -0.01120140  0.60360755  0.76265107  1
  Ti  Ti152  1  -0.02129362  0.81045734  0.74670404  1
  Ti  Ti153  1  0.09205469  0.70160820  0.36704743  1
  Ti  Ti154  1  0.80233680  0.20156394  0.75201381  1
  Ti  Ti155  1  0.50526965  0.50661800  0.36509329  1
  Ti  Ti156  1  0.11778044  0.31535263  0.38750348  1
  Ti  Ti157  1  0.39218119  0.80012114  0.25170311  1
  Ti  Ti158  1  0.80020758  0.77546869  0.50393822  1
  Ti  Ti159  1  0.19649278  0.80347193  0.73469229  1
  Mo  Mo160  1  0.60473802  0.19517718  -0.01021241  1
  Mo  Mo161  1  0.50155179  0.30759217  0.37741990  1
  Mo  Mo162  1  0.90256757  0.89812268  0.88601115  1
  Mo  Mo163  1  0.19336550  -0.00023114  0.72829011  1
  Mo  Mo164  1  0.70244348  0.09717359  0.85935395  1
  Mo  Mo165  1  0.49787882  0.69329746  0.89485353  1
  Mo  Mo166  1  0.80022943  0.39230897  0.74590293  1
  Mo  Mo167  1  0.60637981  0.39316976  -0.00463825  1
  Mo  Mo168  1  0.69595336  0.48805634  0.10691022  1
  Mo  Mo169  1  -0.00536745  0.79626985  0.00923179  1
  Mo  Mo170  1  0.59240038  0.59844202  0.23094259  1
  Mo  Mo171  1  -0.00312223  0.60468035  0.25641871  1
  Mo  Mo172  1  0.01060646  0.20201332  0.00029227  1
  Mo  Mo173  1  0.28829436  0.89816445  0.63615628  1
  Mo  Mo174  1  0.21252896  0.40609780  0.51024205  1
  Mo  Mo175  1  0.40805705  0.39889655  0.75804968  1
  Mo  Mo176  1  0.60224459  0.58780363  0.75822730  1
  Mo  Mo177  1  0.69922180  0.29420776  0.86489004  1
  Mo  Mo178  1  0.88747071  0.29887373  0.61895167  1
  Mo  Mo179  1  0.50898189  0.68978195  0.60631752  1
  Mo  Mo180  1  0.89748029  0.89022727  0.61284023  1
  Mo  Mo181  1  0.70517777  0.70499863  0.10561272  1
  Mo  Mo182  1  -0.00338689  0.00122640  0.51247461  1
  Mo  Mo183  1  0.41118056  0.20828984  0.52449035  1
  Mo  Mo184  1  0.60530236  0.78709859  0.51127955  1
  Mo  Mo185  1  0.89438371  0.10540991  0.39098708  1
  Mo  Mo186  1  0.60703223  0.20305010  0.26511999  1
  Mo  Mo187  1  -0.00492152  0.79504594  0.50169505  1
  Mo  Mo188  1  0.10527035  0.50263506  0.38036168  1
  Mo  Mo189  1  0.50117278  0.29918406  0.89357967  1
  Mo  Mo190  1  0.90190535  0.70178833  0.87345447  1
  Mo  Mo191  1  0.79454781  0.01000246  0.49142484  1
  Mo  Mo192  1  0.70318111  0.29953500  0.36166609  1
  Mo  Mo193  1  0.90607501  0.50092719  0.89039278  1
  Mo  Mo194  1  0.10201323  0.50489785  0.11243460  1
  Mo  Mo195  1  0.70378560  0.50752207  0.37577080  1
  Mo  Mo196  1  0.79186328  0.59091115  0.48962600  1
  Mo  Mo197  1  0.69714927  0.69354525  0.37698437  1
  Mo  Mo198  1  0.80268841  0.40342149  0.23874519  1
  Mo  Mo199  1  0.20413102  0.40755818  0.75684376  1
