# generated using pymatgen
data_HfZrTaTiMo
_symmetry_space_group_name_H-M   'P 1'
_cell_length_a   15.82356278
_cell_length_b   15.84304857
_cell_length_c   15.37099383
_cell_angle_alpha   90.01794335
_cell_angle_beta   90.03523102
_cell_angle_gamma   89.92130158
_symmetry_Int_Tables_number   1
_chemical_formula_structural   HfZrTaTiMo
_chemical_formula_sum   'Hf40 Zr40 Ta40 Ti40 Mo40'
_cell_volume   3853.40328520
_cell_formula_units_Z   40
loop_
 _symmetry_equiv_pos_site_id
 _symmetry_equiv_pos_as_xyz
  1  'x, y, z'
loop_
 _atom_site_type_symbol
 _atom_site_label
 _atom_site_symmetry_multiplicity
 _atom_site_fract_x
 _atom_site_fract_y
 _atom_site_fract_z
 _atom_site_occupancy
  Hf  Hf0  1  0.69918290  0.09477376  0.62176421  1
  Hf  Hf1  1  0.60093834  0.81236878  0.25264304  1
  Hf  Hf2  1  0.00583097  -0.00123911  0.74184840  1
  Hf  Hf3  1  -0.00184789  0.19272730  0.73259011  1
  Hf  Hf4  1  0.40251149  0.80781169  0.51278663  1
  Hf  Hf5  1  0.29345655  0.90745894  0.62946645  1
  Hf  Hf6  1  0.09275549  0.51289511  0.35974710  1
  Hf  Hf7  1  0.70218601  0.49524199  0.62988102  1
  Hf  Hf8  1  0.29429968  0.69672316  0.88400579  1
  Hf  Hf9  1  0.30695847  0.90446860  0.12390650  1
  Hf  Hf10  1  0.81046223  0.80273010  0.74856240  1
  Hf  Hf11  1  0.50678734  0.69245655  0.87481279  1
  Hf  Hf12  1  -0.00271658  0.20742707  0.01391152  1
  Hf  Hf13  1  0.10541183  0.89947323  0.60527542  1
  Hf  Hf14  1  0.61412459  0.79669878  0.74837602  1
  Hf  Hf15  1  0.48832292  0.71502279  0.36869165  1
  Hf  Hf16  1  -0.00288651  0.80817965  0.01450005  1
  Hf  Hf17  1  0.59548508  0.38659879  -0.01859747  1
  Hf  Hf18  1  0.19603285  0.39289574  -0.00149258  1
  Hf  Hf19  1  0.61190624  0.60386241  0.49472920  1
  Hf  Hf20  1  0.48465842  0.29433396  0.37559372  1
  Hf  Hf21  1  0.19114693  0.60392276  0.75330419  1
  Hf  Hf22  1  0.61297151  0.60641748  0.26504758  1
  Hf  Hf23  1  0.39669800  0.80541174  0.75612646  1
  Hf  Hf24  1  0.59650799  0.20195333  0.74177301  1
  Hf  Hf25  1  0.50071972  0.49178510  0.13095070  1
  Hf  Hf26  1  0.39794998  0.80209351  -0.00424721  1
  Hf  Hf27  1  0.89966865  0.29599199  0.37576519  1
  Hf  Hf28  1  0.39808339  0.60046036  0.24263590  1
  Hf  Hf29  1  0.29484008  0.50051380  0.63338364  1
  Hf  Hf30  1  0.89886783  0.09076603  0.88435703  1
  Hf  Hf31  1  0.90371473  0.70528794  0.61391525  1
  Hf  Hf32  1  0.59681104  0.39537426  0.50873584  1
  Hf  Hf33  1  0.69935042  0.69454258  0.11536736  1
  Hf  Hf34  1  0.70188342  0.48628277  0.13889394  1
  Hf  Hf35  1  0.50882894  0.69505509  0.63739386  1
  Hf  Hf36  1  0.70155064  0.29539495  0.38029516  1
  Hf  Hf37  1  0.19950696  0.39059530  0.25543565  1
  Hf  Hf38  1  0.90698617  0.67941962  0.36350636  1
  Hf  Hf39  1  0.19889199  0.60484089  0.49696964  1
  Zr  Zr40  1  0.10696402  0.69519037  0.13271334  1
  Zr  Zr41  1  0.90465599  0.29772997  0.86751980  1
  Zr  Zr42  1  0.39761509  0.19864168  0.52343912  1
  Zr  Zr43  1  0.50269484  0.91031240  0.87598178  1
  Zr  Zr44  1  0.91136396  0.90175266  0.37080661  1
  Zr  Zr45  1  0.70418480  0.89123146  0.61409492  1
  Zr  Zr46  1  0.69999705  0.10526768  0.38329087  1
  Zr  Zr47  1  0.81556990  -0.00054518  0.73718060  1
  Zr  Zr48  1  0.09046422  0.10374859  0.38124997  1
  Zr  Zr49  1  0.19875936  0.00624181  0.25106611  1
  Zr  Zr50  1  0.50120388  0.70129961  0.11807509  1
  Zr  Zr51  1  0.49825110  0.49540495  0.37457052  1
  Zr  Zr52  1  0.90126322  0.69904170  0.88306989  1
  Zr  Zr53  1  0.00038126  0.80672534  0.76357097  1
  Zr  Zr54  1  0.39217241  0.21457537  -0.02724156  1
  Zr  Zr55  1  0.89576970  0.30893404  0.61493783  1
  Zr  Zr56  1  0.79568209  0.79488908  0.25031496  1
  Zr  Zr57  1  0.88404916  0.29912003  0.14590964  1
  Zr  Zr58  1  0.49565363  0.29515562  0.13210600  1
  Zr  Zr59  1  0.90265844  0.49461314  0.85997736  1
  Zr  Zr60  1  0.10443265  0.70896637  0.61676704  1
  Zr  Zr61  1  0.39710766  0.40611304  -0.02022103  1
  Zr  Zr62  1  0.51153839  0.91641550  0.10733950  1
  Zr  Zr63  1  0.71661647  0.90820015  0.88692050  1
  Zr  Zr64  1  0.19174077  0.81206760  0.77160060  1
  Zr  Zr65  1  0.31182169  0.89134932  0.36870953  1
  Zr  Zr66  1  0.79578321  -0.00563811  0.24414757  1
  Zr  Zr67  1  0.40151074  0.60274909  0.50684827  1
  Zr  Zr68  1  0.68474086  0.09549575  0.11425084  1
  Zr  Zr69  1  0.19208567  0.20035596  0.75483446  1
  Zr  Zr70  1  0.70583111  0.69502147  0.88706585  1
  Zr  Zr71  1  -0.00316069  0.41066439  0.49643988  1
  Zr  Zr72  1  0.58287140  0.00069049  0.49757842  1
  Zr  Zr73  1  0.30485651  0.49508836  0.37152652  1
  Zr  Zr74  1  0.00131357  0.58620852  0.01848469  1
  Zr  Zr75  1  0.29431655  0.29067757  0.12386740  1
  Zr  Zr76  1  0.80036142  0.39435177  -0.00563187  1
  Zr  Zr77  1  0.80403758  0.58637596  0.00858973  1
  Zr  Zr78  1  0.41325680  0.01192625  0.25611981  1
  Zr  Zr79  1  0.69008075  0.28819608  0.13836385  1
  Ta  Ta80  1  0.79359981  0.19724060  -0.00320764  1
  Ta  Ta81  1  0.09491845  0.10150095  0.89167191  1
  Ta  Ta82  1  0.70047813  0.10153705  0.87526994  1
  Ta  Ta83  1  0.20344468  0.58492603  0.00407146  1
  Ta  Ta84  1  0.59716963  0.57979810  -0.00943645  1
  Ta  Ta85  1  0.19831803  0.39454925  0.49097184  1
  Ta  Ta86  1  0.29673460  0.70756396  0.63194714  1
  Ta  Ta87  1  0.40075182  0.00594923  0.50184009  1
  Ta  Ta88  1  0.19981896  0.00436296  0.00358448  1
  Ta  Ta89  1  -0.00162080  0.00168266  0.02698082  1
  Ta  Ta90  1  0.00330890  0.40192851  0.02374252  1
  Ta  Ta91  1  0.10637033  0.09993185  0.60633447  1
  Ta  Ta92  1  0.79788066  0.60633586  0.73391172  1
  Ta  Ta93  1  0.00693926  0.39493893  0.24763018  1
  Ta  Ta94  1  0.10403790  0.70409029  0.36011213  1
  Ta  Ta95  1  0.59800985  0.39605899  0.26659058  1
  Ta  Ta96  1  0.79879204  0.19759854  0.73932600  1
  Ta  Ta97  1  0.20019674  0.80621712  0.24753219  1
  Ta  Ta98  1  0.69676316  0.49731438  0.85438004  1
  Ta  Ta99  1  0.70050385  0.89752310  0.38854486  1
  Ta  Ta100  1  0.09529665  0.49463206  0.87067043  1
  Ta  Ta101  1  0.11269059  0.11306586  0.12036261  1
  Ta  Ta102  1  0.49656403  0.10607655  0.09639636  1
  Ta  Ta103  1  0.09749536  0.69048342  0.89280525  1
  Ta  Ta104  1  0.59834926  0.79782394  0.49750967  1
  Ta  Ta105  1  0.81249212  0.58410098  0.50535436  1
  Ta  Ta106  1  0.89867060  0.10744934  0.37315852  1
  Ta  Ta107  1  0.59779848  0.00023406  0.26319952  1
  Ta  Ta108  1  0.58846296  0.20230398  0.52144112  1
  Ta  Ta109  1  -0.00048767  0.59847569  0.74066048  1
  Ta  Ta110  1  0.20623753  0.00075068  0.48692480  1
  Ta  Ta111  1  0.49940398  0.10261564  0.87273807  1
  Ta  Ta112  1  0.80837186  -0.00057577  0.49786631  1
  Ta  Ta113  1  0.29972734  0.69890907  0.12152604  1
  Ta  Ta114  1  0.28624945  0.30752648  0.63913815  1
  Ta  Ta115  1  0.30502921  0.11051945  0.38417321  1
  Ta  Ta116  1  0.19792576  0.20404205  0.26680131  1
  Ta  Ta117  1  0.39691375  0.60008723  0.75525737  1
  Ta  Ta118  1  0.39711304  0.58966736  -0.00595524  1
  Ta  Ta119  1  0.39570141  0.39368158  0.52044230  1
  Ti  Ti120  1  0.01060578  0.39457210  0.73496041  1
  Ti  Ti121  1  0.29211678  0.49277485  0.85874399  1
  Ti  Ti122  1  0.00654315  0.00078135  0.23698049  1
  Ti  Ti123  1  0.01061916  0.79717105  0.47994259  1
  Ti  Ti124  1  0.10320397  0.49147846  0.62791490  1
  Ti  Ti125  1  0.80974491  0.81152796  0.02046783  1
  Ti  Ti126  1  0.90784288  0.89536197  0.60374505  1
  Ti  Ti127  1  0.19301738  0.00572329  0.75929369  1
  Ti  Ti128  1  0.80060884  0.19972480  0.51359814  1
  Ti  Ti129  1  0.89448795  0.10709564  0.13875178  1
  Ti  Ti130  1  0.71934537  0.49757029  0.37342659  1
  Ti  Ti131  1  0.59570252  0.39016745  0.74110803  1
  Ti  Ti132  1  0.80646869  -0.00364843  0.01922869  1
  Ti  Ti133  1  0.49825782  0.49911023  0.64016395  1
  Ti  Ti134  1  0.00812455  0.81236980  0.24153940  1
  Ti  Ti135  1  0.90122083  0.69515174  0.14067927  1
  Ti  Ti136  1  0.70097158  0.29445781  0.86343027  1
  Ti  Ti137  1  0.09291455  0.91197043  0.89400237  1
  Ti  Ti138  1  0.29520551  0.70137011  0.35897210  1
  Ti  Ti139  1  0.39017147  0.19854465  0.25254203  1
  Ti  Ti140  1  0.60202534  0.00192189  0.75160267  1
  Ti  Ti141  1  0.29872126  0.91503676  0.88140471  1
  Ti  Ti142  1  0.29510191  0.09583092  0.63136614  1
  Ti  Ti143  1  0.39697576  0.20412020  0.74913325  1
  Ti  Ti144  1  0.00994632  0.20339514  0.24478371  1
  Ti  Ti145  1  0.50180268  0.49680977  0.85273668  1
  Ti  Ti146  1  0.58414544  0.18437368  0.25940814  1
  Ti  Ti147  1  0.60933530  0.80588036  -0.00180321  1
  Ti  Ti148  1  0.00156794  0.59582593  0.50777788  1
  Ti  Ti149  1  0.79913125  0.78737212  0.48838403  1
  Ti  Ti150  1  0.19576042  0.80517035  0.00401573  1
  Ti  Ti151  1  0.30418435  0.10546814  0.11224057  1
  Ti  Ti152  1  0.19793773  0.20894505  0.49701078  1
  Ti  Ti153  1  0.29769559  0.49682950  0.13163863  1
  Ti  Ti154  1  -0.00089847  0.00498143  0.49919857  1
  Ti  Ti155  1  0.89643066  0.49912672  0.15796934  1
  Ti  Ti156  1  0.49603737  0.91104681  0.64074012  1
  Ti  Ti157  1  0.09550184  0.30174733  0.87842404  1
  Ti  Ti158  1  0.29631446  0.09967646  0.87410069  1
  Ti  Ti159  1  0.79819483  0.39327040  0.74342416  1
  Mo  Mo160  1  0.90471359  0.90343220  0.13954665  1
  Mo  Mo161  1  0.39037000  0.01081473  0.75521554  1
  Mo  Mo162  1  0.29146114  0.30601807  0.85166090  1
  Mo  Mo163  1  0.10346798  0.89793722  0.38113451  1
  Mo  Mo164  1  0.90743178  0.90777111  0.89797732  1
  Mo  Mo165  1  0.49519143  0.10680504  0.37867608  1
  Mo  Mo166  1  0.10326351  0.30009392  0.60906704  1
  Mo  Mo167  1  0.39782726  0.80048682  0.23100737  1
  Mo  Mo168  1  0.39897193  0.39303484  0.24482966  1
  Mo  Mo169  1  0.10829158  0.90596017  0.12031835  1
  Mo  Mo170  1  0.79665249  0.40589747  0.49230580  1
  Mo  Mo171  1  0.18905961  0.40030376  0.75589321  1
  Mo  Mo172  1  0.60288035  0.00743911  -0.01774061  1
  Mo  Mo173  1  0.60270671  0.59415715  0.75422617  1
  Mo  Mo174  1  0.70046329  0.29818503  0.62091154  1
  Mo  Mo175  1  0.50273565  0.90256531  0.37726266  1
  Mo  Mo176  1  0.09893727  0.29502301  0.12610214  1
  Mo  Mo177  1  0.49703304  0.30514206  0.84879189  1
  Mo  Mo178  1  0.59958738  0.20376592  -0.02576354  1
  Mo  Mo179  1  0.79945653  0.59882902  0.24768247  1
  Mo  Mo180  1  0.39430302  0.01080844  -0.01229356  1
  Mo  Mo181  1  0.10705765  0.49336732  0.13716225  1
  Mo  Mo182  1  0.79873093  0.39759678  0.26866528  1
  Mo  Mo183  1  -0.00016266  0.19883737  0.50903519  1
  Mo  Mo184  1  0.90346281  0.50258621  0.63924244  1
  Mo  Mo185  1  0.79852602  0.19150408  0.25472595  1
  Mo  Mo186  1  0.90416448  0.09859461  0.60439600  1
  Mo  Mo187  1  0.39713941  0.40084570  0.74635009  1
  Mo  Mo188  1  0.29925758  0.29721858  0.38118983  1
  Mo  Mo189  1  0.49232249  0.30471685  0.63620841  1
  Mo  Mo190  1  0.00239467  0.59988075  0.23730833  1
  Mo  Mo191  1  0.70010345  0.89994816  0.11207548  1
  Mo  Mo192  1  0.09741383  0.29915960  0.38380575  1
  Mo  Mo193  1  0.70531559  0.69920336  0.38801364  1
  Mo  Mo194  1  0.89886504  0.49651900  0.35867407  1
  Mo  Mo195  1  0.20539048  0.60172626  0.24290658  1
  Mo  Mo196  1  0.20265923  0.80038355  0.47750658  1
  Mo  Mo197  1  0.49019225  0.09201906  0.64946081  1
  Mo  Mo198  1  0.19628859  0.19866075  -0.01777127  1
  Mo  Mo199  1  0.70722926  0.69611454  0.61006903  1
