# generated using pymatgen
data_HfZrTaTiMo
_symmetry_space_group_name_H-M   'P 1'
_cell_length_a   15.83201972
_cell_length_b   15.84183357
_cell_length_c   15.40363079
_cell_angle_alpha   90.02309785
_cell_angle_beta   89.97585631
_cell_angle_gamma   89.95494819
_symmetry_Int_Tables_number   1
_chemical_formula_structural   HfZrTaTiMo
_chemical_formula_sum   'Hf40 Zr40 Ta40 Ti40 Mo40'
_cell_volume   3863.35539197
_cell_formula_units_Z   40
loop_
 _symmetry_equiv_pos_site_id
 _symmetry_equiv_pos_as_xyz
  1  'x, y, z'
loop_
 _atom_site_type_symbol
 _atom_site_label
 _atom_site_symmetry_multiplicity
 _atom_site_fract_x
 _atom_site_fract_y
 _atom_site_fract_z
 _atom_site_occupancy
  Hf  Hf0  1  0.09788773  0.48910942  0.13703185  1
  Hf  Hf1  1  0.49080127  0.50367385  0.14177727  1
  Hf  Hf2  1  0.29624685  0.30793102  0.12769312  1
  Hf  Hf3  1  0.19292941  0.40771382  -0.00656458  1
  Hf  Hf4  1  0.09663548  0.69555240  0.61787029  1
  Hf  Hf5  1  0.39145087  0.40909449  -0.01370185  1
  Hf  Hf6  1  0.79677176  0.79518676  0.75904405  1
  Hf  Hf7  1  0.00137768  0.39850398  0.75555806  1
  Hf  Hf8  1  0.50016166  0.70969313  0.62962062  1
  Hf  Hf9  1  0.48132470  0.71194543  0.87285722  1
  Hf  Hf10  1  0.69925052  0.49668645  0.37326645  1
  Hf  Hf11  1  0.30333469  0.10189873  0.13571062  1
  Hf  Hf12  1  0.18233713  0.20857673  0.26063646  1
  Hf  Hf13  1  0.79381222  0.20162443  0.74013347  1
  Hf  Hf14  1  0.67968580  0.07983939  0.10526863  1
  Hf  Hf15  1  0.71164159  0.71110035  0.38415681  1
  Hf  Hf16  1  0.50021415  0.50736058  0.63008918  1
  Hf  Hf17  1  0.00300731  0.19311046  0.75035870  1
  Hf  Hf18  1  -0.00222521  0.80258684  0.25701009  1
  Hf  Hf19  1  0.29390615  0.30437262  0.62238637  1
  Hf  Hf20  1  0.51638966  0.92130530  0.13935271  1
  Hf  Hf21  1  0.80227014  0.40874512  0.51628021  1
  Hf  Hf22  1  0.89576961  0.49411564  0.35475221  1
  Hf  Hf23  1  0.60489478  0.61186904  0.76208385  1
  Hf  Hf24  1  0.19004379  -0.00389622  0.24921093  1
  Hf  Hf25  1  0.30604290  0.09385550  0.37464093  1
  Hf  Hf26  1  0.69885870  0.70316845  0.61548355  1
  Hf  Hf27  1  0.69552888  0.91419009  0.38089334  1
  Hf  Hf28  1  0.80952698  0.00526741  0.51820716  1
  Hf  Hf29  1  0.81564408  0.60602496  0.50236875  1
  Hf  Hf30  1  0.68778402  0.09701108  0.87929154  1
  Hf  Hf31  1  0.20682037  0.59691781  0.49847011  1
  Hf  Hf32  1  0.89189055  0.71867061  0.11397682  1
  Hf  Hf33  1  0.90085610  0.49201058  0.88630654  1
  Hf  Hf34  1  0.58281268  0.80998499  0.49276957  1
  Hf  Hf35  1  0.30935448  0.50669699  0.34930015  1
  Hf  Hf36  1  0.60588155  0.39387089  0.24394846  1
  Hf  Hf37  1  -0.00217234  -0.00416531  0.25975865  1
  Hf  Hf38  1  0.80342458  0.20613341  0.23663027  1
  Hf  Hf39  1  0.30944118  0.70266573  0.36769594  1
  Zr  Zr40  1  0.80592912  0.59673635  0.74678334  1
  Zr  Zr41  1  0.88602185  0.29067360  0.38900870  1
  Zr  Zr42  1  -0.01097252  0.18242069  0.50388056  1
  Zr  Zr43  1  0.30471186  0.89838890  0.88086702  1
  Zr  Zr44  1  0.19128488  0.40506254  0.76256244  1
  Zr  Zr45  1  0.60316910  0.39921820  0.74727256  1
  Zr  Zr46  1  0.39835916  0.40985883  0.49787363  1
  Zr  Zr47  1  0.00528061  0.36802724  0.25496862  1
  Zr  Zr48  1  0.19434859  0.40015545  0.47804430  1
  Zr  Zr49  1  0.50025473  0.29513160  0.11166805  1
  Zr  Zr50  1  0.59946596  0.41389036  0.00310726  1
  Zr  Zr51  1  0.79814798  0.00797389  0.25100381  1
  Zr  Zr52  1  0.40846016  0.20595667  0.25673140  1
  Zr  Zr53  1  0.79877032  0.00009140  0.74400091  1
  Zr  Zr54  1  0.40348868  -0.01192939  0.51794719  1
  Zr  Zr55  1  -0.00290239  -0.01409194  0.49442635  1
  Zr  Zr56  1  0.69177060  0.29886000  0.39409428  1
  Zr  Zr57  1  0.71005305  0.87967386  0.12102511  1
  Zr  Zr58  1  0.51182315  0.09631906  0.38415675  1
  Zr  Zr59  1  0.10787890  0.88347790  0.62525461  1
  Zr  Zr60  1  0.38867999  0.40766586  0.75224546  1
  Zr  Zr61  1  0.19354053  0.80697338  0.24981384  1
  Zr  Zr62  1  0.70432783  0.49292135  0.87645282  1
  Zr  Zr63  1  0.49230230  0.10003642  0.86635433  1
  Zr  Zr64  1  0.51149194  0.71413976  0.12422730  1
  Zr  Zr65  1  0.91582026  0.88266981  0.64220256  1
  Zr  Zr66  1  0.80447450  0.18616723  0.00236222  1
  Zr  Zr67  1  0.89295211  0.29979778  0.88369131  1
  Zr  Zr68  1  0.60810036  0.19186049  0.24257827  1
  Zr  Zr69  1  0.21857086  -0.00005490  0.73653100  1
  Zr  Zr70  1  0.21978162  0.77358462  0.75026196  1
  Zr  Zr71  1  0.08632454  0.11200041  0.11733440  1
  Zr  Zr72  1  0.09759082  0.29966793  0.61251082  1
  Zr  Zr73  1  0.00519781  0.59035812  0.00854595  1
  Zr  Zr74  1  0.49984345  0.29623508  0.87361219  1
  Zr  Zr75  1  0.28296340  0.54052206  0.87629934  1
  Zr  Zr76  1  -0.00265339  -0.00516752  -0.01191372  1
  Zr  Zr77  1  0.12615809  0.69162414  0.89332772  1
  Zr  Zr78  1  0.79042286  0.59581504  0.01454240  1
  Zr  Zr79  1  0.79312191  0.61120972  0.23687580  1
  Ta  Ta80  1  0.40091280  0.60555563  0.01237653  1
  Ta  Ta81  1  0.40358331  0.60789243  0.50307220  1
  Ta  Ta82  1  0.39444570  0.19494429  0.00053893  1
  Ta  Ta83  1  -0.00402880  0.78456462  0.48055483  1
  Ta  Ta84  1  0.01763660  0.59526302  0.76455184  1
  Ta  Ta85  1  0.70757445  0.11003035  0.39657004  1
  Ta  Ta86  1  0.69727421  0.29502241  0.88674866  1
  Ta  Ta87  1  0.29981154  0.50403916  0.13891641  1
  Ta  Ta88  1  -0.00177973  0.60798335  0.24713131  1
  Ta  Ta89  1  0.40397770  0.00394171  0.01283163  1
  Ta  Ta90  1  0.40447041  0.81403496  0.01469009  1
  Ta  Ta91  1  0.20039516  -0.00464113  0.00883947  1
  Ta  Ta92  1  0.89500166  0.48103356  0.13165363  1
  Ta  Ta93  1  0.60127875  0.20104925  0.73497204  1
  Ta  Ta94  1  0.91718002  0.50365638  0.62772635  1
  Ta  Ta95  1  0.20397447  -0.00784244  0.50270027  1
  Ta  Ta96  1  0.10143628  0.09417984  0.38545527  1
  Ta  Ta97  1  0.00220671  0.59333336  0.48081378  1
  Ta  Ta98  1  0.39939622  0.19955765  0.50900307  1
  Ta  Ta99  1  0.90200365  0.30269600  0.62257720  1
  Ta  Ta100  1  0.49732179  0.91003281  0.86599513  1
  Ta  Ta101  1  0.19856759  0.19643250  0.75020963  1
  Ta  Ta102  1  0.49871312  0.10127930  0.63016873  1
  Ta  Ta103  1  0.29964513  0.70484328  0.12191193  1
  Ta  Ta104  1  0.79886835  0.39747966  0.73342176  1
  Ta  Ta105  1  0.40262978  0.80584479  0.24423124  1
  Ta  Ta106  1  0.11160234  0.09613713  0.87720999  1
  Ta  Ta107  1  0.60412764  0.80824906  0.76088256  1
  Ta  Ta108  1  0.59505062  0.60647832  -0.00050777  1
  Ta  Ta109  1  0.60074562  0.61017291  0.25416319  1
  Ta  Ta110  1  0.19903228  0.39256240  0.25879642  1
  Ta  Ta111  1  0.37428569  0.62080481  0.73246772  1
  Ta  Ta112  1  0.48963096  0.51701446  0.86698017  1
  Ta  Ta113  1  0.59144195  0.60352116  0.48482375  1
  Ta  Ta114  1  0.10086528  0.70819511  0.11839485  1
  Ta  Ta115  1  0.38759655  0.19311416  0.73612767  1
  Ta  Ta116  1  0.49828880  0.50655535  0.36275901  1
  Ta  Ta117  1  0.60601270  0.79979501  0.26409501  1
  Ta  Ta118  1  0.29474816  0.28405249  0.87542345  1
  Ta  Ta119  1  0.90927724  0.69914335  0.87933188  1
  Ti  Ti120  1  0.09363820  0.29158343  0.89168217  1
  Ti  Ti121  1  0.01126434  -0.00200893  0.75398476  1
  Ti  Ti122  1  -0.00911416  0.18451774  0.26896168  1
  Ti  Ti123  1  0.60028350  -0.00140119  0.74033129  1
  Ti  Ti124  1  0.09717854  0.50068401  0.35853550  1
  Ti  Ti125  1  0.79803652  0.19067627  0.52829883  1
  Ti  Ti126  1  0.90824555  0.89155359  0.86414567  1
  Ti  Ti127  1  0.00745855  0.80687578  -0.00649357  1
  Ti  Ti128  1  0.49092886  0.90732688  0.35930739  1
  Ti  Ti129  1  0.68812554  0.30418009  0.61006860  1
  Ti  Ti130  1  0.20237338  0.19334084  0.49686858  1
  Ti  Ti131  1  0.49947232  0.30242219  0.61901432  1
  Ti  Ti132  1  0.10439544  0.69717307  0.37356477  1
  Ti  Ti133  1  0.60278030  0.00606869  0.51871932  1
  Ti  Ti134  1  0.50527920  0.30725671  0.39182151  1
  Ti  Ti135  1  0.79731020  -0.01940286  -0.01728821  1
  Ti  Ti136  1  0.91956704  0.28960382  0.10753339  1
  Ti  Ti137  1  0.30586520  0.29793430  0.37557673  1
  Ti  Ti138  1  0.30065115  0.90312457  0.12933949  1
  Ti  Ti139  1  0.10942732  0.89515855  0.87063838  1
  Ti  Ti140  1  0.60376429  0.81135841  -0.01638944  1
  Ti  Ti141  1  0.90316949  0.09454374  0.86858733  1
  Ti  Ti142  1  0.69438245  0.89523596  0.62338152  1
  Ti  Ti143  1  0.29996283  0.09614768  0.88014754  1
  Ti  Ti144  1  0.09970126  0.49845460  0.61719469  1
  Ti  Ti145  1  0.10450928  0.09437932  0.62088730  1
  Ti  Ti146  1  0.19958751  0.19731196  0.00023522  1
  Ti  Ti147  1  -0.00048479  0.40249561  0.48880042  1
  Ti  Ti148  1  0.89933114  0.09183676  0.11694812  1
  Ti  Ti149  1  0.88530655  0.88910746  0.37159658  1
  Ti  Ti150  1  0.19447411  0.60646270  0.24179942  1
  Ti  Ti151  1  0.81255987  0.80391052  0.51053936  1
  Ti  Ti152  1  0.90096736  0.90103558  0.12053770  1
  Ti  Ti153  1  0.30005300  0.90103568  0.37339522  1
  Ti  Ti154  1  0.70605543  0.70620557  0.89234795  1
  Ti  Ti155  1  0.69327547  0.50710050  0.61832011  1
  Ti  Ti156  1  0.39731586  0.81745454  0.73315336  1
  Ti  Ti157  1  0.39529079  0.80200450  0.50001909  1
  Ti  Ti158  1  0.91609242  0.69568493  0.63908663  1
  Ti  Ti159  1  0.70496844  0.30218136  0.10401758  1
  Mo  Mo160  1  0.59408735  0.41089695  0.50351373  1
  Mo  Mo161  1  0.69312911  0.50091347  0.13747524  1
  Mo  Mo162  1  0.00960507  0.78894039  0.77436142  1
  Mo  Mo163  1  0.69249973  0.70379375  0.11138601  1
  Mo  Mo164  1  0.90639703  0.09643203  0.64835472  1
  Mo  Mo165  1  0.40246336  0.39536888  0.26380381  1
  Mo  Mo166  1  0.09339907  0.89907657  0.11241420  1
  Mo  Mo167  1  0.80053468  0.80517445  0.25283575  1
  Mo  Mo168  1  0.59438192  0.19773702  0.00140956  1
  Mo  Mo169  1  0.49879132  0.70559200  0.36778920  1
  Mo  Mo170  1  0.88912097  0.09457643  0.37237409  1
  Mo  Mo171  1  0.20341100  0.60125849  0.02952005  1
  Mo  Mo172  1  0.59322723  0.20237749  0.51911200  1
  Mo  Mo173  1  0.50708668  0.90144717  0.64091189  1
  Mo  Mo174  1  0.40187520  0.61137015  0.23665588  1
  Mo  Mo175  1  0.69670922  0.90182066  0.87265594  1
  Mo  Mo176  1  0.90202386  0.69901408  0.36825356  1
  Mo  Mo177  1  0.69338139  0.10055940  0.62179806  1
  Mo  Mo178  1  0.09516872  0.49828814  0.88312184  1
  Mo  Mo179  1  0.30235059  0.89347808  0.61649324  1
  Mo  Mo180  1  0.09912728  0.28960468  0.39045355  1
  Mo  Mo181  1  0.80966675  0.80449680  -0.02229713  1
  Mo  Mo182  1  0.29775946  0.50632218  0.62322916  1
  Mo  Mo183  1  0.00304527  0.19008704  -0.01755068  1
  Mo  Mo184  1  0.29827519  0.70815771  0.59882862  1
  Mo  Mo185  1  0.10012556  0.29611722  0.10934108  1
  Mo  Mo186  1  0.80102328  0.39491638  0.01770591  1
  Mo  Mo187  1  0.20073315  0.80055505  0.48317583  1
  Mo  Mo188  1  0.60356218  0.00323653  0.26568116  1
  Mo  Mo189  1  0.19554373  0.58973356  0.72165431  1
  Mo  Mo190  1  0.10292646  0.89591239  0.39052188  1
  Mo  Mo191  1  0.31280402  0.71249171  0.90495810  1
  Mo  Mo192  1  0.20123481  0.81170298  0.01647141  1
  Mo  Mo193  1  0.59190860  -0.00899704  -0.01595968  1
  Mo  Mo194  1  0.39737021  -0.00364985  0.24642110  1
  Mo  Mo195  1  0.49732442  0.10020076  0.11714181  1
  Mo  Mo196  1  0.40135718  0.00098642  0.73566580  1
  Mo  Mo197  1  0.00111762  0.39088219  0.00767534  1
  Mo  Mo198  1  0.79610310  0.39054625  0.22943593  1
  Mo  Mo199  1  0.29472576  0.10603913  0.61122275  1
