# generated using pymatgen
data_HfZrTaTiMo
_symmetry_space_group_name_H-M   'P 1'
_cell_length_a   15.82468735
_cell_length_b   15.84465372
_cell_length_c   15.41428605
_cell_angle_alpha   90.02919213
_cell_angle_beta   90.07119586
_cell_angle_gamma   89.98143190
_symmetry_Int_Tables_number   1
_chemical_formula_structural   HfZrTaTiMo
_chemical_formula_sum   'Hf40 Zr40 Ta40 Ti40 Mo40'
_cell_volume   3864.92339369
_cell_formula_units_Z   40
loop_
 _symmetry_equiv_pos_site_id
 _symmetry_equiv_pos_as_xyz
  1  'x, y, z'
loop_
 _atom_site_type_symbol
 _atom_site_label
 _atom_site_symmetry_multiplicity
 _atom_site_fract_x
 _atom_site_fract_y
 _atom_site_fract_z
 _atom_site_occupancy
  Hf  Hf0  1  0.50090014  0.90476833  0.12870721  1
  Hf  Hf1  1  0.01193959  0.59251202  0.74635026  1
  Hf  Hf2  1  0.60771159  -0.00411151  -0.00406462  1
  Hf  Hf3  1  0.91278774  0.09492863  0.61958720  1
  Hf  Hf4  1  0.58943614  0.37210683  0.23575165  1
  Hf  Hf5  1  0.80830474  0.60106000  0.26098491  1
  Hf  Hf6  1  0.40377589  0.20928410  0.48842421  1
  Hf  Hf7  1  0.90162323  0.70694538  0.13252557  1
  Hf  Hf8  1  0.59809733  0.59621224  0.00557446  1
  Hf  Hf9  1  0.49449136  0.10112090  0.62735597  1
  Hf  Hf10  1  0.00301605  0.40110691  0.47051099  1
  Hf  Hf11  1  0.19584441  0.00817447  0.75722677  1
  Hf  Hf12  1  0.29404938  0.49079636  0.62400298  1
  Hf  Hf13  1  0.79864052  0.59857722  -0.00351882  1
  Hf  Hf14  1  0.70269661  0.11221258  0.12591242  1
  Hf  Hf15  1  0.39695254  0.60147060  0.75142668  1
  Hf  Hf16  1  0.49377384  0.49266704  0.12990008  1
  Hf  Hf17  1  -0.00577437  0.00072342  0.00013182  1
  Hf  Hf18  1  -0.00243297  0.20372397  0.00007348  1
  Hf  Hf19  1  0.08983382  0.89183118  0.14332961  1
  Hf  Hf20  1  0.10555622  0.31871930  0.13251680  1
  Hf  Hf21  1  0.80705195  0.39322254  0.26380232  1
  Hf  Hf22  1  0.51016033  0.29756354  0.87759588  1
  Hf  Hf23  1  0.42380335  0.21105343  0.24341791  1
  Hf  Hf24  1  0.20093800  -0.00791230  0.47282194  1
  Hf  Hf25  1  0.61185223  0.79378097  -0.00790360  1
  Hf  Hf26  1  0.40064489  0.80081799  0.75506485  1
  Hf  Hf27  1  0.60056455  0.01415898  0.24684407  1
  Hf  Hf28  1  0.70856827  0.89460203  0.13490155  1
  Hf  Hf29  1  0.19787824  0.21370463  0.48467900  1
  Hf  Hf30  1  0.78787206  0.78833015  0.74185184  1
  Hf  Hf31  1  0.28611501  0.50738630  0.88754621  1
  Hf  Hf32  1  -0.00118059  0.60023211  0.00865354  1
  Hf  Hf33  1  0.09355320  0.11059132  0.36081324  1
  Hf  Hf34  1  0.40075600  0.59298816  0.49880733  1
  Hf  Hf35  1  0.68897790  0.28566564  0.37652564  1
  Hf  Hf36  1  0.89751016  0.89747195  0.14083652  1
  Hf  Hf37  1  0.59709597  0.60087700  0.50582713  1
  Hf  Hf38  1  0.19551759  0.79770193  0.74924610  1
  Hf  Hf39  1  0.29672248  0.10483556  0.61793304  1
  Zr  Zr40  1  0.38403985  0.60805468  0.24018606  1
  Zr  Zr41  1  0.20269571  0.00507958  0.01849741  1
  Zr  Zr42  1  0.70744944  0.10020700  0.86744215  1
  Zr  Zr43  1  0.39540631  0.00562924  0.76045795  1
  Zr  Zr44  1  0.08905924  0.90158499  0.61549744  1
  Zr  Zr45  1  0.92270896  0.48504851  0.62038723  1
  Zr  Zr46  1  0.40216113  0.39936925  -0.00084766  1
  Zr  Zr47  1  0.80359330  0.59851770  0.74221720  1
  Zr  Zr48  1  0.17787843  0.40035827  0.76286406  1
  Zr  Zr49  1  0.69458196  0.89711888  0.38270685  1
  Zr  Zr50  1  -0.00134004  0.21794351  0.75525601  1
  Zr  Zr51  1  0.80794524  -0.00451117  -0.00441070  1
  Zr  Zr52  1  0.80020727  0.21323042  0.00149996  1
  Zr  Zr53  1  0.22985563  0.20834171  0.23599254  1
  Zr  Zr54  1  0.19704031  0.79834751  0.01665827  1
  Zr  Zr55  1  0.08766247  0.11001866  0.14138498  1
  Zr  Zr56  1  0.80222967  0.58757571  0.50206899  1
  Zr  Zr57  1  0.29704674  0.70370272  0.61018233  1
  Zr  Zr58  1  0.49368268  0.49486796  0.35997741  1
  Zr  Zr59  1  0.40653799  0.80070428  0.00023432  1
  Zr  Zr60  1  0.29449160  0.69874449  0.88281360  1
  Zr  Zr61  1  0.62191914  0.38525006  0.01269914  1
  Zr  Zr62  1  0.60146485  0.60540534  0.24178920  1
  Zr  Zr63  1  0.69161217  0.49424090  0.37122704  1
  Zr  Zr64  1  0.09365734  0.90182561  0.87474799  1
  Zr  Zr65  1  0.69997148  0.49061151  0.86379353  1
  Zr  Zr66  1  0.09752992  0.69460702  0.88312414  1
  Zr  Zr67  1  0.50391833  0.49825848  0.64410637  1
  Zr  Zr68  1  0.81373952  0.38579454  0.72988146  1
  Zr  Zr69  1  0.91079138  0.70343241  0.61135034  1
  Zr  Zr70  1  0.20575215  -0.00028918  0.25135480  1
  Zr  Zr71  1  0.40151388  0.80684712  0.48649982  1
  Zr  Zr72  1  0.29067082  0.30179865  0.62906410  1
  Zr  Zr73  1  0.49649873  0.90546562  0.36160339  1
  Zr  Zr74  1  0.29286843  0.90463664  0.61696670  1
  Zr  Zr75  1  0.49238626  0.30414215  0.63952368  1
  Zr  Zr76  1  0.49918311  0.89783511  0.62522041  1
  Zr  Zr77  1  0.27326252  0.49375656  0.12042676  1
  Zr  Zr78  1  0.10086452  0.10741808  0.61802816  1
  Zr  Zr79  1  0.28944412  0.69616418  0.38168636  1
  Ta  Ta80  1  0.38997376  0.20035819  0.77087482  1
  Ta  Ta81  1  0.70812027  0.70190697  0.12560332  1
  Ta  Ta82  1  0.39314065  0.39860717  0.77300526  1
  Ta  Ta83  1  0.39609546  0.39916491  0.48507932  1
  Ta  Ta84  1  0.08813524  0.31604424  0.61676007  1
  Ta  Ta85  1  0.70648562  0.29720128  0.85662206  1
  Ta  Ta86  1  0.30095587  0.90545608  0.88608045  1
  Ta  Ta87  1  0.79901902  -0.00343125  0.72988520  1
  Ta  Ta88  1  0.50048804  0.10988850  0.10019591  1
  Ta  Ta89  1  0.09970889  0.69281393  0.14131091  1
  Ta  Ta90  1  0.89818444  0.89966842  0.85147864  1
  Ta  Ta91  1  0.89497935  0.89467781  0.39042614  1
  Ta  Ta92  1  0.19396632  0.59953002  0.73455450  1
  Ta  Ta93  1  0.60537736  -0.00202615  0.74474525  1
  Ta  Ta94  1  0.90496442  0.49238560  0.87539891  1
  Ta  Ta95  1  0.31233610  0.89543107  0.13883038  1
  Ta  Ta96  1  0.51356140  0.10944988  0.38181944  1
  Ta  Ta97  1  0.80040124  0.19790209  0.50763335  1
  Ta  Ta98  1  0.20291950  0.20460300  0.01028199  1
  Ta  Ta99  1  0.50549352  0.90229428  0.87099940  1
  Ta  Ta100  1  -0.00393057  0.40927990  0.25886346  1
  Ta  Ta101  1  0.69230301  0.89039727  0.62126203  1
  Ta  Ta102  1  0.19700124  0.20437994  0.76717159  1
  Ta  Ta103  1  0.09906383  0.10603145  0.87972690  1
  Ta  Ta104  1  0.60125106  0.00332235  0.50886694  1
  Ta  Ta105  1  0.79680330  0.00116474  0.50747370  1
  Ta  Ta106  1  -0.01343493  0.00057023  0.27033444  1
  Ta  Ta107  1  0.90129388  0.89882791  0.61783523  1
  Ta  Ta108  1  0.10402453  0.30259790  0.35075058  1
  Ta  Ta109  1  0.39915174  0.60555611  0.00803753  1
  Ta  Ta110  1  0.59444917  0.39468148  0.50529929  1
  Ta  Ta111  1  0.69606806  0.70322569  0.38577487  1
  Ta  Ta112  1  0.10383113  0.70071460  0.59910639  1
  Ta  Ta113  1  0.60154301  0.19410212  0.74695042  1
  Ta  Ta114  1  0.50233225  0.09975415  0.88269053  1
  Ta  Ta115  1  0.80232129  0.00416941  0.27006860  1
  Ta  Ta116  1  0.50833061  0.69534700  0.86964181  1
  Ta  Ta117  1  0.71173553  0.49348803  0.13182695  1
  Ta  Ta118  1  0.29147949  0.30043173  0.88930198  1
  Ta  Ta119  1  0.80067904  0.38763044  0.49878006  1
  Ti  Ti120  1  0.70302488  0.89586133  0.86019066  1
  Ti  Ti121  1  0.70030305  0.09987107  0.38385241  1
  Ti  Ti122  1  0.61524119  0.61813271  0.74923397  1
  Ti  Ti123  1  0.69496270  0.29941457  0.62836268  1
  Ti  Ti124  1  0.10300256  0.69866865  0.38121098  1
  Ti  Ti125  1  0.89832489  0.10106339  0.13920371  1
  Ti  Ti126  1  -0.00515293  0.20742650  0.48465579  1
  Ti  Ti127  1  -0.00210927  0.79645086  0.27480985  1
  Ti  Ti128  1  0.01330249  0.59022233  0.48604490  1
  Ti  Ti129  1  0.30136077  0.10144499  0.89666017  1
  Ti  Ti130  1  0.40023028  0.01719844  0.24390751  1
  Ti  Ti131  1  -0.00982443  0.80245380  -0.00335663  1
  Ti  Ti132  1  0.90059086  0.49674011  0.12695028  1
  Ti  Ti133  1  0.80382346  0.79816366  -0.01386501  1
  Ti  Ti134  1  0.60242079  0.79479588  0.25001548  1
  Ti  Ti135  1  0.89863729  0.29929766  0.13417603  1
  Ti  Ti136  1  0.90025072  0.69987386  0.87007206  1
  Ti  Ti137  1  0.89784108  0.31104413  0.88022749  1
  Ti  Ti138  1  0.50204456  0.70272428  0.36873543  1
  Ti  Ti139  1  0.09620798  0.49791822  0.89269077  1
  Ti  Ti140  1  0.38284016  0.38733040  0.25003885  1
  Ti  Ti141  1  0.60285820  0.19866476  0.51615995  1
  Ti  Ti142  1  0.50577396  0.50202927  0.86833365  1
  Ti  Ti143  1  0.00000605  0.59769256  0.26477256  1
  Ti  Ti144  1  0.31018058  0.10539670  0.37142985  1
  Ti  Ti145  1  0.40004188  0.00430527  0.48584330  1
  Ti  Ti146  1  0.00025182  -0.00197344  0.47866465  1
  Ti  Ti147  1  -0.00091247  0.79706115  0.74562743  1
  Ti  Ti148  1  0.79262219  0.79640136  0.50850526  1
  Ti  Ti149  1  0.90105826  0.69951761  0.39214418  1
  Ti  Ti150  1  0.80536168  0.19448406  0.26457365  1
  Ti  Ti151  1  0.20749552  0.79466211  0.25511852  1
  Ti  Ti152  1  0.69490460  0.49325089  0.63052746  1
  Ti  Ti153  1  0.80090998  0.19453224  0.72844302  1
  Ti  Ti154  1  0.49620912  0.70785844  0.13000627  1
  Ti  Ti155  1  0.19861805  0.41127921  0.47711088  1
  Ti  Ti156  1  0.90294642  0.09532725  0.85701205  1
  Ti  Ti157  1  0.51532370  0.71125960  0.63143926  1
  Ti  Ti158  1  -0.00422880  0.40130846  0.00793966  1
  Ti  Ti159  1  0.80056903  0.79517667  0.26709622  1
  Mo  Mo160  1  0.29460826  0.49778224  0.36910094  1
  Mo  Mo161  1  0.29617057  0.70287301  0.12482380  1
  Mo  Mo162  1  0.59844693  0.79844916  0.49242344  1
  Mo  Mo163  1  0.19086632  0.80482172  0.47762167  1
  Mo  Mo164  1  0.30301123  0.30592463  0.37471671  1
  Mo  Mo165  1  0.60503515  0.19214803  0.25109871  1
  Mo  Mo166  1  0.00247876  0.39985910  0.76171961  1
  Mo  Mo167  1  0.69291309  0.70129698  0.60704299  1
  Mo  Mo168  1  0.90735629  0.29114342  0.60371069  1
  Mo  Mo169  1  0.18496285  0.39905599  -0.00772256  1
  Mo  Mo170  1  -0.01876137  0.21046265  0.25637303  1
  Mo  Mo171  1  0.10670785  0.49772318  0.61281332  1
  Mo  Mo172  1  0.19122422  0.60087088  0.02012680  1
  Mo  Mo173  1  0.31623415  0.09721316  0.11098811  1
  Mo  Mo174  1  0.30439183  0.90316780  0.35238212  1
  Mo  Mo175  1  0.70037782  0.09793728  0.62665178  1
  Mo  Mo176  1  -0.00496275  0.00279417  0.75659716  1
  Mo  Mo177  1  0.18926032  0.60379773  0.24586255  1
  Mo  Mo178  1  0.50740730  0.28684661  0.10129433  1
  Mo  Mo179  1  0.19439131  0.59232945  0.50481527  1
  Mo  Mo180  1  0.39938250  0.80132556  0.25108664  1
  Mo  Mo181  1  0.09523017  0.30032927  0.89687785  1
  Mo  Mo182  1  0.60744378  0.19921995  -0.01465591  1
  Mo  Mo183  1  0.09678197  0.89292180  0.36275612  1
  Mo  Mo184  1  0.71333200  0.29416975  0.14049707  1
  Mo  Mo185  1  0.50490519  0.29939637  0.38712595  1
  Mo  Mo186  1  0.70413756  0.69805622  0.88721954  1
  Mo  Mo187  1  0.30545854  0.30182686  0.10680208  1
  Mo  Mo188  1  0.89766542  0.29307212  0.38047198  1
  Mo  Mo189  1  -0.00141983  0.79955307  0.48459370  1
  Mo  Mo190  1  0.60280687  0.79923505  0.76370943  1
  Mo  Mo191  1  0.20316128  0.40635519  0.26296814  1
  Mo  Mo192  1  0.60341274  0.39589942  0.74838339  1
  Mo  Mo193  1  0.08468909  0.50336014  0.13953480  1
  Mo  Mo194  1  0.89366220  0.09719225  0.39054570  1
  Mo  Mo195  1  0.39963061  0.19891449  -0.00757465  1
  Mo  Mo196  1  0.40251579  -0.00242317  -0.00359326  1
  Mo  Mo197  1  0.90040753  0.50245421  0.38167738  1
  Mo  Mo198  1  0.10641089  0.50880166  0.35767672  1
  Mo  Mo199  1  0.81274159  0.40287655  0.00940908  1
