# generated using pymatgen
data_HfZrTaTiMo
_symmetry_space_group_name_H-M   'P 1'
_cell_length_a   15.83824280
_cell_length_b   15.83299867
_cell_length_c   15.40353678
_cell_angle_alpha   89.99073903
_cell_angle_beta   89.94447786
_cell_angle_gamma   89.99224204
_symmetry_Int_Tables_number   1
_chemical_formula_structural   HfZrTaTiMo
_chemical_formula_sum   'Hf40 Zr40 Ta40 Ti40 Mo40'
_cell_volume   3862.69491610
_cell_formula_units_Z   40
loop_
 _symmetry_equiv_pos_site_id
 _symmetry_equiv_pos_as_xyz
  1  'x, y, z'
loop_
 _atom_site_type_symbol
 _atom_site_label
 _atom_site_symmetry_multiplicity
 _atom_site_fract_x
 _atom_site_fract_y
 _atom_site_fract_z
 _atom_site_occupancy
  Hf  Hf0  1  0.89405587  0.10752847  0.38501083  1
  Hf  Hf1  1  0.79855000  0.41265360  0.25731735  1
  Hf  Hf2  1  0.69601348  0.29351711  0.86764498  1
  Hf  Hf3  1  -0.01169721  0.59853744  0.48067647  1
  Hf  Hf4  1  0.20135263  0.81192724  0.25279911  1
  Hf  Hf5  1  0.31537963  0.70148824  0.36532084  1
  Hf  Hf6  1  0.40561869  0.20453768  0.49656430  1
  Hf  Hf7  1  0.59316150  0.40061783  -0.00784870  1
  Hf  Hf8  1  0.11515995  0.68966065  0.36905368  1
  Hf  Hf9  1  0.30199596  0.08892061  0.62041251  1
  Hf  Hf10  1  0.41680870  0.78513859  0.75289460  1
  Hf  Hf11  1  0.40060408  -0.00464318  0.25468765  1
  Hf  Hf12  1  0.19356822  -0.00047458  0.24966148  1
  Hf  Hf13  1  0.70222396  0.70364039  0.86945382  1
  Hf  Hf14  1  0.69636689  0.30242293  0.12059705  1
  Hf  Hf15  1  0.69775580  0.89975639  0.11636200  1
  Hf  Hf16  1  0.49922014  0.29448306  0.13593884  1
  Hf  Hf17  1  0.89658446  0.69455523  0.64067665  1
  Hf  Hf18  1  0.10841362  0.29810783  0.35314538  1
  Hf  Hf19  1  0.69928558  0.09863839  0.10075033  1
  Hf  Hf20  1  0.20724292  0.79946059  0.74698310  1
  Hf  Hf21  1  0.79808839  0.19435059  0.23968711  1
  Hf  Hf22  1  0.09560943  0.29129196  0.13872623  1
  Hf  Hf23  1  0.69501689  0.91503314  0.86868383  1
  Hf  Hf24  1  0.48433401  0.50685186  0.63196711  1
  Hf  Hf25  1  0.70389617  0.70342853  0.65044380  1
  Hf  Hf26  1  0.00397691  0.81284538  0.26502125  1
  Hf  Hf27  1  0.89365570  0.30395649  0.11654449  1
  Hf  Hf28  1  0.30019960  0.89821550  0.87905034  1
  Hf  Hf29  1  0.58679175  0.78896004  0.24630392  1
  Hf  Hf30  1  0.10230194  0.69339311  0.61536137  1
  Hf  Hf31  1  0.40528806  0.19047715  0.76187236  1
  Hf  Hf32  1  0.40375464  0.59289043  0.00270893  1
  Hf  Hf33  1  0.29772623  0.10026524  0.10785728  1
  Hf  Hf34  1  -0.00154163  0.40341854  -0.00230929  1
  Hf  Hf35  1  0.29135703  0.50444670  0.34873282  1
  Hf  Hf36  1  0.69517713  0.09805946  0.38873215  1
  Hf  Hf37  1  0.19172414  0.60078342  0.75839223  1
  Hf  Hf38  1  0.50388360  0.90026132  0.38359891  1
  Hf  Hf39  1  0.19861404  0.39218288  0.00754469  1
  Zr  Zr40  1  0.28668080  0.28323963  0.87680282  1
  Zr  Zr41  1  0.42609808  0.60687318  0.23920704  1
  Zr  Zr42  1  0.18346057  0.39090730  0.76877179  1
  Zr  Zr43  1  0.89274614  0.49933905  0.62780511  1
  Zr  Zr44  1  -0.01167541  0.59562759  0.25892121  1
  Zr  Zr45  1  0.90504253  0.90162690  0.12179915  1
  Zr  Zr46  1  0.38474782  0.39848996  0.48237299  1
  Zr  Zr47  1  0.19536866  0.20715046  0.50220929  1
  Zr  Zr48  1  0.50091617  0.09732176  0.11614405  1
  Zr  Zr49  1  0.79500154  0.80603710  0.50399581  1
  Zr  Zr50  1  0.88937155  0.91048946  0.38067630  1
  Zr  Zr51  1  0.70264366  0.29502151  0.37352308  1
  Zr  Zr52  1  0.00926858  0.00795898  0.50432033  1
  Zr  Zr53  1  0.59349945  0.39397945  0.51109892  1
  Zr  Zr54  1  0.09736315  0.49825039  0.61357938  1
  Zr  Zr55  1  0.51308480  0.29066621  0.36163515  1
  Zr  Zr56  1  0.69371963  0.50461453  0.63687398  1
  Zr  Zr57  1  0.29879605  0.90450524  0.10763415  1
  Zr  Zr58  1  0.00784564  0.01333351  0.75741980  1
  Zr  Zr59  1  -0.00784533  0.39624168  0.48150998  1
  Zr  Zr60  1  0.29533925  0.48970621  0.63451845  1
  Zr  Zr61  1  0.50286123  0.90505400  0.63096652  1
  Zr  Zr62  1  0.01147538  0.80141549  0.76090670  1
  Zr  Zr63  1  0.60857147  0.79632476  0.51324597  1
  Zr  Zr64  1  0.79898499  0.00066050  0.24251625  1
  Zr  Zr65  1  0.40444965  0.79226022  0.51286721  1
  Zr  Zr66  1  0.09270245  0.30226289  0.62326390  1
  Zr  Zr67  1  0.20085951  0.59845034  0.00747383  1
  Zr  Zr68  1  0.00438573  0.80388738  0.49344583  1
  Zr  Zr69  1  -0.01146228  0.39818215  0.76455981  1
  Zr  Zr70  1  0.89987118  0.70329507  0.12420723  1
  Zr  Zr71  1  0.70871351  0.70101594  0.11569944  1
  Zr  Zr72  1  0.29464346  0.10484015  0.37966588  1
  Zr  Zr73  1  0.30265712  0.29964926  0.63915218  1
  Zr  Zr74  1  0.30383913  0.70438941  0.13541427  1
  Zr  Zr75  1  0.81577062  0.81412161  -0.02048533  1
  Zr  Zr76  1  0.52457012  0.09643021  0.87219875  1
  Zr  Zr77  1  0.89488648  0.90496887  0.63506432  1
  Zr  Zr78  1  0.20355719  0.80185310  0.50244751  1
  Zr  Zr79  1  0.40931225  0.79455716  -0.01158382  1
  Ta  Ta80  1  0.69348282  0.69834847  0.36923821  1
  Ta  Ta81  1  0.49931416  0.89646198  0.12671000  1
  Ta  Ta82  1  0.69811943  0.50370405  0.87048366  1
  Ta  Ta83  1  0.09728093  0.50341600  0.88958944  1
  Ta  Ta84  1  0.59736500  0.60169024  -0.00123397  1
  Ta  Ta85  1  0.60896432  0.59279997  0.23426812  1
  Ta  Ta86  1  0.09486479  0.50419726  0.13358097  1
  Ta  Ta87  1  0.09449078  0.70684303  0.12540733  1
  Ta  Ta88  1  0.88840273  0.29601330  0.88768323  1
  Ta  Ta89  1  0.11252940  0.91123329  0.62952540  1
  Ta  Ta90  1  0.30180068  0.29453079  0.13432797  1
  Ta  Ta91  1  0.39756551  0.19280327  0.25740629  1
  Ta  Ta92  1  0.30554881  0.90502765  0.38781859  1
  Ta  Ta93  1  0.40122919  -0.00328138  0.76102049  1
  Ta  Ta94  1  0.79310851  0.59648581  0.25949386  1
  Ta  Ta95  1  0.09150276  0.11168123  0.35821454  1
  Ta  Ta96  1  0.00159063  0.59586345  0.76640139  1
  Ta  Ta97  1  0.10873970  0.10695878  0.89454855  1
  Ta  Ta98  1  0.89025374  0.50752401  0.10797139  1
  Ta  Ta99  1  0.39903077  0.39259619  -0.00554631  1
  Ta  Ta100  1  0.30167086  0.69115088  0.87171176  1
  Ta  Ta101  1  0.68612260  0.50611690  0.38636260  1
  Ta  Ta102  1  0.30152351  0.48959481  0.13637627  1
  Ta  Ta103  1  0.58136389  0.61366848  0.75944596  1
  Ta  Ta104  1  -0.00121061  0.20357393  0.76132436  1
  Ta  Ta105  1  0.60178562  0.41334835  0.24630783  1
  Ta  Ta106  1  0.49588677  0.49773557  0.86933224  1
  Ta  Ta107  1  0.30209977  0.49318417  0.87205499  1
  Ta  Ta108  1  -0.00184651  0.20365627  0.50475209  1
  Ta  Ta109  1  0.90175828  0.69898553  0.87027935  1
  Ta  Ta110  1  0.09432579  0.09458456  0.11328639  1
  Ta  Ta111  1  0.79792874  0.39902382  0.49885702  1
  Ta  Ta112  1  0.00103763  0.00684455  0.24755423  1
  Ta  Ta113  1  0.59908222  0.00446712  0.24828118  1
  Ta  Ta114  1  0.50244567  0.09996068  0.62225770  1
  Ta  Ta115  1  0.40426574  0.20607732  -0.01128851  1
  Ta  Ta116  1  0.20368917  0.00327785  0.75937243  1
  Ta  Ta117  1  0.79114366  0.60225074  0.49100283  1
  Ta  Ta118  1  0.31529541  0.67915493  0.62901977  1
  Ta  Ta119  1  0.90109693  0.11085797  0.62493067  1
  Ti  Ti120  1  0.80055837  0.39949194  0.75566950  1
  Ti  Ti121  1  0.70996897  0.50078656  0.10461791  1
  Ti  Ti122  1  0.40443040  0.39716309  0.25537103  1
  Ti  Ti123  1  0.60416811  0.20127576  0.52011524  1
  Ti  Ti124  1  0.49952490  0.29742047  0.64422193  1
  Ti  Ti125  1  0.70861573  0.10037953  0.62425578  1
  Ti  Ti126  1  0.61414170  -0.00621200  0.51407621  1
  Ti  Ti127  1  0.50306519  0.50703874  0.38177717  1
  Ti  Ti128  1  0.59257241  0.80546237  -0.01060691  1
  Ti  Ti129  1  -0.00776673  -0.00945575  -0.01498960  1
  Ti  Ti130  1  0.30463682  0.90411256  0.62338063  1
  Ti  Ti131  1  0.21411544  0.58744970  0.49741199  1
  Ti  Ti132  1  0.60595419  0.00838390  0.73716029  1
  Ti  Ti133  1  0.59100968  0.39751419  0.75547875  1
  Ti  Ti134  1  0.69887433  0.89817916  0.36694442  1
  Ti  Ti135  1  0.50208356  0.49261207  0.12063707  1
  Ti  Ti136  1  0.00163213  0.20407677  -0.00596074  1
  Ti  Ti137  1  0.10317830  0.90175173  0.88265330  1
  Ti  Ti138  1  0.80444424  0.00926949  0.75387913  1
  Ti  Ti139  1  0.88822398  0.50489450  0.88697898  1
  Ti  Ti140  1  0.18669653  0.18645819  0.74599235  1
  Ti  Ti141  1  0.90327065  0.10102781  0.10623678  1
  Ti  Ti142  1  0.09588969  0.90078490  0.10637357  1
  Ti  Ti143  1  0.10714397  0.49532654  0.35993182  1
  Ti  Ti144  1  0.59428513  0.20647212  -0.00652829  1
  Ti  Ti145  1  0.29567020  0.09305937  0.89135288  1
  Ti  Ti146  1  -0.00020218  0.61036726  -0.00560544  1
  Ti  Ti147  1  0.70252448  0.30023369  0.63831467  1
  Ti  Ti148  1  0.50764554  0.09428576  0.38837738  1
  Ti  Ti149  1  0.80502339  0.21233141  0.51444040  1
  Ti  Ti150  1  0.19204754  0.79277886  -0.00677907  1
  Ti  Ti151  1  0.19387683  0.00307256  0.49562826  1
  Ti  Ti152  1  0.51033008  0.68637408  0.39252043  1
  Ti  Ti153  1  0.90413518  0.29275952  0.36204582  1
  Ti  Ti154  1  0.80697998  0.20135615  0.74702600  1
  Ti  Ti155  1  0.41893899  -0.00550632  -0.01788717  1
  Ti  Ti156  1  0.71076323  0.10567957  0.88330645  1
  Ti  Ti157  1  0.89487301  0.10351734  0.88571934  1
  Ti  Ti158  1  -0.01086483  0.40699760  0.25052931  1
  Ti  Ti159  1  0.88449087  0.70731901  0.36662251  1
  Mo  Mo160  1  0.19186375  -0.00466643  -0.00875231  1
  Mo  Mo161  1  0.50415646  0.68707562  0.61814027  1
  Mo  Mo162  1  0.10122273  0.69865200  0.88813111  1
  Mo  Mo163  1  0.19777610  0.40524781  0.47507936  1
  Mo  Mo164  1  0.79995797  0.60096136  -0.01329231  1
  Mo  Mo165  1  0.39932045  0.59488157  0.48893528  1
  Mo  Mo166  1  0.88507530  0.49664768  0.38090627  1
  Mo  Mo167  1  0.09026041  0.29232543  0.88421641  1
  Mo  Mo168  1  0.19985520  0.19155552  0.23350203  1
  Mo  Mo169  1  0.10114211  0.10072569  0.63376550  1
  Mo  Mo170  1  0.19388017  0.60322403  0.23088874  1
  Mo  Mo171  1  0.19922238  0.19799237  0.01474724  1
  Mo  Mo172  1  0.19961485  0.40041057  0.23673900  1
  Mo  Mo173  1  0.01047828  0.79907522  -0.01325590  1
  Mo  Mo174  1  0.40490160  0.80778691  0.25668169  1
  Mo  Mo175  1  0.50005982  0.30081677  0.86554227  1
  Mo  Mo176  1  0.51013912  0.70081998  0.10914943  1
  Mo  Mo177  1  0.10668546  0.91324428  0.37934118  1
  Mo  Mo178  1  0.29993561  0.30135725  0.34786605  1
  Mo  Mo179  1  0.88929053  0.29618248  0.63233295  1
  Mo  Mo180  1  0.60001723  0.80467441  0.75312533  1
  Mo  Mo181  1  0.59893777  0.60083803  0.51099363  1
  Mo  Mo182  1  0.60887447  0.19763910  0.73191982  1
  Mo  Mo183  1  0.70494923  0.90894656  0.64965255  1
  Mo  Mo184  1  0.59921089  -0.00913778  0.00419770  1
  Mo  Mo185  1  0.40310270  0.39334903  0.76946070  1
  Mo  Mo186  1  0.79359948  0.00871031  0.51725851  1
  Mo  Mo187  1  -0.00885738  0.19002687  0.23765511  1
  Mo  Mo188  1  0.80562915  0.80911870  0.76087047  1
  Mo  Mo189  1  0.79183937  0.79650271  0.26124364  1
  Mo  Mo190  1  0.40223557  0.00130552  0.49785422  1
  Mo  Mo191  1  0.80724840  0.00705473  -0.01252158  1
  Mo  Mo192  1  0.79440206  0.40495276  -0.01104342  1
  Mo  Mo193  1  0.39612863  0.59731588  0.76669187  1
  Mo  Mo194  1  0.50537761  0.69593849  0.88807732  1
  Mo  Mo195  1  0.80114499  0.20246995  -0.00200182  1
  Mo  Mo196  1  0.59750706  0.18708771  0.25058281  1
  Mo  Mo197  1  0.80215086  0.59503635  0.76901939  1
  Mo  Mo198  1  0.50764270  0.90121864  0.85735749  1
  Mo  Mo199  1  0.90277964  0.90734905  0.86125463  1
