# generated using pymatgen
data_HfZrTaTiMo
_symmetry_space_group_name_H-M   'P 1'
_cell_length_a   15.82886158
_cell_length_b   15.84436267
_cell_length_c   15.37759625
_cell_angle_alpha   89.98885721
_cell_angle_beta   90.08519229
_cell_angle_gamma   90.05611077
_symmetry_Int_Tables_number   1
_chemical_formula_structural   HfZrTaTiMo
_chemical_formula_sum   'Hf40 Zr40 Ta40 Ti40 Mo40'
_cell_volume   3856.66763563
_cell_formula_units_Z   40
loop_
 _symmetry_equiv_pos_site_id
 _symmetry_equiv_pos_as_xyz
  1  'x, y, z'
loop_
 _atom_site_type_symbol
 _atom_site_label
 _atom_site_symmetry_multiplicity
 _atom_site_fract_x
 _atom_site_fract_y
 _atom_site_fract_z
 _atom_site_occupancy
  Hf  Hf0  1  0.49060470  0.31337897  0.89705351  1
  Hf  Hf1  1  0.30692545  0.68680338  0.61465195  1
  Hf  Hf2  1  0.01117854  0.59295735  0.51342204  1
  Hf  Hf3  1  0.50089499  0.69922395  0.37401060  1
  Hf  Hf4  1  0.50415024  0.09759998  0.89051798  1
  Hf  Hf5  1  0.20344725  0.42122791  0.51132318  1
  Hf  Hf6  1  0.59466650  0.80549484  0.50910773  1
  Hf  Hf7  1  0.49960309  0.29897886  0.62344778  1
  Hf  Hf8  1  0.39284763  0.39359611  0.48265160  1
  Hf  Hf9  1  0.79350402  0.40676075  0.49183693  1
  Hf  Hf10  1  0.59651835  0.40806108  0.75932521  1
  Hf  Hf11  1  0.89682576  0.30273227  0.63500043  1
  Hf  Hf12  1  0.89445355  0.90357374  0.11799393  1
  Hf  Hf13  1  0.50443212  0.90525684  0.88598618  1
  Hf  Hf14  1  0.19746424  0.40901589  0.01201581  1
  Hf  Hf15  1  0.30470568  0.89330573  0.62513915  1
  Hf  Hf16  1  0.68931411  0.29801461  0.88532391  1
  Hf  Hf17  1  0.70853001  0.89502619  0.11248259  1
  Hf  Hf18  1  0.00476000  0.80316179  0.24999052  1
  Hf  Hf19  1  0.40702139  -0.00211150  0.51202463  1
  Hf  Hf20  1  0.68304765  0.90398946  0.36979993  1
  Hf  Hf21  1  0.29838837  0.09788527  0.87914535  1
  Hf  Hf22  1  -0.00416552  0.20021002  0.24285085  1
  Hf  Hf23  1  0.50240654  0.50280740  0.61865022  1
  Hf  Hf24  1  0.00516996  0.39706461  0.51368702  1
  Hf  Hf25  1  0.10268846  0.89765042  0.86328882  1
  Hf  Hf26  1  0.30301411  0.11049897  0.62722902  1
  Hf  Hf27  1  0.09660255  0.89491478  0.39153268  1
  Hf  Hf28  1  0.70452346  0.68543257  0.13037160  1
  Hf  Hf29  1  0.50415785  0.08944748  0.37611104  1
  Hf  Hf30  1  0.29629661  0.89764409  0.11439186  1
  Hf  Hf31  1  0.29324472  0.09934086  0.10962751  1
  Hf  Hf32  1  0.90645100  0.70046654  0.38857327  1
  Hf  Hf33  1  0.30034126  0.89817162  0.87047723  1
  Hf  Hf34  1  0.29444794  0.68917375  0.87197027  1
  Hf  Hf35  1  0.20569576  0.20247798  0.25807885  1
  Hf  Hf36  1  0.00025204  0.00154062  0.24963617  1
  Hf  Hf37  1  0.69476153  0.69195368  0.87077998  1
  Hf  Hf38  1  0.20318035  0.21751215  0.49912662  1
  Hf  Hf39  1  -0.00053791  0.60760366  0.00785997  1
  Zr  Zr40  1  0.58107427  0.79769483  0.23225552  1
  Zr  Zr41  1  0.70449816  0.10190946  0.36600728  1
  Zr  Zr42  1  0.69478587  0.49249520  0.13786433  1
  Zr  Zr43  1  0.79436337  0.40955136  -0.01101132  1
  Zr  Zr44  1  0.89190838  0.70426707  0.13260042  1
  Zr  Zr45  1  0.19176349  0.00339516  0.73830987  1
  Zr  Zr46  1  0.40175539  0.78903457  0.00406351  1
  Zr  Zr47  1  0.71661938  0.09700022  0.11251278  1
  Zr  Zr48  1  0.80113651  0.20533329  0.49706608  1
  Zr  Zr49  1  0.90652456  0.89572967  0.85955760  1
  Zr  Zr50  1  0.59477261  0.78564910  0.00583212  1
  Zr  Zr51  1  0.69719056  0.10277707  0.63011330  1
  Zr  Zr52  1  0.09350719  0.10349153  0.38874018  1
  Zr  Zr53  1  0.90415186  0.09869521  0.63397819  1
  Zr  Zr54  1  0.69916392  0.68805165  0.62172525  1
  Zr  Zr55  1  0.39177152  0.58348222  0.48135879  1
  Zr  Zr56  1  0.30897272  0.50214355  0.88831719  1
  Zr  Zr57  1  0.00166852  0.00256606  -0.00742651  1
  Zr  Zr58  1  -0.00464785  0.40568480  0.22859712  1
  Zr  Zr59  1  0.40118020  0.20620155  0.76065728  1
  Zr  Zr60  1  0.40944612  0.79146352  0.74950725  1
  Zr  Zr61  1  0.19878055  0.00030465  0.26095779  1
  Zr  Zr62  1  0.30481656  0.29973452  0.11825666  1
  Zr  Zr63  1  0.60025920  0.20048696  0.50149646  1
  Zr  Zr64  1  0.79939434  0.20223941  0.76730047  1
  Zr  Zr65  1  0.19598296  0.40090319  0.74841834  1
  Zr  Zr66  1  0.00388891  0.60013507  0.24490966  1
  Zr  Zr67  1  0.60160508  0.19891871  0.23189562  1
  Zr  Zr68  1  0.00186118  0.59900039  0.73808363  1
  Zr  Zr69  1  0.88667009  0.70145857  0.61620836  1
  Zr  Zr70  1  0.79424796  -0.00474299  0.75774194  1
  Zr  Zr71  1  0.60242215  0.80261424  0.74713768  1
  Zr  Zr72  1  0.58819088  -0.00209346  0.22494460  1
  Zr  Zr73  1  0.89766517  0.10640777  0.10903141  1
  Zr  Zr74  1  0.10180878  0.70267271  0.87079000  1
  Zr  Zr75  1  0.39526303  -0.00868530  0.24551016  1
  Zr  Zr76  1  0.10449940  0.50757180  0.87743567  1
  Zr  Zr77  1  0.09742622  0.31098102  0.36937583  1
  Zr  Zr78  1  0.50246403  0.29415487  0.36291135  1
  Zr  Zr79  1  -0.00601992  0.40641598  0.01025462  1
  Ta  Ta80  1  0.88565797  0.49989347  0.62687696  1
  Ta  Ta81  1  0.09783637  0.29733361  0.88663801  1
  Ta  Ta82  1  0.80302539  0.59609004  0.27109076  1
  Ta  Ta83  1  0.41361101  0.00214657  0.73980783  1
  Ta  Ta84  1  0.60180287  0.40229265  0.48911380  1
  Ta  Ta85  1  0.40199300  0.60203668  0.25545736  1
  Ta  Ta86  1  0.81063512  0.78687249  -0.01959567  1
  Ta  Ta87  1  0.89659055  0.89689081  0.62386827  1
  Ta  Ta88  1  0.69989771  0.50190545  0.62983741  1
  Ta  Ta89  1  0.10786730  0.69872988  0.38788945  1
  Ta  Ta90  1  0.10360402  0.89891922  0.12143321  1
  Ta  Ta91  1  0.59842157  0.20063569  0.01532295  1
  Ta  Ta92  1  0.50343781  0.50013043  0.13591035  1
  Ta  Ta93  1  -0.00056672  -0.00121882  0.51482398  1
  Ta  Ta94  1  0.30126053  0.30534655  0.63093368  1
  Ta  Ta95  1  0.80161654  0.40643718  0.76453974  1
  Ta  Ta96  1  0.79888512  0.80416857  0.26696033  1
  Ta  Ta97  1  0.30424697  0.71227585  0.37841852  1
  Ta  Ta98  1  0.00654237  0.80076910  0.72440200  1
  Ta  Ta99  1  0.50316444  0.31230641  0.12280047  1
  Ta  Ta100  1  0.10507197  0.50659112  0.36877164  1
  Ta  Ta101  1  0.20435130  0.60616871  0.25145013  1
  Ta  Ta102  1  0.69837829  0.69707859  0.37478795  1
  Ta  Ta103  1  0.20682744  0.80370061  0.26029493  1
  Ta  Ta104  1  0.69756069  0.09228751  0.89339413  1
  Ta  Ta105  1  0.39590531  0.40280799  0.25533075  1
  Ta  Ta106  1  0.19384135  0.20741258  0.75594729  1
  Ta  Ta107  1  0.79415471  0.80540983  0.48694085  1
  Ta  Ta108  1  0.79711706  0.59541029  0.76228268  1
  Ta  Ta109  1  0.79812708  -0.00532485  0.49841313  1
  Ta  Ta110  1  0.20173697  0.79873595  0.50564452  1
  Ta  Ta111  1  0.00359151  0.79906408  0.00419702  1
  Ta  Ta112  1  0.10055154  0.28838222  0.11158891  1
  Ta  Ta113  1  0.69814293  0.31249338  0.63495111  1
  Ta  Ta114  1  0.19929368  0.40666575  0.23924810  1
  Ta  Ta115  1  0.39687232  0.40659492  0.75028024  1
  Ta  Ta116  1  0.89917740  0.29944893  0.37083620  1
  Ta  Ta117  1  0.20243411  0.00154441  0.50526203  1
  Ta  Ta118  1  0.47960440  0.88810734  0.38143656  1
  Ta  Ta119  1  0.30547445  0.51045339  0.12783976  1
  Ti  Ti120  1  0.19981562  0.59290997  0.72421229  1
  Ti  Ti121  1  0.00490542  0.20083443  0.75624516  1
  Ti  Ti122  1  0.41060282  0.59471391  0.75302440  1
  Ti  Ti123  1  0.39982927  0.20067978  0.00346313  1
  Ti  Ti124  1  0.80696278  -0.00136444  0.26078874  1
  Ti  Ti125  1  0.19692164  0.79284256  0.00142783  1
  Ti  Ti126  1  0.09111373  0.10512165  0.87334689  1
  Ti  Ti127  1  0.59584920  0.19614288  0.75368620  1
  Ti  Ti128  1  0.00061808  0.20605428  0.50603298  1
  Ti  Ti129  1  0.90726128  0.29223667  0.88424173  1
  Ti  Ti130  1  0.09916010  0.10886531  0.62361947  1
  Ti  Ti131  1  0.59638027  0.00149358  0.74216354  1
  Ti  Ti132  1  0.71017738  0.89240235  0.62909557  1
  Ti  Ti133  1  0.88111020  0.51265139  0.12140369  1
  Ti  Ti134  1  0.40057106  0.19400911  0.24437059  1
  Ti  Ti135  1  0.70596296  0.30120624  0.12090853  1
  Ti  Ti136  1  0.60255747  0.58984371  -0.00074204  1
  Ti  Ti137  1  0.69908269  0.89989169  0.88646386  1
  Ti  Ti138  1  0.10301641  0.10310369  0.11181453  1
  Ti  Ti139  1  0.89993122  0.51130569  0.87631666  1
  Ti  Ti140  1  0.19399926  0.78899225  0.72929346  1
  Ti  Ti141  1  0.19412118  -0.00270882  -0.00811173  1
  Ti  Ti142  1  0.29566889  0.30322469  0.88801233  1
  Ti  Ti143  1  0.90559971  0.49611878  0.37932397  1
  Ti  Ti144  1  0.39861334  0.20084112  0.49637640  1
  Ti  Ti145  1  0.41103218  0.60400028  0.01187832  1
  Ti  Ti146  1  0.60702353  0.58845556  0.48488949  1
  Ti  Ti147  1  0.90214952  0.90255335  0.38714251  1
  Ti  Ti148  1  0.30549111  0.09887445  0.38275381  1
  Ti  Ti149  1  0.50373965  0.50521340  0.88686398  1
  Ti  Ti150  1  0.70365609  0.30124195  0.35918500  1
  Ti  Ti151  1  0.59898446  -0.00368410  0.51735056  1
  Ti  Ti152  1  0.30548647  0.70192525  0.13650014  1
  Ti  Ti153  1  0.80520851  0.39485992  0.25110114  1
  Ti  Ti154  1  0.90018258  0.10210683  0.38110971  1
  Ti  Ti155  1  0.11161617  0.70388790  0.12740904  1
  Ti  Ti156  1  0.88781380  0.29201572  0.11479431  1
  Ti  Ti157  1  0.50249744  0.69123216  0.61597746  1
  Ti  Ti158  1  0.69356364  0.49563904  0.36032256  1
  Ti  Ti159  1  -0.00074193  0.39854157  0.75164918  1
  Mo  Mo160  1  0.80410880  0.79481212  0.75991736  1
  Mo  Mo161  1  0.49434368  0.90457324  0.10397738  1
  Mo  Mo162  1  0.49626235  0.68425841  0.13596675  1
  Mo  Mo163  1  0.50647861  0.49664400  0.36145351  1
  Mo  Mo164  1  0.69443313  0.50168975  0.86877229  1
  Mo  Mo165  1  0.60091506  0.39720784  0.25655611  1
  Mo  Mo166  1  0.09881482  0.90092818  0.61606767  1
  Mo  Mo167  1  0.39711334  -0.00069621  0.00234195  1
  Mo  Mo168  1  0.59559105  0.40452173  0.00466063  1
  Mo  Mo169  1  0.30748197  0.49821399  0.63599679  1
  Mo  Mo170  1  0.50208395  0.10225263  0.62946543  1
  Mo  Mo171  1  0.09813511  0.29343078  0.63701688  1
  Mo  Mo172  1  0.30133479  0.29816391  0.36104853  1
  Mo  Mo173  1  0.40263065  0.41067775  0.01678792  1
  Mo  Mo174  1  0.20080972  0.60016680  0.49400260  1
  Mo  Mo175  1  0.59910096  -0.00142528  0.01062861  1
  Mo  Mo176  1  0.40303998  0.79553670  0.51074693  1
  Mo  Mo177  1  0.48937286  0.10665752  0.10819489  1
  Mo  Mo178  1  0.10651847  0.50845967  0.12996999  1
  Mo  Mo179  1  0.50819751  0.90102535  0.62699222  1
  Mo  Mo180  1  0.09617963  0.49666415  0.63549846  1
  Mo  Mo181  1  0.59063834  0.59765960  0.75261976  1
  Mo  Mo182  1  0.10524025  0.70045970  0.61163601  1
  Mo  Mo183  1  0.29350192  0.50153751  0.35254296  1
  Mo  Mo184  1  0.49815016  0.68241304  0.87295812  1
  Mo  Mo185  1  0.00024785  0.20286997  -0.00400224  1
  Mo  Mo186  1  0.80178401  0.60150655  -0.01612145  1
  Mo  Mo187  1  0.80775667  0.20866003  0.25657393  1
  Mo  Mo188  1  0.39267540  0.79951162  0.24084684  1
  Mo  Mo189  1  0.80082435  0.20300962  -0.01610169  1
  Mo  Mo190  1  0.19644313  0.19910617  -0.01658054  1
  Mo  Mo191  1  0.60039165  0.59637578  0.26229154  1
  Mo  Mo192  1  -0.00135776  0.80286565  0.51053075  1
  Mo  Mo193  1  0.00362099  0.00378016  0.73443307  1
  Mo  Mo194  1  0.90212517  0.70165445  0.86210808  1
  Mo  Mo195  1  0.29932842  0.89664418  0.39187534  1
  Mo  Mo196  1  0.20647119  0.61151333  0.02458400  1
  Mo  Mo197  1  0.90353741  0.10452403  0.87240590  1
  Mo  Mo198  1  0.80094624  -0.00777220  -0.02118708  1
  Mo  Mo199  1  0.79480076  0.59170755  0.48161063  1
