# generated using pymatgen
data_HfZrTaTiMo
_symmetry_space_group_name_H-M   'P 1'
_cell_length_a   15.84073560
_cell_length_b   15.84620668
_cell_length_c   15.38299172
_cell_angle_alpha   89.95236080
_cell_angle_beta   89.90232853
_cell_angle_gamma   90.00778585
_symmetry_Int_Tables_number   1
_chemical_formula_structural   HfZrTaTiMo
_chemical_formula_sum   'Hf40 Zr40 Ta40 Ti40 Mo40'
_cell_volume   3861.36345816
_cell_formula_units_Z   40
loop_
 _symmetry_equiv_pos_site_id
 _symmetry_equiv_pos_as_xyz
  1  'x, y, z'
loop_
 _atom_site_type_symbol
 _atom_site_label
 _atom_site_symmetry_multiplicity
 _atom_site_fract_x
 _atom_site_fract_y
 _atom_site_fract_z
 _atom_site_occupancy
  Hf  Hf0  1  0.19660933  0.78779317  0.74819602  1
  Hf  Hf1  1  0.90407893  0.90427130  0.37767765  1
  Hf  Hf2  1  0.41069552  0.79312357  0.00710572  1
  Hf  Hf3  1  0.91011711  0.51735908  0.62948845  1
  Hf  Hf4  1  0.00066712  0.40540125  0.75652832  1
  Hf  Hf5  1  0.90047924  0.29125711  0.64021248  1
  Hf  Hf6  1  0.69999463  0.91251252  0.62202477  1
  Hf  Hf7  1  0.59486289  0.19266756  0.25526658  1
  Hf  Hf8  1  0.90983215  0.30103704  0.37194231  1
  Hf  Hf9  1  0.20351046  0.79977527  0.26059262  1
  Hf  Hf10  1  0.69290149  0.29556690  0.87709453  1
  Hf  Hf11  1  0.90645745  0.10716629  0.11157823  1
  Hf  Hf12  1  0.89988321  0.29733379  0.88523843  1
  Hf  Hf13  1  0.10240959  0.70472757  0.12592324  1
  Hf  Hf14  1  0.29013244  0.68819643  0.61453420  1
  Hf  Hf15  1  0.19512092  0.18535755  -0.01193186  1
  Hf  Hf16  1  0.59783090  0.00108004  0.24694860  1
  Hf  Hf17  1  0.80505325  0.19446964  0.25493884  1
  Hf  Hf18  1  0.69974802  0.51635421  0.13204530  1
  Hf  Hf19  1  0.31425865  0.90170534  0.87820825  1
  Hf  Hf20  1  0.09973375  0.28922949  0.64027441  1
  Hf  Hf21  1  0.70537572  0.50528018  0.62680544  1
  Hf  Hf22  1  0.00026192  0.60202602  0.24823571  1
  Hf  Hf23  1  0.59804071  0.80142333  0.24500498  1
  Hf  Hf24  1  -0.00183826  0.79133989  0.74762034  1
  Hf  Hf25  1  0.89999597  0.70802724  0.11706913  1
  Hf  Hf26  1  0.00499356  0.01344818  -0.02426066  1
  Hf  Hf27  1  0.81873588  0.81839888  0.74113185  1
  Hf  Hf28  1  0.90740539  0.90814044  0.12194890  1
  Hf  Hf29  1  0.09973424  0.90623274  0.12521051  1
  Hf  Hf30  1  0.70798350  0.69812969  0.62380912  1
  Hf  Hf31  1  0.10755628  0.48401740  0.35306813  1
  Hf  Hf32  1  0.80796201  0.40102153  0.50525638  1
  Hf  Hf33  1  0.39492126  0.39817955  0.00582165  1
  Hf  Hf34  1  0.70409323  0.50478981  0.37178814  1
  Hf  Hf35  1  0.60511819  0.80533890  0.01393700  1
  Hf  Hf36  1  0.10689086  0.89875150  0.86680626  1
  Hf  Hf37  1  0.49878707  0.52617472  0.35621967  1
  Hf  Hf38  1  0.58809883  0.19465633  0.49154501  1
  Hf  Hf39  1  0.00669502  0.40225359  0.50866435  1
  Zr  Zr40  1  0.09884910  0.28664156  0.36045824  1
  Zr  Zr41  1  0.59871760  0.40330813  0.74828140  1
  Zr  Zr42  1  0.80867578  0.40244912  0.23992558  1
  Zr  Zr43  1  0.10392216  0.49546278  0.88402500  1
  Zr  Zr44  1  0.79660998  0.40621225  0.00321401  1
  Zr  Zr45  1  0.59445784  0.39964266  0.24562934  1
  Zr  Zr46  1  0.29713579  0.90504996  0.60429611  1
  Zr  Zr47  1  0.28621044  0.30000415  0.36457470  1
  Zr  Zr48  1  0.20393232  -0.00332790  0.26158931  1
  Zr  Zr49  1  0.70302299  0.29856929  0.37849218  1
  Zr  Zr50  1  0.20752958  0.59464044  0.00872256  1
  Zr  Zr51  1  0.59097913  0.40042881  0.49536078  1
  Zr  Zr52  1  0.58860277  0.19747934  0.00289114  1
  Zr  Zr53  1  0.80967334  0.79966823  0.50305147  1
  Zr  Zr54  1  0.49354685  0.29336401  0.63879370  1
  Zr  Zr55  1  0.19697994  0.58821863  0.48289492  1
  Zr  Zr56  1  0.48975535  0.90340335  0.38484605  1
  Zr  Zr57  1  0.10672742  0.09650393  0.63668852  1
  Zr  Zr58  1  0.40440202  0.59248614  0.02000937  1
  Zr  Zr59  1  0.79829883  0.00184008  0.25226288  1
  Zr  Zr60  1  0.59365179  0.61208994  0.01098463  1
  Zr  Zr61  1  0.30673983  0.69087821  0.87605374  1
  Zr  Zr62  1  0.39977514  0.80369479  0.74123342  1
  Zr  Zr63  1  0.09755752  0.90110909  0.62392732  1
  Zr  Zr64  1  0.68851001  0.69451434  0.37865088  1
  Zr  Zr65  1  0.51327457  0.08948988  0.86377635  1
  Zr  Zr66  1  0.48794652  0.69923143  0.61122066  1
  Zr  Zr67  1  0.80299170  0.01457054  0.50519108  1
  Zr  Zr68  1  0.49186734  0.50295555  0.86663423  1
  Zr  Zr69  1  0.39821937  0.40124889  0.48501741  1
  Zr  Zr70  1  0.70317729  0.29173048  0.63383528  1
  Zr  Zr71  1  0.70044740  0.51010889  0.87258520  1
  Zr  Zr72  1  0.29593863  0.28524597  0.12934366  1
  Zr  Zr73  1  0.70493815  0.92899374  0.86824256  1
  Zr  Zr74  1  0.20190236  0.39444464  0.50924993  1
  Zr  Zr75  1  0.70245189  0.71077885  0.86485434  1
  Zr  Zr76  1  0.18712947  0.78690721  0.48441467  1
  Zr  Zr77  1  0.79620821  0.80070173  0.25107589  1
  Zr  Zr78  1  0.70323859  0.29313473  0.11789488  1
  Zr  Zr79  1  0.59345918  0.81174644  0.73796280  1
  Ta  Ta80  1  0.39820493  0.18710957  0.26623207  1
  Ta  Ta81  1  0.00052379  0.39882009  0.22442750  1
  Ta  Ta82  1  0.39690477  0.40000482  0.25314495  1
  Ta  Ta83  1  0.00189031  0.00770609  0.49494112  1
  Ta  Ta84  1  0.81613468  0.60381689  0.49124839  1
  Ta  Ta85  1  0.22216635  0.01062607  0.75939128  1
  Ta  Ta86  1  0.19962957  0.39537998  0.00900802  1
  Ta  Ta87  1  0.48906502  0.29391756  0.13369543  1
  Ta  Ta88  1  0.69160344  0.90474781  0.39065839  1
  Ta  Ta89  1  0.38785840  0.18676203  0.75685431  1
  Ta  Ta90  1  0.90746942  0.49990040  0.37138830  1
  Ta  Ta91  1  0.00807572  0.61165984  0.76714493  1
  Ta  Ta92  1  0.40839374  0.00171882  0.73023889  1
  Ta  Ta93  1  0.29563368  0.28466134  0.62783883  1
  Ta  Ta94  1  0.09302138  0.28625392  0.11818605  1
  Ta  Ta95  1  0.09919037  0.29615010  0.88103942  1
  Ta  Ta96  1  0.20451659  0.39541687  0.75404767  1
  Ta  Ta97  1  0.19937518  0.59362373  0.75907636  1
  Ta  Ta98  1  0.48929727  0.50133149  0.62867249  1
  Ta  Ta99  1  0.59360113  0.60581198  0.73889676  1
  Ta  Ta100  1  0.28962301  0.09777581  0.39560047  1
  Ta  Ta101  1  0.00048922  0.19084385  0.49870306  1
  Ta  Ta102  1  0.39955510  0.20082817  0.49156448  1
  Ta  Ta103  1  0.00339963  0.60699910  -0.00407944  1
  Ta  Ta104  1  0.59209270  0.80278595  0.50335623  1
  Ta  Ta105  1  0.70670928  0.09618461  0.10925615  1
  Ta  Ta106  1  0.48904044  0.90595088  0.13166750  1
  Ta  Ta107  1  0.58549007  0.40472314  0.01054229  1
  Ta  Ta108  1  0.31442625  0.68891196  0.36630679  1
  Ta  Ta109  1  0.89955257  0.51020278  0.88478805  1
  Ta  Ta110  1  0.10522036  0.50910035  0.63493201  1
  Ta  Ta111  1  0.49267889  0.29707336  0.86865136  1
  Ta  Ta112  1  0.30220621  0.08856503  0.11800993  1
  Ta  Ta113  1  0.90167527  0.10081243  0.63731755  1
  Ta  Ta114  1  0.20493983  0.80050142  0.00118709  1
  Ta  Ta115  1  0.20380031  -0.00047610  -0.00785806  1
  Ta  Ta116  1  0.09561050  0.09784143  0.13436679  1
  Ta  Ta117  1  0.90396242  0.50949333  0.11234564  1
  Ta  Ta118  1  -0.02292210  -0.01100738  0.76049560  1
  Ta  Ta119  1  0.30334638  0.90035790  0.12020768  1
  Ti  Ti120  1  0.50645242  0.90127941  0.87434601  1
  Ti  Ti121  1  0.39379889  0.59451856  0.74755780  1
  Ti  Ti122  1  -0.00074912  0.78781682  0.50045670  1
  Ti  Ti123  1  0.00575826  0.80376975  -0.01298980  1
  Ti  Ti124  1  0.59518302  0.59864544  0.50808517  1
  Ti  Ti125  1  0.81572162  0.61440419  0.75290526  1
  Ti  Ti126  1  -0.00205255  0.18358805  0.77606199  1
  Ti  Ti127  1  0.60057476  -0.00394054  0.01418385  1
  Ti  Ti128  1  0.09691242  0.90723954  0.38075534  1
  Ti  Ti129  1  0.30002723  0.49257746  0.63295612  1
  Ti  Ti130  1  0.39472765  0.59194884  0.49274335  1
  Ti  Ti131  1  0.00836057  0.60806692  0.48388747  1
  Ti  Ti132  1  0.29842846  0.30077388  0.87816612  1
  Ti  Ti133  1  0.29663415  0.49425534  0.14420107  1
  Ti  Ti134  1  0.30521694  0.70469786  0.13691136  1
  Ti  Ti135  1  0.58902450  0.00960577  0.51127063  1
  Ti  Ti136  1  0.40072483  0.80080851  0.25650364  1
  Ti  Ti137  1  0.48954114  0.09922859  0.12713637  1
  Ti  Ti138  1  0.69154577  0.10759842  0.64007192  1
  Ti  Ti139  1  0.38886816  0.39477284  0.75422850  1
  Ti  Ti140  1  0.19884460  0.18508579  0.24515205  1
  Ti  Ti141  1  0.00472162  0.40310554  0.00911492  1
  Ti  Ti142  1  0.90421296  0.29149429  0.10968667  1
  Ti  Ti143  1  0.50212335  0.70226040  0.86412226  1
  Ti  Ti144  1  0.89967704  0.70808706  0.88798623  1
  Ti  Ti145  1  0.80671903  0.60928531  0.25398866  1
  Ti  Ti146  1  0.20740327  0.19411443  0.76789099  1
  Ti  Ti147  1  0.39652924  0.19367538  -0.00995773  1
  Ti  Ti148  1  0.80684595  0.19707750  0.49874795  1
  Ti  Ti149  1  0.20359281  0.59721180  0.24815463  1
  Ti  Ti150  1  0.40637049  0.00137843  0.00042452  1
  Ti  Ti151  1  0.79563257  0.61514669  0.00109302  1
  Ti  Ti152  1  0.79601755  0.18408712  0.76939063  1
  Ti  Ti153  1  0.40420851  0.01626923  0.51262093  1
  Ti  Ti154  1  0.30134372  0.90157943  0.39367058  1
  Ti  Ti155  1  0.80460582  0.40677547  0.75654959  1
  Ti  Ti156  1  0.39411632  0.00233648  0.25761043  1
  Ti  Ti157  1  0.69774902  0.09479970  0.38168513  1
  Ti  Ti158  1  0.00277678  0.79953832  0.26471345  1
  Ti  Ti159  1  0.79558189  0.81362759  0.00243254  1
  Mo  Mo160  1  0.10436863  0.09497485  0.85589453  1
  Mo  Mo161  1  0.80197246  0.00695269  0.73630283  1
  Mo  Mo162  1  0.88668567  0.09350399  0.87654340  1
  Mo  Mo163  1  -0.00215395  0.19811371  0.24313356  1
  Mo  Mo164  1  0.59803267  0.19861402  0.75930144  1
  Mo  Mo165  1  0.49116239  0.29630152  0.36101542  1
  Mo  Mo166  1  0.49988026  0.10622721  0.63566985  1
  Mo  Mo167  1  0.91150716  0.69668666  0.61546506  1
  Mo  Mo168  1  0.10002615  0.49665717  0.12238739  1
  Mo  Mo169  1  0.49698760  0.49569906  0.13818906  1
  Mo  Mo170  1  0.49674224  0.70428396  0.14496460  1
  Mo  Mo171  1  0.39403748  0.79269118  0.48591985  1
  Mo  Mo172  1  0.49225650  0.09501882  0.37565441  1
  Mo  Mo173  1  0.91020329  0.90785413  0.60823058  1
  Mo  Mo174  1  0.69834842  0.90769853  0.11834376  1
  Mo  Mo175  1  0.60175587  0.61159511  0.23376029  1
  Mo  Mo176  1  0.19660026  0.19387223  0.50482435  1
  Mo  Mo177  1  0.19459969  0.39417841  0.22328438  1
  Mo  Mo178  1  0.00497898  0.20173401  -0.01310243  1
  Mo  Mo179  1  0.90492925  0.69697440  0.37719195  1
  Mo  Mo180  1  0.90551078  0.10598737  0.37719311  1
  Mo  Mo181  1  0.10252207  0.70223153  0.89090373  1
  Mo  Mo182  1  0.00184761  0.00708843  0.26534579  1
  Mo  Mo183  1  0.19290169  0.00130111  0.48937476  1
  Mo  Mo184  1  0.70231577  0.10050055  0.88481907  1
  Mo  Mo185  1  0.31087457  0.09490965  0.88731344  1
  Mo  Mo186  1  0.29921803  0.10741851  0.61221353  1
  Mo  Mo187  1  0.80047131  0.19389663  -0.01230987  1
  Mo  Mo188  1  0.79988015  -0.00284866  0.00993928  1
  Mo  Mo189  1  0.29916235  0.50173761  0.35085054  1
  Mo  Mo190  1  0.09539699  0.09940243  0.36758269  1
  Mo  Mo191  1  0.30020421  0.48691535  0.86527080  1
  Mo  Mo192  1  0.09155687  0.68295103  0.62398451  1
  Mo  Mo193  1  0.49715058  0.90669986  0.60464160  1
  Mo  Mo194  1  0.49538134  0.70226116  0.38002048  1
  Mo  Mo195  1  0.89762145  0.89421118  0.89051493  1
  Mo  Mo196  1  0.10171650  0.69846419  0.35582060  1
  Mo  Mo197  1  0.70824459  0.70525583  0.12921015  1
  Mo  Mo198  1  0.59683262  0.00605496  0.73303012  1
  Mo  Mo199  1  0.39840320  0.60481524  0.23557266  1
