# generated using pymatgen
data_HfZrTaTiMo
_symmetry_space_group_name_H-M   'P 1'
_cell_length_a   15.84631830
_cell_length_b   15.83966928
_cell_length_c   15.37514393
_cell_angle_alpha   90.00836067
_cell_angle_beta   89.97752474
_cell_angle_gamma   90.07359035
_symmetry_Int_Tables_number   1
_chemical_formula_structural   HfZrTaTiMo
_chemical_formula_sum   'Hf40 Zr40 Ta40 Ti40 Mo40'
_cell_volume   3859.16438980
_cell_formula_units_Z   40
loop_
 _symmetry_equiv_pos_site_id
 _symmetry_equiv_pos_as_xyz
  1  'x, y, z'
loop_
 _atom_site_type_symbol
 _atom_site_label
 _atom_site_symmetry_multiplicity
 _atom_site_fract_x
 _atom_site_fract_y
 _atom_site_fract_z
 _atom_site_occupancy
  Hf  Hf0  1  -0.00260290  0.81053271  0.25919189  1
  Hf  Hf1  1  0.70138530  0.09754348  0.39966870  1
  Hf  Hf2  1  0.69363443  0.90578424  0.12463231  1
  Hf  Hf3  1  0.59755034  0.20485194  0.75181933  1
  Hf  Hf4  1  0.80582488  0.79776395  -0.02124447  1
  Hf  Hf5  1  0.10045505  0.69570304  0.37266105  1
  Hf  Hf6  1  0.60360183  0.39075047  0.75866468  1
  Hf  Hf7  1  -0.00217584  0.20189458  0.74223702  1
  Hf  Hf8  1  0.48807697  0.09009835  0.87597213  1
  Hf  Hf9  1  0.19784225  0.39836482  0.75402893  1
  Hf  Hf10  1  0.60444960  0.80802290  0.75336914  1
  Hf  Hf11  1  0.38830143  -0.00418448  0.24681781  1
  Hf  Hf12  1  0.10387558  0.92303003  0.39073566  1
  Hf  Hf13  1  0.09308835  0.29006606  0.12870887  1
  Hf  Hf14  1  0.09616942  0.69906253  0.63556823  1
  Hf  Hf15  1  0.39870795  0.80240360  0.50371085  1
  Hf  Hf16  1  0.39632284  0.19864987  0.48977799  1
  Hf  Hf17  1  0.40127635  0.61705496  0.49340651  1
  Hf  Hf18  1  0.29934486  0.29589654  0.62198611  1
  Hf  Hf19  1  -0.00344385  0.80231963  0.49877455  1
  Hf  Hf20  1  0.49820715  0.50468168  0.88025538  1
  Hf  Hf21  1  0.30691141  0.49813401  0.12150884  1
  Hf  Hf22  1  0.52064572  0.51762680  0.38165007  1
  Hf  Hf23  1  0.10265770  0.09289618  0.87912574  1
  Hf  Hf24  1  0.40265172  0.39038378  0.47718059  1
  Hf  Hf25  1  0.49693832  0.70438937  0.87603149  1
  Hf  Hf26  1  0.51303916  0.08788269  0.12562557  1
  Hf  Hf27  1  0.79618921  0.80805764  0.27228246  1
  Hf  Hf28  1  0.80484087  0.01525075  0.25593904  1
  Hf  Hf29  1  -0.00177730  -0.00145988  0.00787964  1
  Hf  Hf30  1  0.50423440  0.89699396  0.36752096  1
  Hf  Hf31  1  0.70626936  0.29357863  0.37934255  1
  Hf  Hf32  1  0.09204552  0.29754879  0.88780362  1
  Hf  Hf33  1  0.70263026  0.09952390  0.61806372  1
  Hf  Hf34  1  0.59606269  -0.00144655  0.74676411  1
  Hf  Hf35  1  0.59848229  0.78749981  0.49611169  1
  Hf  Hf36  1  0.50436880  0.49615202  0.61652678  1
  Hf  Hf37  1  0.50778628  0.09654573  0.37481360  1
  Hf  Hf38  1  0.10273893  0.90003832  0.86982648  1
  Hf  Hf39  1  0.20960726  0.81348489  0.25874377  1
  Zr  Zr40  1  0.80958185  0.60002615  0.00169752  1
  Zr  Zr41  1  0.40961144  0.60984546  0.24795341  1
  Zr  Zr42  1  0.09744536  0.50661808  0.87768644  1
  Zr  Zr43  1  0.19853419  0.19668987  0.74699648  1
  Zr  Zr44  1  -0.01127666  0.40780046  0.01057495  1
  Zr  Zr45  1  0.60302813  0.40329475  0.24946232  1
  Zr  Zr46  1  0.18960634  0.39086458  0.49769681  1
  Zr  Zr47  1  0.20291406  -0.00053278  0.73301895  1
  Zr  Zr48  1  0.08827748  0.29160293  0.36395651  1
  Zr  Zr49  1  0.60704334  0.60195460  0.00838084  1
  Zr  Zr50  1  0.39477347  0.19271036  0.75373041  1
  Zr  Zr51  1  0.39442128  0.59936394  0.74587005  1
  Zr  Zr52  1  0.10301085  0.71250087  0.12690920  1
  Zr  Zr53  1  0.70585476  0.70483986  0.13985141  1
  Zr  Zr54  1  0.90698095  0.10172944  0.40476444  1
  Zr  Zr55  1  0.79550560  0.20912069  0.75249147  1
  Zr  Zr56  1  0.10100451  0.11020770  0.38658702  1
  Zr  Zr57  1  0.30237343  0.49511444  0.62047234  1
  Zr  Zr58  1  0.70591984  0.70190285  0.62999911  1
  Zr  Zr59  1  0.10636580  0.49813558  0.13383295  1
  Zr  Zr60  1  0.38982192  -0.00588484  0.50823392  1
  Zr  Zr61  1  0.09558875  0.50027741  0.36167205  1
  Zr  Zr62  1  0.38636909  0.19567324  0.25281366  1
  Zr  Zr63  1  0.80295978  0.59848883  0.75228888  1
  Zr  Zr64  1  0.29375176  0.50304955  0.36877012  1
  Zr  Zr65  1  0.50085833  0.29738514  0.13065948  1
  Zr  Zr66  1  0.88931134  0.89325923  0.11908926  1
  Zr  Zr67  1  0.80370717  0.60225235  0.49943218  1
  Zr  Zr68  1  0.70734888  0.48598865  0.62161041  1
  Zr  Zr69  1  0.21092476  0.80770696  0.50549153  1
  Zr  Zr70  1  0.70178403  0.29671022  0.11902450  1
  Zr  Zr71  1  0.00000907  0.00733876  0.23894162  1
  Zr  Zr72  1  0.20006612  0.60555308  0.50726543  1
  Zr  Zr73  1  0.39703421  0.39360546  0.25776602  1
  Zr  Zr74  1  0.39465868  0.19545655  0.00564765  1
  Zr  Zr75  1  0.60207201  0.20016431  -0.01783403  1
  Zr  Zr76  1  0.30237822  0.71004378  0.88020011  1
  Zr  Zr77  1  -0.00743195  0.61010273  0.01143507  1
  Zr  Zr78  1  0.60257421  0.80800880  -0.01101734  1
  Zr  Zr79  1  0.88355237  0.28500442  0.11515951  1
  Ta  Ta80  1  0.20015455  0.60079223  0.75190013  1
  Ta  Ta81  1  0.19756877  0.18852502  0.01202287  1
  Ta  Ta82  1  0.70067683  0.50147520  0.87257995  1
  Ta  Ta83  1  0.90369862  0.09473098  0.86700935  1
  Ta  Ta84  1  0.90153959  0.50105228  0.36629823  1
  Ta  Ta85  1  0.20247141  0.60558760  0.00240036  1
  Ta  Ta86  1  0.29873198  0.50012467  0.88773820  1
  Ta  Ta87  1  0.90238988  0.70757821  0.63520093  1
  Ta  Ta88  1  0.09573088  0.10064469  0.60795942  1
  Ta  Ta89  1  0.70124033  0.90878612  0.39247298  1
  Ta  Ta90  1  0.70650245  0.50575910  0.37086625  1
  Ta  Ta91  1  -0.01307996  0.39500724  0.24462510  1
  Ta  Ta92  1  0.40313205  0.39525844  -0.00477731  1
  Ta  Ta93  1  0.40063944  0.39130489  0.76736052  1
  Ta  Ta94  1  0.61862480  0.18579068  0.24785680  1
  Ta  Ta95  1  0.40049598  0.80945809  0.73562686  1
  Ta  Ta96  1  0.60043206  0.59675604  0.74890194  1
  Ta  Ta97  1  0.39558954  -0.00395206  0.73589122  1
  Ta  Ta98  1  -0.00694933  0.40219605  0.50139539  1
  Ta  Ta99  1  0.39765963  -0.00846635  0.00922140  1
  Ta  Ta100  1  0.10006872  0.70432199  0.86584988  1
  Ta  Ta101  1  -0.00462511  0.39564369  0.74734937  1
  Ta  Ta102  1  0.89907293  0.69277290  0.36708710  1
  Ta  Ta103  1  0.50326509  0.69797136  0.63208506  1
  Ta  Ta104  1  0.20360399  0.39441259  0.00606458  1
  Ta  Ta105  1  0.60117226  0.40079293  -0.00745735  1
  Ta  Ta106  1  0.71753935  0.10287221  0.10985164  1
  Ta  Ta107  1  0.90274388  0.49892531  0.86237911  1
  Ta  Ta108  1  0.80533333  0.39291686  0.25971930  1
  Ta  Ta109  1  -0.01131648  0.60188947  0.23484493  1
  Ta  Ta110  1  0.29483363  0.29475556  0.88613111  1
  Ta  Ta111  1  0.80461478  0.80056536  0.48783621  1
  Ta  Ta112  1  0.70855283  0.89735464  0.61848219  1
  Ta  Ta113  1  0.20896410  0.61243674  0.24197128  1
  Ta  Ta114  1  -0.00148283  0.79909501  -0.00930161  1
  Ta  Ta115  1  0.89399362  0.31087412  0.62002229  1
  Ta  Ta116  1  0.19999123  0.80417355  -0.00493434  1
  Ta  Ta117  1  0.19962353  0.00914832  0.23143905  1
  Ta  Ta118  1  0.80179312  -0.00457475  0.74636023  1
  Ta  Ta119  1  0.79733425  0.40037469  -0.01542884  1
  Ti  Ti120  1  0.20831333  0.38404355  0.24521048  1
  Ti  Ti121  1  0.59560929  0.20914871  0.51224377  1
  Ti  Ti122  1  0.80561466  0.21008116  0.51229548  1
  Ti  Ti123  1  0.90549713  0.50241393  0.63509242  1
  Ti  Ti124  1  0.39712292  0.79837117  0.25715191  1
  Ti  Ti125  1  0.80169514  0.39093951  0.76341897  1
  Ti  Ti126  1  0.30277124  0.90909584  0.87923478  1
  Ti  Ti127  1  0.09212147  0.49723578  0.63212108  1
  Ti  Ti128  1  0.70924664  0.49766397  0.13277691  1
  Ti  Ti129  1  0.49418708  0.10321162  0.62331387  1
  Ti  Ti130  1  0.48801547  0.89789920  0.87773386  1
  Ti  Ti131  1  0.59017891  -0.00946247  0.51668957  1
  Ti  Ti132  1  -0.02736972  0.19176055  0.24291271  1
  Ti  Ti133  1  0.20887794  0.80223676  0.74178102  1
  Ti  Ti134  1  0.00281713  0.81300423  0.74228435  1
  Ti  Ti135  1  0.61096807  -0.00317607  0.25266000  1
  Ti  Ti136  1  0.30688607  0.71028986  0.11612905  1
  Ti  Ti137  1  0.80079466  -0.00040291  -0.01627039  1
  Ti  Ti138  1  0.28106246  0.09194681  0.38621242  1
  Ti  Ti139  1  0.50110852  0.89197471  0.13186075  1
  Ti  Ti140  1  -0.00421723  0.59672890  0.50485113  1
  Ti  Ti141  1  -0.01060165  0.19011122  0.00019931  1
  Ti  Ti142  1  0.91418646  0.70137168  0.85095766  1
  Ti  Ti143  1  0.70311406  0.69999588  0.86395085  1
  Ti  Ti144  1  0.60395068  -0.00410434  -0.01255741  1
  Ti  Ti145  1  0.80701493  0.40058505  0.48905953  1
  Ti  Ti146  1  0.90166465  0.09731063  0.62396817  1
  Ti  Ti147  1  0.20595309  0.19240387  0.23231785  1
  Ti  Ti148  1  0.70556090  0.09460702  0.87162000  1
  Ti  Ti149  1  0.10663206  0.90201438  0.11525372  1
  Ti  Ti150  1  0.50647224  0.50142035  0.12153704  1
  Ti  Ti151  1  0.50609830  0.71228342  0.13079719  1
  Ti  Ti152  1  0.89871310  0.90174886  0.62516570  1
  Ti  Ti153  1  0.90420778  0.90422176  0.85968056  1
  Ti  Ti154  1  0.51231185  0.29030222  0.36527375  1
  Ti  Ti155  1  0.40279036  0.60591682  0.00885148  1
  Ti  Ti156  1  0.68505259  0.68828958  0.36529338  1
  Ti  Ti157  1  0.49787153  0.30517408  0.62435671  1
  Ti  Ti158  1  0.29989435  0.89432666  0.11517024  1
  Ti  Ti159  1  0.60658346  0.39506736  0.49608097  1
  Mo  Mo160  1  -0.00330016  -0.00304530  0.52185617  1
  Mo  Mo161  1  0.89069781  0.09830727  0.10743884  1
  Mo  Mo162  1  0.90173963  0.29972687  0.88028540  1
  Mo  Mo163  1  0.88636044  0.49585361  0.14198676  1
  Mo  Mo164  1  0.79954556  0.59693244  0.25646344  1
  Mo  Mo165  1  0.20190511  -0.00416263  0.01021876  1
  Mo  Mo166  1  0.69999018  0.30179523  0.60642611  1
  Mo  Mo167  1  0.19975601  0.00031465  0.51570397  1
  Mo  Mo168  1  0.30256398  0.70746532  0.36324091  1
  Mo  Mo169  1  0.29767633  0.09118595  0.11520293  1
  Mo  Mo170  1  0.89797716  0.70634950  0.14175036  1
  Mo  Mo171  1  0.70723125  0.90899558  0.86797360  1
  Mo  Mo172  1  0.50591716  0.70424158  0.36317056  1
  Mo  Mo173  1  0.29419138  0.29977757  0.11143629  1
  Mo  Mo174  1  0.49460911  0.30148607  0.87657723  1
  Mo  Mo175  1  0.60261269  0.59974423  0.51115736  1
  Mo  Mo176  1  0.79934031  0.19491050  0.26030757  1
  Mo  Mo177  1  0.28060809  0.28130863  0.37845415  1
  Mo  Mo178  1  0.60490962  0.60097754  0.23272155  1
  Mo  Mo179  1  -0.00282153  0.21240328  0.52130842  1
  Mo  Mo180  1  0.59779945  0.80314526  0.26128113  1
  Mo  Mo181  1  0.19998962  0.20043752  0.50788018  1
  Mo  Mo182  1  0.29489432  0.08675973  0.89406485  1
  Mo  Mo183  1  0.80832005  0.80726636  0.75868966  1
  Mo  Mo184  1  0.90012057  0.30174746  0.38568627  1
  Mo  Mo185  1  0.09141740  0.30499491  0.62406315  1
  Mo  Mo186  1  0.29864021  0.89779934  0.63384580  1
  Mo  Mo187  1  0.80312029  0.19367227  -0.02874826  1
  Mo  Mo188  1  0.80136005  -0.00451096  0.51891083  1
  Mo  Mo189  1  0.40075998  0.80503072  0.01201720  1
  Mo  Mo190  1  0.29992486  0.70058696  0.64145624  1
  Mo  Mo191  1  0.29847687  0.91024760  0.36585860  1
  Mo  Mo192  1  0.09325368  0.10285196  0.12390305  1
  Mo  Mo193  1  -0.00362556  0.00188080  0.73559311  1
  Mo  Mo194  1  0.50561587  0.89821479  0.62581752  1
  Mo  Mo195  1  0.29732377  0.10046861  0.60992297  1
  Mo  Mo196  1  0.09354155  0.90036886  0.62770777  1
  Mo  Mo197  1  0.89832059  0.90273781  0.39039528  1
  Mo  Mo198  1  0.00310670  0.59848704  0.74179011  1
  Mo  Mo199  1  0.70050258  0.30271584  0.88453550  1
