# generated using pymatgen
data_HfZrTaTiMo
_symmetry_space_group_name_H-M   'P 1'
_cell_length_a   15.84373049
_cell_length_b   15.82118716
_cell_length_c   15.41332548
_cell_angle_alpha   90.00209443
_cell_angle_beta   89.89914020
_cell_angle_gamma   89.97172362
_symmetry_Int_Tables_number   1
_chemical_formula_structural   HfZrTaTiMo
_chemical_formula_sum   'Hf40 Zr40 Ta40 Ti40 Mo40'
_cell_volume   3863.59982503
_cell_formula_units_Z   40
loop_
 _symmetry_equiv_pos_site_id
 _symmetry_equiv_pos_as_xyz
  1  'x, y, z'
loop_
 _atom_site_type_symbol
 _atom_site_label
 _atom_site_symmetry_multiplicity
 _atom_site_fract_x
 _atom_site_fract_y
 _atom_site_fract_z
 _atom_site_occupancy
  Hf  Hf0  1  0.60648409  0.80034859  0.48474398  1
  Hf  Hf1  1  0.89297808  0.87753771  0.38378070  1
  Hf  Hf2  1  0.39579690  0.61053877  0.75008249  1
  Hf  Hf3  1  0.61242088  0.41891566  0.49786607  1
  Hf  Hf4  1  0.10399490  0.49890546  0.37960188  1
  Hf  Hf5  1  0.39076599  0.80182370  0.75572744  1
  Hf  Hf6  1  0.11248102  0.30455959  0.87478940  1
  Hf  Hf7  1  0.50405554  0.10041189  0.61260296  1
  Hf  Hf8  1  0.00110480  0.21011997  0.51212036  1
  Hf  Hf9  1  0.69725680  0.29605115  0.64247753  1
  Hf  Hf10  1  0.87850373  0.10550126  0.11813229  1
  Hf  Hf11  1  0.60281205  0.40013460  0.77000377  1
  Hf  Hf12  1  0.00064656  0.60551345  0.75582162  1
  Hf  Hf13  1  0.09255736  0.09636707  0.12657327  1
  Hf  Hf14  1  0.90174278  0.89863820  0.12007279  1
  Hf  Hf15  1  0.41174313  0.19296824  0.75480244  1
  Hf  Hf16  1  0.49273013  0.69401894  0.12128834  1
  Hf  Hf17  1  0.49169390  0.91121331  0.89184266  1
  Hf  Hf18  1  0.29767577  0.09191107  0.87376797  1
  Hf  Hf19  1  0.50360415  0.90946076  0.12300389  1
  Hf  Hf20  1  0.80697035  0.38959463  0.52062908  1
  Hf  Hf21  1  0.72358009  0.28114742  0.11513294  1
  Hf  Hf22  1  0.38513154  0.80105398  0.24214823  1
  Hf  Hf23  1  0.40121536  0.59408615  0.49282890  1
  Hf  Hf24  1  0.30455413  0.30082838  0.36530226  1
  Hf  Hf25  1  0.90685614  0.50006032  0.39034162  1
  Hf  Hf26  1  0.40582549  0.39573810  0.76153164  1
  Hf  Hf27  1  0.49728647  0.10894193  0.37680238  1
  Hf  Hf28  1  0.20009538  0.20123019  0.50817780  1
  Hf  Hf29  1  0.70917163  0.92317318  0.13211850  1
  Hf  Hf30  1  0.09832058  0.09293578  0.87034160  1
  Hf  Hf31  1  0.90508041  0.08923268  0.63358208  1
  Hf  Hf32  1  0.00290055  0.80889251  0.74328227  1
  Hf  Hf33  1  0.29588850  0.89396751  0.60488823  1
  Hf  Hf34  1  0.61230498  0.40426012  0.00104148  1
  Hf  Hf35  1  0.80502724  0.19425387  0.50233399  1
  Hf  Hf36  1  0.60651490  0.80173667  0.24160605  1
  Hf  Hf37  1  0.17598766  0.80214778  0.25014916  1
  Hf  Hf38  1  0.58805734  0.80598674  0.75848487  1
  Hf  Hf39  1  0.60881938  0.20699535  0.49516498  1
  Zr  Zr40  1  0.79626361  -0.00295343  0.49599879  1
  Zr  Zr41  1  0.19479215  -0.00404002  0.26099499  1
  Zr  Zr42  1  0.60589804  0.59806749  0.77773952  1
  Zr  Zr43  1  0.19804112  0.79396517  0.74502135  1
  Zr  Zr44  1  0.60798606  0.02818032  -0.00299377  1
  Zr  Zr45  1  0.00159941  -0.01096463  0.26089167  1
  Zr  Zr46  1  0.20864072  0.39924991  0.50105316  1
  Zr  Zr47  1  0.91061307  0.30365169  0.37354047  1
  Zr  Zr48  1  0.30075395  0.10855153  0.38006898  1
  Zr  Zr49  1  0.09905031  0.70409280  0.88870090  1
  Zr  Zr50  1  0.29994892  0.49828299  0.63563123  1
  Zr  Zr51  1  0.70596860  0.28889993  0.88011946  1
  Zr  Zr52  1  0.90322580  0.89640495  0.87754066  1
  Zr  Zr53  1  0.09542959  0.29917238  0.11792138  1
  Zr  Zr54  1  0.70438896  0.90347339  0.87473380  1
  Zr  Zr55  1  0.60515990  0.59851879  0.24501994  1
  Zr  Zr56  1  0.38213141  0.79989321  0.01497746  1
  Zr  Zr57  1  0.81930634  0.60689374  0.24374336  1
  Zr  Zr58  1  0.31647794  0.49821440  0.35163497  1
  Zr  Zr59  1  0.69600974  0.90108649  0.63359151  1
  Zr  Zr60  1  0.49543843  0.70912943  0.60989587  1
  Zr  Zr61  1  0.62051803  0.60506036  0.00535776  1
  Zr  Zr62  1  0.60692280  0.40241693  0.23715348  1
  Zr  Zr63  1  0.91031127  0.50410055  0.62206311  1
  Zr  Zr64  1  0.08231072  0.69273613  0.11638936  1
  Zr  Zr65  1  0.28318944  0.49907896  0.87910609  1
  Zr  Zr66  1  0.69423770  0.69610971  0.63330051  1
  Zr  Zr67  1  -0.00206208  0.19988348  0.75382674  1
  Zr  Zr68  1  0.77550483  0.58991146  0.50881579  1
  Zr  Zr69  1  0.48987247  0.69637756  0.36491946  1
  Zr  Zr70  1  -0.00000182  0.40911686  0.23380739  1
  Zr  Zr71  1  0.60662597  0.20190707  0.24594844  1
  Zr  Zr72  1  0.39573732  -0.00773632  0.74066253  1
  Zr  Zr73  1  0.39817726  0.00150114  0.25101453  1
  Zr  Zr74  1  0.48564805  0.50579739  0.90214444  1
  Zr  Zr75  1  0.49548133  0.31467671  0.37359407  1
  Zr  Zr76  1  0.51691153  0.50830789  0.62794669  1
  Zr  Zr77  1  0.49011354  0.70444385  0.89772837  1
  Zr  Zr78  1  0.37773705  0.38564509  0.00816201  1
  Zr  Zr79  1  0.40601067  0.18499601  0.00380805  1
  Ta  Ta80  1  -0.00175514  0.39899455  -0.01084457  1
  Ta  Ta81  1  -0.00012269  -0.00083801  -0.00081267  1
  Ta  Ta82  1  0.20534759  0.19238620  0.73965480  1
  Ta  Ta83  1  0.28611039  0.69336295  0.36185156  1
  Ta  Ta84  1  0.18985874  -0.01191763  0.74414601  1
  Ta  Ta85  1  0.89469281  0.70477833  0.88204778  1
  Ta  Ta86  1  0.71147137  0.49728878  0.35924900  1
  Ta  Ta87  1  0.81013343  0.40323113  0.75620102  1
  Ta  Ta88  1  -0.00763736  0.19859722  -0.00677879  1
  Ta  Ta89  1  0.20207036  0.60232691  0.49511221  1
  Ta  Ta90  1  0.80467797  -0.00302084  0.75195344  1
  Ta  Ta91  1  0.09545312  0.69624300  0.60905166  1
  Ta  Ta92  1  0.50468854  0.29927167  0.11505486  1
  Ta  Ta93  1  0.61011594  0.80265635  0.01082217  1
  Ta  Ta94  1  0.29740006  0.89012825  0.38411755  1
  Ta  Ta95  1  0.19155900  -0.00001382  0.48995844  1
  Ta  Ta96  1  0.48686553  0.49920290  0.12222079  1
  Ta  Ta97  1  0.71395184  0.30633815  0.36732493  1
  Ta  Ta98  1  0.20628219  0.20131573  0.00691158  1
  Ta  Ta99  1  -0.00049691  0.00243782  0.48743593  1
  Ta  Ta100  1  0.28342834  0.89795725  0.88601523  1
  Ta  Ta101  1  0.50146318  0.30102690  0.62155196  1
  Ta  Ta102  1  0.10422279  0.30188208  0.36487013  1
  Ta  Ta103  1  0.00276764  0.40521091  0.75958515  1
  Ta  Ta104  1  0.10396812  0.30824638  0.63923740  1
  Ta  Ta105  1  0.39885255  0.20577490  0.23126940  1
  Ta  Ta106  1  0.10125013  0.50162938  0.62112160  1
  Ta  Ta107  1  0.19673145  0.20148906  0.24371606  1
  Ta  Ta108  1  0.20354977  0.40302821  0.23193863  1
  Ta  Ta109  1  0.19085974  0.80334219  0.01608145  1
  Ta  Ta110  1  0.39918267  -0.00153820  0.49392344  1
  Ta  Ta111  1  0.10376470  0.50287142  0.88514249  1
  Ta  Ta112  1  0.70563189  0.10230984  0.36245287  1
  Ta  Ta113  1  0.30708485  0.29585746  0.63354470  1
  Ta  Ta114  1  0.89803412  0.70576145  0.61402527  1
  Ta  Ta115  1  0.71837436  0.70835093  0.36714306  1
  Ta  Ta116  1  0.91110340  0.50735002  0.10438723  1
  Ta  Ta117  1  0.09153664  0.11263807  0.37324983  1
  Ta  Ta118  1  0.10181475  0.09147092  0.62694572  1
  Ta  Ta119  1  0.60206707  0.00007685  0.48352349  1
  Ti  Ti120  1  0.51281883  0.27914868  0.88997242  1
  Ti  Ti121  1  0.08622750  0.70095226  0.38591624  1
  Ti  Ti122  1  0.09242753  0.90170102  0.60753493  1
  Ti  Ti123  1  0.29054613  0.69286773  0.89045567  1
  Ti  Ti124  1  0.81185834  0.00821955  0.26595847  1
  Ti  Ti125  1  0.80418819  0.19704115  0.74945634  1
  Ti  Ti126  1  0.89453174  0.09359817  0.87357784  1
  Ti  Ti127  1  0.29383435  0.10044003  0.12818200  1
  Ti  Ti128  1  0.71338457  0.71184460  0.86850594  1
  Ti  Ti129  1  0.90144341  0.50523811  0.88196813  1
  Ti  Ti130  1  0.28360656  0.90630771  0.12531221  1
  Ti  Ti131  1  0.58983695  0.00981146  0.75565005  1
  Ti  Ti132  1  0.71786465  0.50290447  0.12704298  1
  Ti  Ti133  1  0.69711646  0.09609922  0.63411983  1
  Ti  Ti134  1  0.19463418  0.60298413  0.74253319  1
  Ti  Ti135  1  0.89939463  0.29563240  0.87892825  1
  Ti  Ti136  1  0.19373486  -0.00140197  0.00403486  1
  Ti  Ti137  1  0.89790549  0.69963272  0.10602204  1
  Ti  Ti138  1  0.80900182  0.40068369  -0.00341718  1
  Ti  Ti139  1  0.70420815  0.90013212  0.36009256  1
  Ti  Ti140  1  0.80258615  0.59900468  0.75306781  1
  Ti  Ti141  1  0.79887137  0.60111992  -0.00508759  1
  Ti  Ti142  1  0.51382159  0.09808746  0.13757409  1
  Ti  Ti143  1  0.00517034  0.60177212  0.25603304  1
  Ti  Ti144  1  0.40669443  0.40023452  0.50783851  1
  Ti  Ti145  1  0.90088247  0.69495480  0.40140113  1
  Ti  Ti146  1  0.29312566  0.29489296  0.86515230  1
  Ti  Ti147  1  -0.01327766  0.20084826  0.24446643  1
  Ti  Ti148  1  -0.01480455  0.78894452  0.25132534  1
  Ti  Ti149  1  0.81519413  0.39495812  0.23457417  1
  Ti  Ti150  1  0.79126758  0.79851541  0.01091970  1
  Ti  Ti151  1  0.30054482  0.09547626  0.61853540  1
  Ti  Ti152  1  0.89721991  0.89590967  0.61953431  1
  Ti  Ti153  1  0.39061373  0.00315987  0.00981737  1
  Ti  Ti154  1  0.49647169  0.90083301  0.37324407  1
  Ti  Ti155  1  0.49678830  0.89953019  0.60591102  1
  Ti  Ti156  1  0.69683109  0.10577343  0.85968799  1
  Ti  Ti157  1  0.19151839  0.79621445  0.48934145  1
  Ti  Ti158  1  0.10484498  0.50587862  0.10530573  1
  Ti  Ti159  1  0.29614220  0.70231689  0.60843625  1
  Mo  Mo160  1  0.59914541  0.19552256  0.74254881  1
  Mo  Mo161  1  0.20118898  0.60121549  0.01183732  1
  Mo  Mo162  1  0.90428007  0.10169824  0.37585573  1
  Mo  Mo163  1  0.90239868  0.30112698  0.10504280  1
  Mo  Mo164  1  0.09471209  0.89221129  0.39175069  1
  Mo  Mo165  1  0.79953736  0.18416335  -0.01996205  1
  Mo  Mo166  1  0.90513401  0.29952965  0.64626292  1
  Mo  Mo167  1  0.00509028  0.60190611  0.49805871  1
  Mo  Mo168  1  0.09238240  0.90025036  0.11153545  1
  Mo  Mo169  1  0.80991133  0.20358607  0.26423708  1
  Mo  Mo170  1  0.79544215  0.79641885  0.51077472  1
  Mo  Mo171  1  0.71951374  0.50244696  0.87522519  1
  Mo  Mo172  1  0.60330674  0.20016009  0.01428206  1
  Mo  Mo173  1  0.80634335  0.79406490  0.74018722  1
  Mo  Mo174  1  0.39218803  0.59850071  0.23582677  1
  Mo  Mo175  1  0.80514550  0.79854250  0.23842549  1
  Mo  Mo176  1  0.29822191  0.29456750  0.13411984  1
  Mo  Mo177  1  0.29241110  0.50160947  0.12995934  1
  Mo  Mo178  1  0.37742251  0.59890702  0.02134302  1
  Mo  Mo179  1  0.18720075  0.59907341  0.24952375  1
  Mo  Mo180  1  0.59962534  0.59998981  0.46396797  1
  Mo  Mo181  1  0.50333749  0.09884073  0.86916904  1
  Mo  Mo182  1  0.60249978  -0.00057186  0.26945305  1
  Mo  Mo183  1  0.39321296  0.79975893  0.48416636  1
  Mo  Mo184  1  0.00992691  0.39716539  0.51558957  1
  Mo  Mo185  1  0.19857432  0.39876659  0.74331749  1
  Mo  Mo186  1  -0.00588566  0.80193374  -0.00173291  1
  Mo  Mo187  1  0.70450188  0.09681645  0.14606643  1
  Mo  Mo188  1  0.39988712  0.20645738  0.51617446  1
  Mo  Mo189  1  0.28277703  0.69189242  0.14478943  1
  Mo  Mo190  1  0.19358825  0.39718300  0.01312150  1
  Mo  Mo191  1  -0.00694351  0.59708105  -0.01581111  1
  Mo  Mo192  1  0.10387314  0.90515121  0.88719498  1
  Mo  Mo193  1  0.40289003  0.39659693  0.22824468  1
  Mo  Mo194  1  -0.00104329  0.80205888  0.51082507  1
  Mo  Mo195  1  0.70716086  0.49504618  0.65719049  1
  Mo  Mo196  1  0.00376377  -0.00693205  0.74367021  1
  Mo  Mo197  1  0.80089618  0.00589977  -0.01677012  1
  Mo  Mo198  1  0.50733799  0.50031400  0.36541833  1
  Mo  Mo199  1  0.71261037  0.70797798  0.12922771  1
