# generated using pymatgen
data_HfZrTaTiMo
_symmetry_space_group_name_H-M   'P 1'
_cell_length_a   15.84864395
_cell_length_b   15.83077287
_cell_length_c   15.43124496
_cell_angle_alpha   89.93829504
_cell_angle_beta   90.04615640
_cell_angle_gamma   90.10676743
_symmetry_Int_Tables_number   1
_chemical_formula_structural   HfZrTaTiMo
_chemical_formula_sum   'Hf40 Zr40 Ta40 Ti40 Mo40'
_cell_volume   3871.63177980
_cell_formula_units_Z   40
loop_
 _symmetry_equiv_pos_site_id
 _symmetry_equiv_pos_as_xyz
  1  'x, y, z'
loop_
 _atom_site_type_symbol
 _atom_site_label
 _atom_site_symmetry_multiplicity
 _atom_site_fract_x
 _atom_site_fract_y
 _atom_site_fract_z
 _atom_site_occupancy
  Hf  Hf0  1  0.20366811  0.79973381  0.01789745  1
  Hf  Hf1  1  0.68664087  0.69516403  0.14001319  1
  Hf  Hf2  1  0.19541359  0.01035143  0.48118188  1
  Hf  Hf3  1  0.69329183  0.11174286  0.62944408  1
  Hf  Hf4  1  0.28951494  0.07917998  0.13316912  1
  Hf  Hf5  1  0.71424243  0.50863092  0.14039097  1
  Hf  Hf6  1  0.10317776  0.71578653  0.38045833  1
  Hf  Hf7  1  0.60180694  0.60080369  -0.01232732  1
  Hf  Hf8  1  0.19823596  0.60832664  0.74590138  1
  Hf  Hf9  1  0.00359306  0.21091761  0.25076183  1
  Hf  Hf10  1  0.28391401  0.48700614  0.36959130  1
  Hf  Hf11  1  0.59362895  0.79944997  0.74712893  1
  Hf  Hf12  1  0.58887390  0.00857575  0.50151636  1
  Hf  Hf13  1  0.70629023  0.90879868  0.87558635  1
  Hf  Hf14  1  0.71348732  0.90412517  0.62531724  1
  Hf  Hf15  1  0.58113382  0.79500503  0.27076886  1
  Hf  Hf16  1  0.79093768  0.81039056  0.24462416  1
  Hf  Hf17  1  0.30004159  0.12126772  0.34655467  1
  Hf  Hf18  1  0.28958073  0.48921085  0.62068264  1
  Hf  Hf19  1  0.91033117  0.90936018  0.10933193  1
  Hf  Hf20  1  0.48775174  0.89433968  0.62041347  1
  Hf  Hf21  1  0.39833414  -0.02967584  0.26283538  1
  Hf  Hf22  1  0.09723358  0.50934480  0.61895270  1
  Hf  Hf23  1  -0.00413586  0.21460594  0.75766797  1
  Hf  Hf24  1  0.01202174  0.20268336  0.49976649  1
  Hf  Hf25  1  0.17848073  0.60082399  0.23892567  1
  Hf  Hf26  1  0.00666163  0.41353536  0.24294860  1
  Hf  Hf27  1  0.10661556  0.10396017  0.64086192  1
  Hf  Hf28  1  0.81436888  0.41056989  -0.00505203  1
  Hf  Hf29  1  0.38107498  0.37240759  0.49805012  1
  Hf  Hf30  1  0.00757031  0.80405990  0.74958358  1
  Hf  Hf31  1  0.00047244  0.00823750  0.48798751  1
  Hf  Hf32  1  0.81258452  0.39847206  0.75168305  1
  Hf  Hf33  1  0.49566007  0.68999433  0.61478560  1
  Hf  Hf34  1  0.80055392  0.00461118  0.24450560  1
  Hf  Hf35  1  0.50230206  0.49048486  0.37700225  1
  Hf  Hf36  1  0.89723083  0.70997706  0.36997278  1
  Hf  Hf37  1  0.29209268  0.69569524  0.37062331  1
  Hf  Hf38  1  0.10383603  0.70628015  0.88686197  1
  Hf  Hf39  1  0.49817958  0.88967803  0.88394079  1
  Zr  Zr40  1  0.50263429  0.27529347  0.37364933  1
  Zr  Zr41  1  0.59050260  0.00857410  0.74233166  1
  Zr  Zr42  1  0.61154801  0.39730555  0.49883857  1
  Zr  Zr43  1  0.61516342  0.78976952  0.49298865  1
  Zr  Zr44  1  0.90398675  0.10760383  0.11591056  1
  Zr  Zr45  1  0.11113134  0.31935901  0.88977656  1
  Zr  Zr46  1  0.59178988  0.59605284  0.75206192  1
  Zr  Zr47  1  0.12637656  0.31062800  0.63042564  1
  Zr  Zr48  1  0.10553024  0.90881217  0.62864476  1
  Zr  Zr49  1  0.09742106  0.09935569  0.11447635  1
  Zr  Zr50  1  0.40439039  0.80296862  0.47262425  1
  Zr  Zr51  1  0.60696990  0.38191267  0.24083307  1
  Zr  Zr52  1  0.28889207  0.28049064  0.12614108  1
  Zr  Zr53  1  0.70791961  0.30368324  0.63152749  1
  Zr  Zr54  1  0.50507955  0.08537349  0.89731576  1
  Zr  Zr55  1  0.37884555  0.59249501  0.01402726  1
  Zr  Zr56  1  0.00786474  0.41061800  0.75292112  1
  Zr  Zr57  1  0.60838591  0.40227961  0.00500265  1
  Zr  Zr58  1  0.89619905  0.09704561  0.63532788  1
  Zr  Zr59  1  0.61225731  0.18898874  0.01407971  1
  Zr  Zr60  1  0.40749853  0.18272744  0.75768439  1
  Zr  Zr61  1  0.81006811  0.21400652  0.50124403  1
  Zr  Zr62  1  0.01047069  0.80893737  0.23801572  1
  Zr  Zr63  1  0.12018774  0.31182221  0.37591734  1
  Zr  Zr64  1  0.79217534  0.60931977  0.49083707  1
  Zr  Zr65  1  0.51254859  0.27562316  0.62127388  1
  Zr  Zr66  1  0.48427823  0.49431336  0.87667219  1
  Zr  Zr67  1  0.39330691  0.38936073  0.73947546  1
  Zr  Zr68  1  0.39895394  0.38663477  0.24216418  1
  Zr  Zr69  1  0.38845585  -0.00131186  0.48392311  1
  Zr  Zr70  1  0.49228118  0.88344878  0.11875642  1
  Zr  Zr71  1  -0.00725359  0.40331641  0.50290873  1
  Zr  Zr72  1  0.38796579  -0.01273152  0.75857775  1
  Zr  Zr73  1  0.80232874  0.79222607  0.01052824  1
  Zr  Zr74  1  0.51039490  0.51056366  0.13789363  1
  Zr  Zr75  1  -0.01311552  0.60581049  0.00525288  1
  Zr  Zr76  1  0.30519798  0.30602168  0.89283276  1
  Zr  Zr77  1  0.50546834  0.29397664  0.88538363  1
  Zr  Zr78  1  0.69598253  0.10938605  0.37115319  1
  Zr  Zr79  1  0.70707693  0.70229870  0.86389910  1
  Ta  Ta80  1  0.38672546  0.78456568  0.75234566  1
  Ta  Ta81  1  0.90098367  0.50803775  0.36217161  1
  Ta  Ta82  1  0.50212405  0.09387444  0.35006945  1
  Ta  Ta83  1  0.30248702  0.70764642  0.14717141  1
  Ta  Ta84  1  0.09692328  0.09526958  0.87201688  1
  Ta  Ta85  1  0.60855505  -0.01222518  0.23981579  1
  Ta  Ta86  1  0.90374927  0.51310644  0.86421682  1
  Ta  Ta87  1  0.89532559  0.09262011  0.87692006  1
  Ta  Ta88  1  0.40497016  0.60452473  0.26201919  1
  Ta  Ta89  1  -0.00323646  0.20630007  -0.01868257  1
  Ta  Ta90  1  0.21157581  0.20053145  0.76682791  1
  Ta  Ta91  1  0.19347941  0.40204185  0.22952601  1
  Ta  Ta92  1  0.80178691  0.21006774  0.24230811  1
  Ta  Ta93  1  0.90162678  0.70830127  0.62224120  1
  Ta  Ta94  1  0.70251909  0.30098819  0.87181925  1
  Ta  Ta95  1  0.70548512  0.50013939  0.35960495  1
  Ta  Ta96  1  0.39047660  0.79124239  -0.00260184  1
  Ta  Ta97  1  0.40193671  0.39618978  0.02717243  1
  Ta  Ta98  1  0.39595716  0.58862883  0.49335859  1
  Ta  Ta99  1  0.22302451  0.21030643  0.49755070  1
  Ta  Ta100  1  0.37721716  -0.01630127  0.00039847  1
  Ta  Ta101  1  0.89953858  0.10943012  0.36794309  1
  Ta  Ta102  1  0.29559557  0.09732650  0.62897097  1
  Ta  Ta103  1  0.39949769  0.18529175  0.01161183  1
  Ta  Ta104  1  0.29605608  0.70141930  0.60963329  1
  Ta  Ta105  1  0.80606513  0.20274129  0.76393142  1
  Ta  Ta106  1  0.09771739  0.30282178  0.10351340  1
  Ta  Ta107  1  0.89367078  0.51565616  0.63122932  1
  Ta  Ta108  1  -0.00132162  0.80812760  0.50116570  1
  Ta  Ta109  1  -0.00388725  0.60487042  0.49285236  1
  Ta  Ta110  1  0.70128520  0.50851758  0.63496310  1
  Ta  Ta111  1  0.89938227  0.90275189  0.62017610  1
  Ta  Ta112  1  0.48566193  0.69626212  0.87745812  1
  Ta  Ta113  1  0.10352186  0.70779923  0.61215085  1
  Ta  Ta114  1  0.81098220  0.39707019  0.24586554  1
  Ta  Ta115  1  0.71363016  0.69956943  0.63632753  1
  Ta  Ta116  1  0.49442899  0.08476700  0.13113818  1
  Ta  Ta117  1  0.80379678  0.20405213  -0.01046072  1
  Ta  Ta118  1  0.49902821  0.49226601  0.61368583  1
  Ta  Ta119  1  0.60037887  0.39887518  0.74956473  1
  Ti  Ti120  1  0.60858232  -0.00846002  0.02100114  1
  Ti  Ti121  1  0.60445419  0.19233652  0.22666256  1
  Ti  Ti122  1  0.89859717  0.90323762  0.37921218  1
  Ti  Ti123  1  0.78886038  0.01006225  0.00893233  1
  Ti  Ti124  1  0.90240998  0.90241856  0.89054914  1
  Ti  Ti125  1  0.26756338  0.87918222  0.36175024  1
  Ti  Ti126  1  0.89883892  0.68606778  0.14369903  1
  Ti  Ti127  1  0.20279248  0.18180048  -0.01441045  1
  Ti  Ti128  1  0.09540136  0.90037996  0.88769081  1
  Ti  Ti129  1  0.79917434  0.60060482  -0.00160742  1
  Ti  Ti130  1  0.60428311  0.59697278  0.49273937  1
  Ti  Ti131  1  0.20188459  -0.00120804  0.76708777  1
  Ti  Ti132  1  0.89900850  0.30795540  0.37277485  1
  Ti  Ti133  1  0.80511460  0.41149375  0.50147873  1
  Ti  Ti134  1  0.10569449  0.51155016  0.88936011  1
  Ti  Ti135  1  0.71524747  0.29844222  0.11750803  1
  Ti  Ti136  1  0.10355778  0.91391704  0.10930055  1
  Ti  Ti137  1  0.28481520  0.88156500  0.86957466  1
  Ti  Ti138  1  0.28924901  0.49980044  0.87079056  1
  Ti  Ti139  1  -0.00901258  -0.00411594  0.76180868  1
  Ti  Ti140  1  0.60059511  0.79344455  0.00013705  1
  Ti  Ti141  1  -0.00009383  0.61130265  0.74920186  1
  Ti  Ti142  1  0.90292771  0.70615091  0.87196761  1
  Ti  Ti143  1  0.08960482  0.50775906  0.10918771  1
  Ti  Ti144  1  0.17935128  -0.00682569  0.26258750  1
  Ti  Ti145  1  0.80307977  0.00513986  0.49227147  1
  Ti  Ti146  1  0.70633964  0.30166646  0.37259167  1
  Ti  Ti147  1  0.70533111  0.90123674  0.38438553  1
  Ti  Ti148  1  0.70218212  0.10014800  0.86538838  1
  Ti  Ti149  1  0.21410939  0.42656782  0.02143123  1
  Ti  Ti150  1  0.81270581  0.80950766  0.75208120  1
  Ti  Ti151  1  0.39376514  0.59624283  0.74104041  1
  Ti  Ti152  1  0.70774044  0.50253854  0.86084386  1
  Ti  Ti153  1  0.19494676  0.59630845  0.49330428  1
  Ti  Ti154  1  0.90929889  0.30894882  0.11157933  1
  Ti  Ti155  1  0.49371145  0.69750827  0.12578753  1
  Ti  Ti156  1  0.29421240  0.69182377  0.87686033  1
  Ti  Ti157  1  0.00161460  0.00593202  0.26423576  1
  Ti  Ti158  1  0.28980603  0.89278433  0.62371182  1
  Ti  Ti159  1  0.40797117  0.17910585  0.50595214  1
  Mo  Mo160  1  0.60905181  0.20131811  0.76801289  1
  Mo  Mo161  1  0.30180726  0.29518800  0.35177482  1
  Mo  Mo162  1  0.20047181  0.80587700  0.51002812  1
  Mo  Mo163  1  0.49213338  0.09419487  0.62570850  1
  Mo  Mo164  1  0.20114131  0.39989549  0.49624879  1
  Mo  Mo165  1  0.00032987  0.00233025  -0.01877755  1
  Mo  Mo166  1  -0.00068646  0.80167232  0.00670373  1
  Mo  Mo167  1  0.51769888  0.90727397  0.37941744  1
  Mo  Mo168  1  0.69977953  0.69682395  0.36500838  1
  Mo  Mo169  1  0.09364836  0.70449895  0.11374275  1
  Mo  Mo170  1  0.39584273  0.79023583  0.26321553  1
  Mo  Mo171  1  0.79943251  0.60510208  0.26216461  1
  Mo  Mo172  1  0.90001156  0.50499541  0.14032334  1
  Mo  Mo173  1  0.60214500  0.19519696  0.48715538  1
  Mo  Mo174  1  0.49857144  0.68584503  0.39316021  1
  Mo  Mo175  1  0.29894063  0.50429730  0.14611630  1
  Mo  Mo176  1  -0.00211825  0.60395838  0.25247663  1
  Mo  Mo177  1  0.09492824  0.50978857  0.38391645  1
  Mo  Mo178  1  0.50163569  0.28810553  0.11288250  1
  Mo  Mo179  1  0.20539836  0.79911075  0.74294823  1
  Mo  Mo180  1  0.80747941  0.80952249  0.50017214  1
  Mo  Mo181  1  0.00143199  0.40968705  0.00330067  1
  Mo  Mo182  1  0.80512395  -0.00327500  0.76019366  1
  Mo  Mo183  1  0.59672199  0.60084838  0.26979019  1
  Mo  Mo184  1  0.19805630  0.60345567  0.01580745  1
  Mo  Mo185  1  0.19908536  -0.00665311  -0.01633635  1
  Mo  Mo186  1  0.90085905  0.30512728  0.88676466  1
  Mo  Mo187  1  0.70384343  0.09928140  0.13255416  1
  Mo  Mo188  1  0.69871258  0.89662512  0.11853181  1
  Mo  Mo189  1  0.41026392  0.18892696  0.22498841  1
  Mo  Mo190  1  0.09097119  0.90347343  0.37924604  1
  Mo  Mo191  1  0.90518615  0.30928874  0.61960559  1
  Mo  Mo192  1  0.29649994  0.09047821  0.88529564  1
  Mo  Mo193  1  0.30077495  0.28291557  0.63516334  1
  Mo  Mo194  1  0.29231035  0.89589140  0.13903658  1
  Mo  Mo195  1  0.20336592  0.40787867  0.76578454  1
  Mo  Mo196  1  0.18920843  0.20239369  0.24167243  1
  Mo  Mo197  1  0.80902749  0.60649622  0.74833939  1
  Mo  Mo198  1  0.19301984  0.80772805  0.23176314  1
  Mo  Mo199  1  0.09960252  0.10916228  0.36405115  1
