# generated using pymatgen
data_HfZrTaTiMo
_symmetry_space_group_name_H-M   'P 1'
_cell_length_a   15.83540996
_cell_length_b   15.82705679
_cell_length_c   15.39751243
_cell_angle_alpha   89.93577995
_cell_angle_beta   90.02990133
_cell_angle_gamma   89.99699752
_symmetry_Int_Tables_number   1
_chemical_formula_structural   HfZrTaTiMo
_chemical_formula_sum   'Hf40 Zr40 Ta40 Ti40 Mo40'
_cell_volume   3859.04375390
_cell_formula_units_Z   40
loop_
 _symmetry_equiv_pos_site_id
 _symmetry_equiv_pos_as_xyz
  1  'x, y, z'
loop_
 _atom_site_type_symbol
 _atom_site_label
 _atom_site_symmetry_multiplicity
 _atom_site_fract_x
 _atom_site_fract_y
 _atom_site_fract_z
 _atom_site_occupancy
  Hf  Hf0  1  0.69961146  0.30131163  0.37635767  1
  Hf  Hf1  1  0.30537817  0.11350184  0.14651641  1
  Hf  Hf2  1  0.91009014  0.88818069  0.89853514  1
  Hf  Hf3  1  0.09294200  0.71275299  0.89725352  1
  Hf  Hf4  1  0.20175929  0.40254168  0.49245669  1
  Hf  Hf5  1  0.01235976  0.19931066  0.00359729  1
  Hf  Hf6  1  0.59803847  -0.01219004  0.26065594  1
  Hf  Hf7  1  -0.00191083  0.40057273  0.23894485  1
  Hf  Hf8  1  0.20947108  0.00978587  0.01098813  1
  Hf  Hf9  1  0.49279630  0.69944207  0.12649182  1
  Hf  Hf10  1  0.50651965  0.70369403  0.87254734  1
  Hf  Hf11  1  0.39948915  0.39358016  0.26257633  1
  Hf  Hf12  1  0.49994954  0.29004136  0.62416173  1
  Hf  Hf13  1  0.59309544  0.40278571  0.23503214  1
  Hf  Hf14  1  0.91122185  0.09090912  0.37708502  1
  Hf  Hf15  1  0.68821748  0.88766051  0.87808058  1
  Hf  Hf16  1  0.58299140  -0.01779996  0.50261147  1
  Hf  Hf17  1  -0.00615284  0.79676153  0.48664970  1
  Hf  Hf18  1  0.30814633  0.91231922  0.13782811  1
  Hf  Hf19  1  0.40855899  0.82197526  0.49683688  1
  Hf  Hf20  1  -0.00803722  0.60728390  0.76126033  1
  Hf  Hf21  1  0.61842302  0.18829201  0.50601400  1
  Hf  Hf22  1  0.90064704  0.30389904  0.87989027  1
  Hf  Hf23  1  0.50664640  0.50143139  0.38421634  1
  Hf  Hf24  1  0.80024806  0.40232059  0.50058081  1
  Hf  Hf25  1  0.79913485  0.77826764  0.76739472  1
  Hf  Hf26  1  0.10053646  0.50369933  0.63672494  1
  Hf  Hf27  1  0.61802972  0.60380445  0.74155295  1
  Hf  Hf28  1  0.20205855  0.80755032  0.48625946  1
  Hf  Hf29  1  0.69902763  0.68473615  0.89788161  1
  Hf  Hf30  1  0.89243805  0.10363822  0.12224582  1
  Hf  Hf31  1  0.29697940  0.70528326  0.62825533  1
  Hf  Hf32  1  0.19759699  0.20116766  0.76144974  1
  Hf  Hf33  1  0.80387271  -0.00792806  0.76292227  1
  Hf  Hf34  1  0.89720778  0.90249279  0.60364707  1
  Hf  Hf35  1  0.39523036  0.40228363  0.74827960  1
  Hf  Hf36  1  0.29628857  0.29998674  0.11979441  1
  Hf  Hf37  1  0.51600182  0.69998462  0.36390908  1
  Hf  Hf38  1  0.60032978  0.39012856  0.00418999  1
  Hf  Hf39  1  0.88144901  0.69316817  0.62273724  1
  Zr  Zr40  1  0.89719452  0.10602325  0.61635787  1
  Zr  Zr41  1  0.70257730  0.88309260  0.63146902  1
  Zr  Zr42  1  -0.00386056  0.80546575  0.74368567  1
  Zr  Zr43  1  0.40090948  0.59742146  -0.00518042  1
  Zr  Zr44  1  0.91169199  0.09369879  0.88544532  1
  Zr  Zr45  1  0.18937912  0.81367926  0.73919435  1
  Zr  Zr46  1  0.48846041  0.09374022  0.13721814  1
  Zr  Zr47  1  0.88516196  0.30670111  0.10576595  1
  Zr  Zr48  1  0.01191557  0.00189237  0.74288941  1
  Zr  Zr49  1  0.40153010  0.58609283  0.24118946  1
  Zr  Zr50  1  0.08196218  0.92401969  0.37054449  1
  Zr  Zr51  1  -0.00837856  0.20738456  0.24739321  1
  Zr  Zr52  1  0.21161962  0.40648924  0.26222192  1
  Zr  Zr53  1  0.90293243  0.29740468  0.63382406  1
  Zr  Zr54  1  0.59305492  0.20416424  0.25527694  1
  Zr  Zr55  1  0.80193134  0.40710363  0.75615058  1
  Zr  Zr56  1  0.39460835  -0.00162099  0.75078992  1
  Zr  Zr57  1  0.10458214  0.50235144  0.11509169  1
  Zr  Zr58  1  0.29388492  0.29487640  0.62585406  1
  Zr  Zr59  1  0.80314407  -0.02216349  0.26149755  1
  Zr  Zr60  1  0.39738781  0.19161653  -0.02109205  1
  Zr  Zr61  1  0.59645199  0.18841836  -0.00299462  1
  Zr  Zr62  1  0.89692213  0.50107285  0.35564167  1
  Zr  Zr63  1  0.00110890  0.40010710  0.49326020  1
  Zr  Zr64  1  -0.00482265  0.60138076  0.49228827  1
  Zr  Zr65  1  0.70187436  0.09331269  0.13610800  1
  Zr  Zr66  1  0.28685567  0.70037948  0.86113548  1
  Zr  Zr67  1  0.60992902  0.59696883  0.51542736  1
  Zr  Zr68  1  0.77889123  0.00478460  0.48393670  1
  Zr  Zr69  1  0.20146245  0.60066350  0.48936641  1
  Zr  Zr70  1  0.38833938  0.80304094  0.00231481  1
  Zr  Zr71  1  0.40115878  0.39656360  -0.01822240  1
  Zr  Zr72  1  0.09222379  0.70176503  0.35290120  1
  Zr  Zr73  1  0.10487105  0.51282734  0.89036479  1
  Zr  Zr74  1  0.60464842  0.78807025  0.50424380  1
  Zr  Zr75  1  0.89346814  0.90409422  0.11040935  1
  Zr  Zr76  1  0.21628468  0.01724561  0.48289661  1
  Zr  Zr77  1  0.50345344  0.29128266  0.84623294  1
  Zr  Zr78  1  0.49752561  0.09986007  0.38514071  1
  Zr  Zr79  1  0.31243721  0.69990018  0.36994644  1
  Ta  Ta80  1  0.38668417  0.19353320  0.49410102  1
  Ta  Ta81  1  -0.01532905  0.81450817  0.24561753  1
  Ta  Ta82  1  0.79936862  0.78524340  0.46972027  1
  Ta  Ta83  1  0.69652564  0.50093030  0.36400430  1
  Ta  Ta84  1  0.10379500  0.90490475  0.89063935  1
  Ta  Ta85  1  0.60598357  0.40377894  0.52147412  1
  Ta  Ta86  1  0.50009915  0.30405172  0.39866202  1
  Ta  Ta87  1  0.90008021  0.50363355  0.89906880  1
  Ta  Ta88  1  0.61457992  0.79604958  0.22902277  1
  Ta  Ta89  1  0.40471669  0.00048655  -0.01643959  1
  Ta  Ta90  1  0.19694485  0.40293267  0.76170202  1
  Ta  Ta91  1  0.09838499  0.29904601  0.63046915  1
  Ta  Ta92  1  0.90259549  0.50473793  0.62924593  1
  Ta  Ta93  1  0.49828212  0.89533233  0.86822675  1
  Ta  Ta94  1  0.29474345  0.50693828  0.63425866  1
  Ta  Ta95  1  0.09485836  0.71182400  0.13037981  1
  Ta  Ta96  1  0.40396172  0.59881080  0.74600400  1
  Ta  Ta97  1  0.79793403  0.60333152  0.47742630  1
  Ta  Ta98  1  0.69192337  0.29413534  0.85686960  1
  Ta  Ta99  1  0.00860268  0.20076147  0.49122023  1
  Ta  Ta100  1  0.59119141  -0.00387529  -0.00671838  1
  Ta  Ta101  1  0.28870071  0.90322993  0.87429245  1
  Ta  Ta102  1  0.20740946  0.60415138  0.23979300  1
  Ta  Ta103  1  0.89816141  0.70064872  0.12395928  1
  Ta  Ta104  1  0.09947538  0.29945195  0.36805402  1
  Ta  Ta105  1  0.49256110  0.09662024  0.62452876  1
  Ta  Ta106  1  0.10998054  0.10791028  0.14323372  1
  Ta  Ta107  1  0.20240721  0.20382701  -0.01280761  1
  Ta  Ta108  1  0.50232177  0.70842351  0.63905656  1
  Ta  Ta109  1  0.40860273  0.60167613  0.51774334  1
  Ta  Ta110  1  0.30023206  0.49513489  0.10862791  1
  Ta  Ta111  1  0.51372949  0.50255103  0.86108904  1
  Ta  Ta112  1  0.10201466  0.91274571  0.60381069  1
  Ta  Ta113  1  0.70546539  0.28869654  0.12936482  1
  Ta  Ta114  1  0.59807365  0.58434775  0.01831189  1
  Ta  Ta115  1  0.78053473  0.00453407  -0.01298306  1
  Ta  Ta116  1  0.10166950  0.50542238  0.35776856  1
  Ta  Ta117  1  0.20079157  0.81026720  0.24874247  1
  Ta  Ta118  1  0.40097307  0.41046697  0.50965380  1
  Ta  Ta119  1  0.78403681  0.19680665  -0.01957765  1
  Ti  Ti120  1  0.10698397  0.10686752  0.62240646  1
  Ti  Ti121  1  0.60654816  0.59257355  0.22563647  1
  Ti  Ti122  1  0.39971317  0.80520150  0.74799758  1
  Ti  Ti123  1  0.10747776  0.08980054  0.87499453  1
  Ti  Ti124  1  0.00612141  0.20204470  0.75733425  1
  Ti  Ti125  1  0.19984849  0.00783880  0.26126241  1
  Ti  Ti126  1  0.51178122  0.09745370  0.84953480  1
  Ti  Ti127  1  0.29889269  0.91167162  0.62320631  1
  Ti  Ti128  1  0.01883602  -0.00051522  0.01923751  1
  Ti  Ti129  1  -0.00471352  0.60051305  0.23116910  1
  Ti  Ti130  1  0.79704326  0.18804344  0.76694472  1
  Ti  Ti131  1  0.19665542  0.20302424  0.48390921  1
  Ti  Ti132  1  0.49920658  0.90498788  0.12605399  1
  Ti  Ti133  1  0.00323457  0.40375799  0.75887400  1
  Ti  Ti134  1  0.71488978  0.48191517  0.12385094  1
  Ti  Ti135  1  0.29790293  0.10195272  0.63159412  1
  Ti  Ti136  1  0.69089162  0.87837719  0.37128347  1
  Ti  Ti137  1  0.90139584  0.69438979  0.90967275  1
  Ti  Ti138  1  0.11279968  0.30129038  0.12360825  1
  Ti  Ti139  1  0.40528827  0.80798519  0.25469975  1
  Ti  Ti140  1  0.48710673  0.29000572  0.12612690  1
  Ti  Ti141  1  0.71101842  0.28807574  0.63147556  1
  Ti  Ti142  1  0.09701025  0.70127418  0.62327391  1
  Ti  Ti143  1  0.19602781  0.81252127  0.02484034  1
  Ti  Ti144  1  0.10223484  0.30974148  0.88177057  1
  Ti  Ti145  1  0.21003459  0.61961506  0.02010990  1
  Ti  Ti146  1  0.72544909  0.51359834  0.62940407  1
  Ti  Ti147  1  0.00016032  0.40467530  0.00840532  1
  Ti  Ti148  1  0.78663689  0.79506322  0.01742256  1
  Ti  Ti149  1  0.70239733  0.09492543  0.63885229  1
  Ti  Ti150  1  0.39679060  -0.00342340  0.28017299  1
  Ti  Ti151  1  0.29732359  0.09658269  0.86314073  1
  Ti  Ti152  1  0.80014457  0.58831192  0.01882507  1
  Ti  Ti153  1  0.59580332  0.79967555  0.01599429  1
  Ti  Ti154  1  0.70211546  0.49355290  0.88250056  1
  Ti  Ti155  1  0.59821209  -0.01070193  0.74205056  1
  Ti  Ti156  1  0.79502569  0.60311184  0.23774427  1
  Ti  Ti157  1  0.29322665  0.50539720  0.87220566  1
  Ti  Ti158  1  0.60596487  0.40608754  0.72863068  1
  Ti  Ti159  1  0.80226653  0.38738091  0.25308797  1
  Mo  Mo160  1  0.19864652  0.60416091  0.74913709  1
  Mo  Mo161  1  0.69977412  0.69141230  0.11832480  1
  Mo  Mo162  1  0.89495552  0.69948256  0.34398149  1
  Mo  Mo163  1  0.00657896  0.01149650  0.51205804  1
  Mo  Mo164  1  0.00210333  0.00305770  0.23219549  1
  Mo  Mo165  1  0.78764929  0.39444778  -0.01359594  1
  Mo  Mo166  1  0.19657545  0.00193191  0.74479538  1
  Mo  Mo167  1  0.80504000  0.20480530  0.48878152  1
  Mo  Mo168  1  0.70253869  0.09966563  0.36450646  1
  Mo  Mo169  1  0.50215917  0.88957870  0.36242232  1
  Mo  Mo170  1  0.19982059  0.20898533  0.26301158  1
  Mo  Mo171  1  0.60810136  0.19153672  0.72861381  1
  Mo  Mo172  1  0.89603056  0.89655762  0.38205646  1
  Mo  Mo173  1  0.71107591  0.69412567  0.62704894  1
  Mo  Mo174  1  0.10350188  0.91086999  0.13877753  1
  Mo  Mo175  1  0.30685993  0.50692368  0.39319946  1
  Mo  Mo176  1  0.49741866  0.48997681  0.12001682  1
  Mo  Mo177  1  0.59833290  0.79638419  0.74928686  1
  Mo  Mo178  1  0.80939593  0.59498465  0.77598159  1
  Mo  Mo179  1  0.29876646  0.90083782  0.36367039  1
  Mo  Mo180  1  0.49611168  0.89711038  0.64479489  1
  Mo  Mo181  1  0.69175525  0.89893764  0.10857981  1
  Mo  Mo182  1  0.39687236  0.00363788  0.50495196  1
  Mo  Mo183  1  0.29959381  0.10893882  0.36092900  1
  Mo  Mo184  1  0.39942104  0.19270278  0.74808468  1
  Mo  Mo185  1  0.79715726  0.19852999  0.26812149  1
  Mo  Mo186  1  0.39607148  0.21234983  0.27507264  1
  Mo  Mo187  1  0.00441129  0.80438253  0.02075376  1
  Mo  Mo188  1  0.89660917  0.29533640  0.38147736  1
  Mo  Mo189  1  0.29305033  0.30090858  0.86712130  1
  Mo  Mo190  1  0.89371672  0.49946339  0.12133197  1
  Mo  Mo191  1  0.20180124  0.39593162  -0.01377244  1
  Mo  Mo192  1  0.69206697  0.09327023  0.85910501  1
  Mo  Mo193  1  0.29522895  0.70598694  0.13881177  1
  Mo  Mo194  1  0.70013059  0.68680399  0.34774499  1
  Mo  Mo195  1  0.30363176  0.30325322  0.39435528  1
  Mo  Mo196  1  0.79682001  0.79205947  0.24712363  1
  Mo  Mo197  1  0.50108050  0.49978545  0.63744726  1
  Mo  Mo198  1  0.10249762  0.11168402  0.36036914  1
  Mo  Mo199  1  -0.00362238  0.60525370  0.01600737  1
