# generated using pymatgen
data_HfZrTaTiMo
_symmetry_space_group_name_H-M   'P 1'
_cell_length_a   15.85401348
_cell_length_b   15.82220149
_cell_length_c   15.37759896
_cell_angle_alpha   90.06269845
_cell_angle_beta   89.97359355
_cell_angle_gamma   90.06167182
_symmetry_Int_Tables_number   1
_chemical_formula_structural   HfZrTaTiMo
_chemical_formula_sum   'Hf40 Zr40 Ta40 Ti40 Mo40'
_cell_volume   3857.39494634
_cell_formula_units_Z   40
loop_
 _symmetry_equiv_pos_site_id
 _symmetry_equiv_pos_as_xyz
  1  'x, y, z'
loop_
 _atom_site_type_symbol
 _atom_site_label
 _atom_site_symmetry_multiplicity
 _atom_site_fract_x
 _atom_site_fract_y
 _atom_site_fract_z
 _atom_site_occupancy
  Hf  Hf0  1  0.69937863  0.90068561  0.61652086  1
  Hf  Hf1  1  0.40038303  0.58721721  0.02093662  1
  Hf  Hf2  1  0.60636376  0.80362135  0.76691896  1
  Hf  Hf3  1  0.10183694  0.50801991  0.86596591  1
  Hf  Hf4  1  0.90294388  0.09648311  0.11098723  1
  Hf  Hf5  1  0.79933211  -0.01145397  0.25543673  1
  Hf  Hf6  1  0.49658084  0.90065432  0.61529303  1
  Hf  Hf7  1  -0.00068222  0.40531066  -0.00732704  1
  Hf  Hf8  1  -0.00094116  0.59232396  0.50156808  1
  Hf  Hf9  1  0.31175993  0.09501822  0.39486110  1
  Hf  Hf10  1  0.79548090  -0.00283535  -0.01874868  1
  Hf  Hf11  1  0.48780543  0.91641104  0.38879711  1
  Hf  Hf12  1  0.70154574  0.89997831  0.10881322  1
  Hf  Hf13  1  0.49745820  0.50302579  0.64794300  1
  Hf  Hf14  1  0.69930176  0.49747511  0.64092386  1
  Hf  Hf15  1  0.79986067  0.18712737  0.24994711  1
  Hf  Hf16  1  0.40837119  0.19108723  0.24123983  1
  Hf  Hf17  1  0.18104570  0.80096828  0.50046532  1
  Hf  Hf18  1  0.29133215  0.29321121  0.11856956  1
  Hf  Hf19  1  0.29877309  0.90599396  0.61087481  1
  Hf  Hf20  1  0.90132341  0.29933653  0.37068372  1
  Hf  Hf21  1  0.60140322  0.20500630  0.50839312  1
  Hf  Hf22  1  0.30460605  0.10311170  0.88139957  1
  Hf  Hf23  1  0.20476367  0.19030788  0.25673751  1
  Hf  Hf24  1  -0.00900492  0.79129607  0.76818372  1
  Hf  Hf25  1  0.59836325  0.79435570  0.48228281  1
  Hf  Hf26  1  0.90293439  0.10508750  0.86401746  1
  Hf  Hf27  1  0.09465519  0.10018902  0.64198882  1
  Hf  Hf28  1  0.49381872  0.10869139  0.86538206  1
  Hf  Hf29  1  0.69681934  0.49814738  0.87548260  1
  Hf  Hf30  1  0.80907614  0.20383150  0.51061003  1
  Hf  Hf31  1  0.80855617  0.40410126  -0.00160005  1
  Hf  Hf32  1  0.39042268  0.79351625  0.75390732  1
  Hf  Hf33  1  -0.00013403  0.40657096  0.48894277  1
  Hf  Hf34  1  0.49925189  0.30567646  0.64022840  1
  Hf  Hf35  1  0.28780495  0.90379447  0.11931993  1
  Hf  Hf36  1  0.30436521  0.29424656  0.38756246  1
  Hf  Hf37  1  0.89504498  0.89728496  0.64053259  1
  Hf  Hf38  1  0.91798825  0.08816539  0.38227532  1
  Hf  Hf39  1  0.17688917  0.00801715  0.49960028  1
  Zr  Zr40  1  0.69572700  0.09398425  0.39268718  1
  Zr  Zr41  1  0.59351210  0.01068929  0.24892734  1
  Zr  Zr42  1  0.60326357  -0.00260681  0.76514625  1
  Zr  Zr43  1  0.60481173  0.80781995  0.25699765  1
  Zr  Zr44  1  0.20429675  0.20914831  0.75202661  1
  Zr  Zr45  1  0.29822027  0.49808811  0.62641651  1
  Zr  Zr46  1  0.10732118  0.69965966  0.88932776  1
  Zr  Zr47  1  0.81020622  0.61287408  0.75704960  1
  Zr  Zr48  1  0.18807322  0.80012257  0.24311565  1
  Zr  Zr49  1  0.19236350  0.80316312  0.73805956  1
  Zr  Zr50  1  0.29764963  0.70530671  0.37871099  1
  Zr  Zr51  1  0.69064211  0.50869285  0.11933991  1
  Zr  Zr52  1  0.50127623  0.90679354  0.10994968  1
  Zr  Zr53  1  0.49430922  0.69250011  0.88099873  1
  Zr  Zr54  1  0.29141380  0.88898675  0.88647602  1
  Zr  Zr55  1  0.29249429  0.90561892  0.37699954  1
  Zr  Zr56  1  0.40732418  0.40639193  0.48871792  1
  Zr  Zr57  1  0.09738089  0.49485827  0.13742940  1
  Zr  Zr58  1  0.90258615  0.09248515  0.63690685  1
  Zr  Zr59  1  0.80454548  0.59166680  0.50926997  1
  Zr  Zr60  1  0.40044915  0.39826666  0.00675116  1
  Zr  Zr61  1  0.40431002  0.39832586  0.25141398  1
  Zr  Zr62  1  0.50195909  0.29637438  0.86914167  1
  Zr  Zr63  1  0.49724961  0.49980593  0.85888231  1
  Zr  Zr64  1  0.72105261  0.49940524  0.36384987  1
  Zr  Zr65  1  0.09951309  0.11096581  0.10822730  1
  Zr  Zr66  1  0.49633855  0.10185152  0.63234973  1
  Zr  Zr67  1  0.60191921  0.59844107  0.48758374  1
  Zr  Zr68  1  0.60524651  0.40549903  0.49021652  1
  Zr  Zr69  1  0.38990482  0.78679755  0.01473459  1
  Zr  Zr70  1  0.70147519  0.29112326  0.11833238  1
  Zr  Zr71  1  0.80674898  0.38659577  0.75744375  1
  Zr  Zr72  1  0.40982244  0.59753701  0.47325597  1
  Zr  Zr73  1  0.49942422  0.69878514  0.63016466  1
  Zr  Zr74  1  0.81152397  0.40328457  0.23490299  1
  Zr  Zr75  1  0.90061232  0.69628444  0.37355084  1
  Zr  Zr76  1  0.20296352  0.61214479  0.73407414  1
  Zr  Zr77  1  0.40176793  0.79806399  0.24249204  1
  Zr  Zr78  1  0.91932975  0.29182025  0.12430182  1
  Zr  Zr79  1  0.19034432  0.00110702  -0.00881176  1
  Ta  Ta80  1  0.19385121  -0.00229918  0.75856788  1
  Ta  Ta81  1  0.28973051  0.49987218  0.13917916  1
  Ta  Ta82  1  0.01025705  0.19652588  0.50489897  1
  Ta  Ta83  1  0.07945601  0.90640496  0.36858381  1
  Ta  Ta84  1  0.00136277  0.21680753  0.75087089  1
  Ta  Ta85  1  0.59805937  0.01435382  -0.01272018  1
  Ta  Ta86  1  0.48768591  0.90687849  0.88853964  1
  Ta  Ta87  1  0.70730521  0.69946995  0.36204796  1
  Ta  Ta88  1  0.70323681  0.70450358  0.11814488  1
  Ta  Ta89  1  0.40242173  0.59810654  0.24759602  1
  Ta  Ta90  1  0.59916595  0.20025071  0.25794824  1
  Ta  Ta91  1  0.70446925  0.29853000  0.37381998  1
  Ta  Ta92  1  0.10458340  0.29972372  0.11901369  1
  Ta  Ta93  1  0.09985562  0.29530003  0.37845226  1
  Ta  Ta94  1  0.80829766  -0.01290729  0.49323089  1
  Ta  Ta95  1  0.29911849  0.30044130  0.61372635  1
  Ta  Ta96  1  0.59962199  0.39482594  0.25258938  1
  Ta  Ta97  1  0.30463779  0.70182770  0.60113750  1
  Ta  Ta98  1  0.79427522  -0.00974352  0.76858732  1
  Ta  Ta99  1  0.39241381  0.01142789  0.23166094  1
  Ta  Ta100  1  0.29819183  0.50521806  0.86987147  1
  Ta  Ta101  1  0.09086611  0.49252570  0.63846040  1
  Ta  Ta102  1  0.51154050  0.29322284  0.11995699  1
  Ta  Ta103  1  0.89820191  0.70658061  0.61947825  1
  Ta  Ta104  1  0.81129958  0.60011953  0.00360583  1
  Ta  Ta105  1  -0.00784203  0.79852093  0.23461537  1
  Ta  Ta106  1  0.19422411  0.20200266  0.50399450  1
  Ta  Ta107  1  -0.00513301  0.60108819  0.01384212  1
  Ta  Ta108  1  0.20211801  0.40694203  -0.00594410  1
  Ta  Ta109  1  -0.00229654  0.80111657  -0.00011058  1
  Ta  Ta110  1  0.19079011  0.59104646  0.49114967  1
  Ta  Ta111  1  0.51574077  0.68912254  0.12422004  1
  Ta  Ta112  1  0.70602901  0.09595854  0.63015796  1
  Ta  Ta113  1  0.09069229  0.70168532  0.37216488  1
  Ta  Ta114  1  0.59880040  0.59861296  0.25683113  1
  Ta  Ta115  1  0.70600408  0.70900168  0.62471358  1
  Ta  Ta116  1  0.00153591  -0.00336978  0.23899523  1
  Ta  Ta117  1  0.80338517  0.80052850  0.24610900  1
  Ta  Ta118  1  0.59707313  0.40022668  -0.00045393  1
  Ta  Ta119  1  0.19836383  0.39603662  0.26459577  1
  Ti  Ti120  1  0.09608216  0.10851680  0.87286575  1
  Ti  Ti121  1  0.29163357  0.68757082  0.89197704  1
  Ti  Ti122  1  0.50317903  0.29139853  0.37801021  1
  Ti  Ti123  1  0.59929685  0.79901999  -0.00812995  1
  Ti  Ti124  1  0.19719237  0.39466116  0.75710310  1
  Ti  Ti125  1  0.70622434  0.30392904  0.62582887  1
  Ti  Ti126  1  0.10611109  0.69538809  0.11960825  1
  Ti  Ti127  1  0.79916470  0.80055098  0.48602824  1
  Ti  Ti128  1  0.30203562  0.29599294  0.88631741  1
  Ti  Ti129  1  0.19881611  0.59857893  0.26461721  1
  Ti  Ti130  1  -0.00397472  0.60073257  0.24269958  1
  Ti  Ti131  1  -0.01110853  0.81284026  0.49578260  1
  Ti  Ti132  1  0.69221234  0.10241390  0.11526793  1
  Ti  Ti133  1  0.10184230  0.29956937  0.88554898  1
  Ti  Ti134  1  0.90257358  0.29386512  0.87517439  1
  Ti  Ti135  1  0.91339703  0.50840568  0.85978145  1
  Ti  Ti136  1  0.38940090  -0.00347435  0.74867051  1
  Ti  Ti137  1  0.81139698  0.40498219  0.50639874  1
  Ti  Ti138  1  0.08142025  0.90686473  0.63253872  1
  Ti  Ti139  1  0.38262487  0.39136211  0.75616562  1
  Ti  Ti140  1  0.19369079  0.40951944  0.48635057  1
  Ti  Ti141  1  0.79448860  0.79902862  0.77433701  1
  Ti  Ti142  1  0.10263302  0.30842188  0.61980710  1
  Ti  Ti143  1  0.81078163  0.60830641  0.22823213  1
  Ti  Ti144  1  -0.00396651  -0.00832806  -0.01921082  1
  Ti  Ti145  1  0.70007381  0.69327307  0.89715953  1
  Ti  Ti146  1  0.40695842  0.18923911  0.01559675  1
  Ti  Ti147  1  0.89911235  0.89813405  0.11523093  1
  Ti  Ti148  1  0.01173630  0.19367155  0.25734775  1
  Ti  Ti149  1  0.91257705  0.30947839  0.62903800  1
  Ti  Ti150  1  0.30072332  0.10452349  0.62489968  1
  Ti  Ti151  1  0.70351707  0.11862229  0.86733573  1
  Ti  Ti152  1  0.19284324  0.00697934  0.24792786  1
  Ti  Ti153  1  0.80981502  0.79620868  -0.01111122  1
  Ti  Ti154  1  0.49469846  0.10268155  0.39774200  1
  Ti  Ti155  1  0.62050235  0.21425756  0.74984229  1
  Ti  Ti156  1  0.09165486  0.90144219  0.11660477  1
  Ti  Ti157  1  0.79955195  0.20132242  -0.00522139  1
  Ti  Ti158  1  0.08809741  0.70033907  0.61703820  1
  Ti  Ti159  1  0.60870895  0.61208470  0.75425584  1
  Mo  Mo160  1  0.00532482  -0.00478596  0.77013258  1
  Mo  Mo161  1  0.70440766  0.29706806  0.88851602  1
  Mo  Mo162  1  0.20350804  0.59213039  0.01100983  1
  Mo  Mo163  1  0.50229035  0.70387479  0.35227197  1
  Mo  Mo164  1  0.00920577  0.39512788  0.26182645  1
  Mo  Mo165  1  0.18980946  0.79242165  0.01663025  1
  Mo  Mo166  1  0.90164144  0.89357613  0.36418031  1
  Mo  Mo167  1  0.90758445  0.49683468  0.64038503  1
  Mo  Mo168  1  0.80101103  0.19909773  0.73771062  1
  Mo  Mo169  1  0.39755295  0.79826694  0.49635713  1
  Mo  Mo170  1  0.50276264  0.49422456  0.13754467  1
  Mo  Mo171  1  0.39962781  0.20422430  0.51664958  1
  Mo  Mo172  1  0.60529293  0.20087121  -0.01115115  1
  Mo  Mo173  1  0.90116808  0.70600269  0.11797350  1
  Mo  Mo174  1  0.60664210  0.39797089  0.75777196  1
  Mo  Mo175  1  0.10157588  0.09938425  0.37047794  1
  Mo  Mo176  1  0.09753006  0.50352886  0.36122495  1
  Mo  Mo177  1  0.90400855  0.50479483  0.13234620  1
  Mo  Mo178  1  0.29356302  0.50026813  0.36325625  1
  Mo  Mo179  1  0.89741132  0.89535988  0.87205409  1
  Mo  Mo180  1  -0.00088412  0.60248504  0.73211589  1
  Mo  Mo181  1  0.00201475  0.20347752  -0.01941080  1
  Mo  Mo182  1  0.90217567  0.69340908  0.89255902  1
  Mo  Mo183  1  0.60414917  0.00251529  0.50596581  1
  Mo  Mo184  1  0.09429545  0.90164338  0.87721306  1
  Mo  Mo185  1  0.00772596  0.39469088  0.76008780  1
  Mo  Mo186  1  0.90951654  0.50132843  0.35059606  1
  Mo  Mo187  1  0.29035825  0.68632739  0.13280454  1
  Mo  Mo188  1  0.38871796  0.20518336  0.74032757  1
  Mo  Mo189  1  0.50918972  0.10601035  0.11427149  1
  Mo  Mo190  1  0.30192237  0.09860252  0.11243512  1
  Mo  Mo191  1  0.40043185  0.00578684  0.01016585  1
  Mo  Mo192  1  -0.00452821  -0.00765533  0.50304991  1
  Mo  Mo193  1  0.50445109  0.49605056  0.35437599  1
  Mo  Mo194  1  0.39559146  0.00528366  0.51531447  1
  Mo  Mo195  1  0.69407337  0.89330236  0.89222955  1
  Mo  Mo196  1  0.38841037  0.60553466  0.75159317  1
  Mo  Mo197  1  0.70373253  0.89713709  0.38725662  1
  Mo  Mo198  1  0.60304801  0.60045293  0.00211973  1
  Mo  Mo199  1  0.20032843  0.20954998  -0.01315352  1
