# generated using pymatgen
data_HfZrTaTiMo
_symmetry_space_group_name_H-M   'P 1'
_cell_length_a   15.85078890
_cell_length_b   15.82916248
_cell_length_c   15.39115799
_cell_angle_alpha   90.02439970
_cell_angle_beta   90.01735579
_cell_angle_gamma   89.90611371
_symmetry_Int_Tables_number   1
_chemical_formula_structural   HfZrTaTiMo
_chemical_formula_sum   'Hf40 Zr40 Ta40 Ti40 Mo40'
_cell_volume   3861.70836779
_cell_formula_units_Z   40
loop_
 _symmetry_equiv_pos_site_id
 _symmetry_equiv_pos_as_xyz
  1  'x, y, z'
loop_
 _atom_site_type_symbol
 _atom_site_label
 _atom_site_symmetry_multiplicity
 _atom_site_fract_x
 _atom_site_fract_y
 _atom_site_fract_z
 _atom_site_occupancy
  Hf  Hf0  1  0.50646616  0.09649317  0.11601929  1
  Hf  Hf1  1  0.00785572  0.40772277  -0.01275415  1
  Hf  Hf2  1  0.49974278  0.51107998  0.63047124  1
  Hf  Hf3  1  0.50280469  0.67456913  0.13472745  1
  Hf  Hf4  1  0.10371300  0.70568952  0.88856558  1
  Hf  Hf5  1  0.40356106  0.38917786  0.23348156  1
  Hf  Hf6  1  0.19903151  0.78818166  0.73893809  1
  Hf  Hf7  1  0.79316744  0.39589674  0.25192618  1
  Hf  Hf8  1  0.10769870  0.10064797  0.10736800  1
  Hf  Hf9  1  0.30027290  0.87670829  0.89875153  1
  Hf  Hf10  1  0.00286714  0.20510305  0.50993520  1
  Hf  Hf11  1  -0.00535026  0.00003975  -0.00158853  1
  Hf  Hf12  1  -0.00315715  0.00159026  0.49938192  1
  Hf  Hf13  1  0.00356234  0.80662723  0.73916348  1
  Hf  Hf14  1  0.20238993  0.38785473  0.52327634  1
  Hf  Hf15  1  0.51135408  0.09617887  0.62852741  1
  Hf  Hf16  1  0.77669669  0.61514197  -0.01935132  1
  Hf  Hf17  1  0.30569215  0.28842624  0.38487278  1
  Hf  Hf18  1  0.78586528  0.41010138  -0.01936195  1
  Hf  Hf19  1  0.90410134  0.10860098  0.86486200  1
  Hf  Hf20  1  0.89760165  0.71227311  0.87047300  1
  Hf  Hf21  1  0.69145190  0.49746280  0.38633405  1
  Hf  Hf22  1  -0.00662708  0.59823858  0.24884490  1
  Hf  Hf23  1  0.40557578  0.19748453  0.23460468  1
  Hf  Hf24  1  0.09853691  0.69958013  0.38107150  1
  Hf  Hf25  1  0.10118319  0.90413354  0.61091850  1
  Hf  Hf26  1  0.29806649  0.10128674  0.88549723  1
  Hf  Hf27  1  -0.01358229  0.80895956  0.01803063  1
  Hf  Hf28  1  0.90226209  0.10714192  0.63904285  1
  Hf  Hf29  1  -0.00501141  0.79966923  0.24852134  1
  Hf  Hf30  1  0.40087955  0.79887808  0.24905942  1
  Hf  Hf31  1  0.89763452  0.30908663  0.38920652  1
  Hf  Hf32  1  0.40690906  0.00093883  0.48973063  1
  Hf  Hf33  1  0.59261516  0.39833683  0.24129403  1
  Hf  Hf34  1  0.60845540  0.79513037  0.00388848  1
  Hf  Hf35  1  0.11968240  0.90022254  0.11815556  1
  Hf  Hf36  1  0.79026992  0.00176496  0.74833540  1
  Hf  Hf37  1  0.30332083  0.48836856  0.38226292  1
  Hf  Hf38  1  0.31596251  0.68145794  0.61745032  1
  Hf  Hf39  1  0.52242591  0.89315700  0.62355677  1
  Zr  Zr40  1  0.50726431  0.29833425  0.38971493  1
  Zr  Zr41  1  -0.00047836  -0.00302916  0.24289950  1
  Zr  Zr42  1  0.90050751  0.50491304  0.86087644  1
  Zr  Zr43  1  0.79635793  -0.00846442  -0.00789630  1
  Zr  Zr44  1  0.09870277  0.29485383  0.10229000  1
  Zr  Zr45  1  0.60159645  0.00304520  0.25692853  1
  Zr  Zr46  1  0.09260397  0.48785794  0.38535622  1
  Zr  Zr47  1  0.01131673  0.60853349  0.73929924  1
  Zr  Zr48  1  0.68780080  0.52070746  0.13403298  1
  Zr  Zr49  1  0.10890806  0.10288449  0.37528077  1
  Zr  Zr50  1  0.39590989  0.80088086  0.74211529  1
  Zr  Zr51  1  0.41699033  -0.01132302  -0.00516648  1
  Zr  Zr52  1  0.69773266  0.50781307  0.62554997  1
  Zr  Zr53  1  -0.01088827  0.59343583  0.50873238  1
  Zr  Zr54  1  0.58711421  0.58736510  -0.02118753  1
  Zr  Zr55  1  0.30189797  0.70655753  0.11203849  1
  Zr  Zr56  1  0.21589776  0.19873434  0.23751611  1
  Zr  Zr57  1  0.89296628  0.29824746  0.10558921  1
  Zr  Zr58  1  0.89029524  0.70622343  0.62209817  1
  Zr  Zr59  1  0.88734063  0.10634237  0.37308886  1
  Zr  Zr60  1  0.40602997  -0.00608599  0.75845190  1
  Zr  Zr61  1  0.19584710  0.59591755  0.24261019  1
  Zr  Zr62  1  0.20467211  -0.01104214  0.75294501  1
  Zr  Zr63  1  0.20333903  0.79656665  0.50483489  1
  Zr  Zr64  1  0.10250053  0.30418583  0.37991473  1
  Zr  Zr65  1  0.30703385  0.68705772  0.37567026  1
  Zr  Zr66  1  0.89550596  0.10801410  0.11984691  1
  Zr  Zr67  1  0.70320234  0.10131168  0.12583816  1
  Zr  Zr68  1  0.89791876  0.30944718  0.64186193  1
  Zr  Zr69  1  0.19903889  0.39789012  0.22954360  1
  Zr  Zr70  1  0.29851961  0.30132347  0.87752372  1
  Zr  Zr71  1  0.48730722  0.71098534  0.87739032  1
  Zr  Zr72  1  -0.00290087  0.20979373  0.25153240  1
  Zr  Zr73  1  0.88837532  0.50103782  0.12700034  1
  Zr  Zr74  1  -0.00299788  0.60164221  0.00973715  1
  Zr  Zr75  1  0.86820642  0.70483191  0.13019069  1
  Zr  Zr76  1  0.32000965  0.50845737  0.11523711  1
  Zr  Zr77  1  0.41792893  0.78955499  0.49382211  1
  Zr  Zr78  1  0.78779615  0.00117273  0.50894885  1
  Zr  Zr79  1  0.68587245  0.71231804  0.62015051  1
  Ta  Ta80  1  0.21413726  0.00148455  0.25671200  1
  Ta  Ta81  1  0.00500527  -0.00148030  0.75209015  1
  Ta  Ta82  1  0.40117604  0.20008485  0.51820977  1
  Ta  Ta83  1  0.78197861  0.21095400  0.75118524  1
  Ta  Ta84  1  0.79947205  0.80413959  0.48171535  1
  Ta  Ta85  1  0.78264666  0.20464931  0.52013574  1
  Ta  Ta86  1  0.60725890  -0.00974759  0.76755622  1
  Ta  Ta87  1  0.19353667  0.58637808  0.00397214  1
  Ta  Ta88  1  0.10404492  0.10359223  0.87851262  1
  Ta  Ta89  1  0.80431522  0.40864381  0.51404591  1
  Ta  Ta90  1  0.10412186  0.90001306  0.37559550  1
  Ta  Ta91  1  0.50753109  0.89184207  0.13517350  1
  Ta  Ta92  1  0.60880245  0.39296361  0.75701468  1
  Ta  Ta93  1  0.19838776  0.59162135  0.51216180  1
  Ta  Ta94  1  0.29901444  0.09219552  0.10379109  1
  Ta  Ta95  1  0.69299881  0.11556911  0.37320684  1
  Ta  Ta96  1  0.10190179  0.89997977  0.88593876  1
  Ta  Ta97  1  0.90143417  0.30085546  0.86364633  1
  Ta  Ta98  1  0.40280907  0.39453526  0.52353718  1
  Ta  Ta99  1  0.59330685  0.39936100  -0.01217821  1
  Ta  Ta100  1  0.49740965  0.29759940  0.86829076  1
  Ta  Ta101  1  0.89427987  0.49813266  0.37503631  1
  Ta  Ta102  1  0.60373738  0.19533947  0.76119131  1
  Ta  Ta103  1  0.61045838  0.81016678  0.47450243  1
  Ta  Ta104  1  0.69396260  0.29979246  0.10723756  1
  Ta  Ta105  1  0.78296148  0.81093542  0.75199221  1
  Ta  Ta106  1  0.50229607  0.90033105  0.36153435  1
  Ta  Ta107  1  0.20320799  0.19697350  0.74164244  1
  Ta  Ta108  1  0.00764955  0.40255734  0.75353089  1
  Ta  Ta109  1  0.30080670  0.90109717  0.37539089  1
  Ta  Ta110  1  0.50817540  0.29603564  0.63584410  1
  Ta  Ta111  1  0.79249085  0.60633180  0.75203032  1
  Ta  Ta112  1  0.60103994  0.19883521  -0.01618624  1
  Ta  Ta113  1  0.29426496  0.68821510  0.89158423  1
  Ta  Ta114  1  0.79523453  0.80558139  0.27253648  1
  Ta  Ta115  1  0.30284083  0.09311439  0.62505754  1
  Ta  Ta116  1  0.09984763  0.49416200  0.63006577  1
  Ta  Ta117  1  0.39554175  0.00457708  0.25289103  1
  Ta  Ta118  1  0.40131452  0.39895490  0.74691947  1
  Ta  Ta119  1  0.20644621  0.19483276  0.52096627  1
  Ti  Ti120  1  0.59776259  0.21155738  0.24013989  1
  Ti  Ti121  1  0.90195669  0.90078542  0.86457971  1
  Ti  Ti122  1  0.69763559  0.29882343  0.39059874  1
  Ti  Ti123  1  0.78914450  0.20869552  0.25011914  1
  Ti  Ti124  1  0.89358766  0.90064869  0.62403433  1
  Ti  Ti125  1  0.20204774  0.80443418  0.25434313  1
  Ti  Ti126  1  0.11427361  0.50088189  0.86498867  1
  Ti  Ti127  1  0.79886369  0.60581830  0.49342184  1
  Ti  Ti128  1  0.10142734  0.29110980  0.87221328  1
  Ti  Ti129  1  0.40545167  0.20840183  0.00529071  1
  Ti  Ti130  1  0.79174998  0.20124667  -0.02155943  1
  Ti  Ti131  1  0.70686170  0.89325567  0.14031017  1
  Ti  Ti132  1  0.20760861  0.00598182  0.49033251  1
  Ti  Ti133  1  0.39973084  0.19932080  0.74301149  1
  Ti  Ti134  1  0.60579022  0.00487351  0.48926023  1
  Ti  Ti135  1  0.39256577  0.59039262  0.76990693  1
  Ti  Ti136  1  0.20598679  0.39814809  0.74765260  1
  Ti  Ti137  1  0.79156371  0.80825605  -0.00538774  1
  Ti  Ti138  1  -0.00163620  0.40326840  0.23727274  1
  Ti  Ti139  1  0.60107456  0.39309045  0.51617314  1
  Ti  Ti140  1  0.20351559  0.59821371  0.74423269  1
  Ti  Ti141  1  0.49298523  0.49965606  0.38360937  1
  Ti  Ti142  1  0.78706159  0.61212220  0.27289033  1
  Ti  Ti143  1  0.58429736  0.61807787  0.48453345  1
  Ti  Ti144  1  0.60872103  -0.00787835  -0.01312758  1
  Ti  Ti145  1  0.09729046  0.29651843  0.64132438  1
  Ti  Ti146  1  0.49892157  0.11074469  0.37722294  1
  Ti  Ti147  1  0.30362740  0.49712130  0.62994363  1
  Ti  Ti148  1  0.50078624  0.10106692  0.87440273  1
  Ti  Ti149  1  0.89981385  0.90638387  0.37191319  1
  Ti  Ti150  1  0.60860860  0.78703283  0.26164676  1
  Ti  Ti151  1  0.20710165  0.40176185  0.00075769  1
  Ti  Ti152  1  -0.00728965  0.79939137  0.49563914  1
  Ti  Ti153  1  0.30494796  0.90285237  0.11831138  1
  Ti  Ti154  1  0.30710358  0.90178066  0.61159441  1
  Ti  Ti155  1  0.10276872  0.09806818  0.63329156  1
  Ti  Ti156  1  0.59891860  0.60452742  0.76570779  1
  Ti  Ti157  1  0.41102477  0.41118491  -0.01056677  1
  Ti  Ti158  1  0.50498218  0.69723195  0.63591052  1
  Ti  Ti159  1  0.10305906  0.70073342  0.12403889  1
  Mo  Mo160  1  0.40764386  0.58843214  0.26726360  1
  Mo  Mo161  1  0.69909087  0.30069103  0.88270083  1
  Mo  Mo162  1  0.69504485  0.70580031  0.85960241  1
  Mo  Mo163  1  0.30552650  0.29837372  0.09777254  1
  Mo  Mo164  1  0.50233776  0.49322191  0.12365681  1
  Mo  Mo165  1  0.79911920  0.00087828  0.25447887  1
  Mo  Mo166  1  0.30480153  0.29449945  0.64128803  1
  Mo  Mo167  1  0.20483683  0.20339112  -0.00396764  1
  Mo  Mo168  1  0.70213583  0.89626532  0.88165497  1
  Mo  Mo169  1  0.49530743  0.49222464  0.85224702  1
  Mo  Mo170  1  0.29465894  0.49861741  0.87199271  1
  Mo  Mo171  1  0.89631466  0.50166504  0.63900236  1
  Mo  Mo172  1  0.69179384  0.10188163  0.63640659  1
  Mo  Mo173  1  0.88508312  0.90390243  0.14231099  1
  Mo  Mo174  1  -0.00550452  0.40284897  0.52549798  1
  Mo  Mo175  1  0.79738207  0.40492658  0.75059724  1
  Mo  Mo176  1  0.59703453  0.59569508  0.27003240  1
  Mo  Mo177  1  0.10107158  0.49860899  0.12026665  1
  Mo  Mo178  1  0.60032310  0.19390176  0.50468146  1
  Mo  Mo179  1  0.50559703  0.29977954  0.09942767  1
  Mo  Mo180  1  0.69953207  0.69878274  0.38289329  1
  Mo  Mo181  1  0.69782475  0.10021113  0.87368818  1
  Mo  Mo182  1  -0.00098939  0.20465235  -0.02582429  1
  Mo  Mo183  1  0.01241415  0.20139963  0.75586154  1
  Mo  Mo184  1  0.30870260  0.09983868  0.38937693  1
  Mo  Mo185  1  0.10523762  0.69778968  0.61059354  1
  Mo  Mo186  1  0.69530871  0.50039795  0.85307070  1
  Mo  Mo187  1  0.89756334  0.70056265  0.37806052  1
  Mo  Mo188  1  0.39687853  0.59167524  -0.01891656  1
  Mo  Mo189  1  0.69380502  0.30273046  0.62108386  1
  Mo  Mo190  1  0.50309295  0.69484585  0.36067614  1
  Mo  Mo191  1  0.50596710  0.89773069  0.87786690  1
  Mo  Mo192  1  0.40502575  0.58650975  0.49718095  1
  Mo  Mo193  1  0.60004830  0.80455403  0.76148372  1
  Mo  Mo194  1  0.70104347  0.90970993  0.36740472  1
  Mo  Mo195  1  0.19494417  0.79434684  0.00631508  1
  Mo  Mo196  1  0.69767708  0.90222040  0.61570556  1
  Mo  Mo197  1  0.41001412  0.79625816  0.02248282  1
  Mo  Mo198  1  0.69414783  0.70777103  0.14430746  1
  Mo  Mo199  1  0.20363327  -0.00207185  -0.00998225  1
