# generated using pymatgen
data_HfZrTaTiMo
_symmetry_space_group_name_H-M   'P 1'
_cell_length_a   15.83750771
_cell_length_b   15.83655954
_cell_length_c   15.39276674
_cell_angle_alpha   89.98741658
_cell_angle_beta   89.96442504
_cell_angle_gamma   90.06109751
_symmetry_Int_Tables_number   1
_chemical_formula_structural   HfZrTaTiMo
_chemical_formula_sum   'Hf40 Zr40 Ta40 Ti40 Mo40'
_cell_volume   3860.68194147
_cell_formula_units_Z   40
loop_
 _symmetry_equiv_pos_site_id
 _symmetry_equiv_pos_as_xyz
  1  'x, y, z'
loop_
 _atom_site_type_symbol
 _atom_site_label
 _atom_site_symmetry_multiplicity
 _atom_site_fract_x
 _atom_site_fract_y
 _atom_site_fract_z
 _atom_site_occupancy
  Hf  Hf0  1  0.58847570  -0.00963743  0.75606552  1
  Hf  Hf1  1  0.19325663  0.20594109  0.49899407  1
  Hf  Hf2  1  -0.00446696  -0.00662425  0.01028748  1
  Hf  Hf3  1  0.10141300  0.89750673  0.37744721  1
  Hf  Hf4  1  0.70493188  0.49872408  0.11960289  1
  Hf  Hf5  1  0.91222579  0.91144650  0.85263062  1
  Hf  Hf6  1  0.28851054  0.50631458  0.85928487  1
  Hf  Hf7  1  0.40659708  0.40069842  -0.00702109  1
  Hf  Hf8  1  -0.02060056  0.78853565  0.25797820  1
  Hf  Hf9  1  0.90677970  0.49179907  0.39106895  1
  Hf  Hf10  1  0.30670321  0.49611309  0.62675470  1
  Hf  Hf11  1  0.18634999  -0.01273947  0.75698443  1
  Hf  Hf12  1  0.10783179  0.69408988  0.13548341  1
  Hf  Hf13  1  0.68864616  0.29939579  0.62449662  1
  Hf  Hf14  1  0.68329620  0.69944005  0.63942809  1
  Hf  Hf15  1  0.01835576  0.80172754  0.73914320  1
  Hf  Hf16  1  0.20737087  0.80246161  -0.00255360  1
  Hf  Hf17  1  0.09864077  0.10062122  0.13955379  1
  Hf  Hf18  1  0.89172640  0.10079161  0.86837822  1
  Hf  Hf19  1  0.30062446  0.50957559  0.14405663  1
  Hf  Hf20  1  0.49572858  0.10006529  0.36578693  1
  Hf  Hf21  1  0.50795187  0.49856426  0.12606724  1
  Hf  Hf22  1  0.59900215  0.80227792  0.24912354  1
  Hf  Hf23  1  -0.00622193  0.19723040  0.73923700  1
  Hf  Hf24  1  0.29588185  0.09966764  0.62172453  1
  Hf  Hf25  1  0.00955503  0.80002236  -0.00522343  1
  Hf  Hf26  1  0.39257575  -0.00576990  0.75773511  1
  Hf  Hf27  1  0.10102891  0.09826674  0.37267042  1
  Hf  Hf28  1  0.49575273  0.30282676  0.61947270  1
  Hf  Hf29  1  0.88538323  0.10210882  0.61573877  1
  Hf  Hf30  1  0.21468094  0.80077960  0.75308168  1
  Hf  Hf31  1  0.42099702  0.80033869  0.49894780  1
  Hf  Hf32  1  0.42194121  0.80602087  0.74645993  1
  Hf  Hf33  1  0.10136700  0.89574413  0.14525170  1
  Hf  Hf34  1  -0.00858037  -0.00127215  0.49937005  1
  Hf  Hf35  1  0.70982210  0.49846345  0.36535894  1
  Hf  Hf36  1  0.29956469  0.90745124  0.38925453  1
  Hf  Hf37  1  0.29560786  0.50331732  0.36866656  1
  Hf  Hf38  1  0.59896030  0.40981327  0.48634342  1
  Hf  Hf39  1  0.61390359  0.81479438  0.50183583  1
  Zr  Zr40  1  0.40544470  0.61330507  0.74836900  1
  Zr  Zr41  1  0.08902925  0.30338576  0.13612305  1
  Zr  Zr42  1  0.70079710  0.91315522  0.12726780  1
  Zr  Zr43  1  0.40611811  0.37890508  0.24640098  1
  Zr  Zr44  1  0.91058680  0.69273944  0.86060251  1
  Zr  Zr45  1  0.30091312  0.29082446  0.12076204  1
  Zr  Zr46  1  0.79009408  0.58690402  0.75511051  1
  Zr  Zr47  1  0.51969120  0.50814399  0.62639411  1
  Zr  Zr48  1  0.69424858  0.29848380  0.11133422  1
  Zr  Zr49  1  0.69274204  0.10324435  0.88484226  1
  Zr  Zr50  1  0.79638865  0.60391921  0.50857052  1
  Zr  Zr51  1  0.49885465  0.11566948  0.63416913  1
  Zr  Zr52  1  -0.00888518  0.20758671  -0.00269004  1
  Zr  Zr53  1  0.18895695  0.19483701  0.74963966  1
  Zr  Zr54  1  0.30149810  0.29972645  0.63061039  1
  Zr  Zr55  1  0.10012315  0.49355308  0.14292500  1
  Zr  Zr56  1  0.87401399  0.88733749  0.38939829  1
  Zr  Zr57  1  0.81220859  0.61098349  0.25137874  1
  Zr  Zr58  1  0.41891979  0.39921866  0.76603604  1
  Zr  Zr59  1  0.89195547  0.29359652  0.39496671  1
  Zr  Zr60  1  0.18942877  0.19463573  -0.00704545  1
  Zr  Zr61  1  0.18965571  0.40860239  -0.00125586  1
  Zr  Zr62  1  -0.02399427  -0.00116203  0.25680051  1
  Zr  Zr63  1  0.80822383  0.80367978  -0.01272146  1
  Zr  Zr64  1  0.70390955  0.70174978  0.11850116  1
  Zr  Zr65  1  0.19798028  -0.00942511  -0.00361068  1
  Zr  Zr66  1  0.48728878  0.50885406  0.36400477  1
  Zr  Zr67  1  0.41222072  0.00582791  0.50756608  1
  Zr  Zr68  1  -0.00488181  0.59049833  0.25640481  1
  Zr  Zr69  1  0.40090840  0.60479591  -0.00657362  1
  Zr  Zr70  1  0.11253090  0.89160833  0.59604190  1
  Zr  Zr71  1  0.29082244  0.30244216  0.86902868  1
  Zr  Zr72  1  0.40856574  0.80521919  0.25080566  1
  Zr  Zr73  1  0.59880122  0.60998446  0.25801216  1
  Zr  Zr74  1  0.59563894  0.80116433  -0.01334618  1
  Zr  Zr75  1  0.79518239  0.19723016  0.24325303  1
  Zr  Zr76  1  0.00082995  0.58231263  0.00112150  1
  Zr  Zr77  1  0.50231445  0.10218802  0.12015528  1
  Zr  Zr78  1  0.69858218  0.09303562  0.37843203  1
  Zr  Zr79  1  0.10689798  0.69426768  0.38373532  1
  Ta  Ta80  1  0.60054108  0.61528225  0.48444835  1
  Ta  Ta81  1  0.20786217  0.19829580  0.25676109  1
  Ta  Ta82  1  0.20099263  0.60356727  -0.00307262  1
  Ta  Ta83  1  0.80455271  0.59416023  -0.01259563  1
  Ta  Ta84  1  0.60496499  0.59780191  -0.01876116  1
  Ta  Ta85  1  0.70171549  0.29838813  0.37949959  1
  Ta  Ta86  1  0.72188361  0.72332265  0.37539847  1
  Ta  Ta87  1  0.30119459  0.89954392  0.60905684  1
  Ta  Ta88  1  0.08807185  0.31349685  0.86134101  1
  Ta  Ta89  1  0.30529859  0.09596578  0.12287102  1
  Ta  Ta90  1  0.89924651  0.70152734  0.62845571  1
  Ta  Ta91  1  0.21294013  0.80017335  0.25746920  1
  Ta  Ta92  1  0.29679904  0.09462185  0.87848574  1
  Ta  Ta93  1  0.10954326  0.69026602  0.86925857  1
  Ta  Ta94  1  0.59297861  0.20715159  0.25491263  1
  Ta  Ta95  1  0.30207566  0.70215448  0.13437658  1
  Ta  Ta96  1  0.19705823  0.60970430  0.73031866  1
  Ta  Ta97  1  0.88821482  0.09677941  0.12270528  1
  Ta  Ta98  1  0.59605772  0.19966006  0.49043998  1
  Ta  Ta99  1  0.79814665  0.39560697  0.74494536  1
  Ta  Ta100  1  0.81675886  0.39667252  0.23686340  1
  Ta  Ta101  1  0.19516222  0.39911655  0.49975859  1
  Ta  Ta102  1  0.40486349  0.19520396  -0.01680409  1
  Ta  Ta103  1  0.20231842  0.59491739  0.50866565  1
  Ta  Ta104  1  0.30078134  0.70783206  0.60789372  1
  Ta  Ta105  1  0.70637589  0.30546637  0.88874633  1
  Ta  Ta106  1  0.59586303  0.60720235  0.77862281  1
  Ta  Ta107  1  -0.01167534  0.20278177  0.25518312  1
  Ta  Ta108  1  0.69916762  0.91057791  0.35886601  1
  Ta  Ta109  1  0.00697528  0.59364851  0.51543961  1
  Ta  Ta110  1  0.79381400  0.80232140  0.74836552  1
  Ta  Ta111  1  0.79163564  0.00086974  0.74043869  1
  Ta  Ta112  1  0.61403116  0.41233188  0.77198083  1
  Ta  Ta113  1  0.31155975  0.69204937  0.37641222  1
  Ta  Ta114  1  0.82263336  0.40049838  0.00476141  1
  Ta  Ta115  1  0.09668648  0.50149454  0.85229268  1
  Ta  Ta116  1  0.60667496  0.39126973  0.25577603  1
  Ta  Ta117  1  0.89160850  0.29774592  0.61757483  1
  Ta  Ta118  1  0.01020303  0.39480124  0.51204986  1
  Ta  Ta119  1  0.90045240  0.49518125  0.62683976  1
  Ti  Ti120  1  0.89734344  0.30208514  0.86408757  1
  Ti  Ti121  1  0.59731898  -0.00218878  0.51872515  1
  Ti  Ti122  1  0.80070920  -0.00209115  0.00070168  1
  Ti  Ti123  1  0.00633644  0.59947728  0.73107065  1
  Ti  Ti124  1  0.91025646  0.48650014  0.86095363  1
  Ti  Ti125  1  0.30354132  0.10435673  0.37734673  1
  Ti  Ti126  1  0.40545652  0.19729758  0.77392025  1
  Ti  Ti127  1  -0.00886472  0.78673225  0.50278049  1
  Ti  Ti128  1  0.39603497  0.80928968  -0.00028958  1
  Ti  Ti129  1  0.89628300  0.89749872  0.62782270  1
  Ti  Ti130  1  0.49788402  0.69836619  0.11500101  1
  Ti  Ti131  1  0.90062134  0.69852618  0.11284227  1
  Ti  Ti132  1  0.69065256  0.10689177  0.62986294  1
  Ti  Ti133  1  0.59158464  0.21345193  0.77135012  1
  Ti  Ti134  1  0.50682027  0.29460225  0.11192444  1
  Ti  Ti135  1  0.80259657  0.20209571  0.00518220  1
  Ti  Ti136  1  0.77700602  -0.01444622  0.52169330  1
  Ti  Ti137  1  0.78893778  0.20503968  0.74859720  1
  Ti  Ti138  1  0.09334468  0.30169433  0.36938513  1
  Ti  Ti139  1  0.39861870  -0.00440235  -0.00894286  1
  Ti  Ti140  1  0.39696107  -0.00105834  0.24211943  1
  Ti  Ti141  1  -0.00101866  0.39381021  0.73041085  1
  Ti  Ti142  1  0.68905830  0.09908793  0.11689658  1
  Ti  Ti143  1  0.30225279  0.29536282  0.37803781  1
  Ti  Ti144  1  0.19935753  0.39133959  0.26068702  1
  Ti  Ti145  1  0.00072459  0.20098564  0.50425894  1
  Ti  Ti146  1  0.30425367  0.70429900  0.87454244  1
  Ti  Ti147  1  0.09584447  0.09193588  0.61873447  1
  Ti  Ti148  1  0.49462588  0.29393465  0.37926028  1
  Ti  Ti149  1  0.40993625  0.60366203  0.50644091  1
  Ti  Ti150  1  0.10637535  0.49153053  0.63191046  1
  Ti  Ti151  1  0.70083441  0.90249761  0.87116841  1
  Ti  Ti152  1  0.88328350  0.09903011  0.38763650  1
  Ti  Ti153  1  0.79261981  0.40323274  0.51669038  1
  Ti  Ti154  1  0.51190244  0.91342959  0.36756529  1
  Ti  Ti155  1  0.08189400  0.08593237  0.86738417  1
  Ti  Ti156  1  0.21428087  -0.00087837  0.24756672  1
  Ti  Ti157  1  0.39643585  0.39926082  0.49308737  1
  Ti  Ti158  1  0.50044749  0.91136890  0.11517777  1
  Ti  Ti159  1  0.10318955  0.49436975  0.37507250  1
  Mo  Mo160  1  0.30330704  0.89747520  0.88084548  1
  Mo  Mo161  1  0.09455313  0.30009292  0.62671741  1
  Mo  Mo162  1  0.50578169  0.90183863  0.62810301  1
  Mo  Mo163  1  0.59745342  0.20186959  -0.00681358  1
  Mo  Mo164  1  0.89981484  0.69546595  0.40250182  1
  Mo  Mo165  1  0.40246174  0.61369961  0.24102492  1
  Mo  Mo166  1  0.78662040  0.19835542  0.50930774  1
  Mo  Mo167  1  0.10433365  0.69559656  0.61290237  1
  Mo  Mo168  1  0.71140030  0.49408986  0.89154090  1
  Mo  Mo169  1  0.79472309  0.00465360  0.23993758  1
  Mo  Mo170  1  -0.00187113  0.39926707  -0.01777159  1
  Mo  Mo171  1  0.60554528  0.40316904  -0.01017875  1
  Mo  Mo172  1  0.39366394  0.19296211  0.25604413  1
  Mo  Mo173  1  0.79792648  0.80342307  0.52710101  1
  Mo  Mo174  1  0.49735612  0.90365180  0.89095400  1
  Mo  Mo175  1  0.70417874  0.70157318  0.86994432  1
  Mo  Mo176  1  0.30739165  0.90383696  0.12843435  1
  Mo  Mo177  1  0.09762940  0.89515932  0.86985282  1
  Mo  Mo178  1  0.50486949  0.50090110  0.87922498  1
  Mo  Mo179  1  0.39740529  0.20875105  0.48569378  1
  Mo  Mo180  1  0.69682818  0.49752404  0.62635588  1
  Mo  Mo181  1  0.21321349  0.79392868  0.48411651  1
  Mo  Mo182  1  0.89391109  0.89582103  0.12730457  1
  Mo  Mo183  1  0.50870275  0.70806486  0.38470235  1
  Mo  Mo184  1  0.51147557  0.29841269  0.88642055  1
  Mo  Mo185  1  -0.00455930  0.00202478  0.72639514  1
  Mo  Mo186  1  0.59568570  0.00023748  -0.01226061  1
  Mo  Mo187  1  0.90211785  0.49363959  0.12369879  1
  Mo  Mo188  1  0.19231397  0.40434435  0.74058930  1
  Mo  Mo189  1  0.49526403  0.09988415  0.87843727  1
  Mo  Mo190  1  0.20419294  0.60382153  0.26316308  1
  Mo  Mo191  1  0.20061748  0.00568121  0.49695580  1
  Mo  Mo192  1  0.59385462  0.00317424  0.24334931  1
  Mo  Mo193  1  0.90162171  0.29754636  0.12639943  1
  Mo  Mo194  1  0.49605064  0.70423453  0.88847039  1
  Mo  Mo195  1  0.60241892  0.79620564  0.76962920  1
  Mo  Mo196  1  0.50519595  0.70003967  0.61484194  1
  Mo  Mo197  1  0.69802378  0.90171380  0.64473692  1
  Mo  Mo198  1  -0.00325938  0.39162562  0.27114791  1
  Mo  Mo199  1  0.80383944  0.80295910  0.23898664  1
