# generated using pymatgen
data_HfZrTaTiMo
_symmetry_space_group_name_H-M   'P 1'
_cell_length_a   15.83208135
_cell_length_b   15.84456929
_cell_length_c   15.37431783
_cell_angle_alpha   89.87133019
_cell_angle_beta   89.97324146
_cell_angle_gamma   89.73010025
_symmetry_Int_Tables_number   1
_chemical_formula_structural   HfZrTaTiMo
_chemical_formula_sum   'Hf40 Zr40 Ta40 Ti40 Mo40'
_cell_volume   3856.63329854
_cell_formula_units_Z   40
loop_
 _symmetry_equiv_pos_site_id
 _symmetry_equiv_pos_as_xyz
  1  'x, y, z'
loop_
 _atom_site_type_symbol
 _atom_site_label
 _atom_site_symmetry_multiplicity
 _atom_site_fract_x
 _atom_site_fract_y
 _atom_site_fract_z
 _atom_site_occupancy
  Hf  Hf0  1  0.59726202  0.60355309  0.51291354  1
  Hf  Hf1  1  0.90973886  0.49796291  0.10943076  1
  Hf  Hf2  1  -0.00016717  0.39758767  0.74745183  1
  Hf  Hf3  1  0.69259410  0.29768675  0.62736042  1
  Hf  Hf4  1  0.50692639  0.49906731  0.37718861  1
  Hf  Hf5  1  0.21013716  0.60950136  0.51671510  1
  Hf  Hf6  1  0.40528597  0.39360282  0.22962089  1
  Hf  Hf7  1  0.40725952  0.81708662  0.26084666  1
  Hf  Hf8  1  0.80371269  0.59139192  0.23780433  1
  Hf  Hf9  1  0.69107442  0.09878315  0.89111776  1
  Hf  Hf10  1  0.49326842  0.30693779  0.38797077  1
  Hf  Hf11  1  0.19731114  0.81617747  0.74215936  1
  Hf  Hf12  1  0.01928702  0.37893277  -0.01147803  1
  Hf  Hf13  1  0.40238169  0.60067453  0.51557598  1
  Hf  Hf14  1  0.90180465  0.50389498  0.88359291  1
  Hf  Hf15  1  0.59574353  0.80527880  -0.00468320  1
  Hf  Hf16  1  0.69721912  0.49017595  0.86986147  1
  Hf  Hf17  1  0.69594182  0.49236242  0.62642496  1
  Hf  Hf18  1  0.59309883  0.59434638  0.75111645  1
  Hf  Hf19  1  0.59844619  0.81553596  0.74635802  1
  Hf  Hf20  1  0.69713026  0.89955571  0.38236399  1
  Hf  Hf21  1  0.30039827  0.90597723  0.12110525  1
  Hf  Hf22  1  0.19018987  0.21070043  -0.01092705  1
  Hf  Hf23  1  0.70841113  0.49646580  0.38223987  1
  Hf  Hf24  1  0.21450943  0.59938590  -0.01137644  1
  Hf  Hf25  1  0.10103014  0.70030298  0.86824922  1
  Hf  Hf26  1  0.91180025  0.69656338  0.10935834  1
  Hf  Hf27  1  0.69724715  0.69407122  0.37393787  1
  Hf  Hf28  1  0.10359294  0.70145885  0.11432283  1
  Hf  Hf29  1  0.20466755  0.58820830  0.24492280  1
  Hf  Hf30  1  0.01862630  0.57479117  0.51126471  1
  Hf  Hf31  1  -0.00256359  0.82101270  -0.01227269  1
  Hf  Hf32  1  0.10873911  0.09287355  0.63291827  1
  Hf  Hf33  1  0.89752206  0.69108622  0.62501877  1
  Hf  Hf34  1  0.80001136  0.80198145  0.23451756  1
  Hf  Hf35  1  0.69742180  0.10566252  0.37269698  1
  Hf  Hf36  1  0.90351180  0.48553977  0.38475505  1
  Hf  Hf37  1  0.91632075  0.28496390  0.13104996  1
  Hf  Hf38  1  0.18649573  0.41465246  0.51358952  1
  Hf  Hf39  1  0.30114183  0.70534646  0.13238035  1
  Zr  Zr40  1  0.29309626  0.09772711  0.11355808  1
  Zr  Zr41  1  0.89631380  0.90212372  0.39119670  1
  Zr  Zr42  1  0.21102433  0.20768350  0.75302657  1
  Zr  Zr43  1  0.59448462  0.00651096  0.75629020  1
  Zr  Zr44  1  0.01007651  0.59244309  0.25920596  1
  Zr  Zr45  1  0.40917921  0.58776643  -0.00055210  1
  Zr  Zr46  1  0.00111457  0.80515700  0.25671868  1
  Zr  Zr47  1  0.81361416  -0.01003356  0.01815789  1
  Zr  Zr48  1  0.08623701  0.10270808  0.12696917  1
  Zr  Zr49  1  0.39619928  0.79630478  0.50528713  1
  Zr  Zr50  1  0.80260411  0.18978936  0.01432328  1
  Zr  Zr51  1  0.80181981  -0.00225386  0.23567706  1
  Zr  Zr52  1  0.31248614  0.89568052  0.86887835  1
  Zr  Zr53  1  0.79295682  0.18985610  0.74515122  1
  Zr  Zr54  1  0.00507800  0.79242970  0.50067437  1
  Zr  Zr55  1  0.49125852  0.30548871  0.89209797  1
  Zr  Zr56  1  0.11054953  0.29975477  0.38537710  1
  Zr  Zr57  1  0.89716218  0.29844098  0.36261463  1
  Zr  Zr58  1  0.50473870  0.70079253  0.13708490  1
  Zr  Zr59  1  0.90551029  0.08891891  0.62330649  1
  Zr  Zr60  1  0.30601573  0.49303981  0.38256732  1
  Zr  Zr61  1  0.11511344  0.69841750  0.37698417  1
  Zr  Zr62  1  0.00165145  -0.01701912  0.76281271  1
  Zr  Zr63  1  0.48948568  0.11095975  0.10820906  1
  Zr  Zr64  1  0.79080139  0.39932006  0.01281255  1
  Zr  Zr65  1  0.29217313  0.12214322  0.38754947  1
  Zr  Zr66  1  0.39563593  0.01178262  0.26292839  1
  Zr  Zr67  1  0.69973940  0.30518636  0.36986991  1
  Zr  Zr68  1  0.88582290  0.29595861  0.87459173  1
  Zr  Zr69  1  0.40322308  0.00205963  0.74365799  1
  Zr  Zr70  1  0.09856983  0.90657700  0.12217170  1
  Zr  Zr71  1  0.88870550  0.68506649  0.39162517  1
  Zr  Zr72  1  0.60053548  0.60128710  -0.00999578  1
  Zr  Zr73  1  0.89536276  0.70233762  0.87073757  1
  Zr  Zr74  1  0.58442601  -0.00137377  0.25219657  1
  Zr  Zr75  1  0.01844046  0.39769747  0.24029053  1
  Zr  Zr76  1  0.00226652  0.19719263  0.50047388  1
  Zr  Zr77  1  0.40553149  0.20283286  0.74558095  1
  Zr  Zr78  1  0.48859986  0.71256267  0.86005506  1
  Zr  Zr79  1  0.21093966  0.39506845  0.22911543  1
  Ta  Ta80  1  0.09408711  0.90768440  0.60945200  1
  Ta  Ta81  1  0.30427831  0.70052629  0.85650838  1
  Ta  Ta82  1  0.89905302  0.10208962  0.37095459  1
  Ta  Ta83  1  0.69277721  0.29809201  0.12925077  1
  Ta  Ta84  1  0.89802631  0.89818687  0.61608705  1
  Ta  Ta85  1  0.29333975  0.90247857  0.38742319  1
  Ta  Ta86  1  0.58467492  0.40859991  0.01653153  1
  Ta  Ta87  1  0.00461335  0.59416251  0.74880895  1
  Ta  Ta88  1  0.59083262  0.20135302  0.74998911  1
  Ta  Ta89  1  0.19333184  0.00209629  0.26772850  1
  Ta  Ta90  1  0.39870461  0.00399018  0.49589649  1
  Ta  Ta91  1  0.10926525  0.49787001  0.87225822  1
  Ta  Ta92  1  0.20448375  0.80272758  0.51111406  1
  Ta  Ta93  1  0.81018666  0.38888738  0.51721379  1
  Ta  Ta94  1  0.70709924  0.70708214  0.86501492  1
  Ta  Ta95  1  0.59910568  0.40447908  0.23877490  1
  Ta  Ta96  1  0.59414631  0.79951627  0.50214876  1
  Ta  Ta97  1  0.40487445  0.39921672  0.73948861  1
  Ta  Ta98  1  0.30507173  0.10065410  0.88186807  1
  Ta  Ta99  1  0.59882421  0.20029769  0.50323502  1
  Ta  Ta100  1  0.19059148  -0.00488702  -0.02004924  1
  Ta  Ta101  1  0.59640636  0.80636006  0.25657652  1
  Ta  Ta102  1  0.79937671  0.19810318  0.50692893  1
  Ta  Ta103  1  0.21512315  0.39898809  -0.00518686  1
  Ta  Ta104  1  0.79245882  0.60651337  0.00195153  1
  Ta  Ta105  1  0.09897520  0.29877573  0.62920895  1
  Ta  Ta106  1  0.20653658  0.80126985  -0.01238385  1
  Ta  Ta107  1  0.68561695  0.29752021  0.88087963  1
  Ta  Ta108  1  0.10420614  0.50316170  0.09691289  1
  Ta  Ta109  1  0.79756161  0.19331661  0.23670906  1
  Ta  Ta110  1  0.78725908  0.79524951  0.51700665  1
  Ta  Ta111  1  -0.00145159  0.18462860  -0.01973146  1
  Ta  Ta112  1  -0.00113705  0.19957849  0.75626189  1
  Ta  Ta113  1  0.10384883  0.09530867  0.86275432  1
  Ta  Ta114  1  0.79319230  0.79929033  0.01218128  1
  Ta  Ta115  1  0.10260741  0.70050103  0.63779769  1
  Ta  Ta116  1  0.20130878  0.20495170  0.24049580  1
  Ta  Ta117  1  0.79036400  -0.01013807  0.74240030  1
  Ta  Ta118  1  0.58260522  0.20797655  0.24246894  1
  Ta  Ta119  1  0.79488884  0.80676725  0.73548519  1
  Ti  Ti120  1  0.69035070  0.09609539  0.61813101  1
  Ti  Ti121  1  0.20116875  0.81100324  0.26047985  1
  Ti  Ti122  1  0.58996852  0.00374968  0.49021140  1
  Ti  Ti123  1  0.49583262  0.70735444  0.63728014  1
  Ti  Ti124  1  0.80015720  0.59596586  0.74877767  1
  Ti  Ti125  1  0.18699209  0.00813166  0.48402384  1
  Ti  Ti126  1  0.30445498  0.30369256  0.38994661  1
  Ti  Ti127  1  0.88417320  0.89653588  0.86734362  1
  Ti  Ti128  1  0.41127098  -0.00512592  -0.01213948  1
  Ti  Ti129  1  0.69341613  0.69789846  0.13167181  1
  Ti  Ti130  1  0.69287519  0.50506559  0.13050500  1
  Ti  Ti131  1  0.30402619  0.49582935  0.63269525  1
  Ti  Ti132  1  0.70171859  0.90136216  0.88140589  1
  Ti  Ti133  1  0.20620863  0.39868522  0.75569933  1
  Ti  Ti134  1  -0.00417630  0.80088531  0.74495150  1
  Ti  Ti135  1  0.89872989  0.49427816  0.62560607  1
  Ti  Ti136  1  0.69294323  0.90719410  0.61225980  1
  Ti  Ti137  1  0.40405407  0.59241547  0.24509382  1
  Ti  Ti138  1  0.49285326  0.11527883  0.37930131  1
  Ti  Ti139  1  0.20633620  0.59543691  0.74819361  1
  Ti  Ti140  1  0.29588144  0.10026933  0.61529232  1
  Ti  Ti141  1  0.40192205  0.80010233  0.00396271  1
  Ti  Ti142  1  0.00348201  0.00048841  0.26822562  1
  Ti  Ti143  1  0.79885754  0.39313867  0.74503730  1
  Ti  Ti144  1  0.31721963  0.48966981  0.86876522  1
  Ti  Ti145  1  0.29099673  0.91583307  0.61763829  1
  Ti  Ti146  1  0.89410417  0.08782176  0.86834984  1
  Ti  Ti147  1  0.50282354  0.10313808  0.61395058  1
  Ti  Ti148  1  0.49755242  0.90655213  0.61149101  1
  Ti  Ti149  1  0.30668862  0.70042982  0.36609484  1
  Ti  Ti150  1  0.31743700  0.28665204  0.10512489  1
  Ti  Ti151  1  0.50134082  0.69830551  0.36911050  1
  Ti  Ti152  1  0.68136992  0.90256544  0.12257547  1
  Ti  Ti153  1  0.40141374  0.20477462  0.51458671  1
  Ti  Ti154  1  0.68541185  0.10016125  0.12162561  1
  Ti  Ti155  1  0.39875861  0.59565174  0.74214412  1
  Ti  Ti156  1  0.69917337  0.69802978  0.63246722  1
  Ti  Ti157  1  0.79753906  0.00529054  0.50465726  1
  Ti  Ti158  1  0.50632780  0.31564031  0.61437162  1
  Ti  Ti159  1  0.29910076  0.30441328  0.61251430  1
  Mo  Mo160  1  0.30217660  0.30858462  0.87875474  1
  Mo  Mo161  1  -0.00389320  0.39379517  0.52447680  1
  Mo  Mo162  1  0.39791963  0.40309557  0.52067305  1
  Mo  Mo163  1  0.09900204  0.10556760  0.36688002  1
  Mo  Mo164  1  0.39360476  0.19928796  -0.01793943  1
  Mo  Mo165  1  0.60151447  0.39935552  0.49929531  1
  Mo  Mo166  1  0.10274274  0.29834946  0.85538937  1
  Mo  Mo167  1  0.10862903  0.50010143  0.65459668  1
  Mo  Mo168  1  0.30085954  0.70224319  0.64679681  1
  Mo  Mo169  1  0.20345107  0.20505976  0.51903588  1
  Mo  Mo170  1  0.00659390  0.59680349  -0.02087484  1
  Mo  Mo171  1  0.20560846  0.00392547  0.75640077  1
  Mo  Mo172  1  0.59711806  -0.00167953  -0.00167093  1
  Mo  Mo173  1  0.49698637  0.90324930  0.11159564  1
  Mo  Mo174  1  0.89866993  0.29512356  0.63073199  1
  Mo  Mo175  1  0.49953214  0.10362602  0.88850181  1
  Mo  Mo176  1  0.10164807  0.89768069  0.87503016  1
  Mo  Mo177  1  0.10490409  0.90350578  0.38827063  1
  Mo  Mo178  1  0.60252922  0.60219086  0.25680186  1
  Mo  Mo179  1  0.39852703  0.80637486  0.72576815  1
  Mo  Mo180  1  0.00503711  0.19306786  0.26400495  1
  Mo  Mo181  1  0.49856256  0.49634471  0.63136574  1
  Mo  Mo182  1  0.39763824  0.40500910  0.01354706  1
  Mo  Mo183  1  -0.00321822  0.00698710  -0.01869368  1
  Mo  Mo184  1  0.10992536  0.29397610  0.11996169  1
  Mo  Mo185  1  0.49755583  0.49388888  0.85696967  1
  Mo  Mo186  1  0.49802471  0.90138983  0.39477221  1
  Mo  Mo187  1  0.59364476  0.39037681  0.75662293  1
  Mo  Mo188  1  0.49970440  0.29937239  0.11365483  1
  Mo  Mo189  1  0.50590115  0.50572672  0.14216532  1
  Mo  Mo190  1  0.30442933  0.50216094  0.11643586  1
  Mo  Mo191  1  0.50351874  0.90400423  0.88428320  1
  Mo  Mo192  1  0.80003987  0.59380692  0.51836413  1
  Mo  Mo193  1  0.10335988  0.49662202  0.37686984  1
  Mo  Mo194  1  0.79630261  0.39760826  0.22950837  1
  Mo  Mo195  1  0.59932570  0.20551902  0.01042106  1
  Mo  Mo196  1  0.90795234  0.89897390  0.12961242  1
  Mo  Mo197  1  0.39240014  0.21141190  0.25606744  1
  Mo  Mo198  1  0.91003322  0.09442733  0.14300177  1
  Mo  Mo199  1  0.00079390  -0.00032797  0.48797030  1
