# generated using pymatgen
data_HfZrTaTiMo
_symmetry_space_group_name_H-M   'P 1'
_cell_length_a   15.83471693
_cell_length_b   15.83739216
_cell_length_c   15.42079962
_cell_angle_alpha   89.99987506
_cell_angle_beta   90.05254446
_cell_angle_gamma   90.00339882
_symmetry_Int_Tables_number   1
_chemical_formula_structural   HfZrTaTiMo
_chemical_formula_sum   'Hf40 Zr40 Ta40 Ti40 Mo40'
_cell_volume   3867.23608349
_cell_formula_units_Z   40
loop_
 _symmetry_equiv_pos_site_id
 _symmetry_equiv_pos_as_xyz
  1  'x, y, z'
loop_
 _atom_site_type_symbol
 _atom_site_label
 _atom_site_symmetry_multiplicity
 _atom_site_fract_x
 _atom_site_fract_y
 _atom_site_fract_z
 _atom_site_occupancy
  Hf  Hf0  1  0.61005288  0.78604579  0.25213237  1
  Hf  Hf1  1  0.41144956  0.19491070  0.75121165  1
  Hf  Hf2  1  0.48937300  0.28392108  0.13454210  1
  Hf  Hf3  1  0.19531635  -0.00581540  0.76223146  1
  Hf  Hf4  1  0.90231958  0.29475166  0.36622310  1
  Hf  Hf5  1  0.09355004  0.50573161  0.12419023  1
  Hf  Hf6  1  0.19597133  0.79027321  0.49397967  1
  Hf  Hf7  1  0.50804877  0.31694394  0.86377817  1
  Hf  Hf8  1  0.69523129  0.69368991  0.86983610  1
  Hf  Hf9  1  0.71369691  0.09606001  0.87515401  1
  Hf  Hf10  1  0.89998861  0.29393288  0.86313933  1
  Hf  Hf11  1  0.60020938  0.78377245  0.01486540  1
  Hf  Hf12  1  0.29903167  0.90600309  0.35976367  1
  Hf  Hf13  1  0.30013289  0.13797146  0.12733039  1
  Hf  Hf14  1  0.59919749  0.19938011  -0.00192959  1
  Hf  Hf15  1  0.61161425  0.39881280  0.48264973  1
  Hf  Hf16  1  0.30646708  0.09685121  0.86409529  1
  Hf  Hf17  1  0.40152229  0.41323113  0.72780477  1
  Hf  Hf18  1  0.59708162  0.18766071  0.25262459  1
  Hf  Hf19  1  0.91383723  0.29410139  0.13378674  1
  Hf  Hf20  1  0.59579464  0.00032514  0.00584566  1
  Hf  Hf21  1  -0.00469404  -0.00072010  0.51118162  1
  Hf  Hf22  1  0.19419889  0.40588249  -0.02164387  1
  Hf  Hf23  1  0.91336058  0.08464677  0.10660451  1
  Hf  Hf24  1  0.28783171  0.89783305  0.13958757  1
  Hf  Hf25  1  0.00138032  0.40053995  0.51213828  1
  Hf  Hf26  1  0.19218042  0.60769011  -0.01583651  1
  Hf  Hf27  1  0.38979342  0.39590385  0.24711377  1
  Hf  Hf28  1  0.79993098  0.20775194  0.00981875  1
  Hf  Hf29  1  0.59220219  0.00171807  0.75344611  1
  Hf  Hf30  1  0.90982992  0.70236876  0.61671660  1
  Hf  Hf31  1  0.49272903  0.89211553  0.88234634  1
  Hf  Hf32  1  0.29761545  0.70129558  0.36170370  1
  Hf  Hf33  1  0.09369553  0.90630235  0.35895125  1
  Hf  Hf34  1  0.80550819  0.60170826  0.74725474  1
  Hf  Hf35  1  0.30072858  0.50860555  0.86047364  1
  Hf  Hf36  1  0.70257755  0.29348623  0.62758509  1
  Hf  Hf37  1  0.70002925  0.70031512  0.61755973  1
  Hf  Hf38  1  0.29528441  0.11295667  0.37469531  1
  Hf  Hf39  1  0.80182364  0.59216342  0.48989604  1
  Zr  Zr40  1  0.89660918  0.69197474  0.13626465  1
  Zr  Zr41  1  0.20076879  0.41664756  0.52220996  1
  Zr  Zr42  1  0.19491208  0.00073479  0.50486407  1
  Zr  Zr43  1  0.19765559  0.80394976  -0.00591141  1
  Zr  Zr44  1  -0.00087486  -0.01861884  0.75736109  1
  Zr  Zr45  1  0.50424093  0.50262187  0.12751166  1
  Zr  Zr46  1  0.09915020  0.70641999  0.13386527  1
  Zr  Zr47  1  0.07807111  0.91256155  0.11862922  1
  Zr  Zr48  1  0.80833355  0.40662186  0.72604634  1
  Zr  Zr49  1  0.39723060  0.00487843  0.01247685  1
  Zr  Zr50  1  0.78542967  0.58769887  0.00267226  1
  Zr  Zr51  1  0.50816382  0.70712444  0.61640112  1
  Zr  Zr52  1  0.71015333  0.08220075  0.37240992  1
  Zr  Zr53  1  0.90547568  0.88790019  0.89700208  1
  Zr  Zr54  1  0.70764011  0.30915643  0.86015908  1
  Zr  Zr55  1  0.18144380  0.02839559  0.24471815  1
  Zr  Zr56  1  0.41230023  0.02132328  0.23786406  1
  Zr  Zr57  1  0.49240319  0.49870607  0.37126130  1
  Zr  Zr58  1  0.51058709  0.29937836  0.61838434  1
  Zr  Zr59  1  0.18268662  0.79436114  0.76364859  1
  Zr  Zr60  1  0.29044749  0.29447738  0.63588988  1
  Zr  Zr61  1  0.29997110  0.89554311  0.63318766  1
  Zr  Zr62  1  0.61805028  0.39778672  0.01854998  1
  Zr  Zr63  1  0.50887656  0.51372569  0.88689061  1
  Zr  Zr64  1  0.69212173  0.89725156  0.62293967  1
  Zr  Zr65  1  0.38436677  0.59553981  0.50729832  1
  Zr  Zr66  1  0.10295990  0.11132145  0.64744689  1
  Zr  Zr67  1  0.11171999  0.29765063  0.37589500  1
  Zr  Zr68  1  0.50476510  0.90477431  0.36537220  1
  Zr  Zr69  1  -0.00129430  0.39796395  -0.00895842  1
  Zr  Zr70  1  0.11252673  0.29490835  0.12817659  1
  Zr  Zr71  1  0.00127474  0.19685168  0.50480634  1
  Zr  Zr72  1  0.89818826  0.70822246  0.37473552  1
  Zr  Zr73  1  0.38741185  0.39478982  0.00308281  1
  Zr  Zr74  1  0.00319874  0.80014386  0.49201833  1
  Zr  Zr75  1  0.40113595  0.80066970  0.49580548  1
  Zr  Zr76  1  0.80342344  0.18936871  0.24158478  1
  Zr  Zr77  1  0.70387832  0.89414796  0.88012605  1
  Zr  Zr78  1  0.20615230  0.21616601  -0.02995526  1
  Zr  Zr79  1  0.40757699  0.60725208  0.73612002  1
  Ta  Ta80  1  0.78627735  0.60219744  0.26988686  1
  Ta  Ta81  1  0.49547477  0.29413518  0.37867953  1
  Ta  Ta82  1  0.20368365  0.40489183  0.24878864  1
  Ta  Ta83  1  0.69695161  0.50109986  0.61489748  1
  Ta  Ta84  1  0.89262211  0.49723244  0.87440485  1
  Ta  Ta85  1  0.60728394  0.39132904  0.25691974  1
  Ta  Ta86  1  0.00407173  0.41030563  0.75006376  1
  Ta  Ta87  1  0.89026904  0.91109155  0.36854563  1
  Ta  Ta88  1  0.81386595  0.80060485  0.74724185  1
  Ta  Ta89  1  0.19625973  0.00620036  -0.00998742  1
  Ta  Ta90  1  0.40590424  0.20385772  -0.02212982  1
  Ta  Ta91  1  0.60537540  0.60551135  0.47322625  1
  Ta  Ta92  1  0.80385894  0.19439552  0.50509653  1
  Ta  Ta93  1  0.80496369  0.00122684  0.51406663  1
  Ta  Ta94  1  0.89669836  0.49707579  0.14443163  1
  Ta  Ta95  1  0.19775084  0.59641761  0.25608428  1
  Ta  Ta96  1  0.60836895  0.19340447  0.48808701  1
  Ta  Ta97  1  0.90204306  0.09731496  0.87550552  1
  Ta  Ta98  1  0.10037524  0.50366181  0.37942358  1
  Ta  Ta99  1  -0.01240421  0.60103575  -0.01030214  1
  Ta  Ta100  1  0.00737353  0.40192966  0.25489465  1
  Ta  Ta101  1  0.50183152  0.89397491  0.13098983  1
  Ta  Ta102  1  0.69960183  0.50524651  0.15081380  1
  Ta  Ta103  1  0.09950373  0.67405610  0.62414215  1
  Ta  Ta104  1  0.28365864  0.69365449  0.63679987  1
  Ta  Ta105  1  0.39571081  0.40083839  0.50901658  1
  Ta  Ta106  1  0.30438248  0.09929777  0.63168488  1
  Ta  Ta107  1  0.89981578  0.49052219  0.37078698  1
  Ta  Ta108  1  0.31321446  0.70622918  0.86950465  1
  Ta  Ta109  1  0.30584644  0.89596841  0.87577007  1
  Ta  Ta110  1  0.09568801  0.11178425  0.09767637  1
  Ta  Ta111  1  0.39842062  0.79399081  0.01648880  1
  Ta  Ta112  1  0.80809301  0.39374548  0.50380982  1
  Ta  Ta113  1  0.40033495  0.19878646  0.50236580  1
  Ta  Ta114  1  0.39511443  0.59974391  0.24507051  1
  Ta  Ta115  1  0.60273118  0.19289478  0.75699944  1
  Ta  Ta116  1  -0.00100328  0.59910942  0.26618125  1
  Ta  Ta117  1  0.79977341  0.78734663  0.01465477  1
  Ta  Ta118  1  0.40112219  0.00564867  0.50533782  1
  Ta  Ta119  1  0.89545660  0.10182971  0.64532470  1
  Ti  Ti120  1  0.29181196  0.50621782  0.12017412  1
  Ti  Ti121  1  0.06993718  0.71646766  0.88278720  1
  Ti  Ti122  1  0.51512418  0.50351618  0.60670640  1
  Ti  Ti123  1  0.70798039  0.89926037  0.37431795  1
  Ti  Ti124  1  0.60284298  -0.00075374  0.49956934  1
  Ti  Ti125  1  0.71121540  0.29608027  0.36854468  1
  Ti  Ti126  1  0.02088155  0.18006029  0.25814016  1
  Ti  Ti127  1  0.80142307  0.81153451  0.50279276  1
  Ti  Ti128  1  0.69485544  0.49275963  0.86382277  1
  Ti  Ti129  1  0.09169567  0.88043439  0.62837618  1
  Ti  Ti130  1  0.91727646  0.51415042  0.61669075  1
  Ti  Ti131  1  0.59657142  0.79844187  0.75200189  1
  Ti  Ti132  1  0.50212120  0.90155290  0.61719376  1
  Ti  Ti133  1  0.40787079  -0.00322025  0.74321642  1
  Ti  Ti134  1  0.49805133  0.69898254  0.88070015  1
  Ti  Ti135  1  0.60662348  -0.00477408  0.23612257  1
  Ti  Ti136  1  0.70316647  0.09451487  0.11933644  1
  Ti  Ti137  1  0.50725835  0.68599406  0.13516905  1
  Ti  Ti138  1  0.50682226  0.09956727  0.61395952  1
  Ti  Ti139  1  0.29322140  0.49894838  0.37642096  1
  Ti  Ti140  1  0.90589639  0.09325508  0.37207784  1
  Ti  Ti141  1  0.30154310  0.30441320  0.38513673  1
  Ti  Ti142  1  0.40557358  0.79342555  0.24138040  1
  Ti  Ti143  1  0.60049965  0.59330787  0.74295858  1
  Ti  Ti144  1  0.29417987  0.69851516  0.13436229  1
  Ti  Ti145  1  0.70640170  0.89724921  0.11792206  1
  Ti  Ti146  1  0.69974766  0.10105096  0.62791992  1
  Ti  Ti147  1  0.40442716  0.80197188  0.74517430  1
  Ti  Ti148  1  0.80811272  -0.01103585  0.23197060  1
  Ti  Ti149  1  -0.00998878  0.80879726  0.24775257  1
  Ti  Ti150  1  0.19875024  0.19945029  0.50835823  1
  Ti  Ti151  1  0.80126715  0.39884295  0.01767807  1
  Ti  Ti152  1  0.90731023  0.28736324  0.63673708  1
  Ti  Ti153  1  0.49858292  0.09985987  0.38532184  1
  Ti  Ti154  1  0.09917010  0.30169174  0.64922810  1
  Ti  Ti155  1  0.39676735  0.61024059  0.01047257  1
  Ti  Ti156  1  0.80073490  -0.00885183  0.74185860  1
  Ti  Ti157  1  0.79493529  0.80014145  0.24332291  1
  Ti  Ti158  1  0.60047279  0.79783515  0.47897345  1
  Ti  Ti159  1  -0.00146541  0.60562184  0.76746249  1
  Mo  Mo160  1  0.00417478  0.19926637  -0.02248323  1
  Mo  Mo161  1  0.19301487  0.60410123  0.48743789  1
  Mo  Mo162  1  0.79786230  -0.00447702  0.01088872  1
  Mo  Mo163  1  0.09074568  0.50935785  0.86714098  1
  Mo  Mo164  1  0.49727104  0.69630178  0.36404714  1
  Mo  Mo165  1  0.80307502  0.39721657  0.24662424  1
  Mo  Mo166  1  0.27712522  0.51571345  0.64031164  1
  Mo  Mo167  1  0.19517056  0.40650727  0.75391695  1
  Mo  Mo168  1  0.09570522  0.10381436  0.38693864  1
  Mo  Mo169  1  0.70464396  0.71040838  0.38663410  1
  Mo  Mo170  1  -0.00811543  0.79306939  0.01637761  1
  Mo  Mo171  1  0.20205539  0.21487980  0.25461785  1
  Mo  Mo172  1  0.50285898  0.10133814  0.11999921  1
  Mo  Mo173  1  0.89252046  0.89535290  0.11925138  1
  Mo  Mo174  1  0.00475211  -0.00000056  -0.02003646  1
  Mo  Mo175  1  0.09869310  0.89742946  0.88963017  1
  Mo  Mo176  1  0.89607984  0.89875412  0.62475585  1
  Mo  Mo177  1  0.29977395  0.31138623  0.12482563  1
  Mo  Mo178  1  -0.01075256  0.00784459  0.25532029  1
  Mo  Mo179  1  0.09596404  0.10258334  0.87713709  1
  Mo  Mo180  1  0.18809628  0.60776294  0.77257641  1
  Mo  Mo181  1  0.00581933  0.59511741  0.48386702  1
  Mo  Mo182  1  -0.00735329  0.78869633  0.74440917  1
  Mo  Mo183  1  0.30451937  0.30732623  0.84802087  1
  Mo  Mo184  1  0.70379304  0.30198139  0.14165656  1
  Mo  Mo185  1  0.50472790  0.09927484  0.87680515  1
  Mo  Mo186  1  0.59789217  0.59839257  0.27090847  1
  Mo  Mo187  1  0.60277644  0.41197322  0.73467589  1
  Mo  Mo188  1  0.59903092  0.59889293  0.00021928  1
  Mo  Mo189  1  0.69640534  0.68905516  0.13240951  1
  Mo  Mo190  1  0.00025637  0.20025260  0.76194636  1
  Mo  Mo191  1  0.39944573  0.20701243  0.27320287  1
  Mo  Mo192  1  0.79834800  0.19091435  0.74141326  1
  Mo  Mo193  1  0.89141693  0.69660867  0.88163558  1
  Mo  Mo194  1  0.10052330  0.30487540  0.85063592  1
  Mo  Mo195  1  0.19644560  0.80076437  0.24930489  1
  Mo  Mo196  1  0.20285145  0.20238519  0.76138882  1
  Mo  Mo197  1  0.10028891  0.70299355  0.35553033  1
  Mo  Mo198  1  0.09537611  0.50792842  0.64148091  1
  Mo  Mo199  1  0.70566171  0.49076517  0.36952368  1
