# generated using pymatgen
data_HfZrTaTiMo
_symmetry_space_group_name_H-M   'P 1'
_cell_length_a   16.41630156
_cell_length_b   16.46735058
_cell_length_c   14.22155625
_cell_angle_alpha   90.07173635
_cell_angle_beta   89.94261189
_cell_angle_gamma   90.72765523
_symmetry_Int_Tables_number   1
_chemical_formula_structural   HfZrTaTiMo
_chemical_formula_sum   'Hf40 Zr40 Ta40 Ti40 Mo40'
_cell_volume   3844.24094703
_cell_formula_units_Z   40
loop_
 _symmetry_equiv_pos_site_id
 _symmetry_equiv_pos_as_xyz
  1  'x, y, z'
loop_
 _atom_site_type_symbol
 _atom_site_label
 _atom_site_symmetry_multiplicity
 _atom_site_fract_x
 _atom_site_fract_y
 _atom_site_fract_z
 _atom_site_occupancy
  Hf  Hf0  1  0.70034726  0.29701976  0.12754017  1
  Hf  Hf1  1  0.40116564  0.59921211  0.75364648  1
  Hf  Hf2  1  0.80522548  0.60490496  -0.00258218  1
  Hf  Hf3  1  0.19093037  0.19877433  -0.01993770  1
  Hf  Hf4  1  0.30036294  0.90781203  0.61984344  1
  Hf  Hf5  1  0.70286111  0.70447255  0.12415014  1
  Hf  Hf6  1  0.50086550  0.71001713  0.62885036  1
  Hf  Hf7  1  0.70099819  0.30148843  0.88180883  1
  Hf  Hf8  1  0.49630732  0.89657845  0.13115835  1
  Hf  Hf9  1  -0.00562693  -0.01766840  0.76261431  1
  Hf  Hf10  1  0.20849345  0.39787389  0.00783120  1
  Hf  Hf11  1  0.59693022  0.20477189  0.75701472  1
  Hf  Hf12  1  0.30404591  0.09829773  0.86229563  1
  Hf  Hf13  1  0.80731334  0.19011204  -0.00077960  1
  Hf  Hf14  1  0.70566134  0.10720098  0.61363564  1
  Hf  Hf15  1  0.00581311  -0.00500166  0.24048449  1
  Hf  Hf16  1  0.40322204  0.20356264  -0.00482465  1
  Hf  Hf17  1  0.29249824  0.69617020  0.87748915  1
  Hf  Hf18  1  0.49436886  0.71337686  0.37525436  1
  Hf  Hf19  1  0.60064781  0.00209308  0.00402527  1
  Hf  Hf20  1  0.10362708  0.51073353  0.38083761  1
  Hf  Hf21  1  0.70346862  0.29010355  0.37311484  1
  Hf  Hf22  1  0.40059545  0.19395360  0.25409949  1
  Hf  Hf23  1  0.91396288  0.10236536  0.38408397  1
  Hf  Hf24  1  0.80553832  -0.00188375  0.24132489  1
  Hf  Hf25  1  0.90456697  0.49443712  0.87314972  1
  Hf  Hf26  1  0.70005314  0.10292785  0.37579637  1
  Hf  Hf27  1  0.01297892  0.39447631  0.01433295  1
  Hf  Hf28  1  0.89530845  0.10021419  0.61321595  1
  Hf  Hf29  1  0.20230487  0.39650921  0.24885551  1
  Hf  Hf30  1  0.19260121  0.81016099  0.75164394  1
  Hf  Hf31  1  0.70362263  0.70424555  0.64084536  1
  Hf  Hf32  1  0.30026066  0.70959792  0.61850587  1
  Hf  Hf33  1  0.09990747  0.70277242  0.61434086  1
  Hf  Hf34  1  0.39985671  0.00326031  0.00895748  1
  Hf  Hf35  1  0.19140300  0.80903327  -0.00343738  1
  Hf  Hf36  1  0.49107442  0.90317766  0.61962442  1
  Hf  Hf37  1  0.80354590  0.00348365  0.76363830  1
  Hf  Hf38  1  0.89093394  0.69661280  0.36432391  1
  Hf  Hf39  1  0.29908438  0.49271286  0.62646260  1
  Zr  Zr40  1  0.61025647  -0.00789302  0.74873649  1
  Zr  Zr41  1  0.20454675  0.19492325  0.50503197  1
  Zr  Zr42  1  0.50027677  0.70452070  0.88319538  1
  Zr  Zr43  1  0.49822333  0.49841689  0.38342576  1
  Zr  Zr44  1  0.09157434  0.27724685  0.37656676  1
  Zr  Zr45  1  0.50167417  0.49435685  0.63123118  1
  Zr  Zr46  1  0.59892702  0.40192719  0.24783545  1
  Zr  Zr47  1  0.39892320  0.60653742  0.50179719  1
  Zr  Zr48  1  0.90489481  0.29471601  0.13196312  1
  Zr  Zr49  1  0.00159380  0.00302020  -0.00252160  1
  Zr  Zr50  1  -0.01335396  0.59473071  0.50735448  1
  Zr  Zr51  1  0.39611169  0.58582776  0.00867686  1
  Zr  Zr52  1  0.00170319  0.39785890  0.51459025  1
  Zr  Zr53  1  0.39603011  0.59823336  0.23989561  1
  Zr  Zr54  1  -0.00167076  0.81348510  0.00952310  1
  Zr  Zr55  1  0.39994110  0.40192979  0.23487824  1
  Zr  Zr56  1  0.61380518  0.60926916  0.49582490  1
  Zr  Zr57  1  0.72012561  0.52059904  0.35937576  1
  Zr  Zr58  1  0.70032079  0.70283297  0.87720548  1
  Zr  Zr59  1  0.61131155  0.80844347  0.49714456  1
  Zr  Zr60  1  0.28358366  0.69330907  0.12493777  1
  Zr  Zr61  1  0.70504931  0.29354365  0.62113633  1
  Zr  Zr62  1  0.00338259  0.39591328  0.25544077  1
  Zr  Zr63  1  0.60428654  0.39979259  0.49882156  1
  Zr  Zr64  1  -0.00331325  0.59324344  0.73241105  1
  Zr  Zr65  1  0.90515972  0.71074165  0.86099217  1
  Zr  Zr66  1  0.49831181  0.10041269  0.62369322  1
  Zr  Zr67  1  0.90284927  0.50916423  0.13365477  1
  Zr  Zr68  1  0.00131085  0.18497740  0.76443280  1
  Zr  Zr69  1  0.10266402  0.49583774  0.86914730  1
  Zr  Zr70  1  0.29522616  0.50061366  0.38454209  1
  Zr  Zr71  1  0.09443968  0.70292968  0.14231694  1
  Zr  Zr72  1  0.11612965  0.52058705  0.13293578  1
  Zr  Zr73  1  0.90435843  0.29942195  0.87530489  1
  Zr  Zr74  1  0.59436980  0.60470816  0.23810940  1
  Zr  Zr75  1  0.19588131  0.01237253  0.26129605  1
  Zr  Zr76  1  0.09274458  0.08979035  0.61501022  1
  Zr  Zr77  1  0.81024121  0.41030845  0.50099023  1
  Zr  Zr78  1  0.29022321  0.10526719  0.12390878  1
  Zr  Zr79  1  0.80180307  0.82306039  0.74909599  1
  Ta  Ta80  1  0.49801194  0.09607921  0.86629253  1
  Ta  Ta81  1  0.60407572  0.80537120  0.25240164  1
  Ta  Ta82  1  0.70249960  0.49716664  0.11587592  1
  Ta  Ta83  1  0.30118084  0.30678068  0.85590065  1
  Ta  Ta84  1  0.19791971  0.19970745  0.74467741  1
  Ta  Ta85  1  0.49586080  0.90369274  0.87665034  1
  Ta  Ta86  1  0.59761688  0.39560143  0.75712116  1
  Ta  Ta87  1  0.90205401  0.89470074  0.37337825  1
  Ta  Ta88  1  0.39483786  0.00797644  0.48343609  1
  Ta  Ta89  1  0.49664060  0.90493582  0.37105845  1
  Ta  Ta90  1  0.39863604  0.80732433  0.76028523  1
  Ta  Ta91  1  0.80045813  0.39815145  0.74977289  1
  Ta  Ta92  1  0.70077231  0.50222823  0.64257102  1
  Ta  Ta93  1  0.89762080  0.28906821  0.63223615  1
  Ta  Ta94  1  0.19587344  0.39067820  0.50905116  1
  Ta  Ta95  1  0.19748475  0.59741598  0.74061800  1
  Ta  Ta96  1  0.40073814  0.19981692  0.49664570  1
  Ta  Ta97  1  0.00384694  0.60845721  -0.00231744  1
  Ta  Ta98  1  0.80354514  -0.00343323  0.00332830  1
  Ta  Ta99  1  0.69861234  0.49749035  0.87566878  1
  Ta  Ta100  1  0.50801707  0.10209207  0.37493375  1
  Ta  Ta101  1  0.69752021  0.10370857  0.13086097  1
  Ta  Ta102  1  0.19126761  0.00102067  0.75646318  1
  Ta  Ta103  1  0.18928269  -0.00558357  -0.00505734  1
  Ta  Ta104  1  0.09717972  0.70185714  0.37546433  1
  Ta  Ta105  1  0.39994731  0.39312055  -0.00174303  1
  Ta  Ta106  1  0.60351151  0.81349716  0.75615350  1
  Ta  Ta107  1  0.30094772  0.89753212  0.37289870  1
  Ta  Ta108  1  0.29943922  0.29525591  0.37487257  1
  Ta  Ta109  1  0.29487663  0.89997126  0.13367367  1
  Ta  Ta110  1  0.29780690  0.49146805  0.86502686  1
  Ta  Ta111  1  0.09600729  0.70074286  0.86552710  1
  Ta  Ta112  1  0.50404023  0.29372516  0.12379399  1
  Ta  Ta113  1  0.30527831  0.09627964  0.63113114  1
  Ta  Ta114  1  0.49904076  0.48882400  0.87435853  1
  Ta  Ta115  1  0.59626111  0.59155313  0.00261574  1
  Ta  Ta116  1  0.09351277  0.89472860  0.38128734  1
  Ta  Ta117  1  0.59367373  0.19339332  0.00242174  1
  Ta  Ta118  1  0.70053267  0.10300555  0.87960249  1
  Ta  Ta119  1  0.39864363  0.00351366  0.25433437  1
  Ti  Ti120  1  0.80349226  0.39939512  0.25105951  1
  Ti  Ti121  1  0.60214255  0.80668354  -0.00163251  1
  Ti  Ti122  1  0.19459077  0.80795861  0.25547914  1
  Ti  Ti123  1  0.18882961  0.39409229  0.73214714  1
  Ti  Ti124  1  0.80536307  0.59691922  0.74743330  1
  Ti  Ti125  1  0.29664509  0.29193305  0.13055236  1
  Ti  Ti126  1  0.90221722  0.90038279  0.60721880  1
  Ti  Ti127  1  0.80500395  0.81284090  0.00201436  1
  Ti  Ti128  1  0.90283961  0.51120315  0.35633612  1
  Ti  Ti129  1  0.59305549  0.39677949  -0.00190572  1
  Ti  Ti130  1  0.69972769  0.90076056  0.12563219  1
  Ti  Ti131  1  0.59755637  0.00215079  0.24621674  1
  Ti  Ti132  1  0.40419656  0.20849587  0.74915510  1
  Ti  Ti133  1  0.59929508  0.59796856  0.76161895  1
  Ti  Ti134  1  0.10414252  0.27542173  0.13675396  1
  Ti  Ti135  1  0.90177119  0.28701072  0.38173827  1
  Ti  Ti136  1  0.30256846  0.90635739  0.87387126  1
  Ti  Ti137  1  0.49907096  0.70878447  0.11923254  1
  Ti  Ti138  1  0.49994098  0.29944945  0.62028723  1
  Ti  Ti139  1  -0.01102497  0.79595742  0.50043734  1
  Ti  Ti140  1  0.39719641  0.38756502  0.49902849  1
  Ti  Ti141  1  0.39295253  0.80449849  0.00068724  1
  Ti  Ti142  1  0.30460374  0.29789893  0.63024962  1
  Ti  Ti143  1  0.09287319  0.89832776  0.61400656  1
  Ti  Ti144  1  0.79646124  0.79773307  0.49795131  1
  Ti  Ti145  1  0.09791269  0.30335120  0.86342642  1
  Ti  Ti146  1  0.29031783  0.70312205  0.37834826  1
  Ti  Ti147  1  0.60154353  -0.00186543  0.49723745  1
  Ti  Ti148  1  0.80608654  0.60536020  0.52085432  1
  Ti  Ti149  1  0.80265585  0.40231148  0.00236208  1
  Ti  Ti150  1  0.39268913  0.80096819  0.24950269  1
  Ti  Ti151  1  0.19920456  0.80545891  0.49287405  1
  Ti  Ti152  1  0.19960250  0.00111956  0.49035671  1
  Ti  Ti153  1  0.90286798  0.70487315  0.13766254  1
  Ti  Ti154  1  0.50534434  0.29170966  0.37549193  1
  Ti  Ti155  1  0.91096964  0.10495393  0.12393271  1
  Ti  Ti156  1  0.80820039  0.19353577  0.24969048  1
  Ti  Ti157  1  0.79927411  0.80544538  0.24692357  1
  Ti  Ti158  1  0.70132093  0.90164801  0.36856645  1
  Ti  Ti159  1  0.79752606  -0.01069589  0.49367933  1
  Mo  Mo160  1  0.59724436  0.19592762  0.24405303  1
  Mo  Mo161  1  0.09758031  0.29504636  0.63321202  1
  Mo  Mo162  1  0.70637374  0.71229447  0.35999555  1
  Mo  Mo163  1  0.09893968  0.10336202  0.11130597  1
  Mo  Mo164  1  0.09830969  0.89576285  0.86509123  1
  Mo  Mo165  1  0.50460857  0.48957034  0.10596752  1
  Mo  Mo166  1  0.10680935  0.49672045  0.62037407  1
  Mo  Mo167  1  0.20079478  0.19874693  0.25991842  1
  Mo  Mo168  1  -0.00033222  0.60718158  0.25789107  1
  Mo  Mo169  1  0.09874754  0.09088490  0.39020025  1
  Mo  Mo170  1  0.10401556  0.09616493  0.87100869  1
  Mo  Mo171  1  -0.00203633  -0.01278651  0.49385638  1
  Mo  Mo172  1  0.70460868  0.90607291  0.60579703  1
  Mo  Mo173  1  0.00132966  0.39102738  0.73820811  1
  Mo  Mo174  1  0.80014378  0.60705595  0.22800235  1
  Mo  Mo175  1  0.89176377  0.49252465  0.64012977  1
  Mo  Mo176  1  0.39398327  0.81027577  0.48649318  1
  Mo  Mo177  1  0.89770107  0.89911671  0.89075253  1
  Mo  Mo178  1  0.20312999  0.60773916  0.27346964  1
  Mo  Mo179  1  0.79844874  0.19853944  0.76562954  1
  Mo  Mo180  1  0.50516142  0.09885477  0.13768235  1
  Mo  Mo181  1  -0.00256991  0.80457158  0.25836398  1
  Mo  Mo182  1  0.89336411  0.89684253  0.13234721  1
  Mo  Mo183  1  0.29795369  0.49462624  0.11617421  1
  Mo  Mo184  1  0.19425112  0.59886977  -0.02601292  1
  Mo  Mo185  1  0.00590692  0.18469638  0.23866770  1
  Mo  Mo186  1  0.00803397  0.19805866  0.00181363  1
  Mo  Mo187  1  0.89387394  0.70797009  0.62144154  1
  Mo  Mo188  1  0.10888165  0.90201751  0.14239153  1
  Mo  Mo189  1  0.30274351  0.10118549  0.38165917  1
  Mo  Mo190  1  -0.00162913  0.19928524  0.51826748  1
  Mo  Mo191  1  0.69688861  0.90268154  0.89854739  1
  Mo  Mo192  1  0.89777219  0.09793693  0.88596145  1
  Mo  Mo193  1  0.80426298  0.20305053  0.48558405  1
  Mo  Mo194  1  -0.00143053  0.80242082  0.73092233  1
  Mo  Mo195  1  0.49859416  0.29816234  0.88368843  1
  Mo  Mo196  1  0.19716445  0.60457128  0.50629343  1
  Mo  Mo197  1  0.39563015  -0.00314640  0.75686935  1
  Mo  Mo198  1  0.59323493  0.20017413  0.49327681  1
  Mo  Mo199  1  0.40260396  0.39222112  0.75180996  1
