# generated using pymatgen
data_HfZrTaTiMo
_symmetry_space_group_name_H-M   'P 1'
_cell_length_a   15.84385142
_cell_length_b   15.82935404
_cell_length_c   15.38472188
_cell_angle_alpha   89.98852475
_cell_angle_beta   90.05851111
_cell_angle_gamma   89.90906523
_symmetry_Int_Tables_number   1
_chemical_formula_structural   HfZrTaTiMo
_chemical_formula_sum   'Hf40 Zr40 Ta40 Ti40 Mo40'
_cell_volume   3858.44950386
_cell_formula_units_Z   40
loop_
 _symmetry_equiv_pos_site_id
 _symmetry_equiv_pos_as_xyz
  1  'x, y, z'
loop_
 _atom_site_type_symbol
 _atom_site_label
 _atom_site_symmetry_multiplicity
 _atom_site_fract_x
 _atom_site_fract_y
 _atom_site_fract_z
 _atom_site_occupancy
  Hf  Hf0  1  0.70040201  0.30531347  0.38324070  1
  Hf  Hf1  1  -0.00833937  0.19369729  -0.00422359  1
  Hf  Hf2  1  0.88988985  0.50628517  0.89335582  1
  Hf  Hf3  1  0.40554187  -0.00880372  0.00760626  1
  Hf  Hf4  1  0.08797774  0.49619804  0.90105625  1
  Hf  Hf5  1  0.10683678  0.10568658  0.11613274  1
  Hf  Hf6  1  0.29626131  0.90387294  0.62160827  1
  Hf  Hf7  1  0.89721031  0.50416280  0.37452958  1
  Hf  Hf8  1  0.29231330  0.90290178  0.87494225  1
  Hf  Hf9  1  0.69994312  0.69449804  0.87155643  1
  Hf  Hf10  1  0.79548815  0.00906492  -0.01275748  1
  Hf  Hf11  1  0.80709420  0.80090342  0.23743262  1
  Hf  Hf12  1  -0.01258968  0.59777611  0.51042610  1
  Hf  Hf13  1  0.10857775  0.49953908  0.12897499  1
  Hf  Hf14  1  0.40202977  0.19166385  0.75392536  1
  Hf  Hf15  1  0.19309269  0.58547416  0.75854236  1
  Hf  Hf16  1  0.29610541  0.29626657  0.12758203  1
  Hf  Hf17  1  0.69331657  0.70040246  0.36063808  1
  Hf  Hf18  1  0.40127645  0.00255218  0.25037383  1
  Hf  Hf19  1  0.59706645  0.40826741  0.52124287  1
  Hf  Hf20  1  0.20275686  0.80082098  0.24214034  1
  Hf  Hf21  1  0.40073518  0.40062802  0.50242594  1
  Hf  Hf22  1  0.09494761  0.47509177  0.61138023  1
  Hf  Hf23  1  0.00404518  0.39415594  0.75136864  1
  Hf  Hf24  1  0.69181059  0.89809468  0.36385421  1
  Hf  Hf25  1  0.89787016  0.29941777  0.11608400  1
  Hf  Hf26  1  0.58896764  0.59487664  -0.00435942  1
  Hf  Hf27  1  0.00138105  0.19638638  0.25296549  1
  Hf  Hf28  1  0.60401174  -0.00296121  0.49983139  1
  Hf  Hf29  1  0.68031871  0.71115884  0.64531187  1
  Hf  Hf30  1  0.40424187  0.78801165  0.49365802  1
  Hf  Hf31  1  -0.01197327  0.59200894  0.74264750  1
  Hf  Hf32  1  0.70543113  0.89955277  0.63520624  1
  Hf  Hf33  1  0.81701969  -0.00333452  0.75305217  1
  Hf  Hf34  1  0.93197212  0.29871504  0.60938400  1
  Hf  Hf35  1  0.79159520  0.79916289  0.49982497  1
  Hf  Hf36  1  0.92295367  0.09928532  0.61509581  1
  Hf  Hf37  1  0.80378232  0.20078004  0.26392808  1
  Hf  Hf38  1  0.90131060  0.50179641  0.10578488  1
  Hf  Hf39  1  -0.01513654  0.81351989  0.73956205  1
  Zr  Zr40  1  0.89268046  0.70823890  0.88472147  1
  Zr  Zr41  1  0.51245903  0.29313187  0.86670480  1
  Zr  Zr42  1  0.19453489  0.80054189  0.50564631  1
  Zr  Zr43  1  0.29701412  0.49771205  0.62261783  1
  Zr  Zr44  1  0.41396568  0.19174689  0.00392252  1
  Zr  Zr45  1  0.09608350  0.69371967  0.11892786  1
  Zr  Zr46  1  0.20449610  0.00424976  0.24933691  1
  Zr  Zr47  1  0.69702780  0.30707043  0.85158426  1
  Zr  Zr48  1  0.20511405  0.36584457  0.48679148  1
  Zr  Zr49  1  0.69259157  0.91431639  0.13054061  1
  Zr  Zr50  1  -0.00556758  0.80177723  0.51607249  1
  Zr  Zr51  1  0.39516352  0.39643469  0.74033462  1
  Zr  Zr52  1  0.08978928  0.69689142  0.36311665  1
  Zr  Zr53  1  0.50526415  0.70034300  0.35556792  1
  Zr  Zr54  1  0.50516149  0.29928715  0.37946627  1
  Zr  Zr55  1  0.69374608  0.51050626  0.37957686  1
  Zr  Zr56  1  0.21219334  0.80056312  0.01549810  1
  Zr  Zr57  1  0.89961942  0.31005130  0.88064174  1
  Zr  Zr58  1  0.79928820  0.40189683  0.24827791  1
  Zr  Zr59  1  0.70625953  0.52369743  0.63633686  1
  Zr  Zr60  1  0.70330562  0.88830633  0.86813777  1
  Zr  Zr61  1  0.40975966  0.40388423  0.24661247  1
  Zr  Zr62  1  0.30724449  0.69433768  0.63824499  1
  Zr  Zr63  1  0.09950797  0.49366927  0.36642020  1
  Zr  Zr64  1  0.50825499  0.29320550  0.12899669  1
  Zr  Zr65  1  0.39864072  0.00150377  0.75321572  1
  Zr  Zr66  1  0.09344081  0.70129608  0.88247175  1
  Zr  Zr67  1  0.50587918  0.88511314  0.61959677  1
  Zr  Zr68  1  0.09362034  0.89836976  0.36585873  1
  Zr  Zr69  1  0.28640715  0.11461983  0.61707250  1
  Zr  Zr70  1  -0.01539152  -0.00374800  -0.00378290  1
  Zr  Zr71  1  0.40406417  0.79287069  0.00253505  1
  Zr  Zr72  1  0.09970393  0.89847410  0.88401484  1
  Zr  Zr73  1  0.20129412  0.60223010  0.49584032  1
  Zr  Zr74  1  0.81168559  0.20321873  0.73551962  1
  Zr  Zr75  1  0.59043129  0.00992424  0.75500587  1
  Zr  Zr76  1  0.10800146  0.29555587  0.88759139  1
  Zr  Zr77  1  0.50171101  0.49357746  0.85880132  1
  Zr  Zr78  1  0.49427381  0.69160828  0.13116704  1
  Zr  Zr79  1  0.80772369  0.40626241  0.51368522  1
  Ta  Ta80  1  0.61319211  0.19165236  0.00269955  1
  Ta  Ta81  1  0.80591849  0.00148098  0.49513543  1
  Ta  Ta82  1  0.49593431  0.10481030  0.60506898  1
  Ta  Ta83  1  0.40084533  0.80291494  0.76143195  1
  Ta  Ta84  1  -0.01468010  0.60432160  0.23840499  1
  Ta  Ta85  1  0.38877472  0.59125358  -0.01242088  1
  Ta  Ta86  1  0.69476299  0.70223958  0.11642648  1
  Ta  Ta87  1  0.80378543  0.00832987  0.26544436  1
  Ta  Ta88  1  0.40027741  0.19106019  0.25260674  1
  Ta  Ta89  1  0.50241309  0.10257828  0.38557127  1
  Ta  Ta90  1  0.20169390  0.20373516  0.26581923  1
  Ta  Ta91  1  0.09804453  0.90684118  0.12356697  1
  Ta  Ta92  1  0.50298346  0.89718836  0.36763460  1
  Ta  Ta93  1  0.59958905  0.39578571  0.00730229  1
  Ta  Ta94  1  0.19313524  0.80389911  0.74245054  1
  Ta  Ta95  1  0.60315384  0.19453402  0.25560404  1
  Ta  Ta96  1  0.00032821  0.39571496  0.24439224  1
  Ta  Ta97  1  0.69861915  0.49698287  0.86498009  1
  Ta  Ta98  1  0.29311923  0.10082108  0.89046169  1
  Ta  Ta99  1  0.39846331  -0.00095253  0.49401398  1
  Ta  Ta100  1  0.79316529  0.19498490  -0.00719428  1
  Ta  Ta101  1  0.89956949  0.89941857  0.37353659  1
  Ta  Ta102  1  0.59581546  0.00686509  -0.01550610  1
  Ta  Ta103  1  0.40418787  0.40814408  0.00553392  1
  Ta  Ta104  1  0.39407314  0.80526140  0.24406055  1
  Ta  Ta105  1  0.30454579  0.29952046  0.88507934  1
  Ta  Ta106  1  0.87326969  0.69180015  0.63228745  1
  Ta  Ta107  1  0.21508110  0.40620747  0.00578043  1
  Ta  Ta108  1  0.80275051  0.19930553  0.50370924  1
  Ta  Ta109  1  0.00144238  0.00790097  0.76119137  1
  Ta  Ta110  1  0.69939819  0.10390968  0.38428005  1
  Ta  Ta111  1  0.40475568  0.59550824  0.48767978  1
  Ta  Ta112  1  0.18995397  0.01181665  0.49230853  1
  Ta  Ta113  1  0.29894020  0.49856536  0.36191658  1
  Ta  Ta114  1  0.79866849  0.60457146  0.23162279  1
  Ta  Ta115  1  0.30277830  0.89795626  0.38050066  1
  Ta  Ta116  1  0.69824076  0.50071293  0.11483404  1
  Ta  Ta117  1  0.10833822  0.09852376  0.88141897  1
  Ta  Ta118  1  0.29668628  0.69709204  0.86470006  1
  Ta  Ta119  1  0.30330760  0.10324758  0.38292451  1
  Ti  Ti120  1  0.59286196  0.80886598  -0.00260189  1
  Ti  Ti121  1  0.29636164  0.09991965  0.11599082  1
  Ti  Ti122  1  0.69989055  0.10189453  0.13549623  1
  Ti  Ti123  1  0.30437399  0.50656950  0.14059104  1
  Ti  Ti124  1  0.30030459  0.68303011  0.13867811  1
  Ti  Ti125  1  0.51826133  0.09086352  0.13571132  1
  Ti  Ti126  1  0.70172109  0.29315994  0.12822036  1
  Ti  Ti127  1  0.20365314  0.38825745  0.75595149  1
  Ti  Ti128  1  0.90699504  0.10066445  0.38677404  1
  Ti  Ti129  1  0.59765936  0.58753374  0.23331035  1
  Ti  Ti130  1  -0.01045684  0.80221125  0.23250234  1
  Ti  Ti131  1  0.21135261  0.59700308  -0.00493466  1
  Ti  Ti132  1  0.60677232  0.20492961  0.51190594  1
  Ti  Ti133  1  0.60401158  0.40261588  0.23854302  1
  Ti  Ti134  1  0.03647011  0.19647411  0.48152135  1
  Ti  Ti135  1  0.50282029  0.29314875  0.63020833  1
  Ti  Ti136  1  0.38671300  0.21296448  0.49691007  1
  Ti  Ti137  1  0.49865400  0.69991468  0.86547693  1
  Ti  Ti138  1  0.70156743  0.10397287  0.62278701  1
  Ti  Ti139  1  0.88819509  0.09689599  0.12928535  1
  Ti  Ti140  1  0.09487208  0.91914293  0.62797400  1
  Ti  Ti141  1  0.69458655  0.11319344  0.85851061  1
  Ti  Ti142  1  0.49667077  0.69380523  0.64626987  1
  Ti  Ti143  1  0.49875520  0.51789506  0.63985613  1
  Ti  Ti144  1  0.59059815  0.61694974  0.50472693  1
  Ti  Ti145  1  0.09808640  0.69534484  0.63423093  1
  Ti  Ti146  1  0.81079870  0.40994007  0.73213751  1
  Ti  Ti147  1  0.10486080  0.30215853  0.12106762  1
  Ti  Ti148  1  0.80521700  0.81147928  0.01683932  1
  Ti  Ti149  1  0.30002869  0.69267423  0.36148576  1
  Ti  Ti150  1  0.00652300  0.00026180  0.49179277  1
  Ti  Ti151  1  0.50846219  0.90089972  0.13892718  1
  Ti  Ti152  1  -0.01349898  0.80662622  0.01758336  1
  Ti  Ti153  1  0.89302636  0.69945580  0.37471510  1
  Ti  Ti154  1  0.78436604  0.39445750  0.00089212  1
  Ti  Ti155  1  -0.00741345  0.00033975  0.24652086  1
  Ti  Ti156  1  0.91376097  0.30313142  0.38798848  1
  Ti  Ti157  1  0.12195810  0.26766024  0.63931137  1
  Ti  Ti158  1  0.50481273  0.50456751  0.37333747  1
  Ti  Ti159  1  0.19472629  0.01088606  0.74665314  1
  Mo  Mo160  1  0.09856431  0.30006355  0.35439581  1
  Mo  Mo161  1  0.20268020  0.19528337  0.48095992  1
  Mo  Mo162  1  0.30492074  0.90048769  0.13027636  1
  Mo  Mo163  1  0.90071645  0.10677965  0.86604038  1
  Mo  Mo164  1  0.19986691  0.59941040  0.25472446  1
  Mo  Mo165  1  0.60055037  0.19640002  0.72438475  1
  Mo  Mo166  1  0.59269524  0.79752171  0.49778799  1
  Mo  Mo167  1  0.89931368  0.89820035  0.88058936  1
  Mo  Mo168  1  0.20660586  0.19746997  0.77054943  1
  Mo  Mo169  1  0.89334650  0.70283147  0.11100684  1
  Mo  Mo170  1  0.49898996  0.49888947  0.11816391  1
  Mo  Mo171  1  0.20494186  0.20295123  -0.00186040  1
  Mo  Mo172  1  0.09793165  0.09552024  0.36250285  1
  Mo  Mo173  1  0.80199881  0.80214416  0.74150047  1
  Mo  Mo174  1  0.30641403  0.29920949  0.35481195  1
  Mo  Mo175  1  0.20217405  0.39603508  0.24227154  1
  Mo  Mo176  1  0.50413243  0.10062287  0.88184422  1
  Mo  Mo177  1  0.60465734  0.39941252  0.72477093  1
  Mo  Mo178  1  0.90218217  0.90640747  0.60674649  1
  Mo  Mo179  1  0.80044760  0.59807067  0.76251820  1
  Mo  Mo180  1  0.89845692  0.91063217  0.14047524  1
  Mo  Mo181  1  0.00744080  0.39594488  0.01852836  1
  Mo  Mo182  1  0.90310156  0.49950882  0.62015159  1
  Mo  Mo183  1  0.79600687  0.61227294  0.49211832  1
  Mo  Mo184  1  0.29981819  0.29586444  0.63621749  1
  Mo  Mo185  1  0.39833890  0.59846458  0.26333926  1
  Mo  Mo186  1  0.00678484  0.39311572  0.48765747  1
  Mo  Mo187  1  0.49945434  0.89555044  0.87946904  1
  Mo  Mo188  1  0.58854876  0.80318792  0.76897407  1
  Mo  Mo189  1  -0.00238467  0.60588194  0.01158768  1
  Mo  Mo190  1  0.59950109  0.80208960  0.23128140  1
  Mo  Mo191  1  0.10018652  0.10034299  0.63294300  1
  Mo  Mo192  1  0.78763802  0.60246363  0.00762734  1
  Mo  Mo193  1  0.29402173  0.49247646  0.87772745  1
  Mo  Mo194  1  0.00956737  0.19121546  0.76319506  1
  Mo  Mo195  1  0.59860325  0.00912758  0.26507208  1
  Mo  Mo196  1  0.59387845  0.60054993  0.76288356  1
  Mo  Mo197  1  0.39476585  0.60273399  0.76698806  1
  Mo  Mo198  1  0.20220342  0.00201282  0.01408980  1
  Mo  Mo199  1  0.70225631  0.29939815  0.62726044  1
