# generated using pymatgen
data_HfZrTaTiMo
_symmetry_space_group_name_H-M   'P 1'
_cell_length_a   15.83484211
_cell_length_b   15.85858978
_cell_length_c   15.38114464
_cell_angle_alpha   89.98811619
_cell_angle_beta   89.99857768
_cell_angle_gamma   89.95562861
_symmetry_Int_Tables_number   1
_chemical_formula_structural   HfZrTaTiMo
_chemical_formula_sum   'Hf40 Zr40 Ta40 Ti40 Mo40'
_cell_volume   3862.48511661
_cell_formula_units_Z   40
loop_
 _symmetry_equiv_pos_site_id
 _symmetry_equiv_pos_as_xyz
  1  'x, y, z'
loop_
 _atom_site_type_symbol
 _atom_site_label
 _atom_site_symmetry_multiplicity
 _atom_site_fract_x
 _atom_site_fract_y
 _atom_site_fract_z
 _atom_site_occupancy
  Hf  Hf0  1  0.38349850  0.00310560  0.49696366  1
  Hf  Hf1  1  0.08915861  0.70549479  0.61566285  1
  Hf  Hf2  1  0.49688481  0.70524751  0.62144770  1
  Hf  Hf3  1  0.70352864  0.90582912  0.37622244  1
  Hf  Hf4  1  0.20821536  -0.00289159  -0.00026688  1
  Hf  Hf5  1  0.00084729  0.38717243  -0.01046839  1
  Hf  Hf6  1  0.20373524  0.59138776  0.74828768  1
  Hf  Hf7  1  0.69411878  0.69227570  0.12553112  1
  Hf  Hf8  1  0.21261816  0.20176691  0.74213540  1
  Hf  Hf9  1  0.71403354  0.49246045  0.37125905  1
  Hf  Hf10  1  0.38984476  0.01266712  0.75666971  1
  Hf  Hf11  1  0.79294666  0.59210173  -0.00198534  1
  Hf  Hf12  1  0.49786267  0.30348061  0.87823156  1
  Hf  Hf13  1  0.29192470  0.89652458  0.63696764  1
  Hf  Hf14  1  0.40723162  0.19861466  0.25839782  1
  Hf  Hf15  1  0.02373873  0.60173161  0.22587509  1
  Hf  Hf16  1  0.89156220  0.30298234  0.37320401  1
  Hf  Hf17  1  0.08517184  0.90661541  0.64530415  1
  Hf  Hf18  1  0.49955576  0.10203082  0.88555376  1
  Hf  Hf19  1  0.59730857  0.39224228  0.25612986  1
  Hf  Hf20  1  0.89411246  0.90116007  0.37663278  1
  Hf  Hf21  1  0.38604471  0.39920321  0.73176008  1
  Hf  Hf22  1  0.69421463  0.49960422  0.86942014  1
  Hf  Hf23  1  0.20591386  0.19893343  -0.00162083  1
  Hf  Hf24  1  0.39359306  0.60071450  0.49586097  1
  Hf  Hf25  1  0.80308790  0.79048145  0.75087086  1
  Hf  Hf26  1  -0.00425267  0.79695035  0.24310186  1
  Hf  Hf27  1  0.10483463  0.49788733  0.88393591  1
  Hf  Hf28  1  0.79220845  0.00787175  -0.00897152  1
  Hf  Hf29  1  0.61317045  0.19329957  0.74231973  1
  Hf  Hf30  1  0.21090054  0.19903449  0.23774347  1
  Hf  Hf31  1  0.70144249  0.30308509  0.12324346  1
  Hf  Hf32  1  0.70243829  0.10413489  0.38292983  1
  Hf  Hf33  1  0.00245258  0.19932502  0.24547637  1
  Hf  Hf34  1  0.19923208  0.78490859  0.76158649  1
  Hf  Hf35  1  0.20495178  0.39855305  0.23953486  1
  Hf  Hf36  1  0.01472916  0.20655226  0.74929975  1
  Hf  Hf37  1  0.38913969  0.60428105  0.02086208  1
  Hf  Hf38  1  0.59288156  0.01712181  0.24475057  1
  Hf  Hf39  1  0.80018642  0.00874478  0.23385371  1
  Zr  Zr40  1  0.49151493  0.50118546  0.88097142  1
  Zr  Zr41  1  0.30227245  0.48580568  0.38207140  1
  Zr  Zr42  1  0.90947485  0.89908941  0.86994245  1
  Zr  Zr43  1  0.61424713  0.39010974  0.50532807  1
  Zr  Zr44  1  0.19450102  0.80985919  0.48391816  1
  Zr  Zr45  1  0.59677178  0.60461791  0.73925666  1
  Zr  Zr46  1  0.48259385  0.91833349  0.11959285  1
  Zr  Zr47  1  0.50242783  0.48584009  0.12156988  1
  Zr  Zr48  1  0.81630039  0.59970981  0.23772332  1
  Zr  Zr49  1  0.80550335  0.80408243  0.22946327  1
  Zr  Zr50  1  0.00409953  0.39568708  0.24710044  1
  Zr  Zr51  1  0.70576358  0.50240557  0.62661085  1
  Zr  Zr52  1  0.71215436  0.70266141  0.36849995  1
  Zr  Zr53  1  0.30744337  0.88330951  0.88097305  1
  Zr  Zr54  1  0.59612735  0.39234816  0.73747966  1
  Zr  Zr55  1  0.79783968  0.20258574  0.52423399  1
  Zr  Zr56  1  0.09940402  0.91834359  0.36275230  1
  Zr  Zr57  1  0.38609276  0.59881813  0.73949292  1
  Zr  Zr58  1  0.50309669  0.89720801  0.87419013  1
  Zr  Zr59  1  0.19051467  0.79648294  0.24625104  1
  Zr  Zr60  1  0.09464051  0.10495565  0.88154799  1
  Zr  Zr61  1  0.49767166  0.90972500  0.37062789  1
  Zr  Zr62  1  0.09270920  0.70470034  0.90108556  1
  Zr  Zr63  1  0.90600007  0.50495953  0.62770949  1
  Zr  Zr64  1  0.10769080  0.50880317  0.38335950  1
  Zr  Zr65  1  0.49432653  0.89827714  0.63404672  1
  Zr  Zr66  1  0.79099971  0.80873859  0.00256734  1
  Zr  Zr67  1  0.90303651  0.09695383  0.37866638  1
  Zr  Zr68  1  0.09631947  0.49691033  0.62235796  1
  Zr  Zr69  1  0.68264744  0.70707179  0.87791844  1
  Zr  Zr70  1  0.01418518  0.19935934  0.50858883  1
  Zr  Zr71  1  0.38744924  0.80268241  0.47748588  1
  Zr  Zr72  1  0.78795033  0.01186576  0.75581864  1
  Zr  Zr73  1  0.59166435  0.80068317  0.24049233  1
  Zr  Zr74  1  0.19502893  0.59518556  0.03574098  1
  Zr  Zr75  1  0.60305498  0.79838703  0.49385303  1
  Zr  Zr76  1  0.47708729  0.71020514  0.87000362  1
  Zr  Zr77  1  0.90553916  0.50476033  0.37859651  1
  Zr  Zr78  1  -0.00205141  0.61528555  0.75521822  1
  Zr  Zr79  1  0.91450534  0.08724888  0.64000420  1
  Ta  Ta80  1  0.59679682  0.59216694  0.25495707  1
  Ta  Ta81  1  0.19827722  0.00896478  0.75907651  1
  Ta  Ta82  1  0.60277427  0.60002073  0.48990122  1
  Ta  Ta83  1  0.30213450  0.30685881  0.88390460  1
  Ta  Ta84  1  0.60383576  0.19954726  0.51415593  1
  Ta  Ta85  1  0.79706770  0.38975645  -0.01646272  1
  Ta  Ta86  1  0.69804080  0.89517067  0.63222486  1
  Ta  Ta87  1  0.80422206  0.60398711  0.75512999  1
  Ta  Ta88  1  0.58540946  0.79782988  0.01802937  1
  Ta  Ta89  1  0.49466654  0.49680650  0.60322056  1
  Ta  Ta90  1  0.90121432  0.10935998  0.10729600  1
  Ta  Ta91  1  0.60214073  0.00508804  0.51375819  1
  Ta  Ta92  1  0.10760138  0.10153763  0.36687410  1
  Ta  Ta93  1  0.90222414  0.69951560  0.89388459  1
  Ta  Ta94  1  0.19981903  0.39032825  0.74177761  1
  Ta  Ta95  1  0.79985332  -0.00713000  0.51792765  1
  Ta  Ta96  1  0.39640964  0.59058967  0.24543645  1
  Ta  Ta97  1  0.10204171  0.29400036  0.11174658  1
  Ta  Ta98  1  0.90710652  0.30700375  0.63879824  1
  Ta  Ta99  1  0.80626635  0.39577868  0.76141961  1
  Ta  Ta100  1  0.20578367  0.38502173  0.51633705  1
  Ta  Ta101  1  0.20897956  0.19194624  0.51495577  1
  Ta  Ta102  1  0.49108327  0.10499213  0.61847361  1
  Ta  Ta103  1  0.09878886  0.89798592  0.87677256  1
  Ta  Ta104  1  0.00562841  0.39230931  0.49874795  1
  Ta  Ta105  1  0.38973704  0.79827603  0.25256658  1
  Ta  Ta106  1  0.49789726  0.29693645  0.39314794  1
  Ta  Ta107  1  0.79829626  0.20090247  0.23879598  1
  Ta  Ta108  1  0.69527345  0.11100546  0.11114483  1
  Ta  Ta109  1  0.80416552  0.61191210  0.50692684  1
  Ta  Ta110  1  0.89982770  0.48761402  0.11084918  1
  Ta  Ta111  1  0.40173137  0.38618397  0.25805370  1
  Ta  Ta112  1  0.49365023  0.69068831  0.36384865  1
  Ta  Ta113  1  0.50182845  0.11419046  0.10421717  1
  Ta  Ta114  1  0.50151935  0.49385690  0.38214264  1
  Ta  Ta115  1  0.31895873  0.30204179  0.10928836  1
  Ta  Ta116  1  0.59731832  0.20180626  0.25175119  1
  Ta  Ta117  1  -0.00646059  0.80409412  0.49508873  1
  Ta  Ta118  1  0.90236089  0.50177149  0.87751621  1
  Ta  Ta119  1  0.28332682  0.68475483  0.36018025  1
  Ti  Ti120  1  0.20774044  0.40067766  0.01031778  1
  Ti  Ti121  1  0.68642303  0.89905106  0.86509288  1
  Ti  Ti122  1  0.90004691  0.28938384  0.87042401  1
  Ti  Ti123  1  0.19158365  0.00805527  0.51314057  1
  Ti  Ti124  1  0.01010054  0.39534301  0.76181680  1
  Ti  Ti125  1  0.70466005  0.29561648  0.36866861  1
  Ti  Ti126  1  -0.00053207  0.00685527  0.23819339  1
  Ti  Ti127  1  0.39114553  0.79094819  0.02844679  1
  Ti  Ti128  1  0.70530217  0.49138736  0.12929497  1
  Ti  Ti129  1  0.28698896  0.09848876  0.37470080  1
  Ti  Ti130  1  0.89635755  0.29664737  0.11736443  1
  Ti  Ti131  1  0.91286562  0.69899240  0.09832878  1
  Ti  Ti132  1  0.38849174  0.00826359  0.25917814  1
  Ti  Ti133  1  0.61827749  0.20850164  -0.01762667  1
  Ti  Ti134  1  0.29500819  0.90795716  0.13569263  1
  Ti  Ti135  1  0.29696866  0.70622152  0.61862609  1
  Ti  Ti136  1  0.59810495  0.00645050  0.74339895  1
  Ti  Ti137  1  0.50256967  0.10582016  0.39227131  1
  Ti  Ti138  1  0.70270545  0.70521531  0.62169887  1
  Ti  Ti139  1  0.89606124  0.10999383  0.87832502  1
  Ti  Ti140  1  0.60159777  -0.00040304  -0.00296989  1
  Ti  Ti141  1  0.09812946  0.09809739  0.11972850  1
  Ti  Ti142  1  0.60649909  0.40004261  -0.00635907  1
  Ti  Ti143  1  0.11733561  0.29434698  0.37952246  1
  Ti  Ti144  1  0.50255540  0.29371440  0.10700032  1
  Ti  Ti145  1  0.69133176  0.90855554  0.12277690  1
  Ti  Ti146  1  0.90111999  0.89059792  0.63365802  1
  Ti  Ti147  1  0.19988942  0.60181855  0.50898041  1
  Ti  Ti148  1  0.00059854  0.00325505  -0.00291852  1
  Ti  Ti149  1  0.90931235  0.69889004  0.38423522  1
  Ti  Ti150  1  0.48959531  0.29369033  0.61141939  1
  Ti  Ti151  1  0.00519138  -0.00015535  0.50131412  1
  Ti  Ti152  1  0.58812070  0.60424112  0.00976598  1
  Ti  Ti153  1  0.20635131  0.79406294  0.01547894  1
  Ti  Ti154  1  0.80679323  0.39679263  0.51377086  1
  Ti  Ti155  1  0.31951424  0.09799000  0.11270474  1
  Ti  Ti156  1  0.29930019  0.49988329  0.88517171  1
  Ti  Ti157  1  0.09719340  0.90418499  0.11972084  1
  Ti  Ti158  1  0.39719082  0.20176424  0.75018546  1
  Ti  Ti159  1  0.90539227  0.90949821  0.11315702  1
  Mo  Mo160  1  0.70542493  0.29842272  0.86609131  1
  Mo  Mo161  1  -0.00522049  0.59094737  0.00891935  1
  Mo  Mo162  1  0.00230387  0.00249759  0.76843394  1
  Mo  Mo163  1  -0.00023195  0.60519550  0.49731294  1
  Mo  Mo164  1  0.29786401  0.70137120  0.14845343  1
  Mo  Mo165  1  0.71286861  0.29827693  0.64180092  1
  Mo  Mo166  1  0.80547320  0.80290213  0.51353070  1
  Mo  Mo167  1  0.29678258  0.49826876  0.61006553  1
  Mo  Mo168  1  0.49682282  0.69696114  0.14338336  1
  Mo  Mo169  1  0.30457830  0.48879272  0.13921313  1
  Mo  Mo170  1  0.39639132  0.00233742  -0.00320303  1
  Mo  Mo171  1  0.80564510  0.20504127  0.75049001  1
  Mo  Mo172  1  0.30048308  0.28894157  0.38727693  1
  Mo  Mo173  1  0.29254045  0.91314202  0.35381015  1
  Mo  Mo174  1  0.30482134  0.10319204  0.88202681  1
  Mo  Mo175  1  0.00192286  0.81318481  0.01527512  1
  Mo  Mo176  1  0.40162621  0.39430220  0.50318206  1
  Mo  Mo177  1  0.69659190  0.10048597  0.88527946  1
  Mo  Mo178  1  0.80234287  0.20528735  -0.00338262  1
  Mo  Mo179  1  0.09697547  0.48177685  0.11555448  1
  Mo  Mo180  1  -0.00248341  0.80029543  0.75333506  1
  Mo  Mo181  1  0.89587642  0.70659550  0.61601253  1
  Mo  Mo182  1  0.39729046  0.40245980  -0.00276672  1
  Mo  Mo183  1  0.09656316  0.71255626  0.11286760  1
  Mo  Mo184  1  0.69817023  0.09462233  0.61883899  1
  Mo  Mo185  1  0.11317914  0.30748346  0.88211839  1
  Mo  Mo186  1  0.09334447  0.69622174  0.38960439  1
  Mo  Mo187  1  0.39366975  0.79779783  0.74571126  1
  Mo  Mo188  1  0.60002531  0.80515904  0.73826327  1
  Mo  Mo189  1  0.30877120  0.29299686  0.61507201  1
  Mo  Mo190  1  -0.00079287  0.19993032  0.00147180  1
  Mo  Mo191  1  0.29408730  0.69147676  0.89001563  1
  Mo  Mo192  1  0.40425716  0.20258738  -0.00788407  1
  Mo  Mo193  1  0.80184263  0.39350052  0.23690534  1
  Mo  Mo194  1  0.20125872  0.01197258  0.22678883  1
  Mo  Mo195  1  0.10749898  0.09200543  0.63233231  1
  Mo  Mo196  1  0.10083233  0.29985614  0.62263887  1
  Mo  Mo197  1  0.30427573  0.09678137  0.62268570  1
  Mo  Mo198  1  0.39902477  0.19494679  0.48781348  1
  Mo  Mo199  1  0.20215578  0.59528898  0.24027739  1
