# generated using pymatgen
data_HfZrTaTiMo
_symmetry_space_group_name_H-M   'P 1'
_cell_length_a   15.82487691
_cell_length_b   15.85384153
_cell_length_c   15.38885094
_cell_angle_alpha   90.00169377
_cell_angle_beta   90.02350964
_cell_angle_gamma   89.98905451
_symmetry_Int_Tables_number   1
_chemical_formula_structural   HfZrTaTiMo
_chemical_formula_sum   'Hf40 Zr40 Ta40 Ti40 Mo40'
_cell_volume   3860.83286618
_cell_formula_units_Z   40
loop_
 _symmetry_equiv_pos_site_id
 _symmetry_equiv_pos_as_xyz
  1  'x, y, z'
loop_
 _atom_site_type_symbol
 _atom_site_label
 _atom_site_symmetry_multiplicity
 _atom_site_fract_x
 _atom_site_fract_y
 _atom_site_fract_z
 _atom_site_occupancy
  Hf  Hf0  1  0.40880825  0.18710222  -0.00434249  1
  Hf  Hf1  1  0.89393028  0.29793911  0.39146826  1
  Hf  Hf2  1  0.29202923  0.28740607  0.62508251  1
  Hf  Hf3  1  0.59988542  0.59338383  0.01006556  1
  Hf  Hf4  1  0.60221007  0.19015374  0.48812101  1
  Hf  Hf5  1  0.70185696  0.10083824  0.62893952  1
  Hf  Hf6  1  0.69905165  0.09632637  0.13829536  1
  Hf  Hf7  1  0.20597934  0.40947517  0.24332496  1
  Hf  Hf8  1  0.50274727  0.29823423  0.13268534  1
  Hf  Hf9  1  0.60286837  0.40070206  0.74174669  1
  Hf  Hf10  1  0.59439798  0.41029174  0.49925411  1
  Hf  Hf11  1  0.18822493  -0.01085851  0.00513229  1
  Hf  Hf12  1  0.29101534  0.09691563  0.36942408  1
  Hf  Hf13  1  0.60913246  0.81151280  -0.01132635  1
  Hf  Hf14  1  0.91695839  0.09694190  0.37566511  1
  Hf  Hf15  1  0.88893890  0.31311794  0.10610674  1
  Hf  Hf16  1  -0.01220548  0.41513522  0.23791671  1
  Hf  Hf17  1  0.70654504  0.49577113  0.87011082  1
  Hf  Hf18  1  0.10121597  0.30588922  0.10838520  1
  Hf  Hf19  1  0.80316933  0.80186452  0.74787954  1
  Hf  Hf20  1  0.49401384  0.30206264  0.37501725  1
  Hf  Hf21  1  0.19408304  0.59619485  0.51795728  1
  Hf  Hf22  1  0.00842601  0.40788462  0.51290320  1
  Hf  Hf23  1  0.60096817  0.00331566  -0.01388225  1
  Hf  Hf24  1  0.40739889  -0.00222191  0.25588953  1
  Hf  Hf25  1  0.19091794  0.19391767  0.49370950  1
  Hf  Hf26  1  0.00635253  0.81982393  0.01143006  1
  Hf  Hf27  1  0.09699323  0.70675355  0.63326282  1
  Hf  Hf28  1  0.80004430  -0.01349437  -0.00167443  1
  Hf  Hf29  1  0.60239167  0.80014045  0.75048035  1
  Hf  Hf30  1  0.60426195  -0.00196661  0.27608986  1
  Hf  Hf31  1  0.89663252  0.31317573  0.88453201  1
  Hf  Hf32  1  0.18762790  0.18917454  -0.01912962  1
  Hf  Hf33  1  0.81142469  0.00101575  0.50216237  1
  Hf  Hf34  1  0.29660235  0.50054922  0.87809859  1
  Hf  Hf35  1  0.28679898  0.68485046  0.38700412  1
  Hf  Hf36  1  0.69419333  0.29816033  0.14071729  1
  Hf  Hf37  1  0.90131995  0.70381857  0.88037514  1
  Hf  Hf38  1  0.50045746  0.29044170  0.61643720  1
  Hf  Hf39  1  0.10155767  0.09870145  0.14156226  1
  Zr  Zr40  1  0.20714846  0.81689024  0.73868994  1
  Zr  Zr41  1  0.70951179  0.29606123  0.62385564  1
  Zr  Zr42  1  0.40136162  0.18454198  0.75027426  1
  Zr  Zr43  1  0.00192562  0.61343386  0.01106373  1
  Zr  Zr44  1  0.70598203  0.49019237  0.14073848  1
  Zr  Zr45  1  0.39511949  0.40325710  0.73349898  1
  Zr  Zr46  1  0.50528604  0.69745160  0.61311725  1
  Zr  Zr47  1  0.50216264  0.30087641  0.87100655  1
  Zr  Zr48  1  0.29030245  0.89725643  0.38004899  1
  Zr  Zr49  1  0.50096390  0.50677497  0.87132513  1
  Zr  Zr50  1  0.31027544  0.71133929  0.61640749  1
  Zr  Zr51  1  0.30545249  0.31229047  0.38797656  1
  Zr  Zr52  1  0.29370154  0.30343495  0.88050235  1
  Zr  Zr53  1  0.90053382  0.50162735  0.38182951  1
  Zr  Zr54  1  0.00662979  0.20679398  0.76304873  1
  Zr  Zr55  1  0.50293166  0.70088117  0.13353349  1
  Zr  Zr56  1  0.09840495  0.30509852  0.37902770  1
  Zr  Zr57  1  0.71152896  0.88768603  0.14137929  1
  Zr  Zr58  1  0.89766951  0.71005195  0.61266140  1
  Zr  Zr59  1  0.39796753  0.79495041  0.25175636  1
  Zr  Zr60  1  0.29784655  0.08455734  0.86825763  1
  Zr  Zr61  1  0.49565131  0.70279748  0.87010483  1
  Zr  Zr62  1  0.29899832  0.09988727  0.12742819  1
  Zr  Zr63  1  0.88709283  0.72256547  0.12822768  1
  Zr  Zr64  1  0.89216425  0.50262105  0.88881159  1
  Zr  Zr65  1  0.92154166  0.89260599  0.37875451  1
  Zr  Zr66  1  0.69597226  0.89819358  0.61863475  1
  Zr  Zr67  1  0.69878789  0.69856429  0.13841055  1
  Zr  Zr68  1  0.48434462  0.68850173  0.38517384  1
  Zr  Zr69  1  0.09461921  0.50261527  0.87777015  1
  Zr  Zr70  1  0.19426117  0.78568011  0.23644590  1
  Zr  Zr71  1  0.11019981  0.51605803  0.36809128  1
  Zr  Zr72  1  0.60201598  0.19313769  -0.01410627  1
  Zr  Zr73  1  0.79327423  0.18946730  -0.01057507  1
  Zr  Zr74  1  0.30379027  0.69896128  0.87477903  1
  Zr  Zr75  1  0.30435948  0.89123296  0.88244793  1
  Zr  Zr76  1  0.59428588  -0.00155010  0.48241306  1
  Zr  Zr77  1  -0.00277016  0.20839869  0.24554037  1
  Zr  Zr78  1  0.70696594  0.30748435  0.36935376  1
  Zr  Zr79  1  0.70800398  0.68882309  0.87845476  1
  Ta  Ta80  1  0.80921230  -0.00496451  0.25954678  1
  Ta  Ta81  1  0.70821541  0.69247434  0.37478332  1
  Ta  Ta82  1  0.19498054  0.79620945  0.01020797  1
  Ta  Ta83  1  0.60050460  0.79934555  0.48254832  1
  Ta  Ta84  1  0.60179422  0.59249175  0.49081400  1
  Ta  Ta85  1  0.10113178  0.71065771  0.86534720  1
  Ta  Ta86  1  0.49611275  0.90583856  0.85845589  1
  Ta  Ta87  1  0.41265567  -0.00649928  0.00665815  1
  Ta  Ta88  1  0.39741006  0.20118525  0.24914406  1
  Ta  Ta89  1  0.69801083  0.69634270  0.61152431  1
  Ta  Ta90  1  0.90392762  0.90356775  0.87286326  1
  Ta  Ta91  1  0.18671546  0.39354384  0.74596761  1
  Ta  Ta92  1  -0.00138376  0.00608056  0.00889079  1
  Ta  Ta93  1  0.29674170  0.49726804  0.10605034  1
  Ta  Ta94  1  0.81391064  0.59552296  0.25260123  1
  Ta  Ta95  1  0.80799167  -0.00387164  0.74395182  1
  Ta  Ta96  1  0.90547127  0.09083708  0.87029832  1
  Ta  Ta97  1  0.40371758  0.59956406  0.73476219  1
  Ta  Ta98  1  0.10453213  0.10727503  0.63995974  1
  Ta  Ta99  1  0.37681555  0.59115320  0.24009765  1
  Ta  Ta100  1  0.09885163  0.29839127  0.62611415  1
  Ta  Ta101  1  0.80634765  0.19825764  0.75600144  1
  Ta  Ta102  1  -0.00098395  0.81397853  0.74344990  1
  Ta  Ta103  1  0.39373155  0.56076982  0.51519425  1
  Ta  Ta104  1  0.80373803  0.59299350  0.73051433  1
  Ta  Ta105  1  0.79731095  0.59570153  0.50075705  1
  Ta  Ta106  1  0.08747323  0.71459803  0.38318034  1
  Ta  Ta107  1  -0.00153424  0.60408024  0.50792019  1
  Ta  Ta108  1  0.59973540  0.80434298  0.27863121  1
  Ta  Ta109  1  0.48493389  0.49300591  0.36264613  1
  Ta  Ta110  1  0.50078820  0.49387773  0.13938045  1
  Ta  Ta111  1  0.10227612  0.50498911  0.11746236  1
  Ta  Ta112  1  0.18754856  0.81159900  0.50734697  1
  Ta  Ta113  1  0.29897010  0.30045868  0.10953935  1
  Ta  Ta114  1  0.49069025  0.89288829  0.61893180  1
  Ta  Ta115  1  0.51036049  0.90209860  0.13059636  1
  Ta  Ta116  1  0.21130144  0.41372039  0.51824557  1
  Ta  Ta117  1  0.60340092  0.39619059  -0.00143969  1
  Ta  Ta118  1  0.00696334  0.61551205  0.23896162  1
  Ta  Ta119  1  0.30304142  0.89856415  0.12340418  1
  Ti  Ti120  1  0.40167174  0.60161722  0.01296408  1
  Ti  Ti121  1  0.10008165  0.08580659  0.35996466  1
  Ti  Ti122  1  0.70809433  0.30440230  0.86482377  1
  Ti  Ti123  1  0.50303373  0.08608831  0.63130032  1
  Ti  Ti124  1  0.70258428  0.49599062  0.36516405  1
  Ti  Ti125  1  0.90608725  0.70116783  0.37682476  1
  Ti  Ti126  1  0.19990387  0.61012384  0.00487873  1
  Ti  Ti127  1  0.79959959  0.80185209  0.48974278  1
  Ti  Ti128  1  0.09517387  0.90885282  0.86572427  1
  Ti  Ti129  1  -0.00099342  -0.00169756  0.73564127  1
  Ti  Ti130  1  0.09323805  0.31437260  0.88640526  1
  Ti  Ti131  1  0.40138598  0.18345326  0.49917058  1
  Ti  Ti132  1  0.09868279  0.90617998  0.36047318  1
  Ti  Ti133  1  0.90056064  0.29708374  0.62285962  1
  Ti  Ti134  1  0.40463515  0.80166622  0.01214514  1
  Ti  Ti135  1  0.09502662  0.50372619  0.64178635  1
  Ti  Ti136  1  0.80252492  0.40824910  0.51641297  1
  Ti  Ti137  1  0.69870883  0.50385762  0.62755413  1
  Ti  Ti138  1  -0.01335669  0.40694986  0.73964605  1
  Ti  Ti139  1  0.80763179  0.20022343  0.24812921  1
  Ti  Ti140  1  -0.00773679  0.60589431  0.74750880  1
  Ti  Ti141  1  0.72282174  0.10772605  0.37701963  1
  Ti  Ti142  1  0.20510733  0.21104809  0.25235919  1
  Ti  Ti143  1  0.60063710  0.19085539  0.75677542  1
  Ti  Ti144  1  0.39707312  -0.00172761  0.49854441  1
  Ti  Ti145  1  0.18497288  0.00026606  0.50924370  1
  Ti  Ti146  1  0.39281279  -0.01501123  0.73479420  1
  Ti  Ti147  1  0.59466692  0.59649509  0.26424888  1
  Ti  Ti148  1  0.89830972  0.09667192  0.12677241  1
  Ti  Ti149  1  -0.00132743  0.19122305  -0.00787460  1
  Ti  Ti150  1  0.29426299  0.09438057  0.62483313  1
  Ti  Ti151  1  0.70201787  0.08662726  0.85346366  1
  Ti  Ti152  1  0.20167336  0.60138800  0.74907363  1
  Ti  Ti153  1  0.59347479  0.19045143  0.26925461  1
  Ti  Ti154  1  0.39132656  0.39813382  0.23941025  1
  Ti  Ti155  1  0.19631297  0.00223686  0.74340669  1
  Ti  Ti156  1  0.90453028  0.10489333  0.62678986  1
  Ti  Ti157  1  0.50651901  0.09766293  0.13542434  1
  Ti  Ti158  1  0.00292204  0.19067589  0.50780130  1
  Ti  Ti159  1  0.40803078  0.40293671  0.00488907  1
  Mo  Mo160  1  0.09064959  0.08797101  0.86199671  1
  Mo  Mo161  1  0.30154114  0.69625653  0.10718331  1
  Mo  Mo162  1  0.19443465  0.19964577  0.75952053  1
  Mo  Mo163  1  0.00502424  0.80827663  0.51049687  1
  Mo  Mo164  1  0.48491111  0.10440539  0.37339712  1
  Mo  Mo165  1  0.50876607  0.50252363  0.63054370  1
  Mo  Mo166  1  0.19856327  0.59908316  0.23546069  1
  Mo  Mo167  1  0.81196755  0.19547776  0.51081143  1
  Mo  Mo168  1  0.71197420  0.89521482  0.37943444  1
  Mo  Mo169  1  0.80331830  0.39962001  0.25392632  1
  Mo  Mo170  1  0.80172380  0.79676457  0.27695832  1
  Mo  Mo171  1  0.00051304  0.80023114  0.24280135  1
  Mo  Mo172  1  0.30281736  0.50076624  0.37237868  1
  Mo  Mo173  1  0.09975142  0.90242651  0.14074745  1
  Mo  Mo174  1  0.90332447  0.90670289  0.61634512  1
  Mo  Mo175  1  0.28936465  0.50039704  0.64832248  1
  Mo  Mo176  1  0.01442915  0.00673300  0.51441981  1
  Mo  Mo177  1  0.20030132  0.40340881  0.00019993  1
  Mo  Mo178  1  0.49453748  0.89656299  0.38756129  1
  Mo  Mo179  1  0.40484516  0.80365105  0.73909521  1
  Mo  Mo180  1  0.09754252  0.91151930  0.62844817  1
  Mo  Mo181  1  0.70510507  0.90332633  0.86018487  1
  Mo  Mo182  1  0.60709151  0.59988860  0.73172731  1
  Mo  Mo183  1  0.20179100  -0.00661167  0.24181907  1
  Mo  Mo184  1  0.39691680  0.39514692  0.51400035  1
  Mo  Mo185  1  0.09936082  0.70111373  0.12253674  1
  Mo  Mo186  1  0.80605537  0.39739930  0.73441796  1
  Mo  Mo187  1  0.89560992  0.51033334  0.11447960  1
  Mo  Mo188  1  0.79775895  0.60100589  0.01931623  1
  Mo  Mo189  1  0.30001445  0.91370894  0.60789753  1
  Mo  Mo190  1  0.89960302  0.50193641  0.62276884  1
  Mo  Mo191  1  0.39605783  0.80950942  0.49469601  1
  Mo  Mo192  1  0.49797929  0.08658104  0.85533958  1
  Mo  Mo193  1  0.59202524  0.40254538  0.26317176  1
  Mo  Mo194  1  0.78559181  0.40038972  0.00214565  1
  Mo  Mo195  1  0.80273112  0.80537819  -0.01576135  1
  Mo  Mo196  1  0.59618496  0.00078487  0.74938378  1
  Mo  Mo197  1  -0.00126573  0.40694579  0.01053695  1
  Mo  Mo198  1  0.90060510  0.90973730  0.13645324  1
  Mo  Mo199  1  -0.00110435  -0.00152618  0.23513850  1
