# generated using pymatgen
data_HfZrTaTiMo
_symmetry_space_group_name_H-M   'P 1'
_cell_length_a   15.84644759
_cell_length_b   15.83990740
_cell_length_c   15.43819447
_cell_angle_alpha   89.99802865
_cell_angle_beta   89.98153249
_cell_angle_gamma   89.96595126
_symmetry_Int_Tables_number   1
_chemical_formula_structural   HfZrTaTiMo
_chemical_formula_sum   'Hf40 Zr40 Ta40 Ti40 Mo40'
_cell_volume   3875.08260478
_cell_formula_units_Z   40
loop_
 _symmetry_equiv_pos_site_id
 _symmetry_equiv_pos_as_xyz
  1  'x, y, z'
loop_
 _atom_site_type_symbol
 _atom_site_label
 _atom_site_symmetry_multiplicity
 _atom_site_fract_x
 _atom_site_fract_y
 _atom_site_fract_z
 _atom_site_occupancy
  Hf  Hf0  1  0.39798607  -0.00326035  0.74501022  1
  Hf  Hf1  1  0.61658501  0.58500901  0.24981097  1
  Hf  Hf2  1  0.81019100  0.59543140  0.76273808  1
  Hf  Hf3  1  0.73081237  0.70141860  0.12219433  1
  Hf  Hf4  1  0.20540374  0.37914974  0.00254348  1
  Hf  Hf5  1  0.37715529  0.79819422  0.25691629  1
  Hf  Hf6  1  0.11078408  0.52119241  0.13060473  1
  Hf  Hf7  1  0.18033168  0.78563522  -0.01025488  1
  Hf  Hf8  1  0.28793641  0.70177557  0.61973850  1
  Hf  Hf9  1  0.51439281  0.49235565  0.62598090  1
  Hf  Hf10  1  0.79547375  0.39294723  0.47589096  1
  Hf  Hf11  1  0.30324650  0.89484760  0.87811242  1
  Hf  Hf12  1  0.39911847  0.79567168  0.74290979  1
  Hf  Hf13  1  0.20904594  0.41971176  0.26627692  1
  Hf  Hf14  1  0.59702404  0.39244677  -0.00391559  1
  Hf  Hf15  1  0.49992265  0.10254796  0.37749987  1
  Hf  Hf16  1  0.40537650  0.20563798  0.51248090  1
  Hf  Hf17  1  0.49069143  0.29999073  0.14033277  1
  Hf  Hf18  1  0.71274467  0.68438044  0.62431971  1
  Hf  Hf19  1  0.38304063  0.20210885  -0.00161579  1
  Hf  Hf20  1  0.70080731  0.90244108  0.87819530  1
  Hf  Hf21  1  0.39311772  0.79501096  0.49038389  1
  Hf  Hf22  1  0.49873612  0.90485059  0.37417685  1
  Hf  Hf23  1  0.10613890  0.51250979  0.88081773  1
  Hf  Hf24  1  0.10619755  0.29331329  0.14399966  1
  Hf  Hf25  1  0.50444223  0.69211623  0.36661391  1
  Hf  Hf26  1  0.40524518  0.59932957  0.74775099  1
  Hf  Hf27  1  0.60394517  0.79905452  0.24436723  1
  Hf  Hf28  1  0.49111543  0.68954352  0.13264906  1
  Hf  Hf29  1  0.49802188  0.90139993  0.61395232  1
  Hf  Hf30  1  0.40522911  0.39330505  0.74288984  1
  Hf  Hf31  1  0.19618208  0.40256608  0.49584041  1
  Hf  Hf32  1  0.38129155  0.58519196  0.26856059  1
  Hf  Hf33  1  0.10035328  0.30293940  0.85261122  1
  Hf  Hf34  1  0.80878355  0.00122393  0.00977779  1
  Hf  Hf35  1  0.28980781  0.68829713  0.87337980  1
  Hf  Hf36  1  0.70606567  0.28855597  0.61421209  1
  Hf  Hf37  1  0.81058829  0.80219891  0.74769373  1
  Hf  Hf38  1  0.60420649  0.59690955  0.76236885  1
  Hf  Hf39  1  0.79112998  0.40740989  0.25191037  1
  Zr  Zr40  1  0.59317061  -0.00519834  0.02780404  1
  Zr  Zr41  1  0.69992905  0.10443471  0.36824220  1
  Zr  Zr42  1  0.50054111  0.28612994  0.87263819  1
  Zr  Zr43  1  0.29447429  0.48675068  0.86343921  1
  Zr  Zr44  1  0.17673328  0.17161698  0.73871191  1
  Zr  Zr45  1  0.70432251  0.50133676  0.10804692  1
  Zr  Zr46  1  0.90424673  0.10244049  0.13307418  1
  Zr  Zr47  1  0.80217527  0.80235108  0.50159434  1
  Zr  Zr48  1  0.89145091  0.52140640  0.37542334  1
  Zr  Zr49  1  0.61744022  -0.00163275  0.50079078  1
  Zr  Zr50  1  0.27938580  0.30139569  0.64346609  1
  Zr  Zr51  1  0.50001668  0.08940190  0.87280857  1
  Zr  Zr52  1  0.29071483  0.07936184  0.61002238  1
  Zr  Zr53  1  0.19028919  0.20405261  0.49992200  1
  Zr  Zr54  1  0.40345001  -0.00794558  0.01606861  1
  Zr  Zr55  1  0.61260970  0.58275771  0.48959863  1
  Zr  Zr56  1  0.29155086  0.10212686  0.13375163  1
  Zr  Zr57  1  0.90415635  0.30565237  0.86022474  1
  Zr  Zr58  1  0.30512850  0.49259678  0.11299535  1
  Zr  Zr59  1  0.81511230  0.39346218  0.00600054  1
  Zr  Zr60  1  0.60175812  0.80062888  0.74487017  1
  Zr  Zr61  1  0.40227682  0.39349276  0.50537726  1
  Zr  Zr62  1  0.00860961  0.40626586  0.01563542  1
  Zr  Zr63  1  0.49653054  0.49088552  0.12935336  1
  Zr  Zr64  1  0.60882009  0.79250112  0.49362496  1
  Zr  Zr65  1  0.59178878  0.80335201  0.01684337  1
  Zr  Zr66  1  0.69893269  0.10019116  0.88885079  1
  Zr  Zr67  1  0.89808688  0.30748514  0.63133668  1
  Zr  Zr68  1  0.90868700  0.91801184  0.61415962  1
  Zr  Zr69  1  0.10058423  0.09971343  0.12441101  1
  Zr  Zr70  1  0.27921106  0.68891285  0.12294520  1
  Zr  Zr71  1  0.20002810  0.00037627  -0.00781439  1
  Zr  Zr72  1  0.39852678  0.59290690  0.49516176  1
  Zr  Zr73  1  0.89403834  0.51408881  0.60869355  1
  Zr  Zr74  1  0.10967910  0.91391601  0.60918966  1
  Zr  Zr75  1  0.70688070  0.70030440  0.89318491  1
  Zr  Zr76  1  0.61765484  0.39264377  0.76083439  1
  Zr  Zr77  1  0.00249017  0.81327296  0.75050792  1
  Zr  Zr78  1  0.00655365  -0.00771378  0.25974146  1
  Zr  Zr79  1  0.09384517  0.30073276  0.36179696  1
  Ta  Ta80  1  -0.00041862  0.20958732  0.00100537  1
  Ta  Ta81  1  0.50312272  0.47951208  0.36367884  1
  Ta  Ta82  1  0.19387053  0.80030716  0.75313144  1
  Ta  Ta83  1  0.40309871  0.19201748  0.73518943  1
  Ta  Ta84  1  0.00256796  0.02048831  0.75803482  1
  Ta  Ta85  1  0.71615197  0.89866558  0.13602052  1
  Ta  Ta86  1  0.40226793  0.59874148  -0.01154682  1
  Ta  Ta87  1  0.80770516  0.00948732  0.75157144  1
  Ta  Ta88  1  0.39409074  -0.00626597  0.24915714  1
  Ta  Ta89  1  0.91125679  0.51207446  0.88728547  1
  Ta  Ta90  1  0.30440315  0.09308716  0.38219395  1
  Ta  Ta91  1  0.09456244  0.70619362  0.61326464  1
  Ta  Ta92  1  0.59882850  -0.00241241  0.23929172  1
  Ta  Ta93  1  0.79491775  0.19572857  0.75375250  1
  Ta  Ta94  1  0.70809951  0.10431694  0.13539921  1
  Ta  Ta95  1  0.90257380  0.89908336  0.37439359  1
  Ta  Ta96  1  0.01545639  0.62466156  0.00802762  1
  Ta  Ta97  1  0.09326266  0.51024529  0.60823180  1
  Ta  Ta98  1  0.09542184  0.09587101  0.38256324  1
  Ta  Ta99  1  -0.00254160  0.40161757  0.48783363  1
  Ta  Ta100  1  0.60431450  0.19113626  0.73580041  1
  Ta  Ta101  1  0.30108487  0.29383817  0.14895548  1
  Ta  Ta102  1  0.39607877  0.79654910  0.01012381  1
  Ta  Ta103  1  0.90818668  0.88081339  0.12741074  1
  Ta  Ta104  1  0.89189117  0.11389467  0.61658482  1
  Ta  Ta105  1  0.50815788  0.09670300  0.61497505  1
  Ta  Ta106  1  0.72173269  0.68856738  0.36231452  1
  Ta  Ta107  1  0.70764318  0.28670307  0.88944219  1
  Ta  Ta108  1  0.28890071  0.50412127  0.62470329  1
  Ta  Ta109  1  -0.00060450  0.42730796  0.74402024  1
  Ta  Ta110  1  0.90618941  0.29531638  0.14402949  1
  Ta  Ta111  1  0.70803764  0.29098184  0.12359162  1
  Ta  Ta112  1  0.50630594  0.29159560  0.36094484  1
  Ta  Ta113  1  0.90779995  0.71242950  0.89454661  1
  Ta  Ta114  1  0.59778855  0.19445159  0.02016247  1
  Ta  Ta115  1  0.20278147  -0.01625868  0.26786850  1
  Ta  Ta116  1  0.08919904  0.51610585  0.38032138  1
  Ta  Ta117  1  0.30998275  0.29423672  0.36423543  1
  Ta  Ta118  1  -0.00511846  0.41433896  0.24952804  1
  Ta  Ta119  1  -0.00129289  0.61655392  0.74677018  1
  Ti  Ti120  1  0.19557838  0.60844120  0.48802840  1
  Ti  Ti121  1  0.50188287  0.89561759  0.87310200  1
  Ti  Ti122  1  0.08008823  0.30275993  0.62987740  1
  Ti  Ti123  1  0.07395288  0.09957061  0.59861298  1
  Ti  Ti124  1  -0.02624203  0.20653685  0.47548689  1
  Ti  Ti125  1  0.09215264  0.10570128  0.89025524  1
  Ti  Ti126  1  0.29367344  0.10301358  0.86884350  1
  Ti  Ti127  1  0.90274393  0.70581470  0.37491150  1
  Ti  Ti128  1  0.18633382  0.60115083  0.73861964  1
  Ti  Ti129  1  0.49970888  0.49799135  0.87755828  1
  Ti  Ti130  1  -0.00471740  0.61522090  0.24494554  1
  Ti  Ti131  1  0.60850489  0.00378574  0.73957571  1
  Ti  Ti132  1  0.59533359  0.59884357  -0.00370562  1
  Ti  Ti133  1  0.60703066  0.20241059  0.24147349  1
  Ti  Ti134  1  0.19740360  0.61534476  0.27593031  1
  Ti  Ti135  1  0.09050718  0.72290462  0.14457735  1
  Ti  Ti136  1  0.70924456  0.90873895  0.62900352  1
  Ti  Ti137  1  0.39751596  0.39118808  -0.01239540  1
  Ti  Ti138  1  0.59957437  0.38286401  0.49148848  1
  Ti  Ti139  1  0.09580576  0.90097269  0.12090997  1
  Ti  Ti140  1  0.19358964  -0.01126541  0.75936930  1
  Ti  Ti141  1  0.00102312  0.80356180  0.49672482  1
  Ti  Ti142  1  0.28833685  0.28825569  0.85243700  1
  Ti  Ti143  1  0.29305049  0.89693828  0.60801842  1
  Ti  Ti144  1  0.71482549  0.49255854  0.88680192  1
  Ti  Ti145  1  0.89952691  0.52364283  0.12162521  1
  Ti  Ti146  1  0.28352180  0.89067978  0.12536495  1
  Ti  Ti147  1  0.71156233  0.48686729  0.62673261  1
  Ti  Ti148  1  0.80907512  0.01383375  0.48906631  1
  Ti  Ti149  1  0.90456517  0.91107807  0.88499094  1
  Ti  Ti150  1  0.50683285  0.69434546  0.61731825  1
  Ti  Ti151  1  0.80870221  0.20749863  0.26910893  1
  Ti  Ti152  1  0.90243798  0.10919906  0.88337206  1
  Ti  Ti153  1  0.70969694  0.89524882  0.36087985  1
  Ti  Ti154  1  0.09309944  0.71267234  0.37733265  1
  Ti  Ti155  1  0.49197499  0.10493673  0.14352057  1
  Ti  Ti156  1  0.80535119  -0.00267724  0.25111387  1
  Ti  Ti157  1  0.20068973  0.18602422  0.26892808  1
  Ti  Ti158  1  0.49733144  0.70608440  0.88272339  1
  Ti  Ti159  1  0.09003575  0.90607812  0.88119406  1
  Mo  Mo160  1  -0.00086675  0.19989531  0.26106958  1
  Mo  Mo161  1  0.71135981  0.09456380  0.62239811  1
  Mo  Mo162  1  0.19650552  -0.00129049  0.48160019  1
  Mo  Mo163  1  0.09770933  0.89651816  0.39090099  1
  Mo  Mo164  1  0.18438233  0.41211714  0.72869462  1
  Mo  Mo165  1  0.69141672  0.29574614  0.37213515  1
  Mo  Mo166  1  0.59989741  0.20246641  0.50981817  1
  Mo  Mo167  1  0.39790793  0.39552955  0.26476103  1
  Mo  Mo168  1  0.40029740  -0.00074849  0.49845954  1
  Mo  Mo169  1  -0.00706149  0.00821949  0.48472962  1
  Mo  Mo170  1  0.79788411  0.60422969  0.49968881  1
  Mo  Mo171  1  0.79906038  0.19913985  0.48182486  1
  Mo  Mo172  1  0.90826616  0.70508703  0.61755911  1
  Mo  Mo173  1  0.89857285  0.10143214  0.36779475  1
  Mo  Mo174  1  0.90077772  0.30753010  0.35844004  1
  Mo  Mo175  1  -0.00017571  0.00431063  -0.00795945  1
  Mo  Mo176  1  0.91181988  0.70632997  0.11698762  1
  Mo  Mo177  1  0.81381377  0.60163262  -0.00997840  1
  Mo  Mo178  1  0.00104382  0.61421395  0.49826145  1
  Mo  Mo179  1  0.19622783  0.20529879  -0.01226479  1
  Mo  Mo180  1  0.60515350  0.38818275  0.25013283  1
  Mo  Mo181  1  0.80514692  0.81062723  -0.00454575  1
  Mo  Mo182  1  0.00100443  0.80040563  0.26293712  1
  Mo  Mo183  1  0.51018223  0.29247139  0.63269449  1
  Mo  Mo184  1  0.80587824  0.20119302  0.00641787  1
  Mo  Mo185  1  0.29732838  0.90339833  0.38679465  1
  Mo  Mo186  1  0.81255734  0.60208254  0.24191247  1
  Mo  Mo187  1  -0.00950527  0.18799659  0.74545701  1
  Mo  Mo188  1  0.80912939  0.80236734  0.26165125  1
  Mo  Mo189  1  0.28872066  0.70089445  0.38183883  1
  Mo  Mo190  1  0.18845392  0.80823065  0.26238182  1
  Mo  Mo191  1  0.19721144  0.59698709  -0.00156028  1
  Mo  Mo192  1  0.19620759  0.79790999  0.48680632  1
  Mo  Mo193  1  0.00251773  0.81271155  -0.00573502  1
  Mo  Mo194  1  0.69437411  0.49486646  0.37146506  1
  Mo  Mo195  1  0.39769456  0.19085494  0.25724334  1
  Mo  Mo196  1  0.48819629  0.89482464  0.14715989  1
  Mo  Mo197  1  0.80238994  0.40328835  0.76497361  1
  Mo  Mo198  1  0.29321988  0.49887954  0.39605195  1
  Mo  Mo199  1  0.09568712  0.70295213  0.85941669  1
