# generated using pymatgen
data_HfZrTaTiMo
_symmetry_space_group_name_H-M   'P 1'
_cell_length_a   15.84491792
_cell_length_b   15.83583162
_cell_length_c   15.41849187
_cell_angle_alpha   89.92126329
_cell_angle_beta   90.01887655
_cell_angle_gamma   90.00798784
_symmetry_Int_Tables_number   1
_chemical_formula_structural   HfZrTaTiMo
_chemical_formula_sum   'Hf40 Zr40 Ta40 Ti40 Mo40'
_cell_volume   3868.76479552
_cell_formula_units_Z   40
loop_
 _symmetry_equiv_pos_site_id
 _symmetry_equiv_pos_as_xyz
  1  'x, y, z'
loop_
 _atom_site_type_symbol
 _atom_site_label
 _atom_site_symmetry_multiplicity
 _atom_site_fract_x
 _atom_site_fract_y
 _atom_site_fract_z
 _atom_site_occupancy
  Hf  Hf0  1  0.47886820  0.90456506  0.12841600  1
  Hf  Hf1  1  0.69580238  0.29259134  0.86608893  1
  Hf  Hf2  1  0.78987185  0.60215160  0.23937196  1
  Hf  Hf3  1  0.90123182  0.69900954  0.37001381  1
  Hf  Hf4  1  0.80822148  -0.01016827  -0.00135414  1
  Hf  Hf5  1  0.90391941  0.09180043  0.86750342  1
  Hf  Hf6  1  0.38979260  0.41083828  0.74953223  1
  Hf  Hf7  1  0.68889324  0.49869835  0.37226560  1
  Hf  Hf8  1  0.39843714  0.40394975  0.25574011  1
  Hf  Hf9  1  0.20198329  0.19880279  0.25811082  1
  Hf  Hf10  1  0.79933545  0.19120330  0.74096932  1
  Hf  Hf11  1  0.31319054  0.09047387  0.13331217  1
  Hf  Hf12  1  0.49418760  0.50233712  0.11381135  1
  Hf  Hf13  1  -0.00213613  -0.00314894  0.72831062  1
  Hf  Hf14  1  0.01287929  -0.00901539  0.00481172  1
  Hf  Hf15  1  0.09006402  0.49436221  0.12000483  1
  Hf  Hf16  1  0.79828917  0.59379195  0.49596926  1
  Hf  Hf17  1  0.01239340  -0.00015680  0.51067218  1
  Hf  Hf18  1  0.89422335  0.69401778  0.61752750  1
  Hf  Hf19  1  0.91028613  0.10062296  0.13089044  1
  Hf  Hf20  1  0.50786717  0.08789501  0.40438636  1
  Hf  Hf21  1  0.90871643  0.32053444  0.64454597  1
  Hf  Hf22  1  0.39876301  0.20113660  0.51613505  1
  Hf  Hf23  1  0.79653070  0.59927632  0.75280370  1
  Hf  Hf24  1  0.30000423  0.70560776  0.63105601  1
  Hf  Hf25  1  -0.00044766  0.57871992  0.50144471  1
  Hf  Hf26  1  0.29954728  0.28890884  0.85989702  1
  Hf  Hf27  1  0.38820707  0.59971332  0.49178503  1
  Hf  Hf28  1  0.68875535  0.90579307  0.39010876  1
  Hf  Hf29  1  0.18984966  0.39173718  -0.02050315  1
  Hf  Hf30  1  0.59985984  0.00648255  0.24926259  1
  Hf  Hf31  1  0.39719689  0.80229366  0.48577953  1
  Hf  Hf32  1  0.60003504  0.40241370  0.51563773  1
  Hf  Hf33  1  -0.00114606  0.19386039  0.52083191  1
  Hf  Hf34  1  0.50088130  0.29836341  0.11282762  1
  Hf  Hf35  1  0.09245347  0.70596945  0.87899533  1
  Hf  Hf36  1  0.01318416  0.20628855  -0.01737421  1
  Hf  Hf37  1  0.29639012  0.30145254  0.38209640  1
  Hf  Hf38  1  0.90662244  0.30634029  0.12398712  1
  Hf  Hf39  1  0.60552072  0.20058035  0.24707782  1
  Zr  Zr40  1  0.82235069  0.00188435  0.51591833  1
  Zr  Zr41  1  0.71089674  0.10982480  0.39856014  1
  Zr  Zr42  1  0.79415057  0.19903032  0.24018105  1
  Zr  Zr43  1  0.19478608  0.59161723  0.76948384  1
  Zr  Zr44  1  0.21901094  -0.00756781  0.00766938  1
  Zr  Zr45  1  0.09376086  0.70189377  0.36169210  1
  Zr  Zr46  1  0.10069807  0.29861192  0.13018134  1
  Zr  Zr47  1  0.40910735  0.19347535  0.25905366  1
  Zr  Zr48  1  0.70091028  0.89724590  0.12391711  1
  Zr  Zr49  1  0.10681633  0.89697680  0.85905707  1
  Zr  Zr50  1  0.31498512  0.09304841  0.86111057  1
  Zr  Zr51  1  0.79095739  0.79752443  0.25825252  1
  Zr  Zr52  1  0.19220245  0.40618590  0.49676825  1
  Zr  Zr53  1  0.79456741  0.39379034  0.25056389  1
  Zr  Zr54  1  0.58586558  0.79230302  0.25077837  1
  Zr  Zr55  1  0.48633879  0.50856489  0.88621855  1
  Zr  Zr56  1  0.19673641  0.80422828  0.48580793  1
  Zr  Zr57  1  0.10723432  0.68462721  0.62076224  1
  Zr  Zr58  1  0.80798305  0.20316762  -0.00872024  1
  Zr  Zr59  1  0.50203369  0.52420918  0.62766200  1
  Zr  Zr60  1  0.19098157  0.81047166  0.01805683  1
  Zr  Zr61  1  0.60280224  0.00304181  0.74189625  1
  Zr  Zr62  1  0.31051587  0.70898676  0.12967626  1
  Zr  Zr63  1  -0.00481145  0.81142348  0.50404881  1
  Zr  Zr64  1  0.51231620  0.30090976  0.38396066  1
  Zr  Zr65  1  0.39633801  0.40608906  0.50702940  1
  Zr  Zr66  1  0.60104223  0.61370539  0.77105007  1
  Zr  Zr67  1  0.19847886  0.00133760  0.49733828  1
  Zr  Zr68  1  0.69778545  0.89112785  0.61216829  1
  Zr  Zr69  1  0.11508034  0.09899003  0.86268629  1
  Zr  Zr70  1  0.59657945  0.79958800  0.75816247  1
  Zr  Zr71  1  0.89937624  0.28339995  0.37898650  1
  Zr  Zr72  1  0.69767150  0.49100145  0.11595160  1
  Zr  Zr73  1  0.60388381  0.41022123  0.75706286  1
  Zr  Zr74  1  0.72854080  0.70619018  0.90240389  1
  Zr  Zr75  1  0.81034495  0.40010717  0.50172859  1
  Zr  Zr76  1  0.10873584  0.50745567  0.36195679  1
  Zr  Zr77  1  0.30091442  0.71109555  0.87537785  1
  Zr  Zr78  1  0.59483556  0.80316969  0.00222299  1
  Zr  Zr79  1  0.29874707  0.49597785  0.11453676  1
  Ta  Ta80  1  0.69683058  0.10072614  0.10550000  1
  Ta  Ta81  1  0.79866813  0.79626876  0.74220038  1
  Ta  Ta82  1  0.49755872  0.90297401  0.60247118  1
  Ta  Ta83  1  0.50354669  0.50784010  0.37189209  1
  Ta  Ta84  1  0.68443879  0.69389707  0.60915580  1
  Ta  Ta85  1  0.30586400  0.90127685  0.63024194  1
  Ta  Ta86  1  0.60222062  0.60514979  0.00415403  1
  Ta  Ta87  1  0.08981603  0.69835268  0.12869334  1
  Ta  Ta88  1  0.38676796  0.82058924  -0.00247421  1
  Ta  Ta89  1  -0.00770719  0.59410612  0.75995813  1
  Ta  Ta90  1  0.90862705  0.09508313  0.36632852  1
  Ta  Ta91  1  0.80081481  0.40064273  -0.01840413  1
  Ta  Ta92  1  0.69636751  0.09557359  0.88010926  1
  Ta  Ta93  1  -0.00530435  0.79052554  0.74050971  1
  Ta  Ta94  1  0.70855478  0.50143917  0.62870535  1
  Ta  Ta95  1  -0.00907523  0.60025030  -0.00464218  1
  Ta  Ta96  1  0.28084464  0.50870742  0.63096428  1
  Ta  Ta97  1  0.90538442  0.89852709  0.14179315  1
  Ta  Ta98  1  0.19033815  0.20095660  0.50772863  1
  Ta  Ta99  1  0.59851632  0.39710944  -0.01731004  1
  Ta  Ta100  1  0.50470188  0.09992574  0.10698492  1
  Ta  Ta101  1  0.08696195  0.48483959  0.64160435  1
  Ta  Ta102  1  0.40921601  0.60707294  0.25101253  1
  Ta  Ta103  1  0.79888702  0.00276951  0.25230648  1
  Ta  Ta104  1  0.89902071  0.88307795  0.86678932  1
  Ta  Ta105  1  0.00363742  0.39258923  0.26472517  1
  Ta  Ta106  1  -0.00676220  0.39844467  -0.02599079  1
  Ta  Ta107  1  0.50400610  0.10635743  0.87888264  1
  Ta  Ta108  1  0.19593546  0.80739048  0.24600927  1
  Ta  Ta109  1  0.20685748  0.19557122  0.00277988  1
  Ta  Ta110  1  0.59717665  -0.00129867  -0.00699134  1
  Ta  Ta111  1  0.48687113  0.91178685  0.87608966  1
  Ta  Ta112  1  0.10458502  0.09863976  0.13325320  1
  Ta  Ta113  1  0.29180720  0.69121855  0.36051169  1
  Ta  Ta114  1  0.30134848  0.29642455  0.12170593  1
  Ta  Ta115  1  -0.00920377  0.80120269  0.01117380  1
  Ta  Ta116  1  0.80000212  -0.00727495  0.74302183  1
  Ta  Ta117  1  0.60794815  0.20180363  0.53131126  1
  Ta  Ta118  1  0.49494177  0.28845453  0.86580057  1
  Ta  Ta119  1  0.19283246  0.60221271  0.00191319  1
  Ti  Ti120  1  0.30038565  0.89988145  0.36324345  1
  Ti  Ti121  1  0.59652584  0.60798275  0.23287598  1
  Ti  Ti122  1  0.48588247  0.70736462  0.89520920  1
  Ti  Ti123  1  0.29957821  0.50803771  0.88730862  1
  Ti  Ti124  1  0.40185943  0.61224936  0.75041122  1
  Ti  Ti125  1  0.41242503  0.80258531  0.74268813  1
  Ti  Ti126  1  0.59792185  0.39547913  0.24656105  1
  Ti  Ti127  1  0.89869501  0.49436096  0.11736778  1
  Ti  Ti128  1  0.70126807  0.29652871  0.39133680  1
  Ti  Ti129  1  0.20160560  0.39789489  0.25441216  1
  Ti  Ti130  1  0.39360771  0.39007331  -0.01023635  1
  Ti  Ti131  1  0.10383299  0.30783299  0.64341493  1
  Ti  Ti132  1  0.91470601  0.90395145  0.35658703  1
  Ti  Ti133  1  0.89062962  0.50555908  0.87578014  1
  Ti  Ti134  1  0.59498972  0.19023902  0.73587385  1
  Ti  Ti135  1  0.89989226  0.49764416  0.36134737  1
  Ti  Ti136  1  0.00606540  0.20128713  0.75015451  1
  Ti  Ti137  1  0.29226315  0.30724844  0.63177621  1
  Ti  Ti138  1  0.30377635  0.09726863  0.62115744  1
  Ti  Ti139  1  0.68615034  0.69585282  0.38956588  1
  Ti  Ti140  1  0.80159349  0.79926754  0.49362799  1
  Ti  Ti141  1  0.00561575  0.39241038  0.48829218  1
  Ti  Ti142  1  0.49522205  0.30086643  0.64307896  1
  Ti  Ti143  1  0.19722952  -0.00179821  0.25556810  1
  Ti  Ti144  1  0.50324092  0.69691429  0.38265320  1
  Ti  Ti145  1  0.30216363  0.09818450  0.38514052  1
  Ti  Ti146  1  0.20312770  0.19762509  0.73258714  1
  Ti  Ti147  1  0.41273885  0.00778052  0.73100583  1
  Ti  Ti148  1  0.70703056  0.30753344  0.63733572  1
  Ti  Ti149  1  0.20407549  0.59765729  0.23334832  1
  Ti  Ti150  1  0.88843230  0.70182932  0.11757373  1
  Ti  Ti151  1  0.30306463  0.90189866  0.84743195  1
  Ti  Ti152  1  0.70459983  0.90027917  0.87628302  1
  Ti  Ti153  1  0.09132327  0.10356048  0.36575802  1
  Ti  Ti154  1  0.69523218  0.29645029  0.10488720  1
  Ti  Ti155  1  0.39674206  0.19626495  -0.00077916  1
  Ti  Ti156  1  0.40654195  -0.00455823  0.27207919  1
  Ti  Ti157  1  0.20315980  0.00228818  0.73019795  1
  Ti  Ti158  1  -0.00971362  0.59707276  0.23656913  1
  Ti  Ti159  1  0.11260408  0.88549885  0.63576881  1
  Mo  Mo160  1  0.20336436  0.80330407  0.74470044  1
  Mo  Mo161  1  0.40456902  0.19869000  0.73141686  1
  Mo  Mo162  1  0.80170322  0.20224542  0.52437426  1
  Mo  Mo163  1  0.90247060  0.50001719  0.64059981  1
  Mo  Mo164  1  0.09588136  0.90721423  0.35477379  1
  Mo  Mo165  1  0.40327423  0.00124938  -0.00657234  1
  Mo  Mo166  1  0.39128002  -0.00318436  0.49815882  1
  Mo  Mo167  1  0.00210963  0.40465143  0.77467256  1
  Mo  Mo168  1  0.00534968  -0.00034587  0.24813194  1
  Mo  Mo169  1  0.00538438  0.19726990  0.25437115  1
  Mo  Mo170  1  0.09880449  0.29272811  0.37457576  1
  Mo  Mo171  1  0.60173790  0.00118345  0.51523180  1
  Mo  Mo172  1  0.39711590  0.61313955  0.00621317  1
  Mo  Mo173  1  0.19844081  0.39942840  0.75819309  1
  Mo  Mo174  1  0.30201469  0.50812977  0.35635257  1
  Mo  Mo175  1  0.80815245  0.59526691  0.01372264  1
  Mo  Mo176  1  0.49951699  0.71137977  0.61596228  1
  Mo  Mo177  1  0.49799718  0.90008499  0.38219997  1
  Mo  Mo178  1  0.81108215  0.80593824  0.01161556  1
  Mo  Mo179  1  0.59624124  0.59866641  0.49870308  1
  Mo  Mo180  1  0.09383497  0.50254318  0.88511738  1
  Mo  Mo181  1  0.09761940  0.90300094  0.14207016  1
  Mo  Mo182  1  -0.00269852  0.79543872  0.23459557  1
  Mo  Mo183  1  0.89898679  0.89089912  0.63779781  1
  Mo  Mo184  1  0.90612073  0.70216206  0.87860588  1
  Mo  Mo185  1  0.49540911  0.70159809  0.11422803  1
  Mo  Mo186  1  0.11027140  0.10539256  0.63321913  1
  Mo  Mo187  1  0.70072728  0.50198492  0.89153550  1
  Mo  Mo188  1  0.39842321  0.79842002  0.27159288  1
  Mo  Mo189  1  0.49795901  0.09816505  0.61810219  1
  Mo  Mo190  1  0.59818532  0.19989471  -0.00565759  1
  Mo  Mo191  1  0.90463100  0.10438820  0.63964634  1
  Mo  Mo192  1  0.70472889  0.10091597  0.62043072  1
  Mo  Mo193  1  0.80014166  0.40555420  0.76588901  1
  Mo  Mo194  1  0.10400889  0.29661831  0.85360411  1
  Mo  Mo195  1  0.90010244  0.30172875  0.85866265  1
  Mo  Mo196  1  0.30233040  0.90551598  0.15222630  1
  Mo  Mo197  1  0.69938859  0.69538081  0.11494306  1
  Mo  Mo198  1  0.59394419  0.79418371  0.49223839  1
  Mo  Mo199  1  0.19938985  0.59657961  0.50407432  1
