# generated using pymatgen
data_HfZrTaTiMo
_symmetry_space_group_name_H-M   'P 1'
_cell_length_a   15.84738510
_cell_length_b   15.83057851
_cell_length_c   15.40552994
_cell_angle_alpha   90.04045313
_cell_angle_beta   90.01105945
_cell_angle_gamma   90.03875354
_symmetry_Int_Tables_number   1
_chemical_formula_structural   HfZrTaTiMo
_chemical_formula_sum   'Hf40 Zr40 Ta40 Ti40 Mo40'
_cell_volume   3864.83381440
_cell_formula_units_Z   40
loop_
 _symmetry_equiv_pos_site_id
 _symmetry_equiv_pos_as_xyz
  1  'x, y, z'
loop_
 _atom_site_type_symbol
 _atom_site_label
 _atom_site_symmetry_multiplicity
 _atom_site_fract_x
 _atom_site_fract_y
 _atom_site_fract_z
 _atom_site_occupancy
  Hf  Hf0  1  0.29470662  0.69223408  0.38882719  1
  Hf  Hf1  1  0.30854516  0.30148425  0.88493416  1
  Hf  Hf2  1  0.80243180  -0.00199362  0.24436616  1
  Hf  Hf3  1  0.09626588  0.69641308  0.61511554  1
  Hf  Hf4  1  -0.01342627  0.60118902  0.25825480  1
  Hf  Hf5  1  0.30238123  0.91386422  0.37307328  1
  Hf  Hf6  1  0.40876081  0.19421777  0.74487641  1
  Hf  Hf7  1  0.40153690  0.59895101  0.51700003  1
  Hf  Hf8  1  0.69765078  0.90710582  0.89561170  1
  Hf  Hf9  1  0.60729082  0.20736599  0.25052881  1
  Hf  Hf10  1  0.09124123  0.69397529  0.39662331  1
  Hf  Hf11  1  0.80016882  0.01454835  0.74780757  1
  Hf  Hf12  1  0.29461997  0.10125035  0.12419576  1
  Hf  Hf13  1  0.09765884  0.89182518  0.11856890  1
  Hf  Hf14  1  0.09842539  0.90279414  0.38681449  1
  Hf  Hf15  1  0.29719721  0.89994321  0.12744495  1
  Hf  Hf16  1  0.28970705  0.70157735  0.11705895  1
  Hf  Hf17  1  0.01765392  0.19851851  0.24027366  1
  Hf  Hf18  1  0.20026392  0.20739732  0.73310231  1
  Hf  Hf19  1  0.60262137  0.40139082  0.49546893  1
  Hf  Hf20  1  0.90051775  0.31591294  0.13428469  1
  Hf  Hf21  1  0.19511071  0.40040380  -0.00219321  1
  Hf  Hf22  1  0.40759049  0.80181255  0.25468110  1
  Hf  Hf23  1  0.68414033  0.71724510  0.62766630  1
  Hf  Hf24  1  0.19040271  0.79482955  0.76044368  1
  Hf  Hf25  1  0.10109124  0.49622467  0.39552206  1
  Hf  Hf26  1  0.49541147  0.50540986  0.37565411  1
  Hf  Hf27  1  0.08836070  0.49703267  0.11773013  1
  Hf  Hf28  1  0.59851965  -0.00818781  0.25036574  1
  Hf  Hf29  1  0.69978860  0.68835915  0.12192261  1
  Hf  Hf30  1  -0.00155835  -0.00184676  0.74061540  1
  Hf  Hf31  1  0.79758679  0.39879928  0.50253235  1
  Hf  Hf32  1  -0.00067105  -0.00258999  0.24400228  1
  Hf  Hf33  1  0.50059336  0.10491198  0.12013258  1
  Hf  Hf34  1  0.90704851  0.10825141  0.88111883  1
  Hf  Hf35  1  0.19215782  0.79594399  0.25920302  1
  Hf  Hf36  1  0.60116726  0.78932841  0.26067539  1
  Hf  Hf37  1  0.60961995  0.19564324  0.75678339  1
  Hf  Hf38  1  0.10339330  0.89732221  0.60992827  1
  Hf  Hf39  1  0.18212085  0.58499464  0.75476688  1
  Zr  Zr40  1  0.40277641  0.79306033  0.74043856  1
  Zr  Zr41  1  0.40668825  -0.00504749  0.74762080  1
  Zr  Zr42  1  0.48914941  0.49533199  0.87317383  1
  Zr  Zr43  1  0.80541691  0.00467825  0.01465429  1
  Zr  Zr44  1  0.50392983  0.29906320  0.89831060  1
  Zr  Zr45  1  0.80290185  0.40941429  0.26582178  1
  Zr  Zr46  1  0.90723261  0.71099703  0.84736677  1
  Zr  Zr47  1  0.40484010  0.60504475  0.23785013  1
  Zr  Zr48  1  0.30681659  0.10966430  0.89676536  1
  Zr  Zr49  1  0.40260888  0.60054292  0.00611954  1
  Zr  Zr50  1  0.71202826  0.88804485  0.38810451  1
  Zr  Zr51  1  -0.01552337  0.40591465  -0.01351794  1
  Zr  Zr52  1  0.51045012  0.09556125  0.60851846  1
  Zr  Zr53  1  0.79399339  0.81956036  0.74298300  1
  Zr  Zr54  1  0.80767523  0.21537821  0.00575557  1
  Zr  Zr55  1  0.30299027  0.89332459  0.88635030  1
  Zr  Zr56  1  0.08675390  0.69570304  0.11896799  1
  Zr  Zr57  1  0.39592575  0.40622717  0.23616741  1
  Zr  Zr58  1  0.70638302  0.69861686  0.86489108  1
  Zr  Zr59  1  0.21192069  0.38410148  0.52396534  1
  Zr  Zr60  1  0.42417359  0.79509154  0.49261868  1
  Zr  Zr61  1  0.20117275  -0.00127949  0.75807486  1
  Zr  Zr62  1  0.28559741  0.11343012  0.36907371  1
  Zr  Zr63  1  0.09941264  0.10021644  0.88511462  1
  Zr  Zr64  1  0.80502338  0.19964169  0.49006462  1
  Zr  Zr65  1  0.91612839  0.30244295  0.37781850  1
  Zr  Zr66  1  0.09932941  0.29433540  0.87458594  1
  Zr  Zr67  1  0.90330257  0.51937931  0.84922039  1
  Zr  Zr68  1  0.77827772  0.40740540  -0.02120794  1
  Zr  Zr69  1  0.40416164  0.39800607  0.50992478  1
  Zr  Zr70  1  0.60495460  -0.00362675  0.75324049  1
  Zr  Zr71  1  0.11640580  0.28958766  0.38636433  1
  Zr  Zr72  1  0.02375477  0.40816841  0.73649039  1
  Zr  Zr73  1  0.48372574  0.09364822  0.36278928  1
  Zr  Zr74  1  0.29838969  0.09346930  0.60557220  1
  Zr  Zr75  1  0.60304053  0.20554350  0.48006995  1
  Zr  Zr76  1  0.19724564  0.58744019  0.25177572  1
  Zr  Zr77  1  0.29337184  0.88901365  0.60424636  1
  Zr  Zr78  1  0.51149015  0.09572590  0.90497017  1
  Zr  Zr79  1  0.61137617  0.58615729  -0.01282323  1
  Ta  Ta80  1  0.69565033  0.90926521  0.60695842  1
  Ta  Ta81  1  -0.00117925  0.19418897  0.72969447  1
  Ta  Ta82  1  -0.01041308  0.00649482  0.50530210  1
  Ta  Ta83  1  0.19295492  -0.00403836  -0.00009753  1
  Ta  Ta84  1  -0.01549268  0.80126757  0.50539557  1
  Ta  Ta85  1  0.60406746  0.40492537  0.25382369  1
  Ta  Ta86  1  0.59377950  0.78760241  0.00109857  1
  Ta  Ta87  1  0.29897457  0.49963463  0.64354498  1
  Ta  Ta88  1  0.60413005  0.39773147  0.75669004  1
  Ta  Ta89  1  0.39155795  0.21419290  0.49508378  1
  Ta  Ta90  1  0.50432968  0.50235509  0.63718601  1
  Ta  Ta91  1  0.88411656  0.70649111  0.38787394  1
  Ta  Ta92  1  0.59608484  0.60223787  0.75147604  1
  Ta  Ta93  1  0.50121281  0.89601534  0.11716663  1
  Ta  Ta94  1  0.39240764  0.21140464  0.24037975  1
  Ta  Ta95  1  0.19117851  0.59708117  -0.01678558  1
  Ta  Ta96  1  0.89840565  0.30165265  0.63116751  1
  Ta  Ta97  1  0.49157186  0.30389865  0.36313998  1
  Ta  Ta98  1  0.30128549  0.68824991  0.87159264  1
  Ta  Ta99  1  0.08323762  0.88971777  0.88469216  1
  Ta  Ta100  1  0.19867941  0.38636187  0.24241476  1
  Ta  Ta101  1  0.50259255  0.89420982  0.89126395  1
  Ta  Ta102  1  0.59296635  0.61509946  0.50022963  1
  Ta  Ta103  1  0.81519593  0.60378069  -0.00135666  1
  Ta  Ta104  1  0.69541197  0.89226841  0.11837495  1
  Ta  Ta105  1  0.80349524  0.79446260  0.24011813  1
  Ta  Ta106  1  0.79368243  0.61095382  0.51344719  1
  Ta  Ta107  1  0.90026023  0.50863077  0.62380871  1
  Ta  Ta108  1  0.70035530  0.29824859  0.63304899  1
  Ta  Ta109  1  0.79779616  0.40124449  0.74722756  1
  Ta  Ta110  1  0.90314609  0.51187222  0.39934926  1
  Ta  Ta111  1  0.80027743  0.20117146  0.25339504  1
  Ta  Ta112  1  0.80263171  0.79380398  0.00692560  1
  Ta  Ta113  1  0.90298504  0.90347790  0.88300032  1
  Ta  Ta114  1  0.09784005  0.09986959  0.38951921  1
  Ta  Ta115  1  0.40305334  0.39158654  0.74137050  1
  Ta  Ta116  1  0.70153806  0.51271336  0.38635105  1
  Ta  Ta117  1  0.69682358  0.50463014  0.62962419  1
  Ta  Ta118  1  0.60319690  0.59749471  0.25458977  1
  Ta  Ta119  1  0.70327564  0.09937159  0.60820633  1
  Ti  Ti120  1  0.10380437  0.09643947  0.60794445  1
  Ti  Ti121  1  0.29741234  0.29827308  0.11078807  1
  Ti  Ti122  1  0.80105447  0.19969937  0.74481803  1
  Ti  Ti123  1  0.01117269  0.20686139  0.01861857  1
  Ti  Ti124  1  0.90342432  0.10696700  0.12714877  1
  Ti  Ti125  1  0.70528199  0.09437929  0.37553848  1
  Ti  Ti126  1  0.90647166  0.09893287  0.37081961  1
  Ti  Ti127  1  0.19313402  0.79173571  -0.01464364  1
  Ti  Ti128  1  0.40015101  -0.00601463  0.00905496  1
  Ti  Ti129  1  0.80797983  0.00349054  0.50089488  1
  Ti  Ti130  1  0.40846937  -0.00555448  0.49911500  1
  Ti  Ti131  1  0.90070086  0.88825390  0.12175640  1
  Ti  Ti132  1  0.29423714  0.49856907  0.11484623  1
  Ti  Ti133  1  0.59287856  -0.01231270  0.48269385  1
  Ti  Ti134  1  0.51212075  0.49783232  0.11564957  1
  Ti  Ti135  1  -0.01380113  0.78490876  0.00110807  1
  Ti  Ti136  1  0.89397223  0.51249420  0.12408218  1
  Ti  Ti137  1  0.50593722  0.31028394  0.11830125  1
  Ti  Ti138  1  0.89866952  0.89868190  0.37951445  1
  Ti  Ti139  1  0.29051668  0.69468468  0.62323347  1
  Ti  Ti140  1  0.29501530  0.48912836  0.38062903  1
  Ti  Ti141  1  0.70308742  0.49131880  0.12915621  1
  Ti  Ti142  1  -0.00032820  0.00114666  0.01133201  1
  Ti  Ti143  1  0.52189298  0.88135241  0.62566463  1
  Ti  Ti144  1  -0.01018618  0.79630280  0.25862277  1
  Ti  Ti145  1  0.00193091  0.39798872  0.51750003  1
  Ti  Ti146  1  0.90060903  0.29912882  0.85455868  1
  Ti  Ti147  1  0.29897653  0.49469669  0.86602259  1
  Ti  Ti148  1  0.00766508  0.40639261  0.25702986  1
  Ti  Ti149  1  0.70358738  0.10737116  0.89405471  1
  Ti  Ti150  1  0.79579209  0.60455973  0.25970001  1
  Ti  Ti151  1  0.62221743  0.22198891  0.01317698  1
  Ti  Ti152  1  0.70123851  0.10290543  0.12434079  1
  Ti  Ti153  1  0.89645733  0.90028716  0.62133384  1
  Ti  Ti154  1  0.40368503  0.79056551  0.00275162  1
  Ti  Ti155  1  0.50843906  0.29674871  0.62460326  1
  Ti  Ti156  1  0.49527309  0.69975294  0.86327752  1
  Ti  Ti157  1  0.08340769  0.68919251  0.87122123  1
  Ti  Ti158  1  0.18688574  0.01179396  0.24417588  1
  Ti  Ti159  1  0.00070688  0.19983152  0.51719475  1
  Mo  Mo160  1  0.69992003  0.30659202  0.36203469  1
  Mo  Mo161  1  0.50306689  0.69272157  0.36802876  1
  Mo  Mo162  1  0.20877780  0.39765879  0.75058246  1
  Mo  Mo163  1  0.89343299  0.69897719  0.13433178  1
  Mo  Mo164  1  0.10196567  0.49916427  0.60783033  1
  Mo  Mo165  1  0.09815088  0.09541667  0.11088291  1
  Mo  Mo166  1  0.39370975  0.59828215  0.74445088  1
  Mo  Mo167  1  0.19622721  0.20128483  0.01536663  1
  Mo  Mo168  1  0.89494092  0.70626866  0.62860652  1
  Mo  Mo169  1  0.50137177  0.69774437  0.63919567  1
  Mo  Mo170  1  0.09669850  0.50380470  0.88386382  1
  Mo  Mo171  1  0.00109721  0.81029632  0.74019294  1
  Mo  Mo172  1  0.40350950  0.20650930  0.02287280  1
  Mo  Mo173  1  0.60119326  0.79859396  0.48553698  1
  Mo  Mo174  1  0.20177110  0.79487112  0.48852873  1
  Mo  Mo175  1  0.31075554  0.29515097  0.63979584  1
  Mo  Mo176  1  0.09967125  0.29225780  0.61929891  1
  Mo  Mo177  1  0.39855391  0.40526282  0.01784060  1
  Mo  Mo178  1  0.10055575  0.30314042  0.12275389  1
  Mo  Mo179  1  0.19782354  0.20500310  0.23240157  1
  Mo  Mo180  1  0.60315958  -0.00410382  0.01445011  1
  Mo  Mo181  1  0.50025268  0.90353439  0.36764982  1
  Mo  Mo182  1  0.89772299  0.10190389  0.62193166  1
  Mo  Mo183  1  0.60451950  0.39999897  0.00230141  1
  Mo  Mo184  1  0.19569853  0.00057019  0.48891385  1
  Mo  Mo185  1  0.20038576  0.19781791  0.51295580  1
  Mo  Mo186  1  0.80290088  0.80474692  0.51596473  1
  Mo  Mo187  1  0.30395518  0.30288598  0.36213796  1
  Mo  Mo188  1  0.70144848  0.50229731  0.85081610  1
  Mo  Mo189  1  -0.00991215  0.60024058  0.50963344  1
  Mo  Mo190  1  0.39844510  -0.00011944  0.23267147  1
  Mo  Mo191  1  0.70414259  0.69405320  0.38185050  1
  Mo  Mo192  1  0.79471432  0.60376146  0.72439204  1
  Mo  Mo193  1  0.00030134  0.60666226  0.72567108  1
  Mo  Mo194  1  0.20510992  0.58828044  0.51106960  1
  Mo  Mo195  1  0.50454928  0.69980699  0.12566654  1
  Mo  Mo196  1  0.70511671  0.29574336  0.85717108  1
  Mo  Mo197  1  0.59441482  0.80589491  0.76940885  1
  Mo  Mo198  1  0.70058398  0.30746121  0.14177332  1
  Mo  Mo199  1  -0.00709390  0.60405008  0.00117952  1
