# generated using pymatgen
data_HfZrTaTiMo
_symmetry_space_group_name_H-M   'P 1'
_cell_length_a   15.85633899
_cell_length_b   15.82716767
_cell_length_c   15.41598333
_cell_angle_alpha   90.01593304
_cell_angle_beta   90.05736036
_cell_angle_gamma   90.26006141
_symmetry_Int_Tables_number   1
_chemical_formula_structural   HfZrTaTiMo
_chemical_formula_sum   'Hf40 Zr40 Ta40 Ti40 Mo40'
_cell_volume   3868.76765772
_cell_formula_units_Z   40
loop_
 _symmetry_equiv_pos_site_id
 _symmetry_equiv_pos_as_xyz
  1  'x, y, z'
loop_
 _atom_site_type_symbol
 _atom_site_label
 _atom_site_symmetry_multiplicity
 _atom_site_fract_x
 _atom_site_fract_y
 _atom_site_fract_z
 _atom_site_occupancy
  Hf  Hf0  1  0.40688133  0.00101810  -0.01078870  1
  Hf  Hf1  1  0.09133943  0.50011320  0.37950699  1
  Hf  Hf2  1  -0.00435962  0.79563453  0.48673294  1
  Hf  Hf3  1  0.00545361  0.79528702  0.00425104  1
  Hf  Hf4  1  0.70313640  0.89072473  0.36141656  1
  Hf  Hf5  1  0.20070097  0.79036045  0.01655068  1
  Hf  Hf6  1  0.09018114  0.30234080  0.62222519  1
  Hf  Hf7  1  0.68885774  0.69224064  0.87294916  1
  Hf  Hf8  1  0.01856295  0.01299945  -0.00798393  1
  Hf  Hf9  1  0.70370431  0.10237362  0.11179975  1
  Hf  Hf10  1  0.19917254  0.60698536  0.50319155  1
  Hf  Hf11  1  0.20711237  0.60217688  0.74485557  1
  Hf  Hf12  1  0.09088966  0.10961071  0.62942578  1
  Hf  Hf13  1  0.59912811  0.19147171  0.50350324  1
  Hf  Hf14  1  0.49893933  0.90244536  0.63144193  1
  Hf  Hf15  1  0.41413778  0.80037344  0.49096989  1
  Hf  Hf16  1  0.49784631  0.30327474  0.12651907  1
  Hf  Hf17  1  0.08770828  0.30762943  0.11974411  1
  Hf  Hf18  1  0.20197098  0.00441603  0.74284616  1
  Hf  Hf19  1  0.09492646  0.29835042  0.39199045  1
  Hf  Hf20  1  0.21146366  0.00088461  0.51173005  1
  Hf  Hf21  1  0.19360829  0.39706624  0.25509700  1
  Hf  Hf22  1  0.40270987  0.78763536  0.00470993  1
  Hf  Hf23  1  0.79058891  -0.01511348  0.50831423  1
  Hf  Hf24  1  0.09064094  0.70964595  0.63790471  1
  Hf  Hf25  1  0.00410936  0.01689840  0.23976189  1
  Hf  Hf26  1  0.79281090  0.80258444  0.76099017  1
  Hf  Hf27  1  0.30404816  0.68591832  0.14884125  1
  Hf  Hf28  1  0.21486005  0.40724790  0.73913390  1
  Hf  Hf29  1  0.31210046  0.69379371  0.37016751  1
  Hf  Hf30  1  0.20092613  0.80179023  0.25381537  1
  Hf  Hf31  1  0.59251956  0.60826408  0.01758913  1
  Hf  Hf32  1  0.89657157  0.11124375  0.10099807  1
  Hf  Hf33  1  0.61483201  0.41079228  0.24508780  1
  Hf  Hf34  1  0.61667688  0.79952068  0.51508662  1
  Hf  Hf35  1  -0.00429085  0.40237267  -0.02101192  1
  Hf  Hf36  1  0.78493510  0.58900040  0.23119587  1
  Hf  Hf37  1  0.60778113  0.20229910  0.24032358  1
  Hf  Hf38  1  0.08692984  0.50294632  0.62227675  1
  Hf  Hf39  1  0.41040105  0.00681133  0.76442952  1
  Zr  Zr40  1  0.70309132  0.09626630  0.37230836  1
  Zr  Zr41  1  0.69579635  0.30219326  0.88115625  1
  Zr  Zr42  1  -0.00826316  0.21082374  0.24419127  1
  Zr  Zr43  1  0.90466767  0.89324668  0.63786784  1
  Zr  Zr44  1  0.69689447  0.69479683  0.36611904  1
  Zr  Zr45  1  0.01465903  0.60110099  -0.00290017  1
  Zr  Zr46  1  0.21266588  0.40021419  0.50791058  1
  Zr  Zr47  1  0.49955632  0.30175230  0.37308130  1
  Zr  Zr48  1  -0.00011061  -0.00381053  0.50485872  1
  Zr  Zr49  1  0.90208090  0.90629228  0.11409249  1
  Zr  Zr50  1  0.90552683  0.48986721  0.12166874  1
  Zr  Zr51  1  0.70790726  0.30099177  0.37787117  1
  Zr  Zr52  1  0.10830527  0.89981588  0.87502075  1
  Zr  Zr53  1  0.89210679  0.09979967  0.63961269  1
  Zr  Zr54  1  0.48016824  0.48496804  0.60702253  1
  Zr  Zr55  1  0.89674732  0.89566986  0.36120798  1
  Zr  Zr56  1  0.79098875  0.40350423  0.51508605  1
  Zr  Zr57  1  0.19641036  0.40622873  -0.00069126  1
  Zr  Zr58  1  0.48842594  0.69975128  0.85909996  1
  Zr  Zr59  1  0.29616556  0.50083141  0.12930791  1
  Zr  Zr60  1  0.39462425  0.19336009  -0.00094287  1
  Zr  Zr61  1  0.68661722  0.09366304  0.87232162  1
  Zr  Zr62  1  0.30328732  0.88161564  0.86651591  1
  Zr  Zr63  1  0.69675837  0.28555042  0.63739074  1
  Zr  Zr64  1  0.89888526  0.69819547  0.63367442  1
  Zr  Zr65  1  0.49955329  0.51268393  0.38203046  1
  Zr  Zr66  1  0.60010120  0.80610779  0.00866533  1
  Zr  Zr67  1  0.19494721  0.19120381  0.00776225  1
  Zr  Zr68  1  0.31164361  0.90963870  0.14096089  1
  Zr  Zr69  1  0.88618963  0.50045374  0.37642150  1
  Zr  Zr70  1  0.10544597  0.91201559  0.35981510  1
  Zr  Zr71  1  0.90573611  0.29525433  0.62945803  1
  Zr  Zr72  1  0.10412516  0.11102370  0.38754544  1
  Zr  Zr73  1  0.10584236  0.29414397  0.85922379  1
  Zr  Zr74  1  0.78563091  0.58830609  0.74406820  1
  Zr  Zr75  1  0.59520023  0.40258562  0.73699551  1
  Zr  Zr76  1  0.20179829  0.81106305  0.49400388  1
  Zr  Zr77  1  0.48819776  0.50455212  0.13018391  1
  Zr  Zr78  1  0.50487627  0.49990633  0.87847401  1
  Zr  Zr79  1  0.31103376  0.71310225  0.63006012  1
  Ta  Ta80  1  0.90094576  0.49926274  0.62179695  1
  Ta  Ta81  1  0.40087216  0.58956623  0.73500796  1
  Ta  Ta82  1  0.90108478  0.29733609  0.39175928  1
  Ta  Ta83  1  0.40033391  0.19600174  0.49705877  1
  Ta  Ta84  1  0.89683074  0.10382267  0.38086493  1
  Ta  Ta85  1  0.80040159  0.79255010  0.22312277  1
  Ta  Ta86  1  0.89918074  0.89955907  0.88124335  1
  Ta  Ta87  1  0.29619042  0.28847617  0.36976496  1
  Ta  Ta88  1  0.50520681  0.10170283  0.63239382  1
  Ta  Ta89  1  0.49063579  0.09089021  0.13893524  1
  Ta  Ta90  1  0.50905860  0.89656654  0.36206082  1
  Ta  Ta91  1  0.30205032  0.30059932  0.13450588  1
  Ta  Ta92  1  0.58800568  0.19299108  0.00350336  1
  Ta  Ta93  1  0.39807794  0.39753460  -0.00569670  1
  Ta  Ta94  1  0.90146385  0.69896012  0.87563621  1
  Ta  Ta95  1  0.10831566  0.70644677  0.85907103  1
  Ta  Ta96  1  -0.01038838  0.40583187  0.76305434  1
  Ta  Ta97  1  0.69452819  0.49624715  0.89018506  1
  Ta  Ta98  1  0.19585825  0.19319048  0.23700064  1
  Ta  Ta99  1  0.41091429  0.21024145  0.75120952  1
  Ta  Ta100  1  0.21238211  0.20602310  0.73359883  1
  Ta  Ta101  1  0.40462283  0.00069682  0.48971913  1
  Ta  Ta102  1  0.79978502  0.60287736  0.00225146  1
  Ta  Ta103  1  0.50032532  0.09548932  0.36515974  1
  Ta  Ta104  1  0.79767313  0.79480797  0.00047822  1
  Ta  Ta105  1  0.29922555  0.09551959  0.36665088  1
  Ta  Ta106  1  0.49779430  0.70143823  0.15482554  1
  Ta  Ta107  1  0.30588674  0.30453150  0.86868165  1
  Ta  Ta108  1  -0.00115159  0.00284664  0.76470695  1
  Ta  Ta109  1  0.31014202  0.50889944  0.88017546  1
  Ta  Ta110  1  0.89583152  0.10197086  0.87607651  1
  Ta  Ta111  1  0.29445466  0.10832806  0.86211885  1
  Ta  Ta112  1  0.80290099  0.00583717  0.24038946  1
  Ta  Ta113  1  -0.01117827  0.60439437  0.49247972  1
  Ta  Ta114  1  0.60551958  0.80017422  0.73836173  1
  Ta  Ta115  1  0.31645191  0.10332212  0.62940349  1
  Ta  Ta116  1  0.68994558  0.50728410  0.39112441  1
  Ta  Ta117  1  0.10715886  0.90768112  0.12974138  1
  Ta  Ta118  1  0.60572281  0.00045466  0.24284589  1
  Ta  Ta119  1  0.50020764  0.89797631  0.14456855  1
  Ti  Ti120  1  0.33034289  0.31289299  0.62524404  1
  Ti  Ti121  1  -0.01054936  0.39862824  0.25477583  1
  Ti  Ti122  1  0.10383198  0.51858080  0.14113384  1
  Ti  Ti123  1  -0.00013772  0.79405640  0.23714790  1
  Ti  Ti124  1  0.51093312  0.69855393  0.35838905  1
  Ti  Ti125  1  0.80146547  0.20089599  0.76524617  1
  Ti  Ti126  1  0.21497256  0.20066328  0.51701130  1
  Ti  Ti127  1  0.50376990  0.29855232  0.87921333  1
  Ti  Ti128  1  0.20851154  0.60893491  -0.00940933  1
  Ti  Ti129  1  0.90392513  0.69187158  0.11957376  1
  Ti  Ti130  1  0.79933580  0.18959833  0.50729441  1
  Ti  Ti131  1  0.88641569  0.50329167  0.87722772  1
  Ti  Ti132  1  0.70059469  0.48712814  0.09943260  1
  Ti  Ti133  1  0.79854970  0.40289937  0.75042418  1
  Ti  Ti134  1  0.79007571  0.61167075  0.51169154  1
  Ti  Ti135  1  -0.00419577  0.60555346  0.25270885  1
  Ti  Ti136  1  0.39448544  0.40011722  0.26072585  1
  Ti  Ti137  1  0.88715443  0.70107029  0.36747753  1
  Ti  Ti138  1  0.70008828  0.90167361  0.12570377  1
  Ti  Ti139  1  0.59734134  -0.00405420  0.50132603  1
  Ti  Ti140  1  0.59711767  0.39254566  0.50702234  1
  Ti  Ti141  1  0.10786169  0.50539856  0.86569571  1
  Ti  Ti142  1  0.88463851  0.29976763  0.09747367  1
  Ti  Ti143  1  0.69335837  0.08908190  0.64267866  1
  Ti  Ti144  1  0.79047990  -0.00979181  0.76124058  1
  Ti  Ti145  1  0.59136428  -0.00110974  0.00583725  1
  Ti  Ti146  1  -0.00639717  0.59666501  0.76122123  1
  Ti  Ti147  1  0.09718782  0.69593568  0.36341285  1
  Ti  Ti148  1  0.30908335  0.90172763  0.63546602  1
  Ti  Ti149  1  0.80119918  0.38884371  0.24399572  1
  Ti  Ti150  1  0.79121358  -0.00861528  -0.01183296  1
  Ti  Ti151  1  -0.00126326  0.20455503  -0.02124543  1
  Ti  Ti152  1  0.80543808  0.20240550  0.24620345  1
  Ti  Ti153  1  0.59449500  0.60919221  0.52439181  1
  Ti  Ti154  1  0.09853402  0.89355698  0.64213315  1
  Ti  Ti155  1  0.70490507  0.30148964  0.10121113  1
  Ti  Ti156  1  0.51868757  0.90102687  0.86366851  1
  Ti  Ti157  1  0.30340483  0.50151033  0.38070495  1
  Ti  Ti158  1  0.21083240  0.00919405  0.00756322  1
  Ti  Ti159  1  0.39454875  0.19583812  0.24911275  1
  Mo  Mo160  1  0.70198174  0.90420783  0.62800082  1
  Mo  Mo161  1  -0.00077298  0.19917124  0.76696510  1
  Mo  Mo162  1  0.50149869  0.10574165  0.86881995  1
  Mo  Mo163  1  0.40000184  0.60192935  0.50514231  1
  Mo  Mo164  1  0.20109027  0.80373451  0.74177833  1
  Mo  Mo165  1  0.60757494  0.80092156  0.23708930  1
  Mo  Mo166  1  0.59286306  0.19427815  0.75111350  1
  Mo  Mo167  1  0.39556689  0.38940392  0.47698855  1
  Mo  Mo168  1  0.49475619  0.28976348  0.61440719  1
  Mo  Mo169  1  0.30302189  0.10096346  0.14052002  1
  Mo  Mo170  1  0.20295174  0.00916927  0.24104087  1
  Mo  Mo171  1  0.10587680  0.10512166  0.85743802  1
  Mo  Mo172  1  0.89473727  0.30071836  0.86692997  1
  Mo  Mo173  1  0.60429437  0.59510752  0.23836734  1
  Mo  Mo174  1  0.79729040  0.20044469  -0.01590020  1
  Mo  Mo175  1  -0.00859530  0.19913858  0.49669601  1
  Mo  Mo176  1  0.40377813  0.00094886  0.26814035  1
  Mo  Mo177  1  0.30104222  0.50345419  0.61402432  1
  Mo  Mo178  1  0.69296000  0.50192407  0.60965212  1
  Mo  Mo179  1  0.60601914  -0.00671416  0.74573712  1
  Mo  Mo180  1  0.59365146  0.39552370  0.00761411  1
  Mo  Mo181  1  0.09831726  0.69735013  0.14422289  1
  Mo  Mo182  1  0.29883921  0.69231502  0.86734789  1
  Mo  Mo183  1  0.69729787  0.89630967  0.88677883  1
  Mo  Mo184  1  0.79941588  0.40361194  -0.00950217  1
  Mo  Mo185  1  0.69968802  0.70028092  0.63229343  1
  Mo  Mo186  1  -0.00233937  0.80152508  0.77168324  1
  Mo  Mo187  1  0.19260210  0.59495503  0.26946456  1
  Mo  Mo188  1  0.40079935  0.59272381  0.26611740  1
  Mo  Mo189  1  0.39250229  0.60405538  -0.00076847  1
  Mo  Mo190  1  0.40077131  0.39852108  0.76492655  1
  Mo  Mo191  1  0.30986814  0.90598816  0.36963568  1
  Mo  Mo192  1  0.70215714  0.69764815  0.12122350  1
  Mo  Mo193  1  0.80370119  0.79106996  0.50056664  1
  Mo  Mo194  1  0.59683721  0.59871622  0.72920159  1
  Mo  Mo195  1  0.09955362  0.10255644  0.12206598  1
  Mo  Mo196  1  0.40597087  0.80196119  0.75332890  1
  Mo  Mo197  1  -0.00709271  0.40672834  0.49866115  1
  Mo  Mo198  1  0.50159663  0.69755308  0.63557672  1
  Mo  Mo199  1  0.40625916  0.80089281  0.26637230  1
