# generated using pymatgen
data_HfZrTaTiMo
_symmetry_space_group_name_H-M   'P 1'
_cell_length_a   15.82348386
_cell_length_b   15.85111268
_cell_length_c   15.38664023
_cell_angle_alpha   90.00037164
_cell_angle_beta   90.01878918
_cell_angle_gamma   89.91478467
_symmetry_Int_Tables_number   1
_chemical_formula_structural   HfZrTaTiMo
_chemical_formula_sum   'Hf40 Zr40 Ta40 Ti40 Mo40'
_cell_volume   3859.26994343
_cell_formula_units_Z   40
loop_
 _symmetry_equiv_pos_site_id
 _symmetry_equiv_pos_as_xyz
  1  'x, y, z'
loop_
 _atom_site_type_symbol
 _atom_site_label
 _atom_site_symmetry_multiplicity
 _atom_site_fract_x
 _atom_site_fract_y
 _atom_site_fract_z
 _atom_site_occupancy
  Hf  Hf0  1  0.20473351  -0.00135062  0.75822469  1
  Hf  Hf1  1  0.00664474  0.59944344  0.51502559  1
  Hf  Hf2  1  0.41131067  0.19876497  0.74568634  1
  Hf  Hf3  1  0.20652154  0.40005761  -0.00912961  1
  Hf  Hf4  1  0.60531642  0.39696455  0.01294217  1
  Hf  Hf5  1  0.90767405  0.51606578  0.12013520  1
  Hf  Hf6  1  0.79774572  0.81316367  0.74697620  1
  Hf  Hf7  1  0.20312614  0.59996137  -0.03078558  1
  Hf  Hf8  1  0.09828094  0.29618696  0.64758371  1
  Hf  Hf9  1  0.50503827  0.09691540  0.88188134  1
  Hf  Hf10  1  0.48217981  0.29489812  0.11802053  1
  Hf  Hf11  1  0.69519106  0.29185669  0.60934572  1
  Hf  Hf12  1  -0.00575935  0.20093037  -0.00046472  1
  Hf  Hf13  1  0.59568819  0.59634001  0.76414712  1
  Hf  Hf14  1  0.09162561  0.91498911  0.10211785  1
  Hf  Hf15  1  0.29890915  0.10264961  0.62366908  1
  Hf  Hf16  1  0.69838483  0.89287866  0.37138341  1
  Hf  Hf17  1  0.89735978  0.30582436  0.62796181  1
  Hf  Hf18  1  0.40708624  0.60271563  0.26723565  1
  Hf  Hf19  1  0.59809232  0.60776215  -0.00792111  1
  Hf  Hf20  1  0.09581728  0.09910828  0.62192705  1
  Hf  Hf21  1  0.00106583  0.80795226  0.24646024  1
  Hf  Hf22  1  0.70273132  0.28590742  0.88751895  1
  Hf  Hf23  1  0.48256942  0.89640370  0.37142626  1
  Hf  Hf24  1  0.92458725  0.08999282  0.14420946  1
  Hf  Hf25  1  0.29828930  0.30581115  0.63622587  1
  Hf  Hf26  1  0.00205652  0.59552877  0.75696240  1
  Hf  Hf27  1  -0.01405091  0.00630564  0.76590486  1
  Hf  Hf28  1  0.89347080  0.29926797  0.87479951  1
  Hf  Hf29  1  0.10056670  0.51159139  0.11663591  1
  Hf  Hf30  1  0.20540772  0.79394457  0.52458600  1
  Hf  Hf31  1  -0.00267508  0.41389560  0.48695063  1
  Hf  Hf32  1  0.29120888  0.89774547  0.12129986  1
  Hf  Hf33  1  0.59819646  0.59755172  0.25697729  1
  Hf  Hf34  1  0.20008894  0.39353419  0.24993557  1
  Hf  Hf35  1  0.79932966  0.18613160  0.02405570  1
  Hf  Hf36  1  0.68935615  0.30593256  0.36804620  1
  Hf  Hf37  1  0.71706638  0.69008050  0.36855030  1
  Hf  Hf38  1  0.10030307  0.69563368  0.37280159  1
  Hf  Hf39  1  0.80158447  0.79619436  0.50392085  1
  Zr  Zr40  1  0.39626507  0.60349935  0.74891328  1
  Zr  Zr41  1  0.70968719  0.49429604  0.88731499  1
  Zr  Zr42  1  0.50524792  0.70801565  0.61051152  1
  Zr  Zr43  1  0.78789797  0.00944637  0.74499518  1
  Zr  Zr44  1  0.00504608  0.40094966  0.24884862  1
  Zr  Zr45  1  0.38920538  0.39847722  0.49972087  1
  Zr  Zr46  1  0.30492755  0.71303211  0.37929458  1
  Zr  Zr47  1  0.30726660  0.50004915  0.12183782  1
  Zr  Zr48  1  0.11430779  0.28076227  0.11849678  1
  Zr  Zr49  1  0.59672097  0.38917438  0.75737926  1
  Zr  Zr50  1  0.39747242  0.60517749  -0.02430042  1
  Zr  Zr51  1  0.21107669  0.79642306  -0.01638693  1
  Zr  Zr52  1  0.80109208  -0.00404486  0.25076763  1
  Zr  Zr53  1  0.70913855  0.50919459  0.12660294  1
  Zr  Zr54  1  0.58858566  0.00094689  0.49151722  1
  Zr  Zr55  1  0.59670871  0.00479759  0.03009038  1
  Zr  Zr56  1  0.91472846  0.09348400  0.37095794  1
  Zr  Zr57  1  0.58976312  0.80252754  0.00908268  1
  Zr  Zr58  1  0.11753906  0.09578302  0.39204564  1
  Zr  Zr59  1  0.91542346  0.71381308  0.64194166  1
  Zr  Zr60  1  0.48996447  0.90552409  0.87054384  1
  Zr  Zr61  1  0.09772889  0.70434585  0.11310316  1
  Zr  Zr62  1  0.90097208  0.10712314  0.60929554  1
  Zr  Zr63  1  0.49661680  0.27913836  0.37244761  1
  Zr  Zr64  1  0.08771374  0.89600137  0.63576604  1
  Zr  Zr65  1  0.30469467  0.28822413  0.88180741  1
  Zr  Zr66  1  0.69184600  0.91041064  0.88342227  1
  Zr  Zr67  1  0.61134668  0.59039342  0.48226058  1
  Zr  Zr68  1  0.89561076  0.50687198  0.89744676  1
  Zr  Zr69  1  0.50264185  0.29164081  0.89484565  1
  Zr  Zr70  1  0.19026961  0.00970600  0.24319919  1
  Zr  Zr71  1  0.18565845  0.39766221  0.49295694  1
  Zr  Zr72  1  0.49955938  0.49351998  0.61273061  1
  Zr  Zr73  1  0.79838749  0.41069265  0.48505702  1
  Zr  Zr74  1  0.69843608  0.69941883  0.62532561  1
  Zr  Zr75  1  0.20755428  0.59330882  0.52217083  1
  Zr  Zr76  1  0.39828507  0.39700958  0.25448557  1
  Zr  Zr77  1  0.89166431  0.52487271  0.35042465  1
  Zr  Zr78  1  0.00861228  0.22036634  0.48664264  1
  Zr  Zr79  1  0.70203090  0.49201588  0.62823578  1
  Ta  Ta80  1  0.00583082  0.39785700  -0.00154761  1
  Ta  Ta81  1  0.89281265  0.90016831  0.89221005  1
  Ta  Ta82  1  0.79866474  0.20097294  0.47520292  1
  Ta  Ta83  1  0.59693692  0.80988062  0.74723613  1
  Ta  Ta84  1  0.30043671  0.69633628  0.13167152  1
  Ta  Ta85  1  0.09576910  0.90089731  0.87892070  1
  Ta  Ta86  1  0.19986845  0.59903690  0.25381632  1
  Ta  Ta87  1  0.69701963  0.89463595  0.13792523  1
  Ta  Ta88  1  0.89588764  0.70680564  0.88242119  1
  Ta  Ta89  1  0.79444644  0.00532986  0.01350088  1
  Ta  Ta90  1  0.79617350  0.00295753  0.49087911  1
  Ta  Ta91  1  0.29445268  0.28461856  0.37230049  1
  Ta  Ta92  1  0.49638929  0.50320442  0.11501814  1
  Ta  Ta93  1  0.10125441  0.89793459  0.38578739  1
  Ta  Ta94  1  0.59520924  0.40094022  0.23960316  1
  Ta  Ta95  1  0.40295077  0.40617481  0.76187323  1
  Ta  Ta96  1  0.90249514  0.89676244  0.11150661  1
  Ta  Ta97  1  0.80391899  0.59795878  0.74751852  1
  Ta  Ta98  1  0.20302401  0.60233382  0.74804188  1
  Ta  Ta99  1  0.59836288  0.00263613  0.73342395  1
  Ta  Ta100  1  0.58732235  -0.00321444  0.24878459  1
  Ta  Ta101  1  0.49139366  0.69641829  0.12743729  1
  Ta  Ta102  1  0.09254731  0.70732621  0.86511138  1
  Ta  Ta103  1  0.79257989  0.80008173  0.01064103  1
  Ta  Ta104  1  0.39876690  0.00021488  0.02091738  1
  Ta  Ta105  1  0.59089996  0.79251276  0.25360159  1
  Ta  Ta106  1  0.80663479  0.79549177  0.23817862  1
  Ta  Ta107  1  0.29477965  0.50076812  0.37359292  1
  Ta  Ta108  1  0.79629221  0.19403284  0.75305750  1
  Ta  Ta109  1  0.20481202  0.79773658  0.74837515  1
  Ta  Ta110  1  0.09897565  0.29711511  0.87143569  1
  Ta  Ta111  1  0.68736693  0.10620483  0.36791465  1
  Ta  Ta112  1  0.80322697  0.20155440  0.25008294  1
  Ta  Ta113  1  0.81384083  0.37989914  0.02891173  1
  Ta  Ta114  1  0.39254570  0.00762784  0.23673473  1
  Ta  Ta115  1  0.50621690  0.10572776  0.61882403  1
  Ta  Ta116  1  -0.00227937  0.40295962  0.76489358  1
  Ta  Ta117  1  0.89912862  0.91095675  0.61069555  1
  Ta  Ta118  1  0.70594839  0.70534877  0.87167568  1
  Ta  Ta119  1  0.90644285  0.89582637  0.38565757  1
  Ti  Ti120  1  0.00519616  0.79688373  0.50044718  1
  Ti  Ti121  1  0.20064015  0.19230673  0.76260779  1
  Ti  Ti122  1  0.40493594  -0.00218323  0.73424631  1
  Ti  Ti123  1  0.39706375  0.80045861  0.24403160  1
  Ti  Ti124  1  0.90753498  0.70034510  0.10745515  1
  Ti  Ti125  1  0.31228418  0.09887490  0.37629218  1
  Ti  Ti126  1  0.69828793  0.10603786  0.60247354  1
  Ti  Ti127  1  0.40043256  0.79916833  0.00517121  1
  Ti  Ti128  1  0.50673585  0.48509639  0.38375436  1
  Ti  Ti129  1  0.02457805  0.19586354  0.25464215  1
  Ti  Ti130  1  -0.00769507  0.19266872  0.76607165  1
  Ti  Ti131  1  0.10638961  0.09961959  0.88747229  1
  Ti  Ti132  1  0.80182523  0.40062213  0.74995146  1
  Ti  Ti133  1  0.58916671  0.18935407  0.23817812  1
  Ti  Ti134  1  0.90568829  0.70362205  0.37021722  1
  Ti  Ti135  1  0.81665860  0.59667668  0.51801475  1
  Ti  Ti136  1  0.49694123  0.71637012  0.86526458  1
  Ti  Ti137  1  0.39739423  0.81222600  0.51541011  1
  Ti  Ti138  1  0.19872813  0.80139182  0.24774126  1
  Ti  Ti139  1  0.29220417  0.90662843  0.37130619  1
  Ti  Ti140  1  0.40353784  0.19175286  0.50198659  1
  Ti  Ti141  1  0.80019219  0.39926014  0.24089596  1
  Ti  Ti142  1  0.60531336  0.18549356  0.02225994  1
  Ti  Ti143  1  0.28236293  0.11444325  0.10876950  1
  Ti  Ti144  1  0.69872500  0.70100275  0.12975136  1
  Ti  Ti145  1  0.30783457  0.90203147  0.87506320  1
  Ti  Ti146  1  0.20597169  0.20675088  0.50185366  1
  Ti  Ti147  1  0.20104097  0.41040554  0.76597159  1
  Ti  Ti148  1  0.30953030  0.09258448  0.88539190  1
  Ti  Ti149  1  0.69799460  0.29288900  0.13907865  1
  Ti  Ti150  1  0.39745579  0.60241887  0.49766788  1
  Ti  Ti151  1  0.20823758  -0.01212173  0.51162501  1
  Ti  Ti152  1  0.61124554  0.18825263  0.74976764  1
  Ti  Ti153  1  0.09902708  0.49046201  0.64150726  1
  Ti  Ti154  1  0.39553195  -0.00193867  0.50717923  1
  Ti  Ti155  1  0.39551971  0.80765711  0.73135153  1
  Ti  Ti156  1  0.50676657  0.29686952  0.61158340  1
  Ti  Ti157  1  -0.01054102  0.01191627  -0.01604643  1
  Ti  Ti158  1  0.68794730  0.89842012  0.60785053  1
  Ti  Ti159  1  0.90166297  0.30101223  0.35830329  1
  Mo  Mo160  1  0.49961539  0.70810623  0.39022393  1
  Mo  Mo161  1  0.49045893  0.89269958  0.14201200  1
  Mo  Mo162  1  0.30259712  0.90555646  0.63344315  1
  Mo  Mo163  1  0.49151142  0.10017771  0.13543158  1
  Mo  Mo164  1  0.09915814  0.49644419  0.87470658  1
  Mo  Mo165  1  0.90348538  0.49728238  0.63695962  1
  Mo  Mo166  1  0.19924346  0.19426814  -0.01900574  1
  Mo  Mo167  1  0.29532476  0.49344198  0.64264473  1
  Mo  Mo168  1  0.69966317  0.09825881  0.15273335  1
  Mo  Mo169  1  0.30614111  0.71439127  0.85312950  1
  Mo  Mo170  1  0.59789126  0.79881977  0.47823628  1
  Mo  Mo171  1  0.40375785  0.40475124  -0.01295935  1
  Mo  Mo172  1  0.00635707  0.61205904  0.24934609  1
  Mo  Mo173  1  0.80603237  0.61655697  0.22885950  1
  Mo  Mo174  1  0.00615081  -0.00991132  0.26158459  1
  Mo  Mo175  1  0.79744157  0.61878438  0.00804828  1
  Mo  Mo176  1  0.59744983  0.19452440  0.49266064  1
  Mo  Mo177  1  0.50059372  0.49458397  0.89009322  1
  Mo  Mo178  1  0.50117370  0.90478834  0.62285428  1
  Mo  Mo179  1  0.10316775  0.50712243  0.36417078  1
  Mo  Mo180  1  0.00345178  0.60564796  -0.01938875  1
  Mo  Mo181  1  0.48832054  0.09524863  0.35937490  1
  Mo  Mo182  1  0.30164354  0.49732374  0.86091332  1
  Mo  Mo183  1  0.30048146  0.29393282  0.10997331  1
  Mo  Mo184  1  0.00277228  -0.00908603  0.49674796  1
  Mo  Mo185  1  0.10293281  0.09502873  0.10743775  1
  Mo  Mo186  1  0.90596988  0.29588329  0.14362875  1
  Mo  Mo187  1  -0.00400796  0.80543613  -0.01184077  1
  Mo  Mo188  1  0.10631122  0.29632181  0.36442051  1
  Mo  Mo189  1  0.30666086  0.70072834  0.62947108  1
  Mo  Mo190  1  0.20957554  0.19493385  0.25439881  1
  Mo  Mo191  1  0.69253470  0.10381423  0.87824660  1
  Mo  Mo192  1  0.69920426  0.49414904  0.34981080  1
  Mo  Mo193  1  0.10200696  0.69918980  0.64692717  1
  Mo  Mo194  1  0.39728324  0.18815606  0.01225019  1
  Mo  Mo195  1  0.59673439  0.39371000  0.49049245  1
  Mo  Mo196  1  0.38319783  0.19201362  0.23614462  1
  Mo  Mo197  1  0.20643738  0.00153012  -0.01708574  1
  Mo  Mo198  1  -0.00521798  0.81011953  0.76986326  1
  Mo  Mo199  1  0.88698440  0.10000420  0.88161731  1
