# generated using pymatgen
data_HfZrTaTiMo
_symmetry_space_group_name_H-M   'P 1'
_cell_length_a   15.85252909
_cell_length_b   15.81764217
_cell_length_c   15.41962290
_cell_angle_alpha   90.00669316
_cell_angle_beta   90.01684513
_cell_angle_gamma   90.04538590
_symmetry_Int_Tables_number   1
_chemical_formula_structural   HfZrTaTiMo
_chemical_formula_sum   'Hf40 Zr40 Ta40 Ti40 Mo40'
_cell_volume   3866.46337026
_cell_formula_units_Z   40
loop_
 _symmetry_equiv_pos_site_id
 _symmetry_equiv_pos_as_xyz
  1  'x, y, z'
loop_
 _atom_site_type_symbol
 _atom_site_label
 _atom_site_symmetry_multiplicity
 _atom_site_fract_x
 _atom_site_fract_y
 _atom_site_fract_z
 _atom_site_occupancy
  Hf  Hf0  1  0.50407128  0.29966326  0.63791500  1
  Hf  Hf1  1  0.68922319  0.69164145  0.84662400  1
  Hf  Hf2  1  0.07979516  0.48096959  0.88888167  1
  Hf  Hf3  1  -0.00030590  0.79202406  0.01317935  1
  Hf  Hf4  1  0.69650262  0.51928404  0.12994472  1
  Hf  Hf5  1  0.29868095  0.89649439  0.88342074  1
  Hf  Hf6  1  0.88815948  0.69826170  0.85833031  1
  Hf  Hf7  1  0.90493586  0.89518849  0.86995454  1
  Hf  Hf8  1  0.49910034  0.31155907  0.12155549  1
  Hf  Hf9  1  0.89182795  0.29753476  0.62099782  1
  Hf  Hf10  1  0.49770065  0.29891622  0.37693469  1
  Hf  Hf11  1  0.78726118  0.79862558  0.24497155  1
  Hf  Hf12  1  0.39361752  0.21024443  -0.00794666  1
  Hf  Hf13  1  0.30047333  0.49981596  0.37007212  1
  Hf  Hf14  1  0.20367142  0.80010425  0.74991545  1
  Hf  Hf15  1  0.00111548  0.40381575  0.72960006  1
  Hf  Hf16  1  0.40283440  -0.00426077  -0.00064280  1
  Hf  Hf17  1  0.00455643  0.40528270  0.50624160  1
  Hf  Hf18  1  0.89897939  0.31244537  0.36825404  1
  Hf  Hf19  1  0.40170679  0.60512287  0.49189298  1
  Hf  Hf20  1  0.20959961  0.79527344  0.48819558  1
  Hf  Hf21  1  0.60195846  0.79199555  -0.00702336  1
  Hf  Hf22  1  -0.00355324  -0.00115222  0.25438246  1
  Hf  Hf23  1  0.38814536  0.19073022  0.75503076  1
  Hf  Hf24  1  0.41071367  0.79272044  -0.00066269  1
  Hf  Hf25  1  0.89938461  0.30105373  0.13292559  1
  Hf  Hf26  1  0.89634998  0.90499049  0.11910206  1
  Hf  Hf27  1  0.10028714  0.29915039  0.12963233  1
  Hf  Hf28  1  0.60114811  0.00289751  0.74220774  1
  Hf  Hf29  1  0.69299358  0.31104882  0.38867679  1
  Hf  Hf30  1  0.49635793  0.08964300  0.39212324  1
  Hf  Hf31  1  0.20148702  0.19161551  0.26580219  1
  Hf  Hf32  1  0.39604987  0.60491676  0.76207977  1
  Hf  Hf33  1  0.01155205  0.20176373  0.48624303  1
  Hf  Hf34  1  0.00438311  0.20986702  -0.00901396  1
  Hf  Hf35  1  0.88680521  0.68276842  0.14180797  1
  Hf  Hf36  1  0.59311153  0.80110150  0.51005922  1
  Hf  Hf37  1  0.29452585  0.49721809  0.62164600  1
  Hf  Hf38  1  0.19136404  0.59559437  0.49258064  1
  Hf  Hf39  1  0.39865095  0.41265909  -0.01860878  1
  Zr  Zr40  1  0.60302728  0.60479919  0.27731787  1
  Zr  Zr41  1  0.40195897  0.39637455  0.49946187  1
  Zr  Zr42  1  0.89951111  0.71155350  0.37392127  1
  Zr  Zr43  1  0.20476770  0.79020866  0.25277057  1
  Zr  Zr44  1  0.88870840  0.51696158  0.36564502  1
  Zr  Zr45  1  0.19533965  0.38713103  0.48760648  1
  Zr  Zr46  1  0.90125106  0.49391217  0.15318031  1
  Zr  Zr47  1  0.68618802  0.09399268  0.10833612  1
  Zr  Zr48  1  0.30644007  0.69177650  0.11956137  1
  Zr  Zr49  1  0.40883726  0.00826343  0.23939056  1
  Zr  Zr50  1  0.80733507  0.00318291  0.74859397  1
  Zr  Zr51  1  0.79693516  0.00243185  -0.01318139  1
  Zr  Zr52  1  0.20404308  -0.00424107  0.25714394  1
  Zr  Zr53  1  0.30315044  0.49556013  0.12000362  1
  Zr  Zr54  1  0.19740452  0.58825465  0.76072569  1
  Zr  Zr55  1  0.70024628  0.31061655  0.87018485  1
  Zr  Zr56  1  0.69577152  0.30867135  0.11948120  1
  Zr  Zr57  1  0.20515831  0.39165219  0.25605180  1
  Zr  Zr58  1  0.52141048  0.90836346  0.12950773  1
  Zr  Zr59  1  0.79782397  0.19513455  0.25341866  1
  Zr  Zr60  1  0.78811397  0.79419482  0.00678034  1
  Zr  Zr61  1  -0.01571803  0.58992557  0.00284966  1
  Zr  Zr62  1  0.11338016  0.90552153  0.61962096  1
  Zr  Zr63  1  0.09446093  0.70522348  0.87641855  1
  Zr  Zr64  1  0.51490103  0.29913433  0.86692350  1
  Zr  Zr65  1  0.59181330  0.19114099  0.24725710  1
  Zr  Zr66  1  0.79012132  -0.00302363  0.24477282  1
  Zr  Zr67  1  0.69468489  0.09861026  0.39267056  1
  Zr  Zr68  1  0.70454315  0.11606640  0.61994583  1
  Zr  Zr69  1  -0.00262543  0.59631924  0.73787465  1
  Zr  Zr70  1  0.20525133  0.00747704  0.75098370  1
  Zr  Zr71  1  0.38821426  0.40219620  0.76397066  1
  Zr  Zr72  1  0.33286835  0.89035013  0.37833312  1
  Zr  Zr73  1  0.81121643  0.41946447  -0.00817986  1
  Zr  Zr74  1  0.00567007  0.00009936  0.50123462  1
  Zr  Zr75  1  -0.01134804  0.59999964  0.51769103  1
  Zr  Zr76  1  0.19881936  0.19459018  0.48604893  1
  Zr  Zr77  1  0.80723088  0.20370378  0.76220647  1
  Zr  Zr78  1  0.72041530  0.89957980  0.40208519  1
  Zr  Zr79  1  0.50639527  0.09992586  0.87645479  1
  Ta  Ta80  1  0.50347515  0.49983891  0.63308865  1
  Ta  Ta81  1  0.09964886  0.10007601  0.12079805  1
  Ta  Ta82  1  0.40503273  0.60119074  0.26272537  1
  Ta  Ta83  1  0.49758819  0.69425642  0.62722967  1
  Ta  Ta84  1  0.10140857  0.09754574  0.88496463  1
  Ta  Ta85  1  -0.00225149  0.80680901  0.73171530  1
  Ta  Ta86  1  0.50331807  0.89110365  0.85890221  1
  Ta  Ta87  1  0.00710688  0.00659581  0.74449399  1
  Ta  Ta88  1  0.91414642  0.32088995  0.87194808  1
  Ta  Ta89  1  0.00608494  0.19564320  0.75272150  1
  Ta  Ta90  1  0.52082127  0.50891043  0.85606688  1
  Ta  Ta91  1  -0.00091806  0.80038302  0.51291709  1
  Ta  Ta92  1  0.39821511  0.80116807  0.74117727  1
  Ta  Ta93  1  0.59774380  -0.00716281  0.51943585  1
  Ta  Ta94  1  0.08927419  0.88952758  0.37626339  1
  Ta  Ta95  1  0.39240742  0.20286814  0.24445290  1
  Ta  Ta96  1  0.29921292  0.70069306  0.62308109  1
  Ta  Ta97  1  0.00191012  0.19237462  0.26314835  1
  Ta  Ta98  1  0.10347659  0.89935020  0.12235455  1
  Ta  Ta99  1  0.80470117  0.20574907  -0.00998376  1
  Ta  Ta100  1  0.48929305  0.71753679  0.38030079  1
  Ta  Ta101  1  0.51119211  0.69340383  0.13662563  1
  Ta  Ta102  1  0.10775029  0.29006766  0.63480262  1
  Ta  Ta103  1  0.89272265  0.08596443  0.38948819  1
  Ta  Ta104  1  0.60453968  0.80622017  0.26515331  1
  Ta  Ta105  1  0.20547156  -0.00120224  0.48701442  1
  Ta  Ta106  1  0.10627758  0.69911756  0.62400037  1
  Ta  Ta107  1  0.19736270  -0.00266306  0.00493650  1
  Ta  Ta108  1  0.90761832  0.10215973  0.61611367  1
  Ta  Ta109  1  0.29343589  0.10613758  0.11342688  1
  Ta  Ta110  1  0.19728210  0.39254057  0.76138324  1
  Ta  Ta111  1  0.19574037  0.59346880  -0.00182609  1
  Ta  Ta112  1  0.00422828  0.79850370  0.23931768  1
  Ta  Ta113  1  0.49468614  0.10198994  0.62336647  1
  Ta  Ta114  1  0.09746468  0.90317624  0.88225051  1
  Ta  Ta115  1  0.59984399  0.41989936  -0.00532216  1
  Ta  Ta116  1  0.39673823  -0.00625455  0.74156316  1
  Ta  Ta117  1  0.70143388  0.88906773  0.85265775  1
  Ta  Ta118  1  0.08582523  0.50056675  0.35590162  1
  Ta  Ta119  1  0.29657873  0.09467784  0.61363623  1
  Ti  Ti120  1  0.09814600  0.49673096  0.12680811  1
  Ti  Ti121  1  0.29546464  0.29346739  0.63144665  1
  Ti  Ti122  1  0.19804991  0.60206819  0.24627683  1
  Ti  Ti123  1  0.09241555  0.69471883  0.37189598  1
  Ti  Ti124  1  0.59786339  0.79589086  0.73285910  1
  Ti  Ti125  1  0.59441640  0.20719728  0.50917046  1
  Ti  Ti126  1  0.00292943  0.00186639  0.00258312  1
  Ti  Ti127  1  0.40876733  0.79715037  0.23966065  1
  Ti  Ti128  1  0.40377906  0.40143688  0.25455687  1
  Ti  Ti129  1  0.29780625  0.69974235  0.88493803  1
  Ti  Ti130  1  0.69431358  0.49965675  0.62432122  1
  Ti  Ti131  1  0.70988488  0.89616381  0.63026816  1
  Ti  Ti132  1  0.70847344  0.69562927  0.40073223  1
  Ti  Ti133  1  0.90842764  0.10162559  0.87752709  1
  Ti  Ti134  1  0.79617715  0.41740871  0.50522488  1
  Ti  Ti135  1  0.29243203  0.09943618  0.88860497  1
  Ti  Ti136  1  0.39462607  0.20153837  0.50655298  1
  Ti  Ti137  1  0.59478653  0.60546629  -0.00704273  1
  Ti  Ti138  1  0.77891988  0.41208008  0.26203546  1
  Ti  Ti139  1  0.81285954  0.79436269  0.52792415  1
  Ti  Ti140  1  0.59899187  0.59335575  0.50010832  1
  Ti  Ti141  1  0.19706499  0.79534592  0.00946383  1
  Ti  Ti142  1  0.40845065  -0.01987506  0.52147080  1
  Ti  Ti143  1  0.30135934  0.90029576  0.12297713  1
  Ti  Ti144  1  0.68966553  0.11455238  0.87788369  1
  Ti  Ti145  1  0.69831258  0.31227470  0.63035183  1
  Ti  Ti146  1  0.50019535  0.10936266  0.10689742  1
  Ti  Ti147  1  0.59178447  0.41477024  0.26146995  1
  Ti  Ti148  1  0.60638211  -0.01339536  -0.02052570  1
  Ti  Ti149  1  0.31278703  0.09611445  0.38582865  1
  Ti  Ti150  1  0.29743091  0.29788431  0.12011043  1
  Ti  Ti151  1  0.19901559  0.38256691  -0.01508773  1
  Ti  Ti152  1  0.70442821  0.50298666  0.84977973  1
  Ti  Ti153  1  0.49889070  0.50851129  0.12663323  1
  Ti  Ti154  1  0.19813814  0.19862878  0.76005235  1
  Ti  Ti155  1  0.90241527  0.10654972  0.11780924  1
  Ti  Ti156  1  0.78506266  0.60445495  -0.01044464  1
  Ti  Ti157  1  0.41265427  0.60118682  -0.01712469  1
  Ti  Ti158  1  0.80511457  0.20353622  0.49281161  1
  Ti  Ti159  1  0.79903087  0.60110710  0.72119545  1
  Mo  Mo160  1  0.78358052  0.60424526  0.26575608  1
  Mo  Mo161  1  0.90587124  0.89438389  0.38052073  1
  Mo  Mo162  1  0.31158580  0.29104987  0.36928793  1
  Mo  Mo163  1  0.49898611  0.70300221  0.85615038  1
  Mo  Mo164  1  0.29060555  0.50345918  0.89034607  1
  Mo  Mo165  1  0.60054335  0.40459858  0.51560961  1
  Mo  Mo166  1  0.68692588  0.69862507  0.12642167  1
  Mo  Mo167  1  0.09513983  0.30181982  0.35888516  1
  Mo  Mo168  1  0.79132496  0.60484077  0.51523564  1
  Mo  Mo169  1  0.89946551  0.70373430  0.63337977  1
  Mo  Mo170  1  0.60225769  0.19762896  0.73400874  1
  Mo  Mo171  1  0.79910470  0.79950321  0.73509850  1
  Mo  Mo172  1  0.90303179  0.90480989  0.63088598  1
  Mo  Mo173  1  0.60450187  -0.00884835  0.27027145  1
  Mo  Mo174  1  0.09845094  0.29468112  0.86221833  1
  Mo  Mo175  1  0.60326285  0.21147859  0.01006938  1
  Mo  Mo176  1  0.88649328  0.49706926  0.62352072  1
  Mo  Mo177  1  0.01749221  0.60858523  0.24211278  1
  Mo  Mo178  1  0.60703446  0.40457044  0.73691834  1
  Mo  Mo179  1  0.10161468  0.69308135  0.12224691  1
  Mo  Mo180  1  0.51279319  0.90271410  0.37412959  1
  Mo  Mo181  1  0.00270694  0.39802817  0.24928367  1
  Mo  Mo182  1  0.88566594  0.50205383  0.85609658  1
  Mo  Mo183  1  0.50197794  0.49909509  0.37847352  1
  Mo  Mo184  1  0.50401489  0.89906776  0.64310200  1
  Mo  Mo185  1  0.10467521  0.10714221  0.63262270  1
  Mo  Mo186  1  0.80581621  -0.00292880  0.52025011  1
  Mo  Mo187  1  0.80327583  0.40989709  0.74291261  1
  Mo  Mo188  1  0.29327192  0.29577356  0.87558789  1
  Mo  Mo189  1  0.19855725  0.19748973  -0.00370444  1
  Mo  Mo190  1  0.69640193  0.69738370  0.62081067  1
  Mo  Mo191  1  0.10721762  0.49399357  0.62365126  1
  Mo  Mo192  1  0.09970806  0.08931445  0.36393731  1
  Mo  Mo193  1  0.69394783  0.49948931  0.39775590  1
  Mo  Mo194  1  0.30479924  0.89715617  0.61512147  1
  Mo  Mo195  1  0.00078125  0.39687248  0.01206323  1
  Mo  Mo196  1  0.30434970  0.69813826  0.36252047  1
  Mo  Mo197  1  0.60126573  0.60117860  0.72984134  1
  Mo  Mo198  1  0.40408847  0.79769228  0.51981168  1
  Mo  Mo199  1  0.69287032  0.89840040  0.12414394  1
