# generated using pymatgen
data_HfZrTaTiMo
_symmetry_space_group_name_H-M   'P 1'
_cell_length_a   15.83810526
_cell_length_b   15.84185503
_cell_length_c   15.41782918
_cell_angle_alpha   89.97113221
_cell_angle_beta   90.05811258
_cell_angle_gamma   90.09093550
_symmetry_Int_Tables_number   1
_chemical_formula_structural   HfZrTaTiMo
_chemical_formula_sum   'Hf40 Zr40 Ta40 Ti40 Mo40'
_cell_volume   3868.40257824
_cell_formula_units_Z   40
loop_
 _symmetry_equiv_pos_site_id
 _symmetry_equiv_pos_as_xyz
  1  'x, y, z'
loop_
 _atom_site_type_symbol
 _atom_site_label
 _atom_site_symmetry_multiplicity
 _atom_site_fract_x
 _atom_site_fract_y
 _atom_site_fract_z
 _atom_site_occupancy
  Hf  Hf0  1  0.79666746  0.60173235  0.50829479  1
  Hf  Hf1  1  0.10047216  0.89135074  0.63813227  1
  Hf  Hf2  1  0.29088095  0.91283098  0.12272455  1
  Hf  Hf3  1  0.19075446  0.40489352  -0.00387754  1
  Hf  Hf4  1  0.90644410  0.69234996  0.14346733  1
  Hf  Hf5  1  0.29400079  0.29827495  0.86147846  1
  Hf  Hf6  1  0.49510898  0.30068273  0.37053978  1
  Hf  Hf7  1  0.70364852  0.49234906  0.37555139  1
  Hf  Hf8  1  0.51173525  0.29904114  0.11906614  1
  Hf  Hf9  1  0.40230743  0.19497061  0.23664836  1
  Hf  Hf10  1  0.80775608  0.19437150  0.25384895  1
  Hf  Hf11  1  0.60350405  0.00243812  0.51776125  1
  Hf  Hf12  1  0.18334252  0.38568016  0.26493179  1
  Hf  Hf13  1  0.69795091  0.90155447  0.10280972  1
  Hf  Hf14  1  0.40438978  0.39610209  0.51331528  1
  Hf  Hf15  1  0.19885029  0.01027932  0.74530958  1
  Hf  Hf16  1  0.29900828  0.70677854  0.62138762  1
  Hf  Hf17  1  -0.00644042  0.39749089  -0.02165917  1
  Hf  Hf18  1  0.61286734  0.00118635  0.75415186  1
  Hf  Hf19  1  0.90294802  0.89130529  0.86287583  1
  Hf  Hf20  1  0.50013680  0.10556640  0.87692507  1
  Hf  Hf21  1  0.30139745  0.09393740  0.39013909  1
  Hf  Hf22  1  0.89965268  0.89685863  0.64262635  1
  Hf  Hf23  1  0.70400358  0.10546144  0.10628003  1
  Hf  Hf24  1  0.00226032  0.00436337  0.51271388  1
  Hf  Hf25  1  0.59223915  0.58966925  0.01249676  1
  Hf  Hf26  1  -0.00662627  0.02657337  0.25074625  1
  Hf  Hf27  1  0.50463698  0.10790167  0.39309402  1
  Hf  Hf28  1  0.70628855  0.09938324  0.38507027  1
  Hf  Hf29  1  0.81160312  0.59553197  -0.00186463  1
  Hf  Hf30  1  0.30413918  0.48560924  0.37626945  1
  Hf  Hf31  1  0.80175282  0.00379290  -0.02435293  1
  Hf  Hf32  1  -0.00540462  0.60388845  0.49697552  1
  Hf  Hf33  1  0.79280417  0.59330299  0.73735205  1
  Hf  Hf34  1  0.60471270  0.59950840  0.73349215  1
  Hf  Hf35  1  0.49864072  0.50764049  0.86238195  1
  Hf  Hf36  1  0.09179736  0.29393805  0.61429898  1
  Hf  Hf37  1  0.20379650  0.81007048  0.49365045  1
  Hf  Hf38  1  -0.00462674  0.80203278  0.49798480  1
  Hf  Hf39  1  0.50037179  0.30560421  0.87055343  1
  Zr  Zr40  1  0.39637268  0.79537378  -0.00584530  1
  Zr  Zr41  1  0.60490581  0.60190501  0.25230351  1
  Zr  Zr42  1  0.79406795  0.81036798  0.25215436  1
  Zr  Zr43  1  0.19041658  0.59146605  0.74053775  1
  Zr  Zr44  1  0.30102790  0.50601707  0.61487842  1
  Zr  Zr45  1  0.90518139  0.48347850  0.62232636  1
  Zr  Zr46  1  0.39536901  0.60139367  0.01289451  1
  Zr  Zr47  1  0.49338198  0.91483659  0.88334890  1
  Zr  Zr48  1  0.29473745  0.30340829  0.13015165  1
  Zr  Zr49  1  0.11095560  0.91157918  0.35781154  1
  Zr  Zr50  1  0.01580102  0.39750130  0.76062618  1
  Zr  Zr51  1  0.40538741  0.40765258  0.00947748  1
  Zr  Zr52  1  0.10259901  0.89390501  0.86777045  1
  Zr  Zr53  1  0.80469166  0.00275658  0.51758163  1
  Zr  Zr54  1  0.29938260  0.70810161  0.36577807  1
  Zr  Zr55  1  0.10037559  0.10826118  0.39720248  1
  Zr  Zr56  1  0.19301797  0.18218293  0.24717520  1
  Zr  Zr57  1  0.60600260  0.00246863  0.24797228  1
  Zr  Zr58  1  0.08819461  0.49956062  0.13299630  1
  Zr  Zr59  1  0.30055663  0.09460901  0.87669333  1
  Zr  Zr60  1  0.59452469  0.59976453  0.50076674  1
  Zr  Zr61  1  0.59765386  0.79017635  -0.01680513  1
  Zr  Zr62  1  0.70642376  0.70327570  0.12215543  1
  Zr  Zr63  1  0.90966015  0.11456398  0.10750383  1
  Zr  Zr64  1  0.60026579  0.79443413  0.76219081  1
  Zr  Zr65  1  0.69361152  0.29497088  0.37393116  1
  Zr  Zr66  1  0.48983659  0.69734190  0.62449944  1
  Zr  Zr67  1  0.71321662  0.48517126  0.13097968  1
  Zr  Zr68  1  0.08070040  0.29137325  0.12133544  1
  Zr  Zr69  1  0.29043813  0.70544803  0.14326018  1
  Zr  Zr70  1  0.40101566  0.00689168  0.24412986  1
  Zr  Zr71  1  0.29491823  0.49870857  0.86645616  1
  Zr  Zr72  1  0.09575866  0.69608921  0.14545668  1
  Zr  Zr73  1  0.49935621  0.89503782  0.62777099  1
  Zr  Zr74  1  0.08508824  0.71104191  0.35169045  1
  Zr  Zr75  1  -0.01181684  0.79174282  0.00339573  1
  Zr  Zr76  1  0.60278072  0.40334005  0.52060723  1
  Zr  Zr77  1  0.19356896  0.78949612  -0.00418412  1
  Zr  Zr78  1  0.40785759  0.59594283  0.25185683  1
  Zr  Zr79  1  0.09411975  0.90162730  0.13519975  1
  Ta  Ta80  1  0.19262983  0.58963492  0.27109264  1
  Ta  Ta81  1  0.50168864  0.90300729  0.11271388  1
  Ta  Ta82  1  0.28907435  0.50086086  0.14097091  1
  Ta  Ta83  1  0.50329670  0.29437390  0.63663611  1
  Ta  Ta84  1  0.19533147  0.60413566  0.48832986  1
  Ta  Ta85  1  0.50177500  0.90849595  0.38497500  1
  Ta  Ta86  1  0.39477658  0.20156931  0.00389210  1
  Ta  Ta87  1  0.39386030  -0.00554759  0.51543498  1
  Ta  Ta88  1  0.00428129  0.01025553  0.75260763  1
  Ta  Ta89  1  0.89935408  0.90834988  0.37335305  1
  Ta  Ta90  1  0.61204863  0.20468029  0.75451973  1
  Ta  Ta91  1  0.00520775  0.00714496  -0.01777411  1
  Ta  Ta92  1  0.89431128  0.30570630  0.11683747  1
  Ta  Ta93  1  0.60240409  0.19487412  0.23996935  1
  Ta  Ta94  1  0.59509188  0.80831930  0.26076359  1
  Ta  Ta95  1  -0.00833504  0.22373156  0.27843704  1
  Ta  Ta96  1  0.82538571  0.39268552  0.26546491  1
  Ta  Ta97  1  0.80057748  0.39498275  -0.01937357  1
  Ta  Ta98  1  0.39366418  0.80007943  0.76386709  1
  Ta  Ta99  1  0.90144184  0.70643578  0.63824411  1
  Ta  Ta100  1  0.90275955  0.69514344  0.85897068  1
  Ta  Ta101  1  0.40253191  0.40358191  0.73556013  1
  Ta  Ta102  1  0.70128805  0.70576566  0.37848062  1
  Ta  Ta103  1  0.50198042  0.10507289  0.63181897  1
  Ta  Ta104  1  0.60765894  0.40342114  0.73913379  1
  Ta  Ta105  1  0.10528642  0.48836660  0.60085217  1
  Ta  Ta106  1  0.79696141  0.00307194  0.75539410  1
  Ta  Ta107  1  0.29859516  0.10642329  0.62483328  1
  Ta  Ta108  1  0.39789060  0.19970173  0.74259875  1
  Ta  Ta109  1  0.40120605  0.80672464  0.48601568  1
  Ta  Ta110  1  0.50628306  0.09582674  0.09846485  1
  Ta  Ta111  1  0.70130972  0.89999247  0.38813531  1
  Ta  Ta112  1  0.19440906  0.19826269  -0.00431926  1
  Ta  Ta113  1  0.00244157  0.59531557  0.74227400  1
  Ta  Ta114  1  0.78824220  0.79387664  0.75565734  1
  Ta  Ta115  1  0.89821266  0.50320020  0.86219977  1
  Ta  Ta116  1  0.09646066  0.48929639  0.39057558  1
  Ta  Ta117  1  0.29637414  0.69178427  0.86829758  1
  Ta  Ta118  1  0.50098760  0.71166458  0.13980402  1
  Ta  Ta119  1  0.90791366  0.11330642  0.63987373  1
  Ti  Ti120  1  0.09799092  0.69713295  0.62323264  1
  Ti  Ti121  1  0.69973849  0.49724550  0.87381289  1
  Ti  Ti122  1  0.40441284  0.81513026  0.26021676  1
  Ti  Ti123  1  0.80310749  0.21294638  -0.02886762  1
  Ti  Ti124  1  0.80218474  0.00143747  0.24854815  1
  Ti  Ti125  1  0.28916151  0.30467198  0.63479508  1
  Ti  Ti126  1  0.00818140  0.59433989  -0.01063338  1
  Ti  Ti127  1  0.40604967  0.60437862  0.48202726  1
  Ti  Ti128  1  0.50145270  0.48949928  0.36547675  1
  Ti  Ti129  1  0.90208923  0.10752230  0.85964292  1
  Ti  Ti130  1  0.39476719  -0.00321793  0.73624523  1
  Ti  Ti131  1  -0.01504559  0.56815113  0.27511969  1
  Ti  Ti132  1  0.10908231  0.09055223  0.10777777  1
  Ti  Ti133  1  0.59845681  0.79604956  0.49178957  1
  Ti  Ti134  1  0.29695848  0.90345853  0.88086543  1
  Ti  Ti135  1  0.70584569  0.68997225  0.88339000  1
  Ti  Ti136  1  0.59970063  0.39745563  0.24147186  1
  Ti  Ti137  1  0.09817322  0.69091129  0.86827058  1
  Ti  Ti138  1  0.89368282  0.28848916  0.62797648  1
  Ti  Ti139  1  0.79607560  0.38832616  0.75602722  1
  Ti  Ti140  1  0.89433888  0.70666120  0.36411412  1
  Ti  Ti141  1  0.20483175  0.79651123  0.75265050  1
  Ti  Ti142  1  0.79517331  0.38814465  0.50831834  1
  Ti  Ti143  1  0.80177497  0.79701957  0.50151067  1
  Ti  Ti144  1  0.71439399  0.11660619  0.63593855  1
  Ti  Ti145  1  0.89624942  0.90576261  0.11651528  1
  Ti  Ti146  1  0.40004369  0.20346074  0.51760579  1
  Ti  Ti147  1  0.00260542  0.20455712  -0.02749699  1
  Ti  Ti148  1  0.20518209  -0.00351820  0.52109708  1
  Ti  Ti149  1  0.20392266  0.20461622  0.50896727  1
  Ti  Ti150  1  0.70240304  0.88572996  0.62284262  1
  Ti  Ti151  1  0.61357713  0.20692175  -0.01591676  1
  Ti  Ti152  1  0.80464051  0.59055485  0.26106827  1
  Ti  Ti153  1  0.90364330  0.48969586  0.12505446  1
  Ti  Ti154  1  0.60978545  0.39948273  -0.00164714  1
  Ti  Ti155  1  -0.00891037  0.38596418  0.48307375  1
  Ti  Ti156  1  0.01660367  0.19930470  0.76248206  1
  Ti  Ti157  1  0.71111559  0.29845614  0.12422274  1
  Ti  Ti158  1  0.60998410  0.20703826  0.52127265  1
  Ti  Ti159  1  0.30138004  0.29236985  0.37623860  1
  Mo  Mo160  1  0.10087534  0.10277228  0.87891395  1
  Mo  Mo161  1  0.70444294  0.70952829  0.60912313  1
  Mo  Mo162  1  0.10128847  0.29691102  0.39692226  1
  Mo  Mo163  1  0.29778526  0.10035392  0.10380179  1
  Mo  Mo164  1  0.19902422  0.39665283  0.74108582  1
  Mo  Mo165  1  0.88854568  0.29255602  0.39882735  1
  Mo  Mo166  1  0.20163627  0.01235719  0.24780111  1
  Mo  Mo167  1  0.80217682  0.79520854  -0.02085454  1
  Mo  Mo168  1  0.60289199  0.00458692  -0.01135867  1
  Mo  Mo169  1  -0.00737217  0.39534653  0.26884326  1
  Mo  Mo170  1  0.49212274  0.69164955  0.86296533  1
  Mo  Mo171  1  0.70572808  0.49421569  0.62539070  1
  Mo  Mo172  1  0.00356463  0.78820771  0.74738065  1
  Mo  Mo173  1  0.19396768  0.00152068  -0.01174940  1
  Mo  Mo174  1  0.39820733  0.60599380  0.75240636  1
  Mo  Mo175  1  -0.01337344  0.19815624  0.49759198  1
  Mo  Mo176  1  0.70544829  0.89599260  0.88011566  1
  Mo  Mo177  1  0.30221364  0.89823943  0.63569511  1
  Mo  Mo178  1  0.19738631  0.20174172  0.73708386  1
  Mo  Mo179  1  0.49631254  0.49893465  0.63493044  1
  Mo  Mo180  1  0.49964254  0.49527949  0.13949652  1
  Mo  Mo181  1  0.89303700  0.49444738  0.39443694  1
  Mo  Mo182  1  0.90073743  0.29818089  0.86288149  1
  Mo  Mo183  1  0.50377274  0.71170722  0.36861210  1
  Mo  Mo184  1  0.40296112  0.39760803  0.24232200  1
  Mo  Mo185  1  0.79793811  0.19982269  0.51100031  1
  Mo  Mo186  1  0.09782820  0.50893376  0.87983143  1
  Mo  Mo187  1  0.70290275  0.10504247  0.87355907  1
  Mo  Mo188  1  0.80701696  0.20105282  0.75973277  1
  Mo  Mo189  1  0.10816809  0.29750779  0.87034884  1
  Mo  Mo190  1  0.89641393  0.09824353  0.38223633  1
  Mo  Mo191  1  0.70808858  0.29784254  0.63994152  1
  Mo  Mo192  1  0.30606116  0.91172681  0.37259926  1
  Mo  Mo193  1  0.69804463  0.30736090  0.86797247  1
  Mo  Mo194  1  0.19170024  0.59668038  -0.00499129  1
  Mo  Mo195  1  0.10081567  0.10505614  0.62063618  1
  Mo  Mo196  1  0.21066311  0.81008094  0.25738958  1
  Mo  Mo197  1  0.39612934  0.00355778  0.00915140  1
  Mo  Mo198  1  0.20242664  0.39141681  0.49321927  1
  Mo  Mo199  1  -0.01986187  0.82459734  0.24440419  1
