# generated using pymatgen
data_HfZrTaTiMo
_symmetry_space_group_name_H-M   'P 1'
_cell_length_a   15.82967573
_cell_length_b   15.84123357
_cell_length_c   15.39104582
_cell_angle_alpha   89.98103708
_cell_angle_beta   89.96651390
_cell_angle_gamma   89.89636837
_symmetry_Int_Tables_number   1
_chemical_formula_structural   HfZrTaTiMo
_chemical_formula_sum   'Hf40 Zr40 Ta40 Ti40 Mo40'
_cell_volume   3859.47594816
_cell_formula_units_Z   40
loop_
 _symmetry_equiv_pos_site_id
 _symmetry_equiv_pos_as_xyz
  1  'x, y, z'
loop_
 _atom_site_type_symbol
 _atom_site_label
 _atom_site_symmetry_multiplicity
 _atom_site_fract_x
 _atom_site_fract_y
 _atom_site_fract_z
 _atom_site_occupancy
  Hf  Hf0  1  0.48720824  0.30588992  0.12303345  1
  Hf  Hf1  1  0.90124986  0.50672270  0.36175562  1
  Hf  Hf2  1  0.20635460  0.58784658  0.75004326  1
  Hf  Hf3  1  0.71439375  0.89481024  0.61714338  1
  Hf  Hf4  1  0.49746698  0.10336429  0.61382299  1
  Hf  Hf5  1  0.39554779  0.00098800  0.75803867  1
  Hf  Hf6  1  0.81353883  0.58801109  0.75211121  1
  Hf  Hf7  1  0.59783311  0.20011681  0.01520021  1
  Hf  Hf8  1  0.59765971  0.00183013  0.24403809  1
  Hf  Hf9  1  0.09319969  0.69894142  0.63781015  1
  Hf  Hf10  1  0.20965838  0.40079013  0.26103123  1
  Hf  Hf11  1  0.00125631  -0.00224301  0.76553025  1
  Hf  Hf12  1  0.69604830  0.30731493  0.37676098  1
  Hf  Hf13  1  0.28956470  0.10232233  0.14309997  1
  Hf  Hf14  1  0.20139743  -0.00572348  0.75362715  1
  Hf  Hf15  1  0.71122647  0.50919476  0.13000887  1
  Hf  Hf16  1  0.59730687  0.40358640  0.24127737  1
  Hf  Hf17  1  0.30166062  0.10269744  0.60534536  1
  Hf  Hf18  1  0.09537091  0.09787113  0.61578509  1
  Hf  Hf19  1  0.49878866  0.90626453  0.62314568  1
  Hf  Hf20  1  0.39423984  0.80753670  0.76254265  1
  Hf  Hf21  1  0.39903505  0.20372903  0.75258169  1
  Hf  Hf22  1  0.79745515  0.39561924  0.74614962  1
  Hf  Hf23  1  0.60376585  0.20129749  0.73711988  1
  Hf  Hf24  1  0.48871403  0.51299397  0.11884898  1
  Hf  Hf25  1  0.69873064  0.10622212  0.37024895  1
  Hf  Hf26  1  0.49262887  0.30355467  0.37884419  1
  Hf  Hf27  1  0.29156578  0.30429943  0.61851230  1
  Hf  Hf28  1  0.00502288  0.20308917  -0.00427311  1
  Hf  Hf29  1  0.89394550  0.09657697  0.89554795  1
  Hf  Hf30  1  0.70180856  0.29617880  0.88080427  1
  Hf  Hf31  1  0.28762974  0.89864336  0.35396749  1
  Hf  Hf32  1  0.50030944  0.30777835  0.87223297  1
  Hf  Hf33  1  0.38884478  0.19365860  -0.00409637  1
  Hf  Hf34  1  0.60565663  0.78834194  0.49774205  1
  Hf  Hf35  1  0.50598560  0.70027221  0.12528135  1
  Hf  Hf36  1  0.91989031  0.67854801  0.87759790  1
  Hf  Hf37  1  0.69763065  0.89084974  0.12571321  1
  Hf  Hf38  1  0.29445105  0.90529080  0.12228846  1
  Hf  Hf39  1  0.60247887  -0.00247624  0.49114176  1
  Zr  Zr40  1  0.79920410  -0.01138392  0.75622435  1
  Zr  Zr41  1  0.49976370  0.49866725  0.37399303  1
  Zr  Zr42  1  0.10004372  0.31934154  0.87141061  1
  Zr  Zr43  1  0.50316920  0.09027994  0.88128457  1
  Zr  Zr44  1  0.89302655  0.70537162  0.62956483  1
  Zr  Zr45  1  0.20167662  0.18797079  0.76952541  1
  Zr  Zr46  1  0.91373649  0.89437212  0.60671105  1
  Zr  Zr47  1  0.29701595  0.70083626  0.37590861  1
  Zr  Zr48  1  0.01083898  0.80553366  0.23133118  1
  Zr  Zr49  1  0.00571345  0.77991284  0.01246001  1
  Zr  Zr50  1  0.89941447  0.10110970  0.12573289  1
  Zr  Zr51  1  0.20358432  -0.01384735  0.50387111  1
  Zr  Zr52  1  0.40527311  0.79816267  -0.00482258  1
  Zr  Zr53  1  0.48725718  0.10809769  0.37294284  1
  Zr  Zr54  1  -0.00158951  0.59631994  0.50505450  1
  Zr  Zr55  1  0.38410284  0.41771334  0.74792386  1
  Zr  Zr56  1  0.61089729  0.81022774  0.76578670  1
  Zr  Zr57  1  0.69474364  0.88735397  0.35898818  1
  Zr  Zr58  1  0.10089324  0.09751863  0.13794398  1
  Zr  Zr59  1  0.10116523  0.29737559  0.63311694  1
  Zr  Zr60  1  0.70116437  0.09555376  0.89422504  1
  Zr  Zr61  1  0.10296481  0.89356352  0.88987098  1
  Zr  Zr62  1  0.40814445  0.60347317  0.50235402  1
  Zr  Zr63  1  0.90324929  0.29522535  0.61476414  1
  Zr  Zr64  1  0.11074549  0.09361861  0.35869795  1
  Zr  Zr65  1  0.61194908  0.59976062  0.49763212  1
  Zr  Zr66  1  0.61203067  0.61297871  -0.01123312  1
  Zr  Zr67  1  0.59876127  0.40872777  0.00120959  1
  Zr  Zr68  1  0.30199581  0.09866570  0.36760147  1
  Zr  Zr69  1  0.90066800  0.50250574  0.13555315  1
  Zr  Zr70  1  0.10547261  0.69102805  0.36856175  1
  Zr  Zr71  1  0.48466000  0.90405422  0.36540119  1
  Zr  Zr72  1  -0.01577048  0.41848709  0.75001711  1
  Zr  Zr73  1  0.00521689  0.20186359  0.47787090  1
  Zr  Zr74  1  0.50665762  0.69574683  0.64759311  1
  Zr  Zr75  1  0.39273609  0.80878395  0.50760074  1
  Zr  Zr76  1  0.80313119  0.19225639  0.74610482  1
  Zr  Zr77  1  0.10465617  0.49813885  0.11961874  1
  Zr  Zr78  1  0.90314714  0.09134483  0.61152171  1
  Zr  Zr79  1  0.90521784  0.30816774  0.13500422  1
  Ta  Ta80  1  0.70148575  0.10116478  0.12722969  1
  Ta  Ta81  1  0.70611563  0.09638121  0.60621349  1
  Ta  Ta82  1  0.39529101  0.40871481  -0.00863174  1
  Ta  Ta83  1  0.39329222  0.59670277  0.25499190  1
  Ta  Ta84  1  0.71094073  0.30408551  0.12711143  1
  Ta  Ta85  1  0.48787773  0.09710007  0.13262952  1
  Ta  Ta86  1  0.30016229  0.29539483  0.39375735  1
  Ta  Ta87  1  0.59948004  0.40377971  0.73749713  1
  Ta  Ta88  1  0.50419997  0.70722519  0.35768406  1
  Ta  Ta89  1  0.70722585  0.70023398  0.13938675  1
  Ta  Ta90  1  0.10675949  0.30148210  0.12721775  1
  Ta  Ta91  1  0.80721820  -0.00376153  0.25024854  1
  Ta  Ta92  1  0.09280890  0.88642675  0.38539529  1
  Ta  Ta93  1  0.70213157  0.50252895  0.86938089  1
  Ta  Ta94  1  0.39529701  0.79326046  0.23561720  1
  Ta  Ta95  1  0.80271575  0.40483624  -0.00772228  1
  Ta  Ta96  1  0.29587244  0.30799783  0.88043940  1
  Ta  Ta97  1  0.00168433  0.40239834  0.48628199  1
  Ta  Ta98  1  0.19689767  0.79121780  0.52000567  1
  Ta  Ta99  1  0.20045437  0.79179215  0.00936120  1
  Ta  Ta100  1  0.50100576  0.69436628  0.86617655  1
  Ta  Ta101  1  0.59692807  0.40464346  0.51901259  1
  Ta  Ta102  1  0.19659605  0.20015604  -0.00677988  1
  Ta  Ta103  1  0.29654423  0.50239238  0.39225223  1
  Ta  Ta104  1  0.80844998  -0.00639312  0.47370258  1
  Ta  Ta105  1  0.18756811  0.40273156  0.48673418  1
  Ta  Ta106  1  0.20239516  0.80193448  0.74904359  1
  Ta  Ta107  1  0.08468553  0.52357821  0.88153604  1
  Ta  Ta108  1  -0.00163532  0.19257794  0.76691865  1
  Ta  Ta109  1  0.59761568  0.20951188  0.50685251  1
  Ta  Ta110  1  0.79488329  0.78009309  -0.00474882  1
  Ta  Ta111  1  0.10507914  0.49274527  0.62549873  1
  Ta  Ta112  1  0.79952186  0.41031136  0.49934714  1
  Ta  Ta113  1  0.89442999  0.30612419  0.36587465  1
  Ta  Ta114  1  0.70334532  0.30006046  0.61380638  1
  Ta  Ta115  1  0.79849363  0.20050433  0.25025877  1
  Ta  Ta116  1  0.90722126  0.70194974  0.36190429  1
  Ta  Ta117  1  0.30246855  0.69269886  0.63463528  1
  Ta  Ta118  1  0.59722163  0.20464351  0.23864574  1
  Ta  Ta119  1  0.80386094  0.79048341  0.47821495  1
  Ti  Ti120  1  0.38720191  0.21768611  0.24403712  1
  Ti  Ti121  1  0.39050002  0.40816603  0.24861900  1
  Ti  Ti122  1  0.28947787  0.31182498  0.10858687  1
  Ti  Ti123  1  0.20492901  0.59341938  0.24582907  1
  Ti  Ti124  1  0.70267134  0.50655053  0.62873528  1
  Ti  Ti125  1  0.20064527  0.01138097  -0.00654996  1
  Ti  Ti126  1  0.00397920  0.20818018  0.25735311  1
  Ti  Ti127  1  0.49631357  0.50976161  0.64008700  1
  Ti  Ti128  1  0.89316037  0.68613709  0.13200584  1
  Ti  Ti129  1  0.80182665  0.19985898  0.48881990  1
  Ti  Ti130  1  0.90315815  0.09736270  0.36446243  1
  Ti  Ti131  1  0.28721840  0.50206598  0.89183229  1
  Ti  Ti132  1  0.89674803  0.89438406  0.11651211  1
  Ti  Ti133  1  0.70341422  0.50083522  0.36781110  1
  Ti  Ti134  1  0.49722728  0.50990021  0.86696992  1
  Ti  Ti135  1  0.89856973  0.89401935  0.89654873  1
  Ti  Ti136  1  0.89518594  0.29923572  0.88255816  1
  Ti  Ti137  1  0.09247825  0.89645131  0.61759635  1
  Ti  Ti138  1  0.30002505  0.50392375  0.10784572  1
  Ti  Ti139  1  0.18810943  0.61136120  -0.00285137  1
  Ti  Ti140  1  -0.00168506  0.40695400  -0.00314078  1
  Ti  Ti141  1  0.60317577  0.60474597  0.25626454  1
  Ti  Ti142  1  -0.00404298  -0.01244397  0.25126743  1
  Ti  Ti143  1  0.79679837  0.60523694  0.49165174  1
  Ti  Ti144  1  0.01587703  0.40380600  0.26575656  1
  Ti  Ti145  1  0.70146756  0.90271485  0.89116081  1
  Ti  Ti146  1  0.29689863  0.69473433  0.87606645  1
  Ti  Ti147  1  0.30316771  0.68683992  0.11858339  1
  Ti  Ti148  1  0.70463813  0.69896949  0.64117921  1
  Ti  Ti149  1  0.60622571  0.00116198  0.74900435  1
  Ti  Ti150  1  0.30388526  0.90763494  0.89512225  1
  Ti  Ti151  1  0.60366635  0.80002652  -0.01120876  1
  Ti  Ti152  1  0.00656343  -0.00518576  0.00720005  1
  Ti  Ti153  1  0.58952537  -0.00722029  0.01075692  1
  Ti  Ti154  1  0.40231103  0.40346631  0.51616866  1
  Ti  Ti155  1  0.79774173  -0.00754238  0.01457817  1
  Ti  Ti156  1  0.00240592  0.80041927  0.76458182  1
  Ti  Ti157  1  0.80528531  0.79768060  0.77369668  1
  Ti  Ti158  1  0.80742248  0.79923276  0.25229812  1
  Ti  Ti159  1  0.49504574  0.89962582  0.12637507  1
  Mo  Mo160  1  0.00443035  0.60224860  0.23992009  1
  Mo  Mo161  1  0.50044215  0.30834152  0.62605266  1
  Mo  Mo162  1  0.20260117  0.22305047  0.24936419  1
  Mo  Mo163  1  0.39588631  0.60142644  0.76478923  1
  Mo  Mo164  1  0.50785145  0.90212220  0.88661952  1
  Mo  Mo165  1  0.39799700  -0.00142270  0.50472120  1
  Mo  Mo166  1  0.39474778  -0.00218172  0.23324452  1
  Mo  Mo167  1  0.70330107  0.69542611  0.35818523  1
  Mo  Mo168  1  0.70913552  0.69903967  0.86484261  1
  Mo  Mo169  1  0.40124964  0.00017363  0.00972345  1
  Mo  Mo170  1  0.80046177  0.20557743  0.01746844  1
  Mo  Mo171  1  0.29772077  0.09696540  0.88628776  1
  Mo  Mo172  1  0.90455702  0.89646576  0.37094894  1
  Mo  Mo173  1  0.59454872  0.79641172  0.23987825  1
  Mo  Mo174  1  0.17969868  -0.02695207  0.24663340  1
  Mo  Mo175  1  0.19695420  0.40678020  0.76238255  1
  Mo  Mo176  1  0.10476394  0.50368266  0.37208482  1
  Mo  Mo177  1  0.60688259  0.59326047  0.75744825  1
  Mo  Mo178  1  0.20323966  0.78948088  0.22847741  1
  Mo  Mo179  1  0.10088136  0.30104521  0.36459103  1
  Mo  Mo180  1  0.20159979  0.59623506  0.51761408  1
  Mo  Mo181  1  0.29562196  0.89485252  0.63154604  1
  Mo  Mo182  1  0.10218668  0.90192262  0.10845609  1
  Mo  Mo183  1  0.90146271  0.49541112  0.89240571  1
  Mo  Mo184  1  0.79927638  0.60577507  0.26326448  1
  Mo  Mo185  1  0.40169212  0.21007925  0.50540961  1
  Mo  Mo186  1  0.00276909  0.60004860  0.01961508  1
  Mo  Mo187  1  0.89653923  0.49949263  0.60243776  1
  Mo  Mo188  1  0.19800973  0.20488135  0.49129728  1
  Mo  Mo189  1  0.00082589  0.79462435  0.49228396  1
  Mo  Mo190  1  0.09628353  0.09763410  0.88498633  1
  Mo  Mo191  1  0.11377444  0.69185001  0.13898002  1
  Mo  Mo192  1  0.79490465  0.39895329  0.26369480  1
  Mo  Mo193  1  0.10949130  0.69860000  0.86254601  1
  Mo  Mo194  1  -0.00139658  -0.00476806  0.48008799  1
  Mo  Mo195  1  0.39369939  0.60053142  -0.01785784  1
  Mo  Mo196  1  0.00248406  0.59486470  0.73599202  1
  Mo  Mo197  1  0.19808069  0.40367983  -0.00608943  1
  Mo  Mo198  1  0.29434136  0.50021281  0.60795888  1
  Mo  Mo199  1  0.80395020  0.59926022  -0.00777186  1
