# generated using pymatgen
data_HfZrTaTiMo
_symmetry_space_group_name_H-M   'P 1'
_cell_length_a   15.83709016
_cell_length_b   15.84448438
_cell_length_c   15.43962719
_cell_angle_alpha   90.04131155
_cell_angle_beta   90.03158677
_cell_angle_gamma   89.91284949
_symmetry_Int_Tables_number   1
_chemical_formula_structural   HfZrTaTiMo
_chemical_formula_sum   'Hf40 Zr40 Ta40 Ti40 Mo40'
_cell_volume   3874.26772348
_cell_formula_units_Z   40
loop_
 _symmetry_equiv_pos_site_id
 _symmetry_equiv_pos_as_xyz
  1  'x, y, z'
loop_
 _atom_site_type_symbol
 _atom_site_label
 _atom_site_symmetry_multiplicity
 _atom_site_fract_x
 _atom_site_fract_y
 _atom_site_fract_z
 _atom_site_occupancy
  Hf  Hf0  1  0.60821836  0.77930627  0.26555835  1
  Hf  Hf1  1  0.88462658  0.70752014  0.37017542  1
  Hf  Hf2  1  -0.00234838  0.58292080  0.00255263  1
  Hf  Hf3  1  0.38692509  0.40317152  0.75085194  1
  Hf  Hf4  1  0.00470240  0.58217616  0.76000281  1
  Hf  Hf5  1  0.88585379  0.88532317  0.86890763  1
  Hf  Hf6  1  0.18918412  0.40028617  0.00580565  1
  Hf  Hf7  1  0.50136202  0.70236594  0.62419730  1
  Hf  Hf8  1  0.50324094  0.49942768  0.63459519  1
  Hf  Hf9  1  0.31719945  0.29145903  0.36368746  1
  Hf  Hf10  1  0.01140019  0.40786108  0.47746669  1
  Hf  Hf11  1  0.49634377  0.10257810  0.11928016  1
  Hf  Hf12  1  0.00103418  0.81393281  0.23680359  1
  Hf  Hf13  1  0.87980859  0.68528259  0.86878152  1
  Hf  Hf14  1  0.59802430  0.20209412  -0.01433248  1
  Hf  Hf15  1  0.29797450  0.49205519  0.36088139  1
  Hf  Hf16  1  0.10353276  0.29882778  0.35593699  1
  Hf  Hf17  1  0.90521154  0.90692916  0.62242895  1
  Hf  Hf18  1  0.59175859  0.21043732  0.50797478  1
  Hf  Hf19  1  0.58993547  -0.01276967  -0.00363643  1
  Hf  Hf20  1  0.20469841  0.18413317  0.25077930  1
  Hf  Hf21  1  0.31010961  0.29713852  0.13044441  1
  Hf  Hf22  1  0.39014564  0.40860012  -0.01054838  1
  Hf  Hf23  1  -0.00908089  0.79570737  0.01449958  1
  Hf  Hf24  1  0.00181839  0.00489852  0.75805035  1
  Hf  Hf25  1  0.20885256  0.18561610  0.48507528  1
  Hf  Hf26  1  0.79043771  -0.01169799  0.00027880  1
  Hf  Hf27  1  0.90429496  0.49681950  0.61487228  1
  Hf  Hf28  1  0.00284905  0.59731381  0.48267926  1
  Hf  Hf29  1  0.80598867  0.20575334  -0.00106388  1
  Hf  Hf30  1  0.20664555  0.58629760  0.00745877  1
  Hf  Hf31  1  0.89899409  0.69363379  0.63028931  1
  Hf  Hf32  1  0.79844644  0.20398988  0.25158477  1
  Hf  Hf33  1  0.41983354  0.59972508  0.24937191  1
  Hf  Hf34  1  0.41320700  0.80871800  0.24088077  1
  Hf  Hf35  1  0.48986163  0.51607691  0.87185682  1
  Hf  Hf36  1  0.31475290  0.69013542  0.89028000  1
  Hf  Hf37  1  0.80228269  0.01089753  0.49894909  1
  Hf  Hf38  1  0.20823175  0.78631705  0.51050196  1
  Hf  Hf39  1  0.39292733  0.80489152  0.73083043  1
  Zr  Zr40  1  0.80561651  0.40483774  0.75179384  1
  Zr  Zr41  1  0.70421867  0.31293962  0.87718723  1
  Zr  Zr42  1  0.10711049  0.29786911  0.62695743  1
  Zr  Zr43  1  0.59832365  0.39933392  0.51001019  1
  Zr  Zr44  1  0.89831698  0.90210319  0.37558107  1
  Zr  Zr45  1  -0.00670075  -0.00639923  0.00492804  1
  Zr  Zr46  1  0.51395991  0.71682179  0.85199574  1
  Zr  Zr47  1  0.69441967  0.50458689  0.38704602  1
  Zr  Zr48  1  0.90333830  0.29758322  0.61754245  1
  Zr  Zr49  1  0.10440258  0.68993482  0.88145826  1
  Zr  Zr50  1  0.20719472  0.78917614  0.74443414  1
  Zr  Zr51  1  0.39154352  0.00630311  0.25686460  1
  Zr  Zr52  1  0.69675761  0.30904600  0.11889464  1
  Zr  Zr53  1  0.42890667  0.80603153  0.00989243  1
  Zr  Zr54  1  0.61261235  0.61890774  -0.01801456  1
  Zr  Zr55  1  0.19525212  0.20674973  -0.00527616  1
  Zr  Zr56  1  0.49048757  0.11159211  0.63004746  1
  Zr  Zr57  1  0.49509970  0.90142575  0.39574839  1
  Zr  Zr58  1  0.30695662  0.70272679  0.36348586  1
  Zr  Zr59  1  0.69740434  0.50891018  0.11269154  1
  Zr  Zr60  1  0.39014700  0.59529223  0.50897055  1
  Zr  Zr61  1  0.69047911  0.10001560  0.37480674  1
  Zr  Zr62  1  -0.00431144  0.19207912  0.47892868  1
  Zr  Zr63  1  0.49235815  0.09253584  0.85675701  1
  Zr  Zr64  1  0.09425421  0.10740124  0.12169884  1
  Zr  Zr65  1  0.29736116  0.09966569  0.63707371  1
  Zr  Zr66  1  0.10184227  0.89286843  0.88096909  1
  Zr  Zr67  1  0.00389767  0.79585371  0.74733232  1
  Zr  Zr68  1  0.69681852  0.89267967  0.13987049  1
  Zr  Zr69  1  0.59031040  0.21065058  0.24937733  1
  Zr  Zr70  1  0.19477315  0.58181822  0.49947929  1
  Zr  Zr71  1  0.09772979  0.09872584  0.62888896  1
  Zr  Zr72  1  0.00768121  0.79699305  0.49948988  1
  Zr  Zr73  1  0.79843186  0.00508200  0.74683503  1
  Zr  Zr74  1  0.77568626  0.60876858  0.25565694  1
  Zr  Zr75  1  0.30617207  0.09921546  0.10790931  1
  Zr  Zr76  1  0.10092821  0.68742968  0.13655926  1
  Zr  Zr77  1  0.11169496  0.69791727  0.35372806  1
  Zr  Zr78  1  0.89903251  0.10893718  0.12625566  1
  Zr  Zr79  1  0.31510445  0.90238962  0.88636122  1
  Ta  Ta80  1  -0.00791920  0.20057821  0.76497386  1
  Ta  Ta81  1  0.00294253  0.00743434  0.25675256  1
  Ta  Ta82  1  0.49267840  0.91235937  0.61685019  1
  Ta  Ta83  1  0.59544317  0.41696629  0.25102388  1
  Ta  Ta84  1  0.69337435  0.09651935  0.12726991  1
  Ta  Ta85  1  0.09240640  0.30416842  0.87198258  1
  Ta  Ta86  1  0.31111132  0.69763691  0.12458046  1
  Ta  Ta87  1  0.09239900  0.48988691  0.14400707  1
  Ta  Ta88  1  0.88828201  0.69356680  0.13466716  1
  Ta  Ta89  1  0.20201363  -0.00463594  0.76292694  1
  Ta  Ta90  1  0.40467661  0.21071281  -0.02329152  1
  Ta  Ta91  1  0.78931676  0.78479521  0.00886499  1
  Ta  Ta92  1  0.20999017  0.81257602  0.23251309  1
  Ta  Ta93  1  0.69058253  0.88210307  0.85472434  1
  Ta  Ta94  1  0.89611157  0.30518251  0.36635449  1
  Ta  Ta95  1  0.20124506  0.79934002  0.01850176  1
  Ta  Ta96  1  0.19857189  -0.00347227  -0.00355578  1
  Ta  Ta97  1  0.79465570  0.20707552  0.49120898  1
  Ta  Ta98  1  0.60552698  0.80702969  0.51178806  1
  Ta  Ta99  1  0.30876896  0.90613243  0.11175424  1
  Ta  Ta100  1  0.50390610  0.50216980  0.11110353  1
  Ta  Ta101  1  0.39730309  0.38735499  0.51779920  1
  Ta  Ta102  1  0.10328054  0.68340048  0.63290419  1
  Ta  Ta103  1  0.10794957  0.90510893  0.62055626  1
  Ta  Ta104  1  -0.01244289  0.58444152  0.26391886  1
  Ta  Ta105  1  0.70241570  0.11218146  0.62622088  1
  Ta  Ta106  1  0.19643540  0.19834778  0.76654013  1
  Ta  Ta107  1  0.70222489  0.30206409  0.63239078  1
  Ta  Ta108  1  0.80154880  -0.00040491  0.24920389  1
  Ta  Ta109  1  0.59188282  -0.00355117  0.25511380  1
  Ta  Ta110  1  0.00890691  0.00514063  0.48548694  1
  Ta  Ta111  1  0.70182083  0.89524204  0.37622757  1
  Ta  Ta112  1  0.79227169  0.80491719  0.51510750  1
  Ta  Ta113  1  0.38328606  0.60103611  0.73585897  1
  Ta  Ta114  1  0.80199527  0.40796916  0.25254872  1
  Ta  Ta115  1  0.80121366  0.20089295  0.75815126  1
  Ta  Ta116  1  0.48380377  0.11418623  0.38287708  1
  Ta  Ta117  1  0.59984828  0.20989238  0.75179815  1
  Ta  Ta118  1  0.70126194  0.70084846  0.63463155  1
  Ta  Ta119  1  0.29545494  0.89994917  0.38677285  1
  Ti  Ti120  1  0.20891340  0.39331322  0.49643536  1
  Ti  Ti121  1  0.30277690  0.09657583  0.87302894  1
  Ti  Ti122  1  0.30632455  0.50300176  0.13637489  1
  Ti  Ti123  1  0.61496842  0.59919160  0.75436981  1
  Ti  Ti124  1  0.49868624  0.30729832  0.37452306  1
  Ti  Ti125  1  0.19715316  -0.00771962  0.24571650  1
  Ti  Ti126  1  0.38543442  0.01501540  0.49586634  1
  Ti  Ti127  1  0.79672727  0.60393649  0.50074554  1
  Ti  Ti128  1  0.50218708  0.70072933  0.39606626  1
  Ti  Ti129  1  0.29718839  0.90763464  0.61144698  1
  Ti  Ti130  1  0.90008949  0.10867262  0.62434493  1
  Ti  Ti131  1  0.29226575  0.30385271  0.86831793  1
  Ti  Ti132  1  0.89787909  0.49623045  0.13087966  1
  Ti  Ti133  1  0.72084868  0.51768081  0.87995282  1
  Ti  Ti134  1  0.50009133  0.30626141  0.11601699  1
  Ti  Ti135  1  0.61138068  0.80317135  0.00180972  1
  Ti  Ti136  1  0.09763751  0.10278491  0.88290349  1
  Ti  Ti137  1  0.81385955  0.40060351  0.00706090  1
  Ti  Ti138  1  0.20642790  0.57681757  0.75671435  1
  Ti  Ti139  1  0.70565575  0.50343510  0.62633681  1
  Ti  Ti140  1  0.41503331  0.40058174  0.24277123  1
  Ti  Ti141  1  0.50265772  0.90584130  0.84804183  1
  Ti  Ti142  1  0.00422728  0.39568064  0.75540009  1
  Ti  Ti143  1  0.90319749  0.48656696  0.88322680  1
  Ti  Ti144  1  0.69674311  0.09331205  0.86812863  1
  Ti  Ti145  1  0.30176223  0.29069250  0.63473926  1
  Ti  Ti146  1  0.80066195  0.39884259  0.49410515  1
  Ti  Ti147  1  -0.00297056  0.38108942  0.01439721  1
  Ti  Ti148  1  0.59950457  0.40205403  0.75610780  1
  Ti  Ti149  1  0.69541972  0.30882056  0.37202275  1
  Ti  Ti150  1  0.11061593  0.90135053  0.37866011  1
  Ti  Ti151  1  0.19951250  0.39699375  0.23819979  1
  Ti  Ti152  1  0.59211761  0.40442451  -0.01709915  1
  Ti  Ti153  1  0.52028710  0.69327749  0.12516019  1
  Ti  Ti154  1  0.10751447  0.48758162  0.63237975  1
  Ti  Ti155  1  0.49612574  0.49750408  0.38749509  1
  Ti  Ti156  1  0.60258035  0.00612227  0.50574358  1
  Ti  Ti157  1  0.89972567  0.10310838  0.88419312  1
  Ti  Ti158  1  0.60363944  0.60554631  0.50569717  1
  Ti  Ti159  1  0.60342570  0.00048147  0.73224960  1
  Mo  Mo160  1  0.90464893  0.30892068  0.14164977  1
  Mo  Mo161  1  0.10660707  0.90526161  0.12242994  1
  Mo  Mo162  1  0.79958093  0.80269656  0.24551158  1
  Mo  Mo163  1  0.69632722  0.91032399  0.62231142  1
  Mo  Mo164  1  0.10295294  0.08909818  0.36364809  1
  Mo  Mo165  1  0.58843376  0.59622344  0.26327859  1
  Mo  Mo166  1  0.29970524  0.09179615  0.37463607  1
  Mo  Mo167  1  0.29463025  0.50383795  0.87808098  1
  Mo  Mo168  1  0.09706192  0.48776931  0.87717756  1
  Mo  Mo169  1  0.40691391  0.60169348  0.01809985  1
  Mo  Mo170  1  0.89887047  0.10364682  0.36466917  1
  Mo  Mo171  1  0.19669336  -0.00743286  0.49369131  1
  Mo  Mo172  1  0.79872176  0.59044301  0.73768217  1
  Mo  Mo173  1  0.49764516  0.30683033  0.86512224  1
  Mo  Mo174  1  0.28952068  0.48487891  0.62286583  1
  Mo  Mo175  1  0.40727599  0.20539015  0.24862890  1
  Mo  Mo176  1  0.39969883  0.80543556  0.51178740  1
  Mo  Mo177  1  0.19308833  0.39721373  0.75948797  1
  Mo  Mo178  1  0.09052790  0.29937352  0.14141232  1
  Mo  Mo179  1  0.89042303  0.49896833  0.38289098  1
  Mo  Mo180  1  0.89552324  0.89948240  0.13372321  1
  Mo  Mo181  1  0.50617351  0.90183862  0.13428666  1
  Mo  Mo182  1  -0.00732083  0.39974082  0.25266612  1
  Mo  Mo183  1  0.20797923  0.59547281  0.23452013  1
  Mo  Mo184  1  0.69472038  0.70586010  0.40566284  1
  Mo  Mo185  1  0.80855492  0.59590162  0.00648300  1
  Mo  Mo186  1  0.79662343  0.80035684  0.73103939  1
  Mo  Mo187  1  0.70954856  0.70827139  0.85121603  1
  Mo  Mo188  1  -0.00338062  0.19955719  0.26206030  1
  Mo  Mo189  1  0.10627912  0.49491419  0.34998008  1
  Mo  Mo190  1  0.39279025  0.20688434  0.76927596  1
  Mo  Mo191  1  0.40335750  0.00347236  -0.00459076  1
  Mo  Mo192  1  -0.00536828  0.20749096  -0.01457415  1
  Mo  Mo193  1  0.90439197  0.30161981  0.87523350  1
  Mo  Mo194  1  0.49890154  0.30228644  0.64692427  1
  Mo  Mo195  1  0.39908856  0.20879721  0.49970958  1
  Mo  Mo196  1  0.60059953  0.81268864  0.72441664  1
  Mo  Mo197  1  0.69947566  0.69851014  0.12423896  1
  Mo  Mo198  1  0.39138987  -0.00332126  0.73937592  1
  Mo  Mo199  1  0.29162467  0.68935426  0.62844220  1
