# generated using pymatgen
data_HfZrTaTiMo
_symmetry_space_group_name_H-M   'P 1'
_cell_length_a   15.83116723
_cell_length_b   15.84041815
_cell_length_c   15.38568537
_cell_angle_alpha   90.04362699
_cell_angle_beta   89.99852518
_cell_angle_gamma   90.02043511
_symmetry_Int_Tables_number   1
_chemical_formula_structural   HfZrTaTiMo
_chemical_formula_sum   'Hf40 Zr40 Ta40 Ti40 Mo40'
_cell_volume   3858.30247465
_cell_formula_units_Z   40
loop_
 _symmetry_equiv_pos_site_id
 _symmetry_equiv_pos_as_xyz
  1  'x, y, z'
loop_
 _atom_site_type_symbol
 _atom_site_label
 _atom_site_symmetry_multiplicity
 _atom_site_fract_x
 _atom_site_fract_y
 _atom_site_fract_z
 _atom_site_occupancy
  Hf  Hf0  1  0.80083027  0.39718704  0.25629172  1
  Hf  Hf1  1  0.69728787  0.50005128  0.86441940  1
  Hf  Hf2  1  0.39948442  0.40659577  0.24355371  1
  Hf  Hf3  1  0.20895424  0.79612686  0.75391981  1
  Hf  Hf4  1  0.20556521  0.20427557  0.49481579  1
  Hf  Hf5  1  0.20613463  0.40854093  0.75731673  1
  Hf  Hf6  1  0.80760149  0.39554480  0.74963633  1
  Hf  Hf7  1  0.10206711  0.09459069  0.37712817  1
  Hf  Hf8  1  0.21147070  -0.00946953  0.75671561  1
  Hf  Hf9  1  0.00597567  0.40585937  -0.00701340  1
  Hf  Hf10  1  -0.00453950  0.61017741  0.49851943  1
  Hf  Hf11  1  0.00261786  -0.01250357  0.23754018  1
  Hf  Hf12  1  0.09748918  0.69547395  0.62774962  1
  Hf  Hf13  1  0.40087836  0.19908861  -0.00062624  1
  Hf  Hf14  1  0.40028635  0.40508529  0.73687886  1
  Hf  Hf15  1  0.50010157  0.50978702  0.88324711  1
  Hf  Hf16  1  0.60041700  0.80630460  -0.00585956  1
  Hf  Hf17  1  0.09270495  0.29538878  0.86458998  1
  Hf  Hf18  1  0.69192761  0.09286336  0.85434167  1
  Hf  Hf19  1  0.30837275  0.50633688  0.89057509  1
  Hf  Hf20  1  0.79420906  0.19769238  0.25949369  1
  Hf  Hf21  1  0.40628979  0.21049575  0.50197984  1
  Hf  Hf22  1  0.39928052  0.20476039  0.25134804  1
  Hf  Hf23  1  0.79828739  0.40202932  0.50534683  1
  Hf  Hf24  1  0.10636525  0.89808123  0.37769704  1
  Hf  Hf25  1  0.19912068  0.39729841  -0.00135449  1
  Hf  Hf26  1  0.58723353  0.39929320  0.51362167  1
  Hf  Hf27  1  0.59810447  0.59813486  0.01480104  1
  Hf  Hf28  1  0.50645657  0.29643241  0.87395721  1
  Hf  Hf29  1  0.39056866  0.60678662  0.73806496  1
  Hf  Hf30  1  0.79498121  0.18321933  0.50550807  1
  Hf  Hf31  1  0.69224898  0.28547417  0.62517267  1
  Hf  Hf32  1  0.20142858  0.80967210  0.23135264  1
  Hf  Hf33  1  0.09517373  0.09575283  0.87811860  1
  Hf  Hf34  1  0.89257466  0.70692877  0.36639540  1
  Hf  Hf35  1  0.79326417  0.61754658  0.50905931  1
  Hf  Hf36  1  0.61353449  0.80409178  0.51365993  1
  Hf  Hf37  1  0.60778453  0.19115090  0.00804600  1
  Hf  Hf38  1  0.80105919  0.59995390  0.00210622  1
  Hf  Hf39  1  0.80059383  0.59116938  0.24786665  1
  Zr  Zr40  1  0.39372774  0.80269793  0.50629961  1
  Zr  Zr41  1  0.00250832  0.40269273  0.25433323  1
  Zr  Zr42  1  -0.00635573  -0.00760335  0.50867510  1
  Zr  Zr43  1  0.59681264  0.59413762  0.23707385  1
  Zr  Zr44  1  0.89759429  0.08990349  0.37896992  1
  Zr  Zr45  1  0.10173514  0.49895819  0.61717667  1
  Zr  Zr46  1  0.60742472  0.40272457  0.23860767  1
  Zr  Zr47  1  0.49432003  0.50662479  0.38057055  1
  Zr  Zr48  1  0.59065444  0.39780601  0.73778537  1
  Zr  Zr49  1  0.29551652  0.69548351  0.36218645  1
  Zr  Zr50  1  0.91080954  0.29708187  0.11313256  1
  Zr  Zr51  1  0.20628959  0.79516114  0.50578403  1
  Zr  Zr52  1  0.00147401  0.79620264  0.23755415  1
  Zr  Zr53  1  0.20173157  0.20708864  -0.00194201  1
  Zr  Zr54  1  0.10694492  0.51329978  0.37887162  1
  Zr  Zr55  1  0.91479246  0.29363376  0.61958392  1
  Zr  Zr56  1  0.70337760  0.51201173  0.63435717  1
  Zr  Zr57  1  0.40287567  0.39629383  0.01248910  1
  Zr  Zr58  1  0.20786870  0.20094312  0.75282243  1
  Zr  Zr59  1  0.10852372  0.10356956  0.12502628  1
  Zr  Zr60  1  0.39236671  -0.00865675  0.23748400  1
  Zr  Zr61  1  0.09942958  0.89787681  0.62762517  1
  Zr  Zr62  1  0.30487568  0.09507054  0.62528961  1
  Zr  Zr63  1  0.79918424  0.39615070  -0.00788580  1
  Zr  Zr64  1  0.70205244  0.69912297  0.85863947  1
  Zr  Zr65  1  0.29727405  0.09244060  0.37038371  1
  Zr  Zr66  1  0.50809272  0.89783835  0.37204255  1
  Zr  Zr67  1  0.78193013  0.00096980  0.01293548  1
  Zr  Zr68  1  0.70005168  0.90124102  0.86148414  1
  Zr  Zr69  1  0.42234584  0.00211320  0.76401936  1
  Zr  Zr70  1  0.89831699  0.10668529  0.12087187  1
  Zr  Zr71  1  0.09754124  0.30137963  0.62016299  1
  Zr  Zr72  1  0.70876179  0.71210782  0.13465596  1
  Zr  Zr73  1  0.51067156  0.10147851  0.38201700  1
  Zr  Zr74  1  0.30373800  0.70936112  0.89445309  1
  Zr  Zr75  1  0.60263621  0.00464832  0.23406979  1
  Zr  Zr76  1  -0.00228450  -0.00733667  0.00639102  1
  Zr  Zr77  1  0.89283670  0.89539090  0.87174201  1
  Zr  Zr78  1  0.00557489  0.20980513  0.26115860  1
  Zr  Zr79  1  0.49764250  0.70102535  0.37126907  1
  Ta  Ta80  1  0.19623504  0.60228318  0.76481283  1
  Ta  Ta81  1  0.69539163  0.71038890  0.36408090  1
  Ta  Ta82  1  0.89019671  0.89519713  0.37346153  1
  Ta  Ta83  1  0.21347462  0.40430230  0.48894395  1
  Ta  Ta84  1  0.00431769  -0.00484325  0.75405569  1
  Ta  Ta85  1  0.40702238  -0.00093198  -0.00354961  1
  Ta  Ta86  1  0.90381129  0.09490941  0.63620369  1
  Ta  Ta87  1  0.69761125  0.29084951  0.86371201  1
  Ta  Ta88  1  0.79925756  -0.00581821  0.24052441  1
  Ta  Ta89  1  0.11168017  0.89241092  0.89132100  1
  Ta  Ta90  1  0.60383977  0.20324565  0.24599350  1
  Ta  Ta91  1  0.38616494  0.59958716  0.51829133  1
  Ta  Ta92  1  0.40558651  0.20206461  0.75113640  1
  Ta  Ta93  1  0.58564200  0.80739721  0.74861638  1
  Ta  Ta94  1  0.90813398  0.50419979  0.62599352  1
  Ta  Ta95  1  0.30561835  0.09832730  0.87971604  1
  Ta  Ta96  1  0.29237958  0.50705102  0.11892150  1
  Ta  Ta97  1  0.79369598  -0.01380289  0.51683716  1
  Ta  Ta98  1  0.69719455  0.50610518  0.38869847  1
  Ta  Ta99  1  0.20038840  0.39726257  0.25249192  1
  Ta  Ta100  1  0.09693156  0.69174076  0.11108815  1
  Ta  Ta101  1  0.70745700  0.89737486  0.36801771  1
  Ta  Ta102  1  0.89597655  0.70074513  0.87140639  1
  Ta  Ta103  1  0.89611258  0.09767258  0.86562454  1
  Ta  Ta104  1  0.39706807  0.60350210  0.22522512  1
  Ta  Ta105  1  0.39405135  0.40388511  0.50780500  1
  Ta  Ta106  1  0.18600766  0.59706710  -0.00769228  1
  Ta  Ta107  1  0.50287212  0.30401933  0.37371652  1
  Ta  Ta108  1  0.09243296  0.10497421  0.62600568  1
  Ta  Ta109  1  0.90642239  0.50510743  0.12042818  1
  Ta  Ta110  1  0.00429995  0.59909050  0.76450530  1
  Ta  Ta111  1  0.69032230  0.29476848  0.38754170  1
  Ta  Ta112  1  0.49615684  0.70781654  0.62718396  1
  Ta  Ta113  1  0.89897245  0.50048472  0.38741518  1
  Ta  Ta114  1  -0.00137588  0.79010256  -0.00329339  1
  Ta  Ta115  1  0.79947512  0.19509994  0.74554827  1
  Ta  Ta116  1  0.39864961  -0.00633588  0.50087074  1
  Ta  Ta117  1  0.60658107  0.39786900  0.01015665  1
  Ta  Ta118  1  0.59587975  0.60911467  0.51213153  1
  Ta  Ta119  1  0.39686538  0.80408634  0.23165758  1
  Ti  Ti120  1  0.00063534  0.59953950  0.25204491  1
  Ti  Ti121  1  0.30087737  0.50757052  0.36865538  1
  Ti  Ti122  1  0.90097919  0.50600944  0.87170028  1
  Ti  Ti123  1  0.59003849  -0.00122321  0.00458091  1
  Ti  Ti124  1  0.80078947  0.80284422  0.51626215  1
  Ti  Ti125  1  0.90417482  0.69550656  0.11978547  1
  Ti  Ti126  1  0.70342672  0.90028903  0.64647836  1
  Ti  Ti127  1  0.39695931  0.81014764  0.75249201  1
  Ti  Ti128  1  0.28691032  0.90889116  0.10201424  1
  Ti  Ti129  1  0.29851098  0.30445332  0.62645784  1
  Ti  Ti130  1  0.60870555  0.00671674  0.51847149  1
  Ti  Ti131  1  0.70916281  0.29318993  0.12142232  1
  Ti  Ti132  1  0.49546075  0.70358307  0.87583335  1
  Ti  Ti133  1  0.69456954  0.89287775  0.13402105  1
  Ti  Ti134  1  0.29696497  0.69928308  0.10890578  1
  Ti  Ti135  1  0.88706163  0.88265874  0.11837767  1
  Ti  Ti136  1  -0.01106758  0.79920102  0.50219176  1
  Ti  Ti137  1  0.29453523  0.09798916  0.12406620  1
  Ti  Ti138  1  0.09691558  0.50064613  0.12648178  1
  Ti  Ti139  1  0.50077254  0.71152728  0.12703920  1
  Ti  Ti140  1  0.49845154  0.90755056  0.62300274  1
  Ti  Ti141  1  0.00731274  0.79532053  0.76676927  1
  Ti  Ti142  1  0.49711313  0.10055224  0.12478249  1
  Ti  Ti143  1  0.69771009  0.08982290  0.37815458  1
  Ti  Ti144  1  0.09805616  0.30777224  0.39200779  1
  Ti  Ti145  1  0.89996513  0.89265241  0.64306993  1
  Ti  Ti146  1  0.21124548  -0.01058744  0.50866144  1
  Ti  Ti147  1  0.58841467  0.60721827  0.73737988  1
  Ti  Ti148  1  -0.00015769  0.40640853  0.75727465  1
  Ti  Ti149  1  0.90512744  0.29931812  0.39616110  1
  Ti  Ti150  1  0.50501065  0.29759119  0.12770244  1
  Ti  Ti151  1  0.89591469  0.70015963  0.64795377  1
  Ti  Ti152  1  0.10180346  0.70227228  0.37331833  1
  Ti  Ti153  1  0.19935587  0.20915382  0.25780308  1
  Ti  Ti154  1  0.79798617  0.19562817  -0.01180598  1
  Ti  Ti155  1  0.58350747  0.18071322  0.73387068  1
  Ti  Ti156  1  0.29060711  0.29897477  0.13493086  1
  Ti  Ti157  1  0.90230129  0.28734888  0.87092569  1
  Ti  Ti158  1  0.19799609  0.60177366  0.23563467  1
  Ti  Ti159  1  0.40591823  0.81016153  0.00735103  1
  Mo  Mo160  1  0.10066887  0.89559527  0.10531722  1
  Mo  Mo161  1  0.70097672  0.09093088  0.63455191  1
  Mo  Mo162  1  -0.00274744  0.59801169  -0.01132460  1
  Mo  Mo163  1  0.19791529  0.79944896  0.01088834  1
  Mo  Mo164  1  0.60082110  0.19579912  0.49684633  1
  Mo  Mo165  1  0.59565353  0.80435905  0.25146482  1
  Mo  Mo166  1  0.09850047  0.50033797  0.86847405  1
  Mo  Mo167  1  0.20476624  0.60140665  0.49785328  1
  Mo  Mo168  1  0.49603684  0.50073757  0.11422448  1
  Mo  Mo169  1  0.80323442  0.79737933  0.00650242  1
  Mo  Mo170  1  0.81073568  0.59769066  0.74789786  1
  Mo  Mo171  1  0.50583644  0.09854852  0.88461749  1
  Mo  Mo172  1  0.40217346  0.61002993  0.01788676  1
  Mo  Mo173  1  0.09547904  0.70153217  0.88419014  1
  Mo  Mo174  1  0.49453987  0.50914054  0.61547381  1
  Mo  Mo175  1  0.80073743  0.79609482  0.73859449  1
  Mo  Mo176  1  0.30108393  0.31003219  0.36811214  1
  Mo  Mo177  1  0.10833117  0.30563244  0.12833836  1
  Mo  Mo178  1  0.69520745  0.70855249  0.64087003  1
  Mo  Mo179  1  0.00288487  0.19598550  0.49245652  1
  Mo  Mo180  1  0.29805263  0.90260646  0.36395945  1
  Mo  Mo181  1  0.30691260  0.29716108  0.86242680  1
  Mo  Mo182  1  0.50057396  0.89351245  0.88306429  1
  Mo  Mo183  1  0.80166888  0.80468199  0.24501608  1
  Mo  Mo184  1  -0.00776791  0.20190958  -0.01450915  1
  Mo  Mo185  1  0.70032178  0.10339184  0.12788622  1
  Mo  Mo186  1  0.19982704  -0.00389317  0.24088751  1
  Mo  Mo187  1  0.29536592  0.70065140  0.63673473  1
  Mo  Mo188  1  0.49224547  0.29433385  0.62534612  1
  Mo  Mo189  1  0.30466911  0.90194893  0.89206999  1
  Mo  Mo190  1  0.80560078  -0.00180048  0.73533183  1
  Mo  Mo191  1  0.49842052  0.89729678  0.11640573  1
  Mo  Mo192  1  0.20842039  0.00154317  -0.01021082  1
  Mo  Mo193  1  0.31103551  0.90005027  0.63225870  1
  Mo  Mo194  1  0.59806887  -0.00270029  0.73411386  1
  Mo  Mo195  1  0.00011407  0.40431017  0.49000011  1
  Mo  Mo196  1  0.70912050  0.49228129  0.11762064  1
  Mo  Mo197  1  0.50422167  0.09871697  0.60851728  1
  Mo  Mo198  1  -0.00423102  0.19276274  0.75832123  1
  Mo  Mo199  1  0.28984848  0.50341797  0.61953974  1
