# generated using pymatgen
data_HfZrTaTiMo
_symmetry_space_group_name_H-M   'P 1'
_cell_length_a   15.84233240
_cell_length_b   15.83334417
_cell_length_c   15.40475140
_cell_angle_alpha   90.00261180
_cell_angle_beta   89.98380490
_cell_angle_gamma   90.04969611
_symmetry_Int_Tables_number   1
_chemical_formula_structural   HfZrTaTiMo
_chemical_formula_sum   'Hf40 Zr40 Ta40 Ti40 Mo40'
_cell_volume   3864.08157655
_cell_formula_units_Z   40
loop_
 _symmetry_equiv_pos_site_id
 _symmetry_equiv_pos_as_xyz
  1  'x, y, z'
loop_
 _atom_site_type_symbol
 _atom_site_label
 _atom_site_symmetry_multiplicity
 _atom_site_fract_x
 _atom_site_fract_y
 _atom_site_fract_z
 _atom_site_occupancy
  Hf  Hf0  1  0.70966591  0.50977061  0.60714985  1
  Hf  Hf1  1  0.49814079  0.11029367  0.88082500  1
  Hf  Hf2  1  0.10121590  0.89794512  0.87284104  1
  Hf  Hf3  1  0.89878099  0.28153345  0.40644757  1
  Hf  Hf4  1  0.29970010  0.50271188  0.85121909  1
  Hf  Hf5  1  0.09466736  0.89612526  0.61073486  1
  Hf  Hf6  1  0.19051218  0.39260387  -0.00574574  1
  Hf  Hf7  1  0.09946608  0.51252085  0.63784421  1
  Hf  Hf8  1  0.39406666  -0.00581657  0.00992969  1
  Hf  Hf9  1  0.40176204  0.19244622  0.49485557  1
  Hf  Hf10  1  0.50504157  0.51355477  0.89497253  1
  Hf  Hf11  1  0.01387931  0.00814131  0.00218183  1
  Hf  Hf12  1  0.29011396  0.09377155  0.36195133  1
  Hf  Hf13  1  0.69941667  0.10234909  0.63253377  1
  Hf  Hf14  1  0.10930828  0.70373963  0.12809410  1
  Hf  Hf15  1  0.90330874  0.69982287  0.12351278  1
  Hf  Hf16  1  0.10304675  0.49592416  0.85012483  1
  Hf  Hf17  1  0.42246327  0.39686523  0.73628428  1
  Hf  Hf18  1  0.38433064  0.41110609  0.00839632  1
  Hf  Hf19  1  0.69603120  0.90312994  0.62036010  1
  Hf  Hf20  1  0.70349779  0.31163925  0.38562427  1
  Hf  Hf21  1  0.50729976  0.29876820  0.10938892  1
  Hf  Hf22  1  0.88216676  0.29556532  0.87716771  1
  Hf  Hf23  1  0.40088587  0.60031035  0.50400788  1
  Hf  Hf24  1  0.00507998  0.59536064  -0.01128810  1
  Hf  Hf25  1  0.39430408  0.00006761  0.23103894  1
  Hf  Hf26  1  -0.01437350  0.38357358  0.25325383  1
  Hf  Hf27  1  0.91369731  0.10254007  0.13460538  1
  Hf  Hf28  1  0.50736254  0.30599003  0.89727726  1
  Hf  Hf29  1  0.50094947  0.49506432  0.37047748  1
  Hf  Hf30  1  0.90228589  0.89406587  0.89027574  1
  Hf  Hf31  1  0.91090325  0.70789632  0.60870547  1
  Hf  Hf32  1  0.90144952  0.51144146  0.62473105  1
  Hf  Hf33  1  0.58443519  0.00496088  0.47354192  1
  Hf  Hf34  1  0.60617067  0.81710037  0.47021121  1
  Hf  Hf35  1  0.50536754  0.50560653  0.12253818  1
  Hf  Hf36  1  0.00877388  0.81268072  0.26205928  1
  Hf  Hf37  1  0.30593583  0.70331957  0.36509861  1
  Hf  Hf38  1  0.89609994  0.10442527  0.60952047  1
  Hf  Hf39  1  0.41422860  0.60800145  0.73806619  1
  Zr  Zr40  1  -0.00327740  0.19223386  0.74697395  1
  Zr  Zr41  1  0.27507819  0.28660101  0.13514084  1
  Zr  Zr42  1  0.60546148  -0.00928844  0.77734104  1
  Zr  Zr43  1  0.70197231  0.10572887  0.13265856  1
  Zr  Zr44  1  0.70963555  0.70779001  0.61043161  1
  Zr  Zr45  1  0.20110172  0.39818478  0.50971852  1
  Zr  Zr46  1  0.89596212  0.48832939  0.38897406  1
  Zr  Zr47  1  0.59942713  0.79810098  0.76567245  1
  Zr  Zr48  1  0.17782041  0.39624953  0.26017659  1
  Zr  Zr49  1  0.80118593  0.00318069  -0.00025485  1
  Zr  Zr50  1  -0.00505818  0.38861344  0.74706113  1
  Zr  Zr51  1  0.30097310  0.29649808  0.86061288  1
  Zr  Zr52  1  0.60950651  0.41137757  0.73977938  1
  Zr  Zr53  1  0.30967366  0.90460930  0.62135186  1
  Zr  Zr54  1  0.20523535  0.00069900  0.01013488  1
  Zr  Zr55  1  0.59602395  0.19788191  0.50080107  1
  Zr  Zr56  1  0.10199296  0.69647800  0.85483255  1
  Zr  Zr57  1  0.80420232  -0.00075258  0.75902034  1
  Zr  Zr58  1  0.00061817  0.60004617  0.26742570  1
  Zr  Zr59  1  0.29941307  0.09255521  0.63523879  1
  Zr  Zr60  1  0.09563216  0.09916852  0.38498254  1
  Zr  Zr61  1  0.40269792  0.39316359  0.24129243  1
  Zr  Zr62  1  0.79215625  -0.00950130  0.48422059  1
  Zr  Zr63  1  0.50491420  0.71696290  0.61074675  1
  Zr  Zr64  1  0.60192109  0.61224748  0.47998333  1
  Zr  Zr65  1  0.38007586  0.18798274  0.01375630  1
  Zr  Zr66  1  0.80015699  0.80235907  0.75749942  1
  Zr  Zr67  1  0.21165746  0.59777626  -0.00330337  1
  Zr  Zr68  1  0.09706756  0.49648874  0.12667495  1
  Zr  Zr69  1  0.60423733  0.60441386  0.75228835  1
  Zr  Zr70  1  0.29534853  0.29460308  0.37441977  1
  Zr  Zr71  1  0.81242982  0.21952434  0.24063060  1
  Zr  Zr72  1  0.71024710  0.11103645  0.36306476  1
  Zr  Zr73  1  0.70067069  0.50038684  0.37320842  1
  Zr  Zr74  1  0.89646082  0.49318706  0.11602533  1
  Zr  Zr75  1  0.21023891  0.80336208  0.74407825  1
  Zr  Zr76  1  0.29968918  0.49995275  0.37148664  1
  Zr  Zr77  1  0.59478446  0.22401438  0.74234538  1
  Zr  Zr78  1  0.60825415  -0.00142152  -0.00162449  1
  Zr  Zr79  1  0.49201014  0.09276933  0.64293249  1
  Ta  Ta80  1  0.30181298  0.69657478  0.14067133  1
  Ta  Ta81  1  0.08118069  0.28657908  0.11556042  1
  Ta  Ta82  1  0.00022581  0.39346553  0.51908721  1
  Ta  Ta83  1  0.59180399  0.39929906  0.51663132  1
  Ta  Ta84  1  0.20650671  0.80089375  0.49425256  1
  Ta  Ta85  1  0.79318394  0.79603810  0.01392853  1
  Ta  Ta86  1  0.69639006  0.69936489  0.89617620  1
  Ta  Ta87  1  0.89584463  0.69769875  0.88672573  1
  Ta  Ta88  1  -0.00950317  -0.01168863  0.48402578  1
  Ta  Ta89  1  -0.00366670  0.39162587  -0.01453463  1
  Ta  Ta90  1  0.59514311  0.00309995  0.25123608  1
  Ta  Ta91  1  0.09823827  0.70079948  0.61902686  1
  Ta  Ta92  1  0.39348802  0.79037799  0.01157148  1
  Ta  Ta93  1  0.88971019  0.49922897  0.87237035  1
  Ta  Ta94  1  0.90872760  0.90204510  0.12850259  1
  Ta  Ta95  1  0.17646851  -0.01454675  0.24407528  1
  Ta  Ta96  1  0.30203104  0.29326330  0.63821233  1
  Ta  Ta97  1  0.59438536  0.20902780  0.24950395  1
  Ta  Ta98  1  0.41064055  0.80128126  0.76371094  1
  Ta  Ta99  1  0.29362171  0.50793880  0.14133064  1
  Ta  Ta100  1  0.09973741  0.08939812  0.61423165  1
  Ta  Ta101  1  0.70351969  0.89714047  0.13701861  1
  Ta  Ta102  1  0.31355140  0.69724844  0.87403708  1
  Ta  Ta103  1  0.20223948  0.60569526  0.50608464  1
  Ta  Ta104  1  0.29836804  0.09365008  0.85826390  1
  Ta  Ta105  1  0.50041662  0.88217339  0.90228930  1
  Ta  Ta106  1  0.18936015  0.19786956  0.75411213  1
  Ta  Ta107  1  0.70077025  0.31328995  0.10753384  1
  Ta  Ta108  1  0.72091144  0.72256959  0.35610727  1
  Ta  Ta109  1  0.18285636  0.18719917  -0.01933870  1
  Ta  Ta110  1  0.40407006  0.80852332  0.48273028  1
  Ta  Ta111  1  0.49881286  0.90417587  0.62100646  1
  Ta  Ta112  1  0.79927150  0.60428944  0.76093363  1
  Ta  Ta113  1  0.28855018  0.88337481  0.13571046  1
  Ta  Ta114  1  0.40294345  0.19383119  0.24501033  1
  Ta  Ta115  1  0.80125772  0.60278038  0.24895584  1
  Ta  Ta116  1  0.29912715  0.49926145  0.63467845  1
  Ta  Ta117  1  0.70822341  0.13253795  0.87350667  1
  Ta  Ta118  1  0.50190717  0.30119510  0.37673044  1
  Ta  Ta119  1  0.89928328  0.10176886  0.87289811  1
  Ti  Ti120  1  0.71749180  0.29574534  0.61169190  1
  Ti  Ti121  1  0.30227341  0.89417331  0.88085023  1
  Ti  Ti122  1  0.09511988  0.70303609  0.39600261  1
  Ti  Ti123  1  0.50269938  0.89268897  0.12363736  1
  Ti  Ti124  1  0.00421805  0.19822420  0.25984559  1
  Ti  Ti125  1  0.79654077  0.40343592  0.23747028  1
  Ti  Ti126  1  0.19150761  0.60127281  0.26590018  1
  Ti  Ti127  1  0.29541067  0.90041361  0.36431920  1
  Ti  Ti128  1  0.00284628  0.19657311  -0.01496985  1
  Ti  Ti129  1  0.30197796  0.70550109  0.62337936  1
  Ti  Ti130  1  0.09596488  0.29274488  0.39372193  1
  Ti  Ti131  1  0.40690508  0.60199633  0.24509955  1
  Ti  Ti132  1  0.81135984  -0.00504518  0.25599271  1
  Ti  Ti133  1  0.48899353  0.89710650  0.34849559  1
  Ti  Ti134  1  0.80451943  0.20413546  0.01144428  1
  Ti  Ti135  1  0.60983114  0.60712356  0.01471472  1
  Ti  Ti136  1  0.50677988  0.10324650  0.11942225  1
  Ti  Ti137  1  0.40717935  -0.01441115  0.76924203  1
  Ti  Ti138  1  0.81001922  0.61590948  0.47839351  1
  Ti  Ti139  1  0.10080647  0.29059297  0.62366936  1
  Ti  Ti140  1  0.39860085  -0.00294239  0.48145049  1
  Ti  Ti141  1  0.10488441  0.10554604  0.13983120  1
  Ti  Ti142  1  -0.00879325  0.80307545  0.74649844  1
  Ti  Ti143  1  0.60387995  0.79916339  0.24237989  1
  Ti  Ti144  1  0.69815365  0.31953008  0.89322380  1
  Ti  Ti145  1  0.19143462  0.00007881  0.75340031  1
  Ti  Ti146  1  0.20231686  0.79670834  -0.00179300  1
  Ti  Ti147  1  0.00828104  0.79985690  0.00513195  1
  Ti  Ti148  1  -0.00463444  -0.00653613  0.74350882  1
  Ti  Ti149  1  0.09429991  0.49871014  0.39551324  1
  Ti  Ti150  1  0.60619999  0.39929600  0.24193871  1
  Ti  Ti151  1  0.88467146  0.88004709  0.37116722  1
  Ti  Ti152  1  0.79468893  0.39885661  0.74270887  1
  Ti  Ti153  1  0.78954609  0.59293284  0.00550284  1
  Ti  Ti154  1  0.50047855  0.70316665  0.12435998  1
  Ti  Ti155  1  0.60954881  0.60699763  0.24662011  1
  Ti  Ti156  1  0.20194839  0.19322380  0.51185558  1
  Ti  Ti157  1  0.19426258  0.79878612  0.26270004  1
  Ti  Ti158  1  0.40281389  0.39705840  0.51153403  1
  Ti  Ti159  1  0.49973023  0.70666356  0.35805913  1
  Mo  Mo160  1  0.70754362  0.50596285  0.87654368  1
  Mo  Mo161  1  0.09462309  0.29360657  0.87848433  1
  Mo  Mo162  1  0.69848413  0.50403458  0.14093080  1
  Mo  Mo163  1  0.40217686  0.79994418  0.24132980  1
  Mo  Mo164  1  0.49325709  0.10301999  0.35537186  1
  Mo  Mo165  1  0.80829208  0.80002075  0.22820635  1
  Mo  Mo166  1  0.69981475  0.69666749  0.13445399  1
  Mo  Mo167  1  0.18754179  0.19687259  0.25465001  1
  Mo  Mo168  1  0.09663379  0.09244621  0.85864428  1
  Mo  Mo169  1  0.00726440  0.19565082  0.51556925  1
  Mo  Mo170  1  0.20987606  0.60808613  0.73011489  1
  Mo  Mo171  1  0.49741865  0.69874946  0.90182820  1
  Mo  Mo172  1  0.00793007  0.59827359  0.49233681  1
  Mo  Mo173  1  0.90415410  0.90049000  0.61488662  1
  Mo  Mo174  1  0.80043949  0.40049179  0.51584218  1
  Mo  Mo175  1  0.09776871  0.89194480  0.11817285  1
  Mo  Mo176  1  0.60838796  0.41590180  0.00421317  1
  Mo  Mo177  1  0.90422056  0.29790363  0.10536538  1
  Mo  Mo178  1  0.10874188  0.89819653  0.39210835  1
  Mo  Mo179  1  -0.01286883  0.61077200  0.76206610  1
  Mo  Mo180  1  -0.00620447  -0.00278583  0.26331519  1
  Mo  Mo181  1  0.80162652  0.80468275  0.49743530  1
  Mo  Mo182  1  -0.00160525  0.80184318  0.48590850  1
  Mo  Mo183  1  0.90365989  0.70072008  0.37512646  1
  Mo  Mo184  1  0.79822373  0.40840055  0.00061193  1
  Mo  Mo185  1  0.79720337  0.21016194  0.74970609  1
  Mo  Mo186  1  0.59943588  0.79551083  0.02404519  1
  Mo  Mo187  1  0.50094477  0.50494585  0.60818620  1
  Mo  Mo188  1  0.39716708  0.19806605  0.75492187  1
  Mo  Mo189  1  0.90441077  0.09363034  0.37128081  1
  Mo  Mo190  1  0.39640164  0.60481333  0.01548857  1
  Mo  Mo191  1  0.70067424  0.88574037  0.90078786  1
  Mo  Mo192  1  0.28455976  0.09430110  0.14363089  1
  Mo  Mo193  1  0.20132124  0.39181365  0.73568665  1
  Mo  Mo194  1  0.89468248  0.30101238  0.61980280  1
  Mo  Mo195  1  0.20349345  -0.00530168  0.49461946  1
  Mo  Mo196  1  0.60960547  0.20372336  0.00376498  1
  Mo  Mo197  1  0.69902091  0.90306036  0.34411845  1
  Mo  Mo198  1  0.49221459  0.29774663  0.61059785  1
  Mo  Mo199  1  0.79625778  0.19334607  0.50275180  1
