# generated using pymatgen
data_HfZrTaTiMo
_symmetry_space_group_name_H-M   'P 1'
_cell_length_a   15.83776467
_cell_length_b   15.83251786
_cell_length_c   15.40165012
_cell_angle_alpha   89.99479877
_cell_angle_beta   90.07360490
_cell_angle_gamma   90.00974978
_symmetry_Int_Tables_number   1
_chemical_formula_structural   HfZrTaTiMo
_chemical_formula_sum   'Hf40 Zr40 Ta40 Ti40 Mo40'
_cell_volume   3861.98656912
_cell_formula_units_Z   40
loop_
 _symmetry_equiv_pos_site_id
 _symmetry_equiv_pos_as_xyz
  1  'x, y, z'
loop_
 _atom_site_type_symbol
 _atom_site_label
 _atom_site_symmetry_multiplicity
 _atom_site_fract_x
 _atom_site_fract_y
 _atom_site_fract_z
 _atom_site_occupancy
  Hf  Hf0  1  0.39321418  0.40297884  0.25635238  1
  Hf  Hf1  1  0.68913828  0.32214304  0.86454806  1
  Hf  Hf2  1  0.29472657  0.89765531  0.12820610  1
  Hf  Hf3  1  -0.00403279  0.00334953  0.74454560  1
  Hf  Hf4  1  0.30281842  0.89836825  0.61204422  1
  Hf  Hf5  1  0.91065430  0.10157408  0.10134871  1
  Hf  Hf6  1  0.29296541  0.29099289  0.12884363  1
  Hf  Hf7  1  0.78863327  0.20759029  -0.00303982  1
  Hf  Hf8  1  0.60140286  0.78569289  0.27354384  1
  Hf  Hf9  1  0.69392927  0.51249970  0.14405163  1
  Hf  Hf10  1  0.50452650  0.88992507  0.89103175  1
  Hf  Hf11  1  0.18880024  0.59061043  0.74170397  1
  Hf  Hf12  1  0.60008890  0.39374213  0.49487931  1
  Hf  Hf13  1  0.81691827  0.39981606  0.25641314  1
  Hf  Hf14  1  0.39358587  -0.00213180  0.25690670  1
  Hf  Hf15  1  0.40528676  -0.00234129  0.76371668  1
  Hf  Hf16  1  0.69829829  0.68272386  0.86008423  1
  Hf  Hf17  1  0.30373179  0.49944078  0.61772532  1
  Hf  Hf18  1  0.70371980  0.49631038  0.62252556  1
  Hf  Hf19  1  0.01342574  0.81313813  0.49751091  1
  Hf  Hf20  1  0.49537400  0.10290847  0.38128598  1
  Hf  Hf21  1  0.80295367  0.19952302  0.75808115  1
  Hf  Hf22  1  0.00450469  0.60462172  0.27206117  1
  Hf  Hf23  1  0.40282194  0.38895936  -0.00092773  1
  Hf  Hf24  1  0.70330224  0.50622314  0.37393849  1
  Hf  Hf25  1  0.29830943  0.10088996  0.60812085  1
  Hf  Hf26  1  -0.00389786  0.20621876  0.24275113  1
  Hf  Hf27  1  0.80612261  0.79557772  0.74846955  1
  Hf  Hf28  1  0.69451588  0.88973355  0.87969265  1
  Hf  Hf29  1  0.19694273  0.40298803  -0.01731822  1
  Hf  Hf30  1  0.48766254  0.88620686  0.38400936  1
  Hf  Hf31  1  -0.00229325  -0.00010608  0.25054590  1
  Hf  Hf32  1  0.89575477  0.51193110  0.87397980  1
  Hf  Hf33  1  0.50254644  0.29705207  0.63208627  1
  Hf  Hf34  1  0.59090193  0.20085291  -0.00505111  1
  Hf  Hf35  1  0.41733343  0.58749997  0.01122159  1
  Hf  Hf36  1  0.70124969  0.88894071  0.13138216  1
  Hf  Hf37  1  0.21151717  0.00607494  -0.00479991  1
  Hf  Hf38  1  0.39522848  0.18707964  0.75335355  1
  Hf  Hf39  1  0.49881485  0.29230547  0.13852416  1
  Zr  Zr40  1  0.80184204  0.00552083  0.24465720  1
  Zr  Zr41  1  0.09609736  0.50338396  0.11978876  1
  Zr  Zr42  1  0.30223901  0.69822724  0.61470228  1
  Zr  Zr43  1  0.69460730  0.29575530  0.35396096  1
  Zr  Zr44  1  0.20153854  0.59608266  0.25956644  1
  Zr  Zr45  1  0.69555438  0.30728684  0.13606525  1
  Zr  Zr46  1  0.18589727  0.39073184  0.74290016  1
  Zr  Zr47  1  0.30516108  0.70131578  0.14157165  1
  Zr  Zr48  1  0.09763717  0.11124804  0.62146472  1
  Zr  Zr49  1  0.30833643  0.50228518  0.86740395  1
  Zr  Zr50  1  0.08928206  0.10856984  0.38782395  1
  Zr  Zr51  1  0.59639367  -0.00590528  0.74727176  1
  Zr  Zr52  1  0.79785801  0.00203438  0.75004153  1
  Zr  Zr53  1  0.10144754  0.29463075  0.38611868  1
  Zr  Zr54  1  0.10088021  0.11718528  0.87363147  1
  Zr  Zr55  1  0.78659834  0.00095373  0.00592938  1
  Zr  Zr56  1  0.61663892  -0.01111299  0.48590085  1
  Zr  Zr57  1  0.10036785  0.70790180  0.12743250  1
  Zr  Zr58  1  0.42748619  0.59522464  0.26048497  1
  Zr  Zr59  1  0.40036235  0.39933310  0.74627837  1
  Zr  Zr60  1  0.28940105  0.11115625  0.39358598  1
  Zr  Zr61  1  0.30874538  0.71012090  0.38174792  1
  Zr  Zr62  1  0.90017065  0.69835664  0.14089092  1
  Zr  Zr63  1  0.81713929  0.39915954  0.74306546  1
  Zr  Zr64  1  0.89806902  0.50494716  0.12043529  1
  Zr  Zr65  1  0.09295949  0.30570982  0.11389276  1
  Zr  Zr66  1  0.52895935  0.49823998  0.86572937  1
  Zr  Zr67  1  0.40164277  0.78770544  0.00429326  1
  Zr  Zr68  1  0.49815422  0.09164135  0.60521709  1
  Zr  Zr69  1  0.49773512  0.88615779  0.13080381  1
  Zr  Zr70  1  0.09825091  0.69551777  0.86659198  1
  Zr  Zr71  1  0.19824387  0.00946938  0.25196934  1
  Zr  Zr72  1  0.90228040  0.90656840  0.88597920  1
  Zr  Zr73  1  0.30724748  0.69816307  0.86764069  1
  Zr  Zr74  1  -0.00240035  0.79280158  -0.01324131  1
  Zr  Zr75  1  0.70310472  0.10955792  0.36401556  1
  Zr  Zr76  1  0.41210291  0.79576268  0.74407312  1
  Zr  Zr77  1  0.17827746  -0.02286102  0.49614593  1
  Zr  Zr78  1  0.30132135  0.50024693  0.39225263  1
  Zr  Zr79  1  0.20752123  0.00610571  0.75380149  1
  Ta  Ta80  1  0.89613672  0.10844631  0.61751596  1
  Ta  Ta81  1  0.19659864  0.80607897  0.74748171  1
  Ta  Ta82  1  0.59521641  -0.00202740  0.25255447  1
  Ta  Ta83  1  0.80657033  0.60082422  0.50292938  1
  Ta  Ta84  1  0.49683769  0.29750508  0.86828093  1
  Ta  Ta85  1  0.10201693  0.90323491  0.87411619  1
  Ta  Ta86  1  0.80567836  0.80239497  0.26863534  1
  Ta  Ta87  1  0.10384205  0.70550200  0.61884722  1
  Ta  Ta88  1  0.28903969  0.28477024  0.86464814  1
  Ta  Ta89  1  -0.00155059  0.80003894  0.74286799  1
  Ta  Ta90  1  0.49430656  0.29227081  0.36479017  1
  Ta  Ta91  1  0.70973285  0.69260999  0.14615736  1
  Ta  Ta92  1  0.48616283  0.09211552  0.11984862  1
  Ta  Ta93  1  0.59969121  0.60354669  0.72360838  1
  Ta  Ta94  1  0.20405417  0.60123337  -0.00128760  1
  Ta  Ta95  1  0.90754912  0.10785007  0.88811996  1
  Ta  Ta96  1  0.10187184  0.49801830  0.39711000  1
  Ta  Ta97  1  0.90955515  0.30441991  0.89298629  1
  Ta  Ta98  1  0.00302344  0.60449128  0.50655700  1
  Ta  Ta99  1  0.59613668  0.19200919  0.75913500  1
  Ta  Ta100  1  0.70263998  0.70482045  0.61027439  1
  Ta  Ta101  1  0.10756972  0.10559826  0.11622895  1
  Ta  Ta102  1  0.79454602  0.20551791  0.50637384  1
  Ta  Ta103  1  0.69913890  0.10392567  0.62432147  1
  Ta  Ta104  1  0.80044975  0.78371365  -0.00329921  1
  Ta  Ta105  1  0.09367527  0.90279337  0.12041183  1
  Ta  Ta106  1  0.80415750  0.39305502  0.49958386  1
  Ta  Ta107  1  0.69889296  0.29532021  0.63407935  1
  Ta  Ta108  1  0.61115520  0.77571470  0.00881054  1
  Ta  Ta109  1  0.20168188  0.39277527  0.51293377  1
  Ta  Ta110  1  0.90241968  0.70515037  0.38632263  1
  Ta  Ta111  1  -0.00585291  0.60142311  0.73110711  1
  Ta  Ta112  1  0.90531676  0.89250537  0.12066769  1
  Ta  Ta113  1  0.50115436  0.89125902  0.60347207  1
  Ta  Ta114  1  0.89612386  0.90272605  0.61323434  1
  Ta  Ta115  1  -0.00405996  0.22162125  0.74616087  1
  Ta  Ta116  1  0.19420513  0.39811114  0.25748638  1
  Ta  Ta117  1  0.00273263  0.40457582  0.26597335  1
  Ta  Ta118  1  0.89889920  0.90773559  0.38392020  1
  Ta  Ta119  1  0.90313694  0.31119187  0.10506092  1
  Ti  Ti120  1  0.41487021  0.60291683  0.73894771  1
  Ti  Ti121  1  0.69157808  0.09553625  0.87577529  1
  Ti  Ti122  1  0.79031913  0.41335532  -0.00523242  1
  Ti  Ti123  1  0.30156887  0.89586160  0.87983514  1
  Ti  Ti124  1  0.07904196  0.31048734  0.61048368  1
  Ti  Ti125  1  0.20369861  0.20127444  -0.00214336  1
  Ti  Ti126  1  0.90341751  0.29390334  0.38721022  1
  Ti  Ti127  1  0.91502112  0.48879510  0.61192914  1
  Ti  Ti128  1  0.80939382  0.20150581  0.23529700  1
  Ti  Ti129  1  0.00771037  0.41080942  0.76139869  1
  Ti  Ti130  1  0.78913228  0.60388200  -0.00523796  1
  Ti  Ti131  1  0.79961312  0.00348808  0.49936627  1
  Ti  Ti132  1  0.50367838  0.49920053  0.61613803  1
  Ti  Ti133  1  0.60327316  0.20369328  0.49981886  1
  Ti  Ti134  1  0.40260802  0.39294028  0.49666616  1
  Ti  Ti135  1  0.89757634  0.10892817  0.38734675  1
  Ti  Ti136  1  0.18383910  0.80425763  0.26734715  1
  Ti  Ti137  1  0.59799131  0.79212767  0.73526695  1
  Ti  Ti138  1  0.57961705  0.41940709  0.25961296  1
  Ti  Ti139  1  0.39182817  0.18512126  -0.01141474  1
  Ti  Ti140  1  0.80806147  0.60184448  0.73009791  1
  Ti  Ti141  1  0.60275186  0.60536043  0.49575618  1
  Ti  Ti142  1  0.89983723  0.70963655  0.60948482  1
  Ti  Ti143  1  0.38540977  0.18959449  0.24963222  1
  Ti  Ti144  1  0.29655898  0.89361474  0.38249535  1
  Ti  Ti145  1  0.59901064  0.41220536  0.00987516  1
  Ti  Ti146  1  0.51115660  0.69051690  0.87656598  1
  Ti  Ti147  1  0.29196241  0.29524180  0.37385501  1
  Ti  Ti148  1  0.79036356  0.80920937  0.48749329  1
  Ti  Ti149  1  0.70105526  0.89624121  0.62290042  1
  Ti  Ti150  1  0.19882228  0.79741682  -0.00575762  1
  Ti  Ti151  1  -0.00805357  0.00243936  0.50455862  1
  Ti  Ti152  1  0.41457010  0.60188584  0.49930216  1
  Ti  Ti153  1  0.68344421  0.10704464  0.13500971  1
  Ti  Ti154  1  0.29865776  0.49559219  0.12535151  1
  Ti  Ti155  1  -0.00137459  0.60231344  -0.00967942  1
  Ti  Ti156  1  0.90340865  0.50157960  0.38745138  1
  Ti  Ti157  1  0.52254221  0.68177305  0.13218280  1
  Ti  Ti158  1  0.59206141  0.00048309  0.00873262  1
  Ti  Ti159  1  0.39519040  0.21522216  0.50288009  1
  Mo  Mo160  1  0.40133410  0.79623364  0.50968130  1
  Mo  Mo161  1  -0.01328556  0.20517643  0.51254381  1
  Mo  Mo162  1  0.89567604  0.69583606  0.86081928  1
  Mo  Mo163  1  0.10345154  0.70040776  0.39303770  1
  Mo  Mo164  1  0.19925128  0.21457430  0.51936110  1
  Mo  Mo165  1  0.29940054  0.10248899  0.87547070  1
  Mo  Mo166  1  0.19563720  0.59833055  0.50671528  1
  Mo  Mo167  1  0.50233049  0.49300890  0.39914885  1
  Mo  Mo168  1  0.58292403  0.18647023  0.24071712  1
  Mo  Mo169  1  0.09482625  0.30222334  0.87844406  1
  Mo  Mo170  1  0.39530468  -0.00378968  0.48675881  1
  Mo  Mo171  1  0.30296657  0.10307775  0.11970022  1
  Mo  Mo172  1  0.09531869  0.50617662  0.88226971  1
  Mo  Mo173  1  0.89788023  0.30249006  0.61899853  1
  Mo  Mo174  1  0.70933027  0.70062403  0.38991468  1
  Mo  Mo175  1  0.00368888  0.20496220  -0.00050735  1
  Mo  Mo176  1  0.40150495  0.00065435  -0.00727797  1
  Mo  Mo177  1  0.09418870  0.50092202  0.60982245  1
  Mo  Mo178  1  -0.00086848  0.80685790  0.26535776  1
  Mo  Mo179  1  0.50125329  0.09593699  0.89315538  1
  Mo  Mo180  1  0.19814775  0.20497339  0.23896986  1
  Mo  Mo181  1  0.50552562  0.69574168  0.39477712  1
  Mo  Mo182  1  0.60767835  0.79479634  0.49564024  1
  Mo  Mo183  1  0.61265127  0.59888178  0.00381129  1
  Mo  Mo184  1  0.19594924  0.21013412  0.73442437  1
  Mo  Mo185  1  0.60390000  0.60047398  0.27271645  1
  Mo  Mo186  1  0.29840719  0.29624519  0.62743417  1
  Mo  Mo187  1  0.09191577  0.90084222  0.36017194  1
  Mo  Mo188  1  0.19591271  0.79715226  0.49483978  1
  Mo  Mo189  1  -0.00190431  0.41092857  -0.01691919  1
  Mo  Mo190  1  0.40046255  0.79698261  0.24498045  1
  Mo  Mo191  1  0.70522067  0.50516616  0.85592563  1
  Mo  Mo192  1  0.70615278  0.90315677  0.36501820  1
  Mo  Mo193  1  0.80551285  0.60714618  0.27707820  1
  Mo  Mo194  1  0.60110224  0.39842450  0.73152854  1
  Mo  Mo195  1  0.01043771  -0.00088615  0.00197580  1
  Mo  Mo196  1  -0.00629146  0.40300183  0.48698025  1
  Mo  Mo197  1  0.09532226  0.89765004  0.64513859  1
  Mo  Mo198  1  0.50511637  0.49356692  0.12217648  1
  Mo  Mo199  1  0.50835115  0.69664463  0.60833986  1
