# generated using pymatgen
data_HfZrTaTiMo
_symmetry_space_group_name_H-M   'P 1'
_cell_length_a   15.83813646
_cell_length_b   15.82647248
_cell_length_c   15.41037701
_cell_angle_alpha   89.91963446
_cell_angle_beta   90.03695014
_cell_angle_gamma   90.03037356
_symmetry_Int_Tables_number   1
_chemical_formula_structural   HfZrTaTiMo
_chemical_formula_sum   'Hf40 Zr40 Ta40 Ti40 Mo40'
_cell_volume   3862.78816921
_cell_formula_units_Z   40
loop_
 _symmetry_equiv_pos_site_id
 _symmetry_equiv_pos_as_xyz
  1  'x, y, z'
loop_
 _atom_site_type_symbol
 _atom_site_label
 _atom_site_symmetry_multiplicity
 _atom_site_fract_x
 _atom_site_fract_y
 _atom_site_fract_z
 _atom_site_occupancy
  Hf  Hf0  1  0.39031311  -0.01160578  0.26103630  1
  Hf  Hf1  1  0.70168865  0.29854492  0.86552621  1
  Hf  Hf2  1  0.10196943  0.70022957  0.13184190  1
  Hf  Hf3  1  0.60705178  0.39317302  0.50261535  1
  Hf  Hf4  1  0.20082398  0.39937208  0.23432977  1
  Hf  Hf5  1  0.68155327  0.29567966  0.13074483  1
  Hf  Hf6  1  0.29783556  0.48896529  0.86385284  1
  Hf  Hf7  1  0.80157830  -0.01266925  0.73649522  1
  Hf  Hf8  1  0.30107519  0.90160579  0.11167101  1
  Hf  Hf9  1  0.70386027  0.09722151  0.86950417  1
  Hf  Hf10  1  0.58729098  0.20163056  0.75270305  1
  Hf  Hf11  1  0.60449048  0.61145674  0.49509209  1
  Hf  Hf12  1  0.91409417  0.69735839  0.12789885  1
  Hf  Hf13  1  0.40244408  0.19185036  0.49068118  1
  Hf  Hf14  1  0.89926802  0.29781659  0.86986033  1
  Hf  Hf15  1  0.58415513  0.19283263  -0.01244554  1
  Hf  Hf16  1  0.79972873  0.19205531  0.01816138  1
  Hf  Hf17  1  0.10788526  0.30447957  0.62402395  1
  Hf  Hf18  1  0.69936976  0.50104830  0.86822608  1
  Hf  Hf19  1  0.69700918  0.71860050  0.36787666  1
  Hf  Hf20  1  0.29159854  0.10154992  0.11930538  1
  Hf  Hf21  1  0.48899648  0.50483233  0.12211900  1
  Hf  Hf22  1  0.10065949  0.29350505  0.11679872  1
  Hf  Hf23  1  0.81416726  -0.00290995  0.01646454  1
  Hf  Hf24  1  0.50731176  0.89247930  0.87527004  1
  Hf  Hf25  1  0.29156063  0.49422048  0.39690956  1
  Hf  Hf26  1  0.21173421  0.80686919  0.25429323  1
  Hf  Hf27  1  0.39450288  0.38323358  0.74178823  1
  Hf  Hf28  1  0.71266354  0.51676260  0.62574794  1
  Hf  Hf29  1  0.38470548  -0.01235343  0.48806046  1
  Hf  Hf30  1  0.60275021  0.78449247  0.01532105  1
  Hf  Hf31  1  0.79175339  0.20804296  0.50071059  1
  Hf  Hf32  1  0.40419005  0.01379813  -0.01453051  1
  Hf  Hf33  1  0.80621975  0.80775615  0.24532730  1
  Hf  Hf34  1  0.58865264  0.61115118  0.25471627  1
  Hf  Hf35  1  0.50537142  0.30065695  0.36862817  1
  Hf  Hf36  1  0.60141464  0.19255708  0.49967511  1
  Hf  Hf37  1  0.49337938  0.69767332  0.62242345  1
  Hf  Hf38  1  0.00546672  0.59994481  0.49948120  1
  Hf  Hf39  1  -0.01484565  0.78702542  0.76883200  1
  Zr  Zr40  1  0.19177762  0.80061229  -0.01446411  1
  Zr  Zr41  1  -0.00053630  -0.00854692  0.76146250  1
  Zr  Zr42  1  0.08874336  0.51065209  0.12014628  1
  Zr  Zr43  1  0.39990944  0.78681981  0.75337381  1
  Zr  Zr44  1  0.80538578  0.19759531  0.24339354  1
  Zr  Zr45  1  0.59836815  -0.01001526  0.74309993  1
  Zr  Zr46  1  0.50261248  0.09926689  0.13862532  1
  Zr  Zr47  1  0.09899241  0.70467957  0.63825681  1
  Zr  Zr48  1  0.31062233  0.69305746  0.11537505  1
  Zr  Zr49  1  0.90185354  0.10312901  0.38633461  1
  Zr  Zr50  1  0.90383063  0.09684171  0.62198861  1
  Zr  Zr51  1  0.39003218  0.40362112  0.24204178  1
  Zr  Zr52  1  0.80405540  0.40418938  0.24044517  1
  Zr  Zr53  1  0.71039509  0.89310484  0.88207668  1
  Zr  Zr54  1  0.58804874  0.40913185  -0.00634549  1
  Zr  Zr55  1  -0.00565071  0.80477321  -0.01602504  1
  Zr  Zr56  1  0.39723760  0.60242688  0.26476987  1
  Zr  Zr57  1  0.30317521  0.09076945  0.62975255  1
  Zr  Zr58  1  0.29260725  0.30710589  0.39408807  1
  Zr  Zr59  1  0.00733856  -0.00089289  -0.01477175  1
  Zr  Zr60  1  0.81066639  0.41323759  0.74469905  1
  Zr  Zr61  1  0.79562869  0.60611292  0.00520054  1
  Zr  Zr62  1  0.21588857  0.21181871  0.75104063  1
  Zr  Zr63  1  0.10366681  0.89916954  0.63338523  1
  Zr  Zr64  1  0.80001120  0.40009619  0.00666743  1
  Zr  Zr65  1  0.39189854  0.19631931  0.26329421  1
  Zr  Zr66  1  0.10533604  0.69329218  0.36201589  1
  Zr  Zr67  1  0.09648270  0.91242703  0.13352327  1
  Zr  Zr68  1  0.79335910  0.01193406  0.25261009  1
  Zr  Zr69  1  0.90693456  0.30605869  0.37793917  1
  Zr  Zr70  1  0.20589396  0.00015539  0.76632566  1
  Zr  Zr71  1  0.00412370  0.19562227  -0.00903723  1
  Zr  Zr72  1  0.69028475  0.90820744  0.13562165  1
  Zr  Zr73  1  0.41515952  0.59631519  -0.02789863  1
  Zr  Zr74  1  0.90446413  0.30097726  0.62878744  1
  Zr  Zr75  1  0.10289167  0.30337939  0.38860304  1
  Zr  Zr76  1  0.49942696  0.49224310  0.62498721  1
  Zr  Zr77  1  0.70108702  0.49931916  0.37133116  1
  Zr  Zr78  1  0.59397465  0.60465892  0.75519184  1
  Zr  Zr79  1  0.20293232  0.81407659  0.49024507  1
  Ta  Ta80  1  0.90106202  0.50322561  0.38322127  1
  Ta  Ta81  1  0.19691961  0.59842876  -0.01121924  1
  Ta  Ta82  1  0.69641267  0.10157379  0.62703500  1
  Ta  Ta83  1  0.30130369  0.50420782  0.62698165  1
  Ta  Ta84  1  0.48875071  0.29681388  0.12082792  1
  Ta  Ta85  1  0.78735015  -0.00499090  0.50347609  1
  Ta  Ta86  1  0.00281184  0.41266697  0.75577019  1
  Ta  Ta87  1  0.80432675  0.40814497  0.50852358  1
  Ta  Ta88  1  0.90364627  0.88928461  0.61008918  1
  Ta  Ta89  1  0.39847109  0.60360380  0.49571188  1
  Ta  Ta90  1  0.91475385  0.30424474  0.12379615  1
  Ta  Ta91  1  0.10253374  0.09883473  0.62260152  1
  Ta  Ta92  1  0.89234394  0.69055537  0.61349836  1
  Ta  Ta93  1  0.10289656  0.49581116  0.37660775  1
  Ta  Ta94  1  0.50461589  0.88816417  0.37735523  1
  Ta  Ta95  1  0.20016988  0.40393525  0.00243401  1
  Ta  Ta96  1  -0.00090659  -0.00120117  0.26638886  1
  Ta  Ta97  1  0.82053055  0.61069909  0.76188663  1
  Ta  Ta98  1  0.30497631  0.89898762  0.87586605  1
  Ta  Ta99  1  0.79130251  0.79734535  0.50512477  1
  Ta  Ta100  1  0.10984970  0.31332254  0.86758658  1
  Ta  Ta101  1  0.51302789  0.07927692  0.37616313  1
  Ta  Ta102  1  0.00172940  0.40371509  0.25065958  1
  Ta  Ta103  1  0.20266110  0.60782528  0.51401168  1
  Ta  Ta104  1  0.70167985  0.70692086  0.86733937  1
  Ta  Ta105  1  0.80249410  0.60412667  0.24830516  1
  Ta  Ta106  1  0.00857209  -0.00969702  0.49180167  1
  Ta  Ta107  1  0.19847303  0.19517432  0.25394273  1
  Ta  Ta108  1  0.20048766  0.19594944  -0.01082801  1
  Ta  Ta109  1  0.49193816  0.09363734  0.63163165  1
  Ta  Ta110  1  0.00389890  0.40906573  -0.01739306  1
  Ta  Ta111  1  0.00461765  0.20227123  0.75128469  1
  Ta  Ta112  1  0.59957167  0.00163658  0.00084534  1
  Ta  Ta113  1  0.69599600  0.30422200  0.64174307  1
  Ta  Ta114  1  0.80316532  0.80005146  0.01952074  1
  Ta  Ta115  1  0.49164616  0.89620894  0.12244895  1
  Ta  Ta116  1  0.89125297  0.10359278  0.86138463  1
  Ta  Ta117  1  -0.00173708  0.79891986  0.48778440  1
  Ta  Ta118  1  0.69243625  0.50953020  0.13177067  1
  Ta  Ta119  1  0.60078359  0.81015748  0.51450621  1
  Ti  Ti120  1  0.00112518  0.60847057  -0.03300041  1
  Ti  Ti121  1  0.00684932  0.19637234  0.50672575  1
  Ti  Ti122  1  0.40783952  0.79121201  -0.00835425  1
  Ti  Ti123  1  0.21237409  0.60948823  0.74349734  1
  Ti  Ti124  1  0.29850607  0.69597294  0.87175838  1
  Ti  Ti125  1  0.10670998  0.50753763  0.85863631  1
  Ti  Ti126  1  0.19458620  0.00577369  -0.01641713  1
  Ti  Ti127  1  0.59187654  0.40559900  0.24700881  1
  Ti  Ti128  1  0.70191687  0.30171137  0.36396696  1
  Ti  Ti129  1  0.48774107  0.30589366  0.87842196  1
  Ti  Ti130  1  0.59919620  0.60496172  -0.00396911  1
  Ti  Ti131  1  0.40766476  0.79066655  0.25442146  1
  Ti  Ti132  1  0.58758734  0.79981785  0.24184463  1
  Ti  Ti133  1  0.10193355  0.50544071  0.64001494  1
  Ti  Ti134  1  0.21038677  0.59003851  0.24215917  1
  Ti  Ti135  1  0.10327923  0.09749301  0.38361526  1
  Ti  Ti136  1  0.30047842  0.30608662  0.60483466  1
  Ti  Ti137  1  0.01230949  0.19782873  0.25154681  1
  Ti  Ti138  1  0.29891553  0.89076352  0.64156384  1
  Ti  Ti139  1  0.92739928  0.09634632  0.13397359  1
  Ti  Ti140  1  0.19827567  0.00401418  0.26970936  1
  Ti  Ti141  1  0.30363772  0.29756745  0.88749288  1
  Ti  Ti142  1  0.89232648  0.89889891  0.38678183  1
  Ti  Ti143  1  0.00173357  0.41022513  0.51200416  1
  Ti  Ti144  1  -0.00126246  0.80857480  0.26601002  1
  Ti  Ti145  1  -0.00602467  0.59273989  0.26203750  1
  Ti  Ti146  1  0.60816176  0.79876945  0.73276316  1
  Ti  Ti147  1  0.49371148  0.49283532  0.38680723  1
  Ti  Ti148  1  0.68365643  0.91656388  0.37741169  1
  Ti  Ti149  1  0.79833258  0.79714681  0.73642472  1
  Ti  Ti150  1  0.10294997  0.11015583  0.86155379  1
  Ti  Ti151  1  0.48843600  0.90404798  0.62491411  1
  Ti  Ti152  1  0.20352551  0.18402838  0.49969909  1
  Ti  Ti153  1  0.30405772  0.29707538  0.10647404  1
  Ti  Ti154  1  0.61392458  0.17720122  0.26157222  1
  Ti  Ti155  1  0.39611382  0.79682525  0.50024214  1
  Ti  Ti156  1  0.30242044  0.70074022  0.38108665  1
  Ti  Ti157  1  0.49591357  0.29153920  0.62219786  1
  Ti  Ti158  1  0.90477199  0.50124921  0.11807962  1
  Ti  Ti159  1  0.89506628  0.69919488  0.38029640  1
  Mo  Mo160  1  0.58933732  -0.00454438  0.51724729  1
  Mo  Mo161  1  0.49740241  0.48999340  0.85458585  1
  Mo  Mo162  1  0.10613902  0.10081994  0.13858565  1
  Mo  Mo163  1  0.59049834  -0.00687217  0.24889156  1
  Mo  Mo164  1  0.49874827  0.70275746  0.12102187  1
  Mo  Mo165  1  0.70059945  0.89820610  0.61749489  1
  Mo  Mo166  1  0.39574269  0.59498770  0.75511597  1
  Mo  Mo167  1  0.90795596  0.50814270  0.61121110  1
  Mo  Mo168  1  0.40318336  0.39932027  0.51477227  1
  Mo  Mo169  1  0.59590274  0.39703369  0.75118510  1
  Mo  Mo170  1  0.88728162  0.89930684  0.87389549  1
  Mo  Mo171  1  0.30076759  0.69948558  0.61860802  1
  Mo  Mo172  1  0.29415657  0.50094293  0.10331656  1
  Mo  Mo173  1  0.09503000  0.90150080  0.36703870  1
  Mo  Mo174  1  0.40161362  -0.00478475  0.76116373  1
  Mo  Mo175  1  0.79791040  0.19595092  0.73922929  1
  Mo  Mo176  1  0.29278003  0.09677561  0.37667223  1
  Mo  Mo177  1  0.90484464  0.50248504  0.88629958  1
  Mo  Mo178  1  0.39323653  0.39633178  0.00343131  1
  Mo  Mo179  1  0.20164114  0.79668031  0.76610530  1
  Mo  Mo180  1  0.70536735  0.70346222  0.63314758  1
  Mo  Mo181  1  0.51142212  0.70316507  0.86820760  1
  Mo  Mo182  1  0.30241160  0.89142171  0.36969583  1
  Mo  Mo183  1  0.40137056  0.19666371  0.75954609  1
  Mo  Mo184  1  0.69475173  0.09529226  0.39186030  1
  Mo  Mo185  1  0.39731856  0.20219600  -0.01034129  1
  Mo  Mo186  1  0.80273448  0.60726191  0.48477211  1
  Mo  Mo187  1  0.90712982  0.90179152  0.14154172  1
  Mo  Mo188  1  0.19072653  0.41725816  0.52177364  1
  Mo  Mo189  1  -0.00451679  0.59523698  0.75748822  1
  Mo  Mo190  1  0.49564401  0.09694169  0.85705817  1
  Mo  Mo191  1  0.19423448  0.00339013  0.49102876  1
  Mo  Mo192  1  0.10405512  0.89705110  0.86430893  1
  Mo  Mo193  1  0.69089162  0.10264437  0.11254666  1
  Mo  Mo194  1  0.10778843  0.69100158  0.85914088  1
  Mo  Mo195  1  0.88456361  0.70493256  0.88539461  1
  Mo  Mo196  1  0.30143034  0.10611308  0.88018103  1
  Mo  Mo197  1  0.49755275  0.71066506  0.39337654  1
  Mo  Mo198  1  0.70161007  0.69632678  0.14408701  1
  Mo  Mo199  1  0.19887399  0.40487671  0.73782609  1
