# generated using pymatgen
data_HfZrTaTiMo
_symmetry_space_group_name_H-M   'P 1'
_cell_length_a   15.83473028
_cell_length_b   15.83154571
_cell_length_c   15.39639472
_cell_angle_alpha   89.98557435
_cell_angle_beta   89.98730278
_cell_angle_gamma   90.02385658
_symmetry_Int_Tables_number   1
_chemical_formula_structural   HfZrTaTiMo
_chemical_formula_sum   'Hf40 Zr40 Ta40 Ti40 Mo40'
_cell_volume   3859.69479379
_cell_formula_units_Z   40
loop_
 _symmetry_equiv_pos_site_id
 _symmetry_equiv_pos_as_xyz
  1  'x, y, z'
loop_
 _atom_site_type_symbol
 _atom_site_label
 _atom_site_symmetry_multiplicity
 _atom_site_fract_x
 _atom_site_fract_y
 _atom_site_fract_z
 _atom_site_occupancy
  Hf  Hf0  1  0.51369089  0.09195888  0.61676589  1
  Hf  Hf1  1  0.80582918  0.80364442  0.47842746  1
  Hf  Hf2  1  0.80405975  0.58168204  0.25131401  1
  Hf  Hf3  1  0.10704576  0.11289332  0.37883181  1
  Hf  Hf4  1  0.01516567  0.61475445  0.50705621  1
  Hf  Hf5  1  0.02083242  0.40549463  -0.00788270  1
  Hf  Hf6  1  0.39508481  0.80311675  0.74548973  1
  Hf  Hf7  1  -0.00659773  0.00189551  0.47695204  1
  Hf  Hf8  1  0.19630904  0.39168895  0.24697952  1
  Hf  Hf9  1  0.60148136  0.59965023  0.50301790  1
  Hf  Hf10  1  0.69855619  0.30120432  0.62534859  1
  Hf  Hf11  1  0.50703557  0.30118311  0.38586516  1
  Hf  Hf12  1  0.70025829  0.30106737  0.88420364  1
  Hf  Hf13  1  0.60294124  0.60315390  0.73699847  1
  Hf  Hf14  1  0.70442111  0.89134534  0.88138539  1
  Hf  Hf15  1  0.10555805  0.50821522  0.13413194  1
  Hf  Hf16  1  0.80463746  0.40422275  0.49361859  1
  Hf  Hf17  1  0.38620233  0.79878627  0.26200195  1
  Hf  Hf18  1  0.00298605  0.61239569  0.00277260  1
  Hf  Hf19  1  0.69403491  0.10979016  0.37720505  1
  Hf  Hf20  1  0.50404664  0.89823554  0.36466836  1
  Hf  Hf21  1  0.49426093  0.49122928  0.13366960  1
  Hf  Hf22  1  0.10631239  0.30619094  0.38505961  1
  Hf  Hf23  1  0.80576002  -0.00956756  0.01320567  1
  Hf  Hf24  1  0.49314756  0.71463146  0.61699291  1
  Hf  Hf25  1  0.29232409  0.29436076  0.87101119  1
  Hf  Hf26  1  0.68589560  0.90752131  0.61358238  1
  Hf  Hf27  1  0.30340681  0.10383925  0.11825149  1
  Hf  Hf28  1  0.40381843  -0.00929181  0.49736521  1
  Hf  Hf29  1  0.09939106  0.09740267  0.62138792  1
  Hf  Hf30  1  0.60538908  0.78917912  0.02584707  1
  Hf  Hf31  1  0.50173933  0.49475778  0.37237865  1
  Hf  Hf32  1  0.39221131  0.59958029  0.49775087  1
  Hf  Hf33  1  0.80305486  0.80838605  0.74378804  1
  Hf  Hf34  1  0.90932318  0.68939748  0.36016051  1
  Hf  Hf35  1  0.50482614  0.29704664  0.63362590  1
  Hf  Hf36  1  0.80533612  0.00029518  0.48061566  1
  Hf  Hf37  1  0.50209303  0.10604037  0.37210034  1
  Hf  Hf38  1  0.40487691  0.59621121  0.00568421  1
  Hf  Hf39  1  0.19073660  -0.00617524  -0.00236819  1
  Zr  Zr40  1  0.30025564  0.90556631  0.12324739  1
  Zr  Zr41  1  0.00381355  0.00615356  0.25505713  1
  Zr  Zr42  1  0.70418301  0.70942264  0.61491732  1
  Zr  Zr43  1  0.09579185  0.09756602  0.87296746  1
  Zr  Zr44  1  0.38641120  0.39876581  0.51068331  1
  Zr  Zr45  1  0.50498837  0.70074522  0.86873014  1
  Zr  Zr46  1  0.60354431  0.00171468  0.76073324  1
  Zr  Zr47  1  0.10230152  0.29277133  0.85701460  1
  Zr  Zr48  1  0.80841549  0.00379432  0.25682167  1
  Zr  Zr49  1  0.00733026  0.20959453  0.23698670  1
  Zr  Zr50  1  0.19844739  0.58697913  -0.01802110  1
  Zr  Zr51  1  0.69240165  0.49459633  0.37576849  1
  Zr  Zr52  1  0.58181662  0.39575267  -0.00288178  1
  Zr  Zr53  1  0.38907820  0.59053955  0.25739191  1
  Zr  Zr54  1  0.90340798  0.29730048  0.88163985  1
  Zr  Zr55  1  0.49798889  0.89898182  0.88250400  1
  Zr  Zr56  1  0.70615345  0.10780162  0.12130917  1
  Zr  Zr57  1  0.69540305  0.70001225  0.88012555  1
  Zr  Zr58  1  0.80209266  0.60159833  0.74794329  1
  Zr  Zr59  1  0.09278722  0.51279283  0.36943193  1
  Zr  Zr60  1  0.89837452  0.30319218  0.63806917  1
  Zr  Zr61  1  0.19890787  0.79950897  0.74274384  1
  Zr  Zr62  1  0.90505793  0.50025236  0.63014208  1
  Zr  Zr63  1  0.48781916  0.09995593  0.13062579  1
  Zr  Zr64  1  0.29531138  0.30198870  0.10235496  1
  Zr  Zr65  1  0.11970109  0.49412962  0.62102181  1
  Zr  Zr66  1  0.88994687  0.49382393  0.10742900  1
  Zr  Zr67  1  0.39257295  0.19941847  0.50813129  1
  Zr  Zr68  1  0.60528932  0.21673451  0.23414105  1
  Zr  Zr69  1  0.28036135  0.30490638  0.64936511  1
  Zr  Zr70  1  0.59847187  -0.00328271  0.01086817  1
  Zr  Zr71  1  0.81321602  0.00745433  0.75495547  1
  Zr  Zr72  1  0.39991480  0.79538940  0.01412516  1
  Zr  Zr73  1  0.29952106  0.09827527  0.87061781  1
  Zr  Zr74  1  0.19798583  -0.01452436  0.74800814  1
  Zr  Zr75  1  0.00868177  0.60527410  0.74896252  1
  Zr  Zr76  1  0.27417941  0.69488109  0.13352068  1
  Zr  Zr77  1  0.09497957  0.89370322  0.60557899  1
  Zr  Zr78  1  0.70445141  0.10701857  0.61374882  1
  Zr  Zr79  1  0.89717371  0.70884096  0.88254485  1
  Ta  Ta80  1  0.69581950  0.50624812  0.89230462  1
  Ta  Ta81  1  0.50487914  0.69397021  0.14929540  1
  Ta  Ta82  1  0.20973074  0.60455084  0.75494230  1
  Ta  Ta83  1  0.30432788  0.70149011  0.87582753  1
  Ta  Ta84  1  0.80898114  0.60248426  0.49188421  1
  Ta  Ta85  1  -0.01329412  0.18394871  0.73953057  1
  Ta  Ta86  1  0.50230094  0.50917091  0.86580708  1
  Ta  Ta87  1  0.89644472  0.30048793  0.10762599  1
  Ta  Ta88  1  -0.00561316  0.20303212  0.50954784  1
  Ta  Ta89  1  0.69442575  0.69933060  0.35976303  1
  Ta  Ta90  1  0.40071681  0.40694351  0.75776122  1
  Ta  Ta91  1  0.91147694  0.71628324  0.61571348  1
  Ta  Ta92  1  0.60237384  0.40526779  0.75575634  1
  Ta  Ta93  1  0.10641243  0.89029986  0.14027583  1
  Ta  Ta94  1  0.29739369  0.09307662  0.62797195  1
  Ta  Ta95  1  0.79516940  0.40658902  0.76572805  1
  Ta  Ta96  1  0.49879085  0.90046275  0.14373342  1
  Ta  Ta97  1  0.79730254  0.38786305  0.25248366  1
  Ta  Ta98  1  0.49703773  0.49985620  0.63207299  1
  Ta  Ta99  1  0.40009363  -0.00861232  0.73535176  1
  Ta  Ta100  1  0.20385743  -0.00400876  0.26591014  1
  Ta  Ta101  1  0.69720107  0.29961983  0.38957797  1
  Ta  Ta102  1  0.90303358  0.10112989  0.89524718  1
  Ta  Ta103  1  0.90272487  0.29986780  0.37678215  1
  Ta  Ta104  1  0.10042135  0.70956853  0.86988903  1
  Ta  Ta105  1  0.79848552  0.19435163  0.76185901  1
  Ta  Ta106  1  0.00112224  0.81052871  0.75061519  1
  Ta  Ta107  1  -0.00016507  0.40110271  0.49564801  1
  Ta  Ta108  1  0.90074868  0.90516453  0.61583844  1
  Ta  Ta109  1  0.28359127  0.48867475  0.38209737  1
  Ta  Ta110  1  0.38989721  0.38282534  0.26214916  1
  Ta  Ta111  1  0.80538357  0.79661622  0.02626819  1
  Ta  Ta112  1  0.90806073  0.89202658  0.13948673  1
  Ta  Ta113  1  0.41043688  0.20548629  -0.01863183  1
  Ta  Ta114  1  0.59229503  0.20166596  -0.00376489  1
  Ta  Ta115  1  0.20612090  -0.00386628  0.48634662  1
  Ta  Ta116  1  0.30115050  0.89778299  0.88700397  1
  Ta  Ta117  1  0.19141001  0.78757711  0.48408433  1
  Ta  Ta118  1  0.80847371  0.20885511  0.24893834  1
  Ta  Ta119  1  -0.01343089  0.40329498  0.24883633  1
  Ti  Ti120  1  0.50692273  0.69664204  0.36479415  1
  Ti  Ti121  1  0.81194537  0.19867888  0.49573581  1
  Ti  Ti122  1  0.70183137  0.49475504  0.61959154  1
  Ti  Ti123  1  0.09297494  0.30528972  0.63724400  1
  Ti  Ti124  1  0.29985600  0.11195004  0.37625150  1
  Ti  Ti125  1  0.00220266  0.80403390  0.47602839  1
  Ti  Ti126  1  0.18860679  0.79540240  -0.00397190  1
  Ti  Ti127  1  0.71240859  0.30858467  0.10265362  1
  Ti  Ti128  1  0.38884049  0.00359347  0.26432921  1
  Ti  Ti129  1  0.79105719  0.60885407  0.00854007  1
  Ti  Ti130  1  0.69634179  0.89296660  0.35937681  1
  Ti  Ti131  1  0.70364022  0.88824396  0.14888808  1
  Ti  Ti132  1  0.00634152  0.80473635  0.01066875  1
  Ti  Ti133  1  0.29709017  0.49142622  0.12535753  1
  Ti  Ti134  1  0.90371501  0.10630889  0.11466065  1
  Ti  Ti135  1  0.28935378  0.69201086  0.61279406  1
  Ti  Ti136  1  0.70696621  0.10227788  0.89342098  1
  Ti  Ti137  1  0.20981056  0.20409135  0.24474548  1
  Ti  Ti138  1  0.89931265  0.50128866  0.87913672  1
  Ti  Ti139  1  0.01459001  0.20035386  0.01197362  1
  Ti  Ti140  1  0.49568847  0.09472933  0.87637464  1
  Ti  Ti141  1  0.30799616  0.88397149  0.59962514  1
  Ti  Ti142  1  0.48302059  0.29637105  0.12848626  1
  Ti  Ti143  1  -0.00429109  -0.00611818  0.75253626  1
  Ti  Ti144  1  0.70034209  0.69137828  0.14847779  1
  Ti  Ti145  1  0.40307526  0.19187290  0.75082207  1
  Ti  Ti146  1  0.00460000  -0.00736380  0.01441040  1
  Ti  Ti147  1  0.69411807  0.49792631  0.11376159  1
  Ti  Ti148  1  0.19964237  0.42072904  0.77387958  1
  Ti  Ti149  1  0.11179329  0.10122621  0.12717377  1
  Ti  Ti150  1  0.59959025  0.19950994  0.76951644  1
  Ti  Ti151  1  0.60650780  0.39655357  0.23924477  1
  Ti  Ti152  1  0.59371576  0.80612634  0.48777943  1
  Ti  Ti153  1  0.90463865  0.70149911  0.13973293  1
  Ti  Ti154  1  0.28525975  0.69008025  0.37510963  1
  Ti  Ti155  1  0.60288865  0.00318397  0.24641335  1
  Ti  Ti156  1  0.20071968  0.20861212  0.51297784  1
  Ti  Ti157  1  0.91015073  0.90055190  0.88848490  1
  Ti  Ti158  1  0.39182236  0.40526975  -0.02438211  1
  Ti  Ti159  1  0.00907873  0.79963631  0.25758180  1
  Mo  Mo160  1  0.09925167  0.30137274  0.12031638  1
  Mo  Mo161  1  0.30374110  0.50633148  0.63966620  1
  Mo  Mo162  1  0.20508486  0.40303652  -0.01161632  1
  Mo  Mo163  1  0.09077862  0.89248415  0.88539365  1
  Mo  Mo164  1  0.80273507  0.79396839  0.24772538  1
  Mo  Mo165  1  0.20380620  0.60212502  0.49553555  1
  Mo  Mo166  1  0.39094686  0.20555109  0.25985695  1
  Mo  Mo167  1  0.19588004  0.80377056  0.26753366  1
  Mo  Mo168  1  0.60080672  0.59872293  0.02192485  1
  Mo  Mo169  1  0.60218237  -0.00625378  0.47960140  1
  Mo  Mo170  1  0.20040170  0.59815207  0.25765519  1
  Mo  Mo171  1  0.39434509  0.79214203  0.47973233  1
  Mo  Mo172  1  0.90135662  0.09694270  0.62049093  1
  Mo  Mo173  1  -0.00156203  0.59982747  0.23056662  1
  Mo  Mo174  1  0.10265669  0.69979581  0.35431224  1
  Mo  Mo175  1  0.19407618  0.19902824  0.00936285  1
  Mo  Mo176  1  0.90018736  0.89320138  0.35556182  1
  Mo  Mo177  1  0.10294746  0.89956605  0.37101253  1
  Mo  Mo178  1  0.30035169  0.89732240  0.38535908  1
  Mo  Mo179  1  0.09352270  0.70706958  0.13675028  1
  Mo  Mo180  1  0.19515065  0.39700317  0.50265107  1
  Mo  Mo181  1  0.59645211  0.80794428  0.73637710  1
  Mo  Mo182  1  0.90109058  0.11813610  0.37414973  1
  Mo  Mo183  1  0.29470356  0.29327130  0.37793832  1
  Mo  Mo184  1  0.60246465  0.59205446  0.24278997  1
  Mo  Mo185  1  0.30919319  0.50631502  0.86413687  1
  Mo  Mo186  1  0.59970106  0.40261441  0.52157822  1
  Mo  Mo187  1  0.49736159  0.29765827  0.85743103  1
  Mo  Mo188  1  0.39666654  0.60361175  0.73918789  1
  Mo  Mo189  1  0.60016255  0.79783094  0.24817853  1
  Mo  Mo190  1  0.49953835  0.89648385  0.61778088  1
  Mo  Mo191  1  0.80243119  0.19837077  -0.00075924  1
  Mo  Mo192  1  0.90265838  0.49548938  0.37590844  1
  Mo  Mo193  1  0.19357938  0.18924434  0.73210907  1
  Mo  Mo194  1  0.79878256  0.40651733  -0.01301237  1
  Mo  Mo195  1  0.09600567  0.50655223  0.86419938  1
  Mo  Mo196  1  0.00016086  0.40197550  0.76420995  1
  Mo  Mo197  1  0.39946199  0.00178234  -0.00477785  1
  Mo  Mo198  1  0.10234000  0.70524754  0.62964012  1
  Mo  Mo199  1  0.60283088  0.20269363  0.50117144  1
