# generated using pymatgen
data_HfZrTaTiMo
_symmetry_space_group_name_H-M   'P 1'
_cell_length_a   15.83844826
_cell_length_b   15.84149794
_cell_length_c   15.43143814
_cell_angle_alpha   89.91984316
_cell_angle_beta   90.02274190
_cell_angle_gamma   90.12470609
_symmetry_Int_Tables_number   1
_chemical_formula_structural   HfZrTaTiMo
_chemical_formula_sum   'Hf40 Zr40 Ta40 Ti40 Mo40'
_cell_volume   3871.80779934
_cell_formula_units_Z   40
loop_
 _symmetry_equiv_pos_site_id
 _symmetry_equiv_pos_as_xyz
  1  'x, y, z'
loop_
 _atom_site_type_symbol
 _atom_site_label
 _atom_site_symmetry_multiplicity
 _atom_site_fract_x
 _atom_site_fract_y
 _atom_site_fract_z
 _atom_site_occupancy
  Hf  Hf0  1  0.71049033  0.28592501  0.88071404  1
  Hf  Hf1  1  0.79762050  -0.00634451  0.73827995  1
  Hf  Hf2  1  0.50991650  0.69410144  0.88008984  1
  Hf  Hf3  1  0.41236315  0.20604721  0.00100748  1
  Hf  Hf4  1  0.39458140  0.19493919  0.26204030  1
  Hf  Hf5  1  0.69604119  0.49452639  0.87799232  1
  Hf  Hf6  1  0.50155223  0.50271948  0.37564321  1
  Hf  Hf7  1  -0.00396559  0.39148117  -0.01082549  1
  Hf  Hf8  1  0.09009225  0.90927671  0.35623219  1
  Hf  Hf9  1  0.89791043  0.90083569  0.90030447  1
  Hf  Hf10  1  0.20401597  0.80453500  0.24620014  1
  Hf  Hf11  1  0.80623235  0.39099286  0.26077074  1
  Hf  Hf12  1  0.00784610  0.40141630  0.49836992  1
  Hf  Hf13  1  0.49622330  0.48343827  0.86557085  1
  Hf  Hf14  1  0.29095997  0.49413456  0.12425011  1
  Hf  Hf15  1  0.88857438  0.90621301  0.35150059  1
  Hf  Hf16  1  0.61176856  0.80363273  0.75978048  1
  Hf  Hf17  1  0.90525954  0.69073228  0.89996368  1
  Hf  Hf18  1  0.09520061  0.71275751  0.63118942  1
  Hf  Hf19  1  0.61560096  0.39222642  0.26201938  1
  Hf  Hf20  1  0.90350482  0.09691143  0.37336945  1
  Hf  Hf21  1  0.10563225  0.30920106  0.36512267  1
  Hf  Hf22  1  0.29779471  0.70453967  0.62663872  1
  Hf  Hf23  1  0.29048941  0.10679498  0.62577529  1
  Hf  Hf24  1  0.19872545  0.21260258  -0.01353768  1
  Hf  Hf25  1  0.39501808  0.60126290  0.49630829  1
  Hf  Hf26  1  0.20276344  0.40615048  0.76010959  1
  Hf  Hf27  1  0.09660781  0.09940008  0.87673843  1
  Hf  Hf28  1  0.40179720  0.60411553  0.24846097  1
  Hf  Hf29  1  0.40053192  0.00118936  0.24181814  1
  Hf  Hf30  1  0.19146850  0.61169388  0.76072091  1
  Hf  Hf31  1  0.61197874  0.18108883  0.26221801  1
  Hf  Hf32  1  0.90090530  0.88957291  0.61938762  1
  Hf  Hf33  1  0.50043646  0.29520853  0.38169434  1
  Hf  Hf34  1  0.79650458  0.58895323  0.24045944  1
  Hf  Hf35  1  0.67804110  0.90588064  0.35749038  1
  Hf  Hf36  1  0.30541857  0.09312616  0.87290258  1
  Hf  Hf37  1  0.00092597  0.60380337  0.50434198  1
  Hf  Hf38  1  0.50703595  0.10624454  0.86905926  1
  Hf  Hf39  1  0.40413714  0.80220921  0.00343927  1
  Zr  Zr40  1  0.79450208  0.38481155  0.74373777  1
  Zr  Zr41  1  0.18729282  0.79909945  -0.00228692  1
  Zr  Zr42  1  0.00192124  0.80610434  0.48974123  1
  Zr  Zr43  1  0.90368770  0.50236807  0.38016942  1
  Zr  Zr44  1  0.70668876  0.89817727  0.89760734  1
  Zr  Zr45  1  0.00242188  0.79958443  0.76728942  1
  Zr  Zr46  1  0.50821286  0.50451401  0.12601601  1
  Zr  Zr47  1  0.41460981  0.21500875  0.73487880  1
  Zr  Zr48  1  -0.00468424  0.39934649  0.76125489  1
  Zr  Zr49  1  0.19139703  0.59709404  0.48876067  1
  Zr  Zr50  1  0.78858029  0.79529360  0.49081123  1
  Zr  Zr51  1  0.29703925  0.91795551  0.10634472  1
  Zr  Zr52  1  0.60565829  0.39480728  0.50713493  1
  Zr  Zr53  1  0.00208064  -0.00152189  0.73983980  1
  Zr  Zr54  1  0.79017975  0.79141753  0.23478951  1
  Zr  Zr55  1  0.19871686  0.79901537  0.48798143  1
  Zr  Zr56  1  0.10436634  0.11059436  0.12718588  1
  Zr  Zr57  1  0.91128620  0.28051953  0.62266983  1
  Zr  Zr58  1  0.31358754  0.90816974  0.37864277  1
  Zr  Zr59  1  0.89731964  0.69746333  0.36231962  1
  Zr  Zr60  1  0.51387598  0.69905396  0.63664078  1
  Zr  Zr61  1  0.70309108  0.09403144  0.87712711  1
  Zr  Zr62  1  0.50633279  0.29982369  0.14058231  1
  Zr  Zr63  1  0.50941420  0.71358349  0.37863390  1
  Zr  Zr64  1  0.70324565  0.48439471  0.10228498  1
  Zr  Zr65  1  0.61749416  0.20165258  0.72441074  1
  Zr  Zr66  1  0.79772892  0.20380185  0.26735085  1
  Zr  Zr67  1  0.29620004  0.69452474  0.12137375  1
  Zr  Zr68  1  0.08894996  0.51562576  0.88504513  1
  Zr  Zr69  1  0.42060705  0.82290607  0.51353102  1
  Zr  Zr70  1  0.50004044  0.07226556  0.38964169  1
  Zr  Zr71  1  0.49599092  0.49830845  0.63316092  1
  Zr  Zr72  1  0.69085922  0.68431856  0.09820733  1
  Zr  Zr73  1  0.09783846  0.30418176  0.13483273  1
  Zr  Zr74  1  0.89316719  0.10675007  0.87394925  1
  Zr  Zr75  1  0.39076772  0.59894166  0.75786091  1
  Zr  Zr76  1  0.69506495  0.50834430  0.64012339  1
  Zr  Zr77  1  0.18779155  -0.00147348  0.50886447  1
  Zr  Zr78  1  0.31902643  0.31206178  0.86833214  1
  Zr  Zr79  1  0.49634058  0.91336018  0.87732635  1
  Ta  Ta80  1  0.09831181  0.50123667  0.63407418  1
  Ta  Ta81  1  0.49905634  0.09436405  0.61105052  1
  Ta  Ta82  1  0.89719030  0.50218536  0.62326774  1
  Ta  Ta83  1  0.29090210  0.49888822  0.62292749  1
  Ta  Ta84  1  0.09860421  0.90920913  0.12701399  1
  Ta  Ta85  1  0.58920610  -0.02908827  0.51420980  1
  Ta  Ta86  1  0.40638164  0.80118174  0.23767563  1
  Ta  Ta87  1  0.79576783  0.59779499  0.50445422  1
  Ta  Ta88  1  0.39460238  0.20244307  0.50176370  1
  Ta  Ta89  1  0.19298523  0.20511864  0.75479310  1
  Ta  Ta90  1  0.40277514  0.59662931  -0.00002615  1
  Ta  Ta91  1  0.39094252  0.39546631  0.25785970  1
  Ta  Ta92  1  0.70348448  0.08981077  0.60579747  1
  Ta  Ta93  1  0.80114404  0.19671166  0.49402514  1
  Ta  Ta94  1  0.89567931  0.90532635  0.12423573  1
  Ta  Ta95  1  0.29662379  0.91145987  0.88029565  1
  Ta  Ta96  1  0.09144771  0.69241931  0.34981500  1
  Ta  Ta97  1  0.59585905  0.00734275  0.01719989  1
  Ta  Ta98  1  -0.00162949  0.79644696  0.22911827  1
  Ta  Ta99  1  0.29736756  0.30054575  0.12835064  1
  Ta  Ta100  1  0.38960150  0.39739973  0.50060050  1
  Ta  Ta101  1  0.89944088  0.49270358  0.10915700  1
  Ta  Ta102  1  0.60063152  -0.00058010  0.73204305  1
  Ta  Ta103  1  0.89927860  0.11787469  0.13491385  1
  Ta  Ta104  1  0.80673747  0.59901419  0.76490169  1
  Ta  Ta105  1  0.09715565  0.10704676  0.37143499  1
  Ta  Ta106  1  0.39333164  0.80560126  0.75858645  1
  Ta  Ta107  1  -0.00317530  0.40572230  0.24971623  1
  Ta  Ta108  1  0.69966189  0.90720017  0.12580983  1
  Ta  Ta109  1  0.40134411  0.39975225  0.00994390  1
  Ta  Ta110  1  0.29817770  0.70519204  0.88350511  1
  Ta  Ta111  1  0.89243225  0.69439350  0.63039577  1
  Ta  Ta112  1  0.60901281  0.19577697  0.01218334  1
  Ta  Ta113  1  0.21015676  0.20278695  0.26116960  1
  Ta  Ta114  1  0.10653430  0.30197107  0.62879775  1
  Ta  Ta115  1  0.08430153  0.11957955  0.62067986  1
  Ta  Ta116  1  -0.00200756  0.00827660  0.01546541  1
  Ta  Ta117  1  0.20440047  0.01356753  0.25220947  1
  Ta  Ta118  1  0.19815750  0.81291957  0.76425505  1
  Ta  Ta119  1  0.29027105  0.49151644  0.36865945  1
  Ti  Ti120  1  0.58729618  0.37693384  0.73993477  1
  Ti  Ti121  1  0.80046136  0.01591846  0.02267229  1
  Ti  Ti122  1  0.19799192  0.39989749  -0.00800856  1
  Ti  Ti123  1  -0.00369847  0.00482705  0.50727695  1
  Ti  Ti124  1  0.69474870  0.69680133  0.37180604  1
  Ti  Ti125  1  0.29570510  0.09969749  0.39340926  1
  Ti  Ti126  1  -0.00839536  0.60078974  0.75042373  1
  Ti  Ti127  1  0.39973832  -0.00247267  0.73478633  1
  Ti  Ti128  1  0.72103247  0.29273680  0.11245105  1
  Ti  Ti129  1  0.00494685  0.79692821  0.01757404  1
  Ti  Ti130  1  0.19243348  0.59296468  0.25140632  1
  Ti  Ti131  1  0.80031680  0.39376756  0.50028246  1
  Ti  Ti132  1  0.29900243  0.10709072  0.11278739  1
  Ti  Ti133  1  0.29668062  0.30677019  0.62532593  1
  Ti  Ti134  1  0.70641797  0.69712185  0.63612953  1
  Ti  Ti135  1  0.50113084  0.10023304  0.12839119  1
  Ti  Ti136  1  0.60686946  0.60888222  0.50106182  1
  Ti  Ti137  1  0.79629851  -0.00607216  0.49695923  1
  Ti  Ti138  1  0.60748062  0.19149478  0.49539896  1
  Ti  Ti139  1  0.19668405  0.21168598  0.49568581  1
  Ti  Ti140  1  0.70816878  0.69575653  0.89249416  1
  Ti  Ti141  1  0.29412580  0.90058702  0.63125694  1
  Ti  Ti142  1  0.19975366  0.40352190  0.50025309  1
  Ti  Ti143  1  0.50263086  0.90426555  0.12504166  1
  Ti  Ti144  1  0.30121033  0.70082889  0.36852848  1
  Ti  Ti145  1  0.59798848  0.80298306  0.00630708  1
  Ti  Ti146  1  0.19170313  -0.00056637  0.74256788  1
  Ti  Ti147  1  0.80577207  0.79359649  0.75917303  1
  Ti  Ti148  1  0.09977362  0.91119707  0.89268701  1
  Ti  Ti149  1  -0.00270674  0.00893673  0.23455248  1
  Ti  Ti150  1  0.69896252  0.88670661  0.62108027  1
  Ti  Ti151  1  0.70104604  0.50472131  0.38482594  1
  Ti  Ti152  1  0.59316654  0.38310365  -0.00431815  1
  Ti  Ti153  1  0.09574124  0.50402111  0.12525992  1
  Ti  Ti154  1  0.60301647  0.60254572  0.24904941  1
  Ti  Ti155  1  -0.00948809  0.20878718  -0.00802555  1
  Ti  Ti156  1  0.59052432  0.79244930  0.22846896  1
  Ti  Ti157  1  0.89884245  0.69014882  0.11217594  1
  Ti  Ti158  1  0.18883053  0.60787991  0.00040546  1
  Ti  Ti159  1  0.30020081  0.50590174  0.88800044  1
  Mo  Mo160  1  0.89177109  0.49727624  0.88679693  1
  Mo  Mo161  1  -0.00313561  0.59572904  0.22860502  1
  Mo  Mo162  1  0.39914482  0.39982283  0.72686009  1
  Mo  Mo163  1  0.51319141  0.29976543  0.87900764  1
  Mo  Mo164  1  0.80615960  0.18482034  0.72025950  1
  Mo  Mo165  1  0.19472905  0.00777433  -0.00220045  1
  Mo  Mo166  1  0.70260602  0.10428145  0.12149971  1
  Mo  Mo167  1  0.90010417  0.28838290  0.85661518  1
  Mo  Mo168  1  0.00026115  0.20635018  0.26291203  1
  Mo  Mo169  1  0.49881825  0.89820201  0.65003212  1
  Mo  Mo170  1  0.61314915  0.60587025  0.76741330  1
  Mo  Mo171  1  0.60928558  0.79567674  0.51013274  1
  Mo  Mo172  1  0.00748995  0.20000663  0.48341502  1
  Mo  Mo173  1  0.50130858  0.89384706  0.35591696  1
  Mo  Mo174  1  0.50184156  0.70064852  0.11416774  1
  Mo  Mo175  1  0.09996403  0.50382193  0.35617208  1
  Mo  Mo176  1  0.10445357  0.90793286  0.62991094  1
  Mo  Mo177  1  0.40531680  0.01025581  0.01059577  1
  Mo  Mo178  1  0.81017927  0.38764966  -0.01392670  1
  Mo  Mo179  1  0.79328650  0.00832909  0.23633467  1
  Mo  Mo180  1  0.90707859  0.29951277  0.39078417  1
  Mo  Mo181  1  0.09711328  0.69637988  0.13763620  1
  Mo  Mo182  1  0.69977935  0.08700556  0.39757511  1
  Mo  Mo183  1  0.80238478  0.80052836  0.01631053  1
  Mo  Mo184  1  0.39498235  0.00265411  0.51996461  1
  Mo  Mo185  1  0.10164526  0.29738600  0.86819281  1
  Mo  Mo186  1  0.20233884  0.40435089  0.24353732  1
  Mo  Mo187  1  0.49855136  0.29304005  0.59950224  1
  Mo  Mo188  1  0.59887225  -0.00175745  0.23091583  1
  Mo  Mo189  1  0.00542308  0.60043118  0.01980307  1
  Mo  Mo190  1  0.29770201  0.30123029  0.38110425  1
  Mo  Mo191  1  0.90363920  0.30189162  0.12844441  1
  Mo  Mo192  1  0.70411845  0.29230283  0.60728419  1
  Mo  Mo193  1  0.09680757  0.70834920  0.87676002  1
  Mo  Mo194  1  0.70446708  0.29724500  0.39415195  1
  Mo  Mo195  1  0.80411678  0.59047964  -0.00677717  1
  Mo  Mo196  1  0.00424225  0.20000261  0.75680796  1
  Mo  Mo197  1  0.59483000  0.58994087  -0.01733797  1
  Mo  Mo198  1  0.81175228  0.20342455  0.01030489  1
  Mo  Mo199  1  0.89898516  0.09276632  0.60886682  1
