# generated using pymatgen
data_HfZrTaTiMo
_symmetry_space_group_name_H-M   'P 1'
_cell_length_a   15.82517092
_cell_length_b   15.83883257
_cell_length_c   15.38505885
_cell_angle_alpha   90.02400691
_cell_angle_beta   89.98716004
_cell_angle_gamma   90.13469631
_symmetry_Int_Tables_number   1
_chemical_formula_structural   HfZrTaTiMo
_chemical_formula_sum   'Hf40 Zr40 Ta40 Ti40 Mo40'
_cell_volume   3856.28825770
_cell_formula_units_Z   40
loop_
 _symmetry_equiv_pos_site_id
 _symmetry_equiv_pos_as_xyz
  1  'x, y, z'
loop_
 _atom_site_type_symbol
 _atom_site_label
 _atom_site_symmetry_multiplicity
 _atom_site_fract_x
 _atom_site_fract_y
 _atom_site_fract_z
 _atom_site_occupancy
  Hf  Hf0  1  0.50167699  0.49807662  0.87385845  1
  Hf  Hf1  1  0.00492851  0.00595603  0.24308667  1
  Hf  Hf2  1  0.69924463  0.49134933  0.90196290  1
  Hf  Hf3  1  0.90925087  0.92895551  0.87845264  1
  Hf  Hf4  1  0.78581863  0.60387392  0.48386718  1
  Hf  Hf5  1  0.20173229  0.58905052  0.50862239  1
  Hf  Hf6  1  0.00349208  0.60498191  0.01233556  1
  Hf  Hf7  1  0.79078760  0.38652803  0.25632815  1
  Hf  Hf8  1  0.19545730  0.00826704  -0.00946341  1
  Hf  Hf9  1  -0.00133822  0.39034105  0.26493053  1
  Hf  Hf10  1  0.70994429  0.90955417  0.88312615  1
  Hf  Hf11  1  0.39867446  0.80797546  0.77354173  1
  Hf  Hf12  1  0.48317565  0.49172103  0.35954751  1
  Hf  Hf13  1  0.39594945  0.01302965  -0.01439994  1
  Hf  Hf14  1  0.70657407  0.29412823  0.88653803  1
  Hf  Hf15  1  -0.00709215  -0.00254848  0.50891681  1
  Hf  Hf16  1  -0.00503571  0.39729955  0.48874362  1
  Hf  Hf17  1  0.08201781  0.70534152  0.62896352  1
  Hf  Hf18  1  0.09106778  0.89681843  0.37819615  1
  Hf  Hf19  1  0.59600960  0.59511258  0.49345612  1
  Hf  Hf20  1  0.31102638  0.90540540  0.38245220  1
  Hf  Hf21  1  0.69570744  0.09088526  0.37530552  1
  Hf  Hf22  1  0.00226721  0.60306088  0.24866314  1
  Hf  Hf23  1  0.89642424  0.48806000  0.12782899  1
  Hf  Hf24  1  0.59970576  0.20241294  0.26116427  1
  Hf  Hf25  1  0.39877515  0.80066338  0.23093973  1
  Hf  Hf26  1  0.50255336  0.09876584  0.61888089  1
  Hf  Hf27  1  0.70895244  0.89004249  0.35065863  1
  Hf  Hf28  1  -0.00266551  0.20071051  0.25423120  1
  Hf  Hf29  1  0.08096948  0.10387886  0.87199815  1
  Hf  Hf30  1  0.61288918  0.40167671  0.74161143  1
  Hf  Hf31  1  0.30730833  0.70240208  0.37997642  1
  Hf  Hf32  1  0.81453436  0.79636666  0.51458715  1
  Hf  Hf33  1  0.40989591  0.19872358  0.74623080  1
  Hf  Hf34  1  0.09042323  0.48894825  0.86344668  1
  Hf  Hf35  1  0.90356633  0.90398116  0.11940012  1
  Hf  Hf36  1  0.59437410  0.01085819  0.76560782  1
  Hf  Hf37  1  0.70109358  0.90969112  0.12007655  1
  Hf  Hf38  1  0.30992120  0.30124671  0.13922729  1
  Hf  Hf39  1  0.30885818  0.50433603  0.13560650  1
  Zr  Zr40  1  0.09241912  0.70655948  0.39044405  1
  Zr  Zr41  1  0.20065743  0.60476728  0.25491069  1
  Zr  Zr42  1  0.50377041  0.69913445  0.64669225  1
  Zr  Zr43  1  0.19695907  0.59917468  0.74353751  1
  Zr  Zr44  1  0.20235411  0.39443599  0.00066415  1
  Zr  Zr45  1  0.80401040  0.79191292  0.76664573  1
  Zr  Zr46  1  0.31536010  0.90837249  0.63073319  1
  Zr  Zr47  1  0.30506394  0.49635814  0.85629363  1
  Zr  Zr48  1  0.90583723  0.29202574  0.88955606  1
  Zr  Zr49  1  0.40996029  0.00861891  0.23965175  1
  Zr  Zr50  1  0.19428570  0.80062007  0.23541999  1
  Zr  Zr51  1  0.30591404  0.90153594  0.10331912  1
  Zr  Zr52  1  0.10311960  0.49092722  0.12776837  1
  Zr  Zr53  1  0.20540532  0.00404495  0.25035015  1
  Zr  Zr54  1  0.79699486  -0.00657918  0.50675554  1
  Zr  Zr55  1  0.30044190  0.30210058  0.85141121  1
  Zr  Zr56  1  0.61612972  0.79287524  0.50535490  1
  Zr  Zr57  1  0.20033149  0.80296472  0.51389404  1
  Zr  Zr58  1  0.90183364  0.48711835  0.89348721  1
  Zr  Zr59  1  -0.00332540  0.21002507  0.72261944  1
  Zr  Zr60  1  0.50598247  0.11454524  0.11730113  1
  Zr  Zr61  1  0.49481390  0.48746482  0.12643889  1
  Zr  Zr62  1  0.59764737  0.79980325  0.77501809  1
  Zr  Zr63  1  0.87874733  0.50064351  0.61110329  1
  Zr  Zr64  1  0.50337674  0.70293584  0.35975403  1
  Zr  Zr65  1  0.19350722  0.00625066  0.74699129  1
  Zr  Zr66  1  0.19606164  0.00484212  0.50937649  1
  Zr  Zr67  1  0.80804752  0.79614514  -0.00332900  1
  Zr  Zr68  1  0.89374170  0.71416387  0.35593792  1
  Zr  Zr69  1  0.51341253  0.90600123  0.35881500  1
  Zr  Zr70  1  0.09292565  0.69831517  0.86556233  1
  Zr  Zr71  1  0.81272552  0.39131512  0.74833254  1
  Zr  Zr72  1  0.10119701  0.30123221  0.86336239  1
  Zr  Zr73  1  0.59479793  -0.01760389  0.51509191  1
  Zr  Zr74  1  0.40042382  0.59633017  0.50416206  1
  Zr  Zr75  1  0.48761843  0.68644530  0.10712173  1
  Zr  Zr76  1  0.70498020  0.29681805  0.61156281  1
  Zr  Zr77  1  0.70320391  0.68284345  0.64423543  1
  Zr  Zr78  1  0.01036128  0.20038704  0.01747101  1
  Zr  Zr79  1  0.30646573  0.70129694  0.63665623  1
  Ta  Ta80  1  0.19964180  0.59859565  -0.00680624  1
  Ta  Ta81  1  0.10198961  0.10444784  0.38276328  1
  Ta  Ta82  1  0.42270459  0.81483384  0.51101343  1
  Ta  Ta83  1  0.39728597  0.40331385  0.51906736  1
  Ta  Ta84  1  0.69450447  0.29814665  0.39055822  1
  Ta  Ta85  1  0.30764126  0.10811643  0.38692999  1
  Ta  Ta86  1  0.40352757  0.21059942  -0.01248978  1
  Ta  Ta87  1  0.90028662  0.09858559  0.37834970  1
  Ta  Ta88  1  0.89778764  0.68550215  0.87434106  1
  Ta  Ta89  1  0.60042906  0.00858350  -0.00560423  1
  Ta  Ta90  1  0.71696722  0.10472267  0.88146915  1
  Ta  Ta91  1  0.29730696  0.69571284  0.10228374  1
  Ta  Ta92  1  0.59170305  0.40423513  0.50478452  1
  Ta  Ta93  1  -0.01717338  0.61084025  0.50224043  1
  Ta  Ta94  1  0.69952155  0.10581693  0.63226557  1
  Ta  Ta95  1  0.80475584  0.01098264  0.24322410  1
  Ta  Ta96  1  0.89932743  0.89980866  0.35856169  1
  Ta  Ta97  1  0.89878057  0.89971829  0.64528699  1
  Ta  Ta98  1  0.70386615  0.10702661  0.11709920  1
  Ta  Ta99  1  0.30844528  0.10505639  0.61753432  1
  Ta  Ta100  1  0.69851357  0.69342829  0.11930960  1
  Ta  Ta101  1  0.19769553  0.80017145  -0.01442864  1
  Ta  Ta102  1  0.69210751  0.29240666  0.11528056  1
  Ta  Ta103  1  0.49849414  0.50502031  0.64662249  1
  Ta  Ta104  1  0.20317947  0.20602792  0.50452146  1
  Ta  Ta105  1  0.21073714  0.20075832  0.00088840  1
  Ta  Ta106  1  0.19729298  0.39344320  0.71548502  1
  Ta  Ta107  1  0.31143680  0.30673005  0.38422398  1
  Ta  Ta108  1  0.49897213  0.10133116  0.38776924  1
  Ta  Ta109  1  0.59596696  0.80013382  0.00323698  1
  Ta  Ta110  1  0.40109818  0.00447484  0.76938876  1
  Ta  Ta111  1  0.60097699  0.59404566  0.23888456  1
  Ta  Ta112  1  0.89161627  0.50108806  0.37246549  1
  Ta  Ta113  1  0.70153910  0.90243616  0.65170813  1
  Ta  Ta114  1  0.08594833  0.49728662  0.61841992  1
  Ta  Ta115  1  0.20282991  0.39834234  0.27265628  1
  Ta  Ta116  1  0.59661721  0.80168671  0.21882177  1
  Ta  Ta117  1  0.69247044  0.68263646  0.89505402  1
  Ta  Ta118  1  0.79223731  0.59403158  0.24378162  1
  Ta  Ta119  1  0.30256260  0.11409700  0.12762531  1
  Ti  Ti120  1  0.09376515  0.90673538  0.87209407  1
  Ti  Ti121  1  0.69766687  0.70386473  0.34606072  1
  Ti  Ti122  1  0.50718480  0.29994642  0.86201610  1
  Ti  Ti123  1  0.89295055  0.29720911  0.11784653  1
  Ti  Ti124  1  0.10592845  0.29452901  0.38457361  1
  Ti  Ti125  1  0.00480786  0.79995189  -0.00346238  1
  Ti  Ti126  1  0.40653876  0.20847653  0.50246395  1
  Ti  Ti127  1  0.20723199  0.40085332  0.50467926  1
  Ti  Ti128  1  0.80325774  0.19663133  0.49199252  1
  Ti  Ti129  1  0.51020805  0.29557128  0.62412647  1
  Ti  Ti130  1  0.69443666  0.48932530  0.12022303  1
  Ti  Ti131  1  0.30452245  0.69690253  0.88405999  1
  Ti  Ti132  1  0.49701706  0.90063152  0.89566344  1
  Ti  Ti133  1  0.00143743  0.19643025  0.50119301  1
  Ti  Ti134  1  0.58899150  0.38468906  0.25127006  1
  Ti  Ti135  1  0.80228371  0.20027077  0.25394080  1
  Ti  Ti136  1  0.89532558  0.30164742  0.60325445  1
  Ti  Ti137  1  -0.01395909  0.02361176  0.73026962  1
  Ti  Ti138  1  0.89624714  0.10125135  0.11436385  1
  Ti  Ti139  1  0.09043286  0.89929086  0.63650911  1
  Ti  Ti140  1  0.39870740  0.39224811  -0.00346884  1
  Ti  Ti141  1  0.78935442  0.58368832  0.76214708  1
  Ti  Ti142  1  0.09758385  0.50453830  0.38472006  1
  Ti  Ti143  1  -0.00656730  0.80095057  0.75812884  1
  Ti  Ti144  1  0.58715855  0.38273593  0.00625730  1
  Ti  Ti145  1  0.68940986  0.49389885  0.36635318  1
  Ti  Ti146  1  0.19303666  0.20023106  0.71599925  1
  Ti  Ti147  1  0.19997001  0.80740869  0.76201400  1
  Ti  Ti148  1  0.89707318  0.70245296  0.13030469  1
  Ti  Ti149  1  0.80165274  0.59647799  0.01443174  1
  Ti  Ti150  1  -0.01917309  0.58952557  0.74147958  1
  Ti  Ti151  1  0.10056567  0.90191823  0.11078158  1
  Ti  Ti152  1  0.29127591  0.11230254  0.86216826  1
  Ti  Ti153  1  0.80958625  0.18853137  0.74446795  1
  Ti  Ti154  1  0.40966242  0.21100032  0.26429702  1
  Ti  Ti155  1  0.11108809  0.29775356  0.13658106  1
  Ti  Ti156  1  0.49786653  0.68541676  0.88975837  1
  Ti  Ti157  1  0.11276144  0.10459530  0.12888170  1
  Ti  Ti158  1  0.20636227  0.20120346  0.26509742  1
  Ti  Ti159  1  0.00682582  0.79946750  0.23148395  1
  Mo  Mo160  1  0.40607471  0.39540661  0.73021872  1
  Mo  Mo161  1  0.80156549  0.01013547  0.74053344  1
  Mo  Mo162  1  0.60699395  0.59464951  0.76705585  1
  Mo  Mo163  1  0.89358994  0.29047007  0.38342941  1
  Mo  Mo164  1  0.89751618  0.69589420  0.64661913  1
  Mo  Mo165  1  0.80170074  0.19895909  0.01162489  1
  Mo  Mo166  1  0.00440461  0.39363898  0.02078810  1
  Mo  Mo167  1  0.69062131  0.49850168  0.61593838  1
  Mo  Mo168  1  0.80112318  0.79900249  0.22916530  1
  Mo  Mo169  1  0.29514267  0.49545644  0.37186937  1
  Mo  Mo170  1  0.09984744  0.10251671  0.61225992  1
  Mo  Mo171  1  0.60864045  0.20087744  0.76138514  1
  Mo  Mo172  1  0.80415718  0.00931191  0.01085194  1
  Mo  Mo173  1  0.39533847  0.60039696  0.25421130  1
  Mo  Mo174  1  0.30285542  0.49593476  0.63714502  1
  Mo  Mo175  1  0.50038877  0.29983310  0.39516526  1
  Mo  Mo176  1  0.39755825  0.79892129  -0.01369679  1
  Mo  Mo177  1  0.89614821  0.10442318  0.88279551  1
  Mo  Mo178  1  0.00872742  0.00311227  0.01436467  1
  Mo  Mo179  1  0.79545676  0.39502354  0.02247625  1
  Mo  Mo180  1  0.39107657  0.59216732  -0.01664455  1
  Mo  Mo181  1  0.40427647  0.60324244  0.76525901  1
  Mo  Mo182  1  0.50368254  0.11037833  0.88141376  1
  Mo  Mo183  1  0.30674240  0.29645781  0.61601808  1
  Mo  Mo184  1  0.60501257  0.00550268  0.23512988  1
  Mo  Mo185  1  0.59963427  0.59237769  0.01394873  1
  Mo  Mo186  1  0.89011927  0.10605288  0.60523457  1
  Mo  Mo187  1  0.39827017  0.38947677  0.25669085  1
  Mo  Mo188  1  0.40191645  0.00389416  0.49625574  1
  Mo  Mo189  1  -0.00972155  0.80676322  0.51590009  1
  Mo  Mo190  1  0.50219104  0.90209790  0.64369144  1
  Mo  Mo191  1  0.50535039  0.90295156  0.10404807  1
  Mo  Mo192  1  0.10294417  0.70790522  0.10706913  1
  Mo  Mo193  1  0.49931601  0.29728657  0.12001619  1
  Mo  Mo194  1  0.79195902  0.40126504  0.47827411  1
  Mo  Mo195  1  0.29266165  0.90264018  0.87430419  1
  Mo  Mo196  1  -0.00025017  0.40090583  0.72360259  1
  Mo  Mo197  1  0.60034028  0.19788370  0.49315116  1
  Mo  Mo198  1  0.59843037  0.20065113  -0.01617337  1
  Mo  Mo199  1  0.09965183  0.30415030  0.60002091  1
