# generated using pymatgen
data_HfZrTaTiMo
_symmetry_space_group_name_H-M   'P 1'
_cell_length_a   15.82233010
_cell_length_b   15.84331901
_cell_length_c   15.39860158
_cell_angle_alpha   89.97312980
_cell_angle_beta   89.98410560
_cell_angle_gamma   90.05514445
_symmetry_Int_Tables_number   1
_chemical_formula_structural   HfZrTaTiMo
_chemical_formula_sum   'Hf40 Zr40 Ta40 Ti40 Mo40'
_cell_volume   3860.09172384
_cell_formula_units_Z   40
loop_
 _symmetry_equiv_pos_site_id
 _symmetry_equiv_pos_as_xyz
  1  'x, y, z'
loop_
 _atom_site_type_symbol
 _atom_site_label
 _atom_site_symmetry_multiplicity
 _atom_site_fract_x
 _atom_site_fract_y
 _atom_site_fract_z
 _atom_site_occupancy
  Hf  Hf0  1  0.90854203  0.30223285  0.38956304  1
  Hf  Hf1  1  0.41102871  0.40787319  0.74544088  1
  Hf  Hf2  1  0.10147651  0.08566790  0.87993829  1
  Hf  Hf3  1  0.69600519  0.50007605  0.39336056  1
  Hf  Hf4  1  0.90420950  0.70570009  0.87595540  1
  Hf  Hf5  1  0.00097462  0.19401923  0.74691523  1
  Hf  Hf6  1  0.80699727  0.19577650  0.26232924  1
  Hf  Hf7  1  0.40804562  0.59430748  0.24835466  1
  Hf  Hf8  1  0.00954371  0.60090828  0.00203400  1
  Hf  Hf9  1  0.40702073  0.40319052  -0.02017147  1
  Hf  Hf10  1  0.30089066  0.51877098  0.85740057  1
  Hf  Hf11  1  0.69782461  0.70731148  0.87454010  1
  Hf  Hf12  1  0.48701790  0.69323404  0.85981955  1
  Hf  Hf13  1  0.78995866  0.60028806  0.24304606  1
  Hf  Hf14  1  0.08830210  0.49469682  0.39397880  1
  Hf  Hf15  1  0.90425839  0.49288233  0.11756804  1
  Hf  Hf16  1  0.39791352  0.60352901  -0.00061726  1
  Hf  Hf17  1  0.40609857  0.79695331  0.23947830  1
  Hf  Hf18  1  0.20003269  0.59294444  0.25524306  1
  Hf  Hf19  1  0.69688084  0.09283056  0.14137679  1
  Hf  Hf20  1  0.38754760  0.80381555  0.00645589  1
  Hf  Hf21  1  0.60107050  0.80418082  0.73674570  1
  Hf  Hf22  1  0.80307055  0.40482558  0.25005576  1
  Hf  Hf23  1  0.39518147  0.19201456  0.75237022  1
  Hf  Hf24  1  0.09464586  0.29508937  0.61107926  1
  Hf  Hf25  1  0.29687585  0.91237199  0.61829246  1
  Hf  Hf26  1  0.29819370  0.51576839  0.63032264  1
  Hf  Hf27  1  0.29785777  0.90782067  0.36224747  1
  Hf  Hf28  1  0.20917338  0.39429104  0.49288444  1
  Hf  Hf29  1  0.49338048  0.09275092  0.62561960  1
  Hf  Hf30  1  0.29215259  0.49771720  0.11830190  1
  Hf  Hf31  1  0.40090870  0.20678450  0.26865671  1
  Hf  Hf32  1  0.69337825  0.29947317  0.13132746  1
  Hf  Hf33  1  0.50301939  0.91629455  0.13119393  1
  Hf  Hf34  1  0.81736917  -0.00566518  0.48854905  1
  Hf  Hf35  1  0.39162039  0.40344647  0.26611312  1
  Hf  Hf36  1  0.79677764  0.81623044  0.73426373  1
  Hf  Hf37  1  0.62191414  0.40827623  0.75200192  1
  Hf  Hf38  1  0.50204645  0.10112556  0.13726300  1
  Hf  Hf39  1  0.60669277  0.19226678  0.51268887  1
  Zr  Zr40  1  0.50692442  0.30598298  0.39544454  1
  Zr  Zr41  1  0.00169981  0.80092806  0.75209841  1
  Zr  Zr42  1  0.09899365  0.30649611  0.11579851  1
  Zr  Zr43  1  0.10259977  0.70094616  0.62748009  1
  Zr  Zr44  1  0.30090937  0.29029432  0.62421579  1
  Zr  Zr45  1  0.30324741  0.71451936  0.62725188  1
  Zr  Zr46  1  0.90031275  0.49661816  0.86578382  1
  Zr  Zr47  1  0.90675247  0.28971584  0.12054597  1
  Zr  Zr48  1  0.09891017  0.29606207  0.87988851  1
  Zr  Zr49  1  -0.01639234  0.82051934  0.50355783  1
  Zr  Zr50  1  0.60167396  0.79272281  0.01161519  1
  Zr  Zr51  1  -0.00655838  -0.00681728  0.76197741  1
  Zr  Zr52  1  0.19249417  0.81468977  0.48669887  1
  Zr  Zr53  1  0.09262519  0.70825707  0.36806068  1
  Zr  Zr54  1  0.89981591  0.09476016  0.62679713  1
  Zr  Zr55  1  0.30290232  0.30248268  0.11511759  1
  Zr  Zr56  1  0.60487420  0.19852464  -0.01691242  1
  Zr  Zr57  1  0.78381239  0.58929954  0.74887900  1
  Zr  Zr58  1  0.41188859  0.40982094  0.51341003  1
  Zr  Zr59  1  0.79333117  0.60536340  0.00330870  1
  Zr  Zr60  1  0.79529437  0.18739981  -0.00836031  1
  Zr  Zr61  1  0.20168590  0.18515580  0.01273311  1
  Zr  Zr62  1  0.79836891  0.60313826  0.50597781  1
  Zr  Zr63  1  0.19582761  0.20554586  0.25280006  1
  Zr  Zr64  1  0.79154581  0.39123570  -0.01217441  1
  Zr  Zr65  1  -0.00278909  0.59121041  0.24617293  1
  Zr  Zr66  1  0.30919685  0.70594196  0.37722571  1
  Zr  Zr67  1  0.90784503  0.49767760  0.62922599  1
  Zr  Zr68  1  0.10139795  0.51674910  0.85122035  1
  Zr  Zr69  1  0.50004355  0.30145532  0.12099110  1
  Zr  Zr70  1  0.00450379  0.17406805  0.49067422  1
  Zr  Zr71  1  0.89191163  0.70979930  0.36772190  1
  Zr  Zr72  1  0.70459767  0.29862944  0.38953733  1
  Zr  Zr73  1  0.69393549  0.89438908  0.37302364  1
  Zr  Zr74  1  0.50367143  0.89740203  0.88135214  1
  Zr  Zr75  1  0.10040012  0.92470034  0.62662799  1
  Zr  Zr76  1  0.29401956  0.29775367  0.87328386  1
  Zr  Zr77  1  0.19271499  -0.01637779  0.02057191  1
  Zr  Zr78  1  0.10081882  0.50648576  0.62244905  1
  Zr  Zr79  1  0.59359990  0.41033767  0.25470905  1
  Ta  Ta80  1  0.89774562  0.29261743  0.86469104  1
  Ta  Ta81  1  0.40441984  0.19006600  -0.01250659  1
  Ta  Ta82  1  0.50265315  0.09398989  0.86520143  1
  Ta  Ta83  1  0.10126429  0.70211706  0.12653239  1
  Ta  Ta84  1  0.50746191  0.08938016  0.37446218  1
  Ta  Ta85  1  0.79591097  0.80007758  0.23314397  1
  Ta  Ta86  1  0.71000112  0.09039822  0.63143850  1
  Ta  Ta87  1  0.89959164  0.69881199  0.63295802  1
  Ta  Ta88  1  0.49902835  0.89575470  0.37766673  1
  Ta  Ta89  1  0.59131129  0.78916186  0.51340781  1
  Ta  Ta90  1  0.19514759  0.80579666  0.23761991  1
  Ta  Ta91  1  0.01132264  0.81093601  0.00960085  1
  Ta  Ta92  1  0.39628046  -0.00334113  0.75669745  1
  Ta  Ta93  1  0.78861871  0.80173086  0.51716803  1
  Ta  Ta94  1  0.19815327  0.39588669  0.74336036  1
  Ta  Ta95  1  0.59937489  0.40036549  -0.02387043  1
  Ta  Ta96  1  0.80424725  0.39069405  0.52319325  1
  Ta  Ta97  1  0.39524396  0.19411452  0.49314714  1
  Ta  Ta98  1  0.48947168  0.89911774  0.61441460  1
  Ta  Ta99  1  0.60542618  -0.00720973  0.74442460  1
  Ta  Ta100  1  0.19906743  0.40289717  0.26576258  1
  Ta  Ta101  1  0.39768348  0.00644582  -0.00654559  1
  Ta  Ta102  1  0.60884414  0.19237709  0.74929669  1
  Ta  Ta103  1  0.00954497  0.39613158  0.25141749  1
  Ta  Ta104  1  -0.00151790  0.39060289  0.74244562  1
  Ta  Ta105  1  0.90377121  0.70710330  0.12302085  1
  Ta  Ta106  1  0.60486736  0.79416695  0.23758987  1
  Ta  Ta107  1  0.70909258  0.90701636  0.88702013  1
  Ta  Ta108  1  0.50846560  0.29334020  0.63356108  1
  Ta  Ta109  1  0.68681462  0.50013696  0.11169584  1
  Ta  Ta110  1  0.41865007  0.61921599  0.51258235  1
  Ta  Ta111  1  0.90644823  0.09282124  0.13592935  1
  Ta  Ta112  1  0.50934753  0.70418210  0.37223333  1
  Ta  Ta113  1  0.70137155  0.90665657  0.12511961  1
  Ta  Ta114  1  0.27882863  0.71446399  0.86367569  1
  Ta  Ta115  1  0.11446385  0.88541023  0.87689592  1
  Ta  Ta116  1  0.39457712  0.00514204  0.48764077  1
  Ta  Ta117  1  0.69174052  0.70159404  0.37691530  1
  Ta  Ta118  1  0.31182502  0.09189262  0.13964251  1
  Ta  Ta119  1  0.50554788  0.29500816  0.85858078  1
  Ti  Ti120  1  0.30916270  0.50859065  0.39121048  1
  Ti  Ti121  1  0.71876895  0.28497144  0.63658200  1
  Ti  Ti122  1  -0.00667421  0.60955738  0.49776251  1
  Ti  Ti123  1  0.09750817  0.29660477  0.37951163  1
  Ti  Ti124  1  0.29493274  0.69895100  0.12787673  1
  Ti  Ti125  1  0.60543066  0.00760912  -0.00794972  1
  Ti  Ti126  1  -0.00629081  0.18196290  -0.00506563  1
  Ti  Ti127  1  0.80439835  -0.00571100  0.25909597  1
  Ti  Ti128  1  0.51876944  0.52532594  0.63834168  1
  Ti  Ti129  1  0.08601637  0.08865745  0.14117086  1
  Ti  Ti130  1  0.60217343  0.60062575  0.24596808  1
  Ti  Ti131  1  0.08787033  0.90939047  0.35047549  1
  Ti  Ti132  1  0.29267668  0.90213000  0.87429913  1
  Ti  Ti133  1  0.59473734  0.59014252  -0.01545148  1
  Ti  Ti134  1  0.89997339  0.49304579  0.38703231  1
  Ti  Ti135  1  0.68365160  0.68381702  0.62558018  1
  Ti  Ti136  1  0.50679555  0.51329093  0.39085218  1
  Ti  Ti137  1  0.00331259  0.40170392  -0.00945638  1
  Ti  Ti138  1  0.89981883  0.90124256  0.89156281  1
  Ti  Ti139  1  0.20305721  0.60849652  0.49228327  1
  Ti  Ti140  1  0.60714707  0.40284015  0.52918243  1
  Ti  Ti141  1  0.19494575  0.18894641  0.74538581  1
  Ti  Ti142  1  0.60149135  0.19964290  0.26613992  1
  Ti  Ti143  1  0.50150496  0.49594559  0.11739947  1
  Ti  Ti144  1  0.90961404  0.90759000  0.13128025  1
  Ti  Ti145  1  0.88934632  0.09055664  0.87160723  1
  Ti  Ti146  1  0.60165871  -0.00704953  0.50631163  1
  Ti  Ti147  1  0.50699340  0.68867447  0.12256390  1
  Ti  Ti148  1  0.19176750  0.41713080  -0.01142955  1
  Ti  Ti149  1  0.39533155  0.80992315  0.75127864  1
  Ti  Ti150  1  0.80225068  0.80579516  0.01654804  1
  Ti  Ti151  1  0.28693267  0.09345175  0.61990154  1
  Ti  Ti152  1  0.80402669  0.00094912  0.00693917  1
  Ti  Ti153  1  0.29631651  0.09577774  0.36219972  1
  Ti  Ti154  1  0.29461874  0.09106173  0.87537447  1
  Ti  Ti155  1  0.70145067  0.09537957  0.37962111  1
  Ti  Ti156  1  0.18146761  0.01542283  0.47956567  1
  Ti  Ti157  1  0.30272198  0.90878675  0.13976853  1
  Ti  Ti158  1  0.19664761  0.61198879  -0.00084657  1
  Ti  Ti159  1  0.20413597  0.19208208  0.48525789  1
  Mo  Mo160  1  0.11284249  0.09986374  0.62673237  1
  Mo  Mo161  1  0.70018548  0.49978292  0.88864906  1
  Mo  Mo162  1  0.80044573  0.19135549  0.76152586  1
  Mo  Mo163  1  0.69373697  0.90644222  0.60844757  1
  Mo  Mo164  1  0.50189734  0.50199868  0.86142433  1
  Mo  Mo165  1  0.89682199  0.89490846  0.35438017  1
  Mo  Mo166  1  0.70111366  0.49793691  0.61533305  1
  Mo  Mo167  1  0.79511108  -0.00561832  0.75507385  1
  Mo  Mo168  1  0.70532593  0.29426363  0.85561977  1
  Mo  Mo169  1  0.29833400  0.29928146  0.38659866  1
  Mo  Mo170  1  0.89515614  0.90305998  0.62444454  1
  Mo  Mo171  1  -0.00816003  0.00262370  0.26094025  1
  Mo  Mo172  1  0.20363674  0.79658523  0.02239011  1
  Mo  Mo173  1  0.60524170  -0.00437300  0.26302368  1
  Mo  Mo174  1  0.69684738  0.69892814  0.12377635  1
  Mo  Mo175  1  0.09175106  0.90234183  0.13799449  1
  Mo  Mo176  1  -0.00523707  0.60671790  0.75295348  1
  Mo  Mo177  1  0.20751440  0.00395295  0.75920202  1
  Mo  Mo178  1  0.10401526  0.70932202  0.88630208  1
  Mo  Mo179  1  0.40576220  0.80880679  0.49298315  1
  Mo  Mo180  1  0.70125150  0.08740944  0.85978137  1
  Mo  Mo181  1  0.59656367  0.60312536  0.49992151  1
  Mo  Mo182  1  0.90076202  0.09773531  0.36239889  1
  Mo  Mo183  1  0.19727741  0.61304818  0.74738056  1
  Mo  Mo184  1  0.19720621  0.00208095  0.24079294  1
  Mo  Mo185  1  0.00403488  -0.00298630  0.47528368  1
  Mo  Mo186  1  0.59937868  0.59888537  0.76336889  1
  Mo  Mo187  1  0.20220507  0.81312935  0.74663002  1
  Mo  Mo188  1  0.10621368  0.49654223  0.12346183  1
  Mo  Mo189  1  0.80567211  0.38719620  0.74224523  1
  Mo  Mo190  1  -0.00461904  0.80336718  0.23302206  1
  Mo  Mo191  1  0.79646169  0.19329300  0.49357541  1
  Mo  Mo192  1  0.49777221  0.70654379  0.64023667  1
  Mo  Mo193  1  0.00088460  0.20000998  0.25778672  1
  Mo  Mo194  1  0.40277018  0.00249298  0.26496217  1
  Mo  Mo195  1  -0.00114052  0.39470051  0.50600782  1
  Mo  Mo196  1  0.10286100  0.09773505  0.35327842  1
  Mo  Mo197  1  0.39971611  0.60978528  0.73789519  1
  Mo  Mo198  1  0.89820807  0.29187202  0.62603146  1
  Mo  Mo199  1  -0.00969548  -0.00247438  -0.00358638  1
