# generated using pymatgen
data_HfZrTaTiMo
_symmetry_space_group_name_H-M   'P 1'
_cell_length_a   15.84369833
_cell_length_b   15.83775682
_cell_length_c   15.40458100
_cell_angle_alpha   90.07785857
_cell_angle_beta   90.03208235
_cell_angle_gamma   89.99010539
_symmetry_Int_Tables_number   1
_chemical_formula_structural   HfZrTaTiMo
_chemical_formula_sum   'Hf40 Zr40 Ta40 Ti40 Mo40'
_cell_volume   3865.44634760
_cell_formula_units_Z   40
loop_
 _symmetry_equiv_pos_site_id
 _symmetry_equiv_pos_as_xyz
  1  'x, y, z'
loop_
 _atom_site_type_symbol
 _atom_site_label
 _atom_site_symmetry_multiplicity
 _atom_site_fract_x
 _atom_site_fract_y
 _atom_site_fract_z
 _atom_site_occupancy
  Hf  Hf0  1  0.50126918  0.50517242  0.36458404  1
  Hf  Hf1  1  0.79852104  0.78963497  -0.02337306  1
  Hf  Hf2  1  0.59825485  0.80067681  0.25827534  1
  Hf  Hf3  1  0.00369009  0.80779381  0.25144904  1
  Hf  Hf4  1  0.29859012  0.90432161  0.37885667  1
  Hf  Hf5  1  0.28671696  0.48809116  0.63421907  1
  Hf  Hf6  1  0.70257089  0.49711977  0.37231174  1
  Hf  Hf7  1  0.89743058  0.90191846  0.11352539  1
  Hf  Hf8  1  0.40130194  0.80446429  0.50183774  1
  Hf  Hf9  1  0.09868688  0.30465649  0.12531473  1
  Hf  Hf10  1  0.09776266  0.69762754  0.37521131  1
  Hf  Hf11  1  0.80890202  0.59215977  0.24081329  1
  Hf  Hf12  1  0.30008150  0.69748452  0.63484245  1
  Hf  Hf13  1  0.80017118  0.00778607  0.74417327  1
  Hf  Hf14  1  0.09690355  0.69848335  0.63877432  1
  Hf  Hf15  1  0.19968950  0.79739511  0.50761259  1
  Hf  Hf16  1  0.29424887  0.29248553  0.63405008  1
  Hf  Hf17  1  0.50744254  0.09667819  0.87598655  1
  Hf  Hf18  1  0.40712199  0.19121997  0.74451011  1
  Hf  Hf19  1  0.90372368  0.90422447  0.38276151  1
  Hf  Hf20  1  0.20235617  0.40333288  -0.01071553  1
  Hf  Hf21  1  0.40389459  0.20583957  0.00944591  1
  Hf  Hf22  1  0.20214850  0.81222718  0.75930681  1
  Hf  Hf23  1  0.39904792  0.39448959  0.01317992  1
  Hf  Hf24  1  0.59582792  0.00531019  0.72782453  1
  Hf  Hf25  1  0.50461736  0.71344840  0.88182973  1
  Hf  Hf26  1  -0.00065106  0.00979027  0.74526737  1
  Hf  Hf27  1  0.29326194  0.70510356  0.11878334  1
  Hf  Hf28  1  0.90852757  0.27874907  0.86539097  1
  Hf  Hf29  1  0.69968645  0.89078825  0.11744546  1
  Hf  Hf30  1  0.30530923  0.49655912  0.86517970  1
  Hf  Hf31  1  0.69656763  0.69109381  0.37968647  1
  Hf  Hf32  1  0.59593933  0.80550437  0.73159404  1
  Hf  Hf33  1  -0.00541061  0.01330524  0.24118280  1
  Hf  Hf34  1  0.29076255  0.10003060  0.13159642  1
  Hf  Hf35  1  0.10141052  0.90468884  0.10350827  1
  Hf  Hf36  1  0.29496877  0.89918908  0.11981343  1
  Hf  Hf37  1  0.40666594  0.19705726  0.50141113  1
  Hf  Hf38  1  0.88950753  0.30832976  0.12439438  1
  Hf  Hf39  1  0.18478536  0.20332288  0.26295138  1
  Zr  Zr40  1  0.28578943  0.50083561  0.13162028  1
  Zr  Zr41  1  0.08907008  0.11419506  0.87472808  1
  Zr  Zr42  1  0.20438006  0.00073575  0.75419083  1
  Zr  Zr43  1  0.90570709  0.48979122  0.87475295  1
  Zr  Zr44  1  0.10723161  0.31330416  0.62712956  1
  Zr  Zr45  1  0.49923674  0.30008210  0.87521843  1
  Zr  Zr46  1  0.79786408  0.00335483  0.25587625  1
  Zr  Zr47  1  0.71255433  0.48154008  0.12947638  1
  Zr  Zr48  1  0.68906627  0.89712746  0.86750722  1
  Zr  Zr49  1  0.79932539  0.19695279  0.25901851  1
  Zr  Zr50  1  0.79106818  -0.00322148  0.50873023  1
  Zr  Zr51  1  0.39860031  -0.00829983  -0.00130238  1
  Zr  Zr52  1  0.39898416  0.59238173  0.50810091  1
  Zr  Zr53  1  0.59836301  -0.00787566  0.00262576  1
  Zr  Zr54  1  0.60217247  0.20337221  0.48787806  1
  Zr  Zr55  1  0.40319967  0.59979042  0.01019886  1
  Zr  Zr56  1  0.90364563  0.70396224  0.12356514  1
  Zr  Zr57  1  0.20591627  0.21036003  -0.00194850  1
  Zr  Zr58  1  0.10131911  0.30413507  0.85719098  1
  Zr  Zr59  1  0.30877457  0.69776832  0.86870302  1
  Zr  Zr60  1  0.78600003  0.39224013  0.76555314  1
  Zr  Zr61  1  -0.00361818  0.80000856  0.50554552  1
  Zr  Zr62  1  0.59612358  0.00521862  0.50148325  1
  Zr  Zr63  1  0.40466802  0.60371814  0.24206278  1
  Zr  Zr64  1  0.10767671  0.70334218  0.11893155  1
  Zr  Zr65  1  0.60358252  0.81364375  0.50678810  1
  Zr  Zr66  1  0.89172847  0.49281773  0.62944091  1
  Zr  Zr67  1  0.70669187  0.30551375  0.61358169  1
  Zr  Zr68  1  0.69448757  0.49603103  0.61401026  1
  Zr  Zr69  1  0.00170331  0.59392409  0.51468490  1
  Zr  Zr70  1  0.00028491  0.40090623  0.25708811  1
  Zr  Zr71  1  0.19588517  0.00454433  0.50810348  1
  Zr  Zr72  1  0.18687556  -0.00047195  0.25762860  1
  Zr  Zr73  1  0.80278835  0.59255973  -0.00471514  1
  Zr  Zr74  1  0.60471790  -0.00365952  0.26301643  1
  Zr  Zr75  1  0.39630725  0.39713191  0.49155532  1
  Zr  Zr76  1  0.51147015  0.10841803  0.12886440  1
  Zr  Zr77  1  0.40470984  0.80331330  0.25234849  1
  Zr  Zr78  1  0.60047642  0.59866215  0.75077498  1
  Zr  Zr79  1  0.68530492  0.28756098  0.11611057  1
  Ta  Ta80  1  0.79229898  0.60494106  0.76963442  1
  Ta  Ta81  1  0.50117700  0.69857785  0.38542479  1
  Ta  Ta82  1  0.29823129  0.10586280  0.87672911  1
  Ta  Ta83  1  -0.00723535  0.00486912  -0.01322013  1
  Ta  Ta84  1  0.59794818  0.40298792  0.76142239  1
  Ta  Ta85  1  0.59958384  0.38608818  0.26004605  1
  Ta  Ta86  1  0.00094915  0.20335792  0.50910884  1
  Ta  Ta87  1  0.19896504  0.58813538  0.49642242  1
  Ta  Ta88  1  0.50216019  0.50282529  0.88287656  1
  Ta  Ta89  1  0.70255540  0.10690749  0.87266248  1
  Ta  Ta90  1  0.00304025  0.59931149  -0.00613278  1
  Ta  Ta91  1  0.51205734  0.48988345  0.12898453  1
  Ta  Ta92  1  0.70878923  0.69837428  0.62134082  1
  Ta  Ta93  1  0.80487487  0.19400879  -0.00575903  1
  Ta  Ta94  1  0.29870341  0.69287022  0.37643396  1
  Ta  Ta95  1  0.80532399  0.60229180  0.49908541  1
  Ta  Ta96  1  0.00436752  0.59327897  0.24380349  1
  Ta  Ta97  1  0.89992881  0.69474876  0.36831875  1
  Ta  Ta98  1  0.79660552  0.80084293  0.26273927  1
  Ta  Ta99  1  0.80059720  0.79629625  0.49591432  1
  Ta  Ta100  1  0.89799541  0.89188044  0.63820861  1
  Ta  Ta101  1  0.09477684  0.69941507  0.86702908  1
  Ta  Ta102  1  0.90475696  0.89679500  0.86102365  1
  Ta  Ta103  1  0.20333718  0.80804085  -0.02464813  1
  Ta  Ta104  1  0.90414564  0.50243201  0.37905259  1
  Ta  Ta105  1  0.60530957  0.19741168  0.27235507  1
  Ta  Ta106  1  0.19591337  0.40389854  0.27302342  1
  Ta  Ta107  1  0.20111807  0.20375410  0.48954877  1
  Ta  Ta108  1  0.89094779  0.70524537  0.64562778  1
  Ta  Ta109  1  -0.00278950  0.00945429  0.52443916  1
  Ta  Ta110  1  0.31396310  0.08637506  0.61920780  1
  Ta  Ta111  1  0.39941265  0.39727124  0.25159089  1
  Ta  Ta112  1  0.40490719  -0.00122258  0.25162417  1
  Ta  Ta113  1  0.81021326  0.39421291  0.48483286  1
  Ta  Ta114  1  0.09218616  0.10393082  0.10730157  1
  Ta  Ta115  1  0.60684213  0.59876599  0.00377228  1
  Ta  Ta116  1  0.61154820  0.20709409  0.74902114  1
  Ta  Ta117  1  0.50732317  0.30805785  0.63095420  1
  Ta  Ta118  1  0.30153307  0.10320087  0.37248504  1
  Ta  Ta119  1  -0.00408454  0.59797885  0.75190421  1
  Ti  Ti120  1  0.79467751  0.39220986  -0.01686712  1
  Ti  Ti121  1  0.09611123  0.89866545  0.63127170  1
  Ti  Ti122  1  0.80427370  0.00133122  -0.01437543  1
  Ti  Ti123  1  0.09674749  0.50205931  0.12058095  1
  Ti  Ti124  1  0.19196556  0.59111080  0.75168063  1
  Ti  Ti125  1  0.40693818  0.40050481  0.74749190  1
  Ti  Ti126  1  0.11103902  0.11824585  0.63338612  1
  Ti  Ti127  1  0.60086615  0.60252466  0.23567121  1
  Ti  Ti128  1  0.41265797  0.59204636  0.74053958  1
  Ti  Ti129  1  -0.00560825  0.19583293  0.24552847  1
  Ti  Ti130  1  0.19567013  0.59250837  0.26458431  1
  Ti  Ti131  1  0.29536584  0.30170399  0.14405751  1
  Ti  Ti132  1  0.19347927  0.60169650  -0.01223188  1
  Ti  Ti133  1  0.30249033  0.29769683  0.36936152  1
  Ti  Ti134  1  0.00309870  0.40445904  0.73950548  1
  Ti  Ti135  1  0.80497361  0.20070920  0.48806804  1
  Ti  Ti136  1  0.08834448  0.10407783  0.38684404  1
  Ti  Ti137  1  0.00427518  0.39834084  0.49750214  1
  Ti  Ti138  1  0.39596851  -0.00662757  0.76377429  1
  Ti  Ti139  1  0.49298986  0.09740480  0.36910843  1
  Ti  Ti140  1  0.09398167  0.90770257  0.38685046  1
  Ti  Ti141  1  0.70754839  0.09795347  0.11294383  1
  Ti  Ti142  1  0.19391894  0.40317942  0.47708097  1
  Ti  Ti143  1  0.70894002  0.11775441  0.62620957  1
  Ti  Ti144  1  0.59076990  0.39742960  0.48594857  1
  Ti  Ti145  1  0.19859656  0.80052309  0.25837608  1
  Ti  Ti146  1  0.40028583  0.81483820  0.74430399  1
  Ti  Ti147  1  0.59946778  0.39689419  -0.00614427  1
  Ti  Ti148  1  0.40658528  0.20492503  0.25060269  1
  Ti  Ti149  1  0.49988168  0.69726334  0.62105035  1
  Ti  Ti150  1  0.59407379  0.59606343  0.50957736  1
  Ti  Ti151  1  0.90488355  0.10025290  0.39027163  1
  Ti  Ti152  1  0.00099590  0.79920081  -0.02080696  1
  Ti  Ti153  1  0.89720859  0.28903400  0.63180319  1
  Ti  Ti154  1  0.09864293  0.50010686  0.86758091  1
  Ti  Ti155  1  0.70156030  0.70222001  0.12281256  1
  Ti  Ti156  1  0.50808135  0.71372935  0.11195996  1
  Ti  Ti157  1  -0.00105343  0.40038774  0.00115232  1
  Ti  Ti158  1  0.90737242  0.29704295  0.37371883  1
  Ti  Ti159  1  0.46760262  0.92784017  0.61572599  1
  Mo  Mo160  1  0.79948547  0.19578418  0.75550739  1
  Mo  Mo161  1  -0.00597249  0.20410816  0.01373423  1
  Mo  Mo162  1  0.49307419  0.89688895  0.86100403  1
  Mo  Mo163  1  0.49675094  0.90435219  0.38086631  1
  Mo  Mo164  1  0.60595607  0.19790330  -0.00791735  1
  Mo  Mo165  1  0.49825978  0.89544714  0.13084508  1
  Mo  Mo166  1  0.70570625  0.30315875  0.38250283  1
  Mo  Mo167  1  0.49916738  0.49078105  0.63121785  1
  Mo  Mo168  1  0.50143190  0.10682316  0.63159905  1
  Mo  Mo169  1  0.09632365  0.50124804  0.38126588  1
  Mo  Mo170  1  0.20448846  0.40278159  0.76435511  1
  Mo  Mo171  1  0.72019414  0.88334437  0.63890509  1
  Mo  Mo172  1  0.59911228  0.79539095  0.00355163  1
  Mo  Mo173  1  0.50017023  0.30231971  0.14065178  1
  Mo  Mo174  1  0.40588610  0.80517547  0.00737792  1
  Mo  Mo175  1  0.30012030  0.90378991  0.62078994  1
  Mo  Mo176  1  0.30298569  0.29677849  0.85443087  1
  Mo  Mo177  1  0.70544055  0.10075817  0.38606413  1
  Mo  Mo178  1  0.90539263  0.69790144  0.86309510  1
  Mo  Mo179  1  0.29708775  0.50197788  0.36658142  1
  Mo  Mo180  1  0.09719620  0.90444732  0.88337350  1
  Mo  Mo181  1  0.69120557  0.49623900  0.88807231  1
  Mo  Mo182  1  0.69742720  0.29413260  0.88768324  1
  Mo  Mo183  1  0.89927273  0.10262438  0.10737013  1
  Mo  Mo184  1  0.91361358  0.49426816  0.11201125  1
  Mo  Mo185  1  0.69415110  0.69596831  0.87904173  1
  Mo  Mo186  1  0.79809387  0.79463937  0.76128374  1
  Mo  Mo187  1  0.80217347  0.39509671  0.27047391  1
  Mo  Mo188  1  0.00193616  0.80314873  0.75693484  1
  Mo  Mo189  1  0.09299687  0.29678042  0.38746837  1
  Mo  Mo190  1  0.20837516  0.19628346  0.75017193  1
  Mo  Mo191  1  0.40059101  0.00677938  0.48118381  1
  Mo  Mo192  1  0.30639075  0.90194709  0.88420028  1
  Mo  Mo193  1  0.49462859  0.29780129  0.36254649  1
  Mo  Mo194  1  0.89788794  0.10823366  0.61526594  1
  Mo  Mo195  1  -0.00198524  0.19812440  0.72497649  1
  Mo  Mo196  1  0.19536231  0.00367599  -0.01519782  1
  Mo  Mo197  1  0.10064749  0.49870568  0.63058930  1
  Mo  Mo198  1  0.89637877  0.09585949  0.88025395  1
  Mo  Mo199  1  0.70421265  0.89396716  0.37424794  1
