# generated using pymatgen
data_HfZrTaTiMo
_symmetry_space_group_name_H-M   'P 1'
_cell_length_a   15.83590418
_cell_length_b   15.83467667
_cell_length_c   15.40149274
_cell_angle_alpha   89.95860908
_cell_angle_beta   90.01296173
_cell_angle_gamma   90.06956844
_symmetry_Int_Tables_number   1
_chemical_formula_structural   HfZrTaTiMo
_chemical_formula_sum   'Hf40 Zr40 Ta40 Ti40 Mo40'
_cell_volume   3862.01926627
_cell_formula_units_Z   40
loop_
 _symmetry_equiv_pos_site_id
 _symmetry_equiv_pos_as_xyz
  1  'x, y, z'
loop_
 _atom_site_type_symbol
 _atom_site_label
 _atom_site_symmetry_multiplicity
 _atom_site_fract_x
 _atom_site_fract_y
 _atom_site_fract_z
 _atom_site_occupancy
  Hf  Hf0  1  0.89573238  0.30188474  0.14242901  1
  Hf  Hf1  1  0.88604728  0.30983848  0.85908180  1
  Hf  Hf2  1  0.58859893  0.18542868  0.48842741  1
  Hf  Hf3  1  0.50140168  0.89366967  0.87160386  1
  Hf  Hf4  1  0.51252512  0.09681681  0.12565649  1
  Hf  Hf5  1  0.30233034  0.89232644  0.63392690  1
  Hf  Hf6  1  -0.00804829  0.40112973  0.00140299  1
  Hf  Hf7  1  0.50052421  0.09877247  0.64051722  1
  Hf  Hf8  1  0.19663210  0.40426651  0.25085224  1
  Hf  Hf9  1  0.29352706  0.10339001  0.62496240  1
  Hf  Hf10  1  0.70685742  0.70209037  0.13684612  1
  Hf  Hf11  1  0.20043127  0.00866997  0.76213801  1
  Hf  Hf12  1  0.89355751  0.50267827  0.87419701  1
  Hf  Hf13  1  0.30395410  0.91672125  0.36702068  1
  Hf  Hf14  1  0.00631060  0.61111834  0.00200846  1
  Hf  Hf15  1  0.00474636  0.61110757  0.50105895  1
  Hf  Hf16  1  0.49254642  0.30111660  0.62022327  1
  Hf  Hf17  1  0.30618228  0.68037676  0.60255932  1
  Hf  Hf18  1  0.90497321  0.88729816  0.63244316  1
  Hf  Hf19  1  -0.00535098  -0.01428583  0.27116139  1
  Hf  Hf20  1  0.29534172  0.51562962  0.38065063  1
  Hf  Hf21  1  0.19702899  0.80674599  0.24123536  1
  Hf  Hf22  1  0.69593921  0.29689536  0.62021089  1
  Hf  Hf23  1  0.80030701  -0.00810646  0.74665715  1
  Hf  Hf24  1  0.00410292  0.00814403  0.75584688  1
  Hf  Hf25  1  0.49829803  0.09602989  0.86686999  1
  Hf  Hf26  1  0.18744026  0.79458325  0.01050628  1
  Hf  Hf27  1  0.50874363  0.30196394  0.13418392  1
  Hf  Hf28  1  0.70951578  0.29332934  0.38525269  1
  Hf  Hf29  1  0.39383065  0.78175064  0.75681737  1
  Hf  Hf30  1  0.30238631  0.09819265  0.11587679  1
  Hf  Hf31  1  0.79601755  0.79545929  0.00017086  1
  Hf  Hf32  1  0.61018135  -0.00743507  0.26950071  1
  Hf  Hf33  1  -0.00666373  0.80252856  -0.01278121  1
  Hf  Hf34  1  0.50004062  0.30428757  0.36474825  1
  Hf  Hf35  1  0.90284973  0.49293772  0.60671987  1
  Hf  Hf36  1  0.00693449  0.60248042  0.74699508  1
  Hf  Hf37  1  0.49712624  0.50572339  0.36921318  1
  Hf  Hf38  1  0.48034852  0.50878436  0.60492283  1
  Hf  Hf39  1  0.10828801  0.71303317  0.63590762  1
  Zr  Zr40  1  0.39266051  0.21218014  0.75298162  1
  Zr  Zr41  1  0.90011417  0.11584885  0.86326245  1
  Zr  Zr42  1  0.20303242  0.80770166  0.48370079  1
  Zr  Zr43  1  0.79989428  0.21407066  0.00333571  1
  Zr  Zr44  1  0.40211939  -0.00189414  0.50352146  1
  Zr  Zr45  1  0.69497082  0.30142873  0.14401902  1
  Zr  Zr46  1  0.01725123  0.20008253  0.49889449  1
  Zr  Zr47  1  0.88964721  0.70516837  0.85609257  1
  Zr  Zr48  1  0.51199278  0.49489730  0.13061114  1
  Zr  Zr49  1  0.90791542  0.30548641  0.38256409  1
  Zr  Zr50  1  0.19887887  -0.00027677  0.23151098  1
  Zr  Zr51  1  0.29910956  0.69547980  0.89653489  1
  Zr  Zr52  1  0.39570704  0.19305939  0.25366687  1
  Zr  Zr53  1  0.69531322  0.10483855  0.86144760  1
  Zr  Zr54  1  0.21812859  0.59049997  0.75684384  1
  Zr  Zr55  1  0.12676155  0.50322821  0.60762239  1
  Zr  Zr56  1  0.69894189  0.49894461  0.60792763  1
  Zr  Zr57  1  0.29607259  0.10430542  0.88386405  1
  Zr  Zr58  1  0.50272559  0.89286258  0.63598084  1
  Zr  Zr59  1  0.80259626  -0.00706601  -0.01256831  1
  Zr  Zr60  1  0.59636912  0.61459628  0.49048079  1
  Zr  Zr61  1  0.29156976  0.31668471  0.88368343  1
  Zr  Zr62  1  0.80809735  0.81526615  0.26419884  1
  Zr  Zr63  1  0.70682032  0.69668240  0.37387995  1
  Zr  Zr64  1  0.08684021  0.30017021  0.13925434  1
  Zr  Zr65  1  0.62003671  0.60014898  0.00122164  1
  Zr  Zr66  1  0.40509259  0.20923199  0.00120691  1
  Zr  Zr67  1  0.51281010  0.69905155  0.88575942  1
  Zr  Zr68  1  0.09459579  0.29488333  0.87496515  1
  Zr  Zr69  1  -0.00119680  0.00243512  -0.01204485  1
  Zr  Zr70  1  0.58473216  0.41023336  0.74385198  1
  Zr  Zr71  1  0.00027858  0.80446671  0.48108514  1
  Zr  Zr72  1  0.19496610  0.19676426  0.25745354  1
  Zr  Zr73  1  0.49672712  0.48856279  0.89529398  1
  Zr  Zr74  1  0.10675609  0.90251651  0.63608040  1
  Zr  Zr75  1  0.10337190  0.30541680  0.62701925  1
  Zr  Zr76  1  0.00649145  0.40659393  0.74877363  1
  Zr  Zr77  1  0.70413023  0.09559814  0.11965448  1
  Zr  Zr78  1  0.50923537  0.70749060  0.13303732  1
  Zr  Zr79  1  0.89042870  0.09922922  0.39728190  1
  Ta  Ta80  1  0.49736276  0.70209772  0.62191983  1
  Ta  Ta81  1  -0.00319609  0.60271620  0.24880690  1
  Ta  Ta82  1  0.20732770  0.20003839  0.48706792  1
  Ta  Ta83  1  0.19273829  0.39081587  0.47463677  1
  Ta  Ta84  1  0.00881251  -0.00414192  0.50084631  1
  Ta  Ta85  1  0.30152941  0.70166150  0.13053216  1
  Ta  Ta86  1  0.70729712  0.49447280  0.14051692  1
  Ta  Ta87  1  0.80453723  0.40594075  0.26441373  1
  Ta  Ta88  1  0.69646556  0.87777821  0.86025492  1
  Ta  Ta89  1  0.80136643  0.00064440  0.25450057  1
  Ta  Ta90  1  0.89954823  0.09978567  0.61687246  1
  Ta  Ta91  1  0.40121874  0.60018159  0.01861742  1
  Ta  Ta92  1  0.59914658  -0.00950266  0.49262592  1
  Ta  Ta93  1  0.39314252  0.20039874  0.49164498  1
  Ta  Ta94  1  0.18432981  0.19590661  0.01097051  1
  Ta  Ta95  1  0.11476210  0.49881214  0.88486686  1
  Ta  Ta96  1  0.40269871  -0.00792826  0.00434674  1
  Ta  Ta97  1  0.39311747  0.40499373  0.24458778  1
  Ta  Ta98  1  0.79845113  0.79514842  0.50621759  1
  Ta  Ta99  1  0.69706747  0.09459744  0.62054498  1
  Ta  Ta100  1  0.70426478  0.49742901  0.37790032  1
  Ta  Ta101  1  0.09070704  0.50165389  0.37144851  1
  Ta  Ta102  1  0.89569469  0.50753441  0.38777774  1
  Ta  Ta103  1  0.79794170  0.59833258  0.72781233  1
  Ta  Ta104  1  0.60779769  0.18693091  0.27084328  1
  Ta  Ta105  1  0.50600938  0.90105765  0.13066175  1
  Ta  Ta106  1  0.89716734  0.90648891  0.12731664  1
  Ta  Ta107  1  0.30089129  0.89839255  0.88070257  1
  Ta  Ta108  1  0.29162736  0.31387470  0.61812327  1
  Ta  Ta109  1  0.31595066  0.71126650  0.36402465  1
  Ta  Ta110  1  0.40643781  0.58881329  0.75717098  1
  Ta  Ta111  1  0.60344422  0.20657031  -0.01478838  1
  Ta  Ta112  1  0.10433645  0.88892434  0.86477931  1
  Ta  Ta113  1  0.69871008  0.30798690  0.85373552  1
  Ta  Ta114  1  0.30243785  0.49781886  0.90415544  1
  Ta  Ta115  1  0.89705040  0.50069548  0.12827351  1
  Ta  Ta116  1  0.19201260  -0.00647957  0.00213072  1
  Ta  Ta117  1  0.71069478  0.49775793  0.86088789  1
  Ta  Ta118  1  0.10654922  0.69705310  0.35925794  1
  Ta  Ta119  1  0.89439325  0.30254147  0.61330537  1
  Ti  Ti120  1  0.70175971  0.69506465  0.85845074  1
  Ti  Ti121  1  0.09106293  0.50437292  0.13293020  1
  Ti  Ti122  1  0.30035750  0.50066970  0.12214569  1
  Ti  Ti123  1  0.39967686  0.60471881  0.24301803  1
  Ti  Ti124  1  -0.00724815  0.19642144  0.00654407  1
  Ti  Ti125  1  0.60472093  0.80498013  0.26546109  1
  Ti  Ti126  1  0.08067539  0.89146552  0.12788009  1
  Ti  Ti127  1  0.50215047  0.30393399  0.87432676  1
  Ti  Ti128  1  0.40327949  0.80258101  0.01158334  1
  Ti  Ti129  1  0.90149293  0.69803763  0.37190119  1
  Ti  Ti130  1  0.71128649  0.08935338  0.39747123  1
  Ti  Ti131  1  0.30049632  0.30000537  0.36963772  1
  Ti  Ti132  1  0.91079389  0.71027509  0.13608847  1
  Ti  Ti133  1  0.69587104  0.89815181  0.12246457  1
  Ti  Ti134  1  0.79834737  0.20119070  0.73208051  1
  Ti  Ti135  1  0.08129891  0.09469087  0.12615554  1
  Ti  Ti136  1  0.69525549  0.70488809  0.62483676  1
  Ti  Ti137  1  0.62148116  0.39408320  -0.00481667  1
  Ti  Ti138  1  0.60345433  -0.00917675  -0.00799473  1
  Ti  Ti139  1  0.59147164  0.80406534  0.48638014  1
  Ti  Ti140  1  0.48358363  0.08326204  0.36508169  1
  Ti  Ti141  1  -0.00306909  0.18502195  0.26233008  1
  Ti  Ti142  1  0.29916786  0.30285386  0.12301884  1
  Ti  Ti143  1  0.00365826  0.19643335  0.73506213  1
  Ti  Ti144  1  0.19358512  0.60151816  0.01668277  1
  Ti  Ti145  1  0.80199187  0.18686572  0.25255773  1
  Ti  Ti146  1  0.80479486  0.59685143  0.00768815  1
  Ti  Ti147  1  0.60297724  -0.00696004  0.74861389  1
  Ti  Ti148  1  0.80745995  0.59836916  0.24923350  1
  Ti  Ti149  1  0.11574335  0.08389894  0.38349390  1
  Ti  Ti150  1  0.38995289  0.39783476  0.49037974  1
  Ti  Ti151  1  0.19217505  0.40077200  0.01917961  1
  Ti  Ti152  1  0.18984029  0.20134425  0.75053447  1
  Ti  Ti153  1  0.60521490  0.59909386  0.25620736  1
  Ti  Ti154  1  0.48641279  0.88772028  0.36379008  1
  Ti  Ti155  1  0.19971187  0.60356596  0.24080871  1
  Ti  Ti156  1  0.59503352  0.60261673  0.74448788  1
  Ti  Ti157  1  0.37983519  0.41481724  0.74340483  1
  Ti  Ti158  1  0.59483055  0.39899747  0.49222619  1
  Ti  Ti159  1  0.69465485  0.89372082  0.62224502  1
  Mo  Mo160  1  0.40984302  0.79682318  0.49398422  1
  Mo  Mo161  1  0.60563038  0.39992128  0.26759772  1
  Mo  Mo162  1  0.00026740  0.80009717  0.76317342  1
  Mo  Mo163  1  0.30188291  0.09953235  0.38260362  1
  Mo  Mo164  1  0.89714313  0.69784537  0.62795856  1
  Mo  Mo165  1  0.70078101  0.90073567  0.39650792  1
  Mo  Mo166  1  0.60149354  0.78930877  0.74121093  1
  Mo  Mo167  1  0.19736079  0.60800904  0.47892405  1
  Mo  Mo168  1  0.10337305  0.10191516  0.61336136  1
  Mo  Mo169  1  0.10300071  0.69763258  0.86335348  1
  Mo  Mo170  1  0.09558284  0.69688580  0.14303427  1
  Mo  Mo171  1  0.49814403  0.70829093  0.35323962  1
  Mo  Mo172  1  0.79746318  -0.00872009  0.52381344  1
  Mo  Mo173  1  0.40481480  -0.00531339  0.23251178  1
  Mo  Mo174  1  0.79883014  0.40125217  0.49011123  1
  Mo  Mo175  1  0.80428733  0.61061397  0.51003635  1
  Mo  Mo176  1  0.39593576  -0.00652559  0.76219144  1
  Mo  Mo177  1  0.20995018  0.40335881  0.75754052  1
  Mo  Mo178  1  -0.00631195  0.41412319  0.25661213  1
  Mo  Mo179  1  0.89691706  0.89527043  0.85559746  1
  Mo  Mo180  1  0.30219175  0.49318232  0.60021671  1
  Mo  Mo181  1  0.89057668  0.90409574  0.39819074  1
  Mo  Mo182  1  0.40232662  0.61110902  0.47882604  1
  Mo  Mo183  1  0.10111070  0.29859980  0.36110077  1
  Mo  Mo184  1  0.79266960  0.79265884  0.72947202  1
  Mo  Mo185  1  0.79687028  0.19659220  0.51851039  1
  Mo  Mo186  1  0.10019100  0.10375201  0.88809377  1
  Mo  Mo187  1  0.79833892  0.40215507  0.73415626  1
  Mo  Mo188  1  -0.00319826  0.79948242  0.26108177  1
  Mo  Mo189  1  0.10318811  0.90138462  0.37255491  1
  Mo  Mo190  1  0.00559671  0.40286253  0.48620191  1
  Mo  Mo191  1  0.39609851  0.40255099  0.02638867  1
  Mo  Mo192  1  0.30292911  0.89814610  0.10494068  1
  Mo  Mo193  1  0.39827208  0.80595012  0.23328975  1
  Mo  Mo194  1  0.60005225  0.20290650  0.75667761  1
  Mo  Mo195  1  0.90319876  0.09795259  0.14023325  1
  Mo  Mo196  1  0.20508122  0.79355473  0.76383998  1
  Mo  Mo197  1  0.19635221  0.00611496  0.50677044  1
  Mo  Mo198  1  0.79130247  0.41336986  0.00525377  1
  Mo  Mo199  1  0.60985750  0.81084945  0.00498193  1
