# generated using pymatgen
data_HfZrTaTiMo
_symmetry_space_group_name_H-M   'P 1'
_cell_length_a   15.83856213
_cell_length_b   15.83951111
_cell_length_c   15.39653320
_cell_angle_alpha   89.98298028
_cell_angle_beta   90.00462104
_cell_angle_gamma   90.01766076
_symmetry_Int_Tables_number   1
_chemical_formula_structural   HfZrTaTiMo
_chemical_formula_sum   'Hf40 Zr40 Ta40 Ti40 Mo40'
_cell_volume   3862.60614324
_cell_formula_units_Z   40
loop_
 _symmetry_equiv_pos_site_id
 _symmetry_equiv_pos_as_xyz
  1  'x, y, z'
loop_
 _atom_site_type_symbol
 _atom_site_label
 _atom_site_symmetry_multiplicity
 _atom_site_fract_x
 _atom_site_fract_y
 _atom_site_fract_z
 _atom_site_occupancy
  Hf  Hf0  1  0.69514716  0.91212154  0.62987389  1
  Hf  Hf1  1  0.80422095  0.59371780  0.49053414  1
  Hf  Hf2  1  0.19961996  0.80522832  0.24093570  1
  Hf  Hf3  1  0.00854330  0.00789303  0.51013472  1
  Hf  Hf4  1  0.58739700  0.01143890  0.26847053  1
  Hf  Hf5  1  0.79788536  0.80567055  0.00079030  1
  Hf  Hf6  1  0.59818690  0.18662642  0.48611274  1
  Hf  Hf7  1  0.39885526  0.78857728  0.74788534  1
  Hf  Hf8  1  0.91408394  0.47968840  0.86773906  1
  Hf  Hf9  1  0.21552759  0.80430310  0.75281561  1
  Hf  Hf10  1  0.90178673  0.90385101  0.84698809  1
  Hf  Hf11  1  0.11386539  0.91595943  0.11582760  1
  Hf  Hf12  1  0.49509935  0.68417332  0.60632653  1
  Hf  Hf13  1  0.28930263  0.07475437  0.10657346  1
  Hf  Hf14  1  0.70335102  0.91398578  0.13817867  1
  Hf  Hf15  1  -0.00733028  0.80075853  0.01664737  1
  Hf  Hf16  1  0.59967312  0.40441077  0.74308091  1
  Hf  Hf17  1  0.39905452  0.19095112  0.23418150  1
  Hf  Hf18  1  0.70968146  0.28608012  0.37122334  1
  Hf  Hf19  1  0.00678443  0.58495175  0.00609176  1
  Hf  Hf20  1  0.58454374  0.20709700  0.75943412  1
  Hf  Hf21  1  0.40093186  0.39403055  0.00988870  1
  Hf  Hf22  1  0.89826656  0.69370566  0.87473646  1
  Hf  Hf23  1  0.79676975  -0.00148243  -0.01507545  1
  Hf  Hf24  1  0.30423143  0.29225133  0.37954259  1
  Hf  Hf25  1  0.39801240  0.00361184  0.49546460  1
  Hf  Hf26  1  0.80411818  0.60297172  0.01190660  1
  Hf  Hf27  1  -0.00061022  0.62136634  0.24948908  1
  Hf  Hf28  1  0.09014350  0.89784786  0.37581666  1
  Hf  Hf29  1  0.49924091  0.10090248  0.62912416  1
  Hf  Hf30  1  0.20055265  0.40523323  0.48664129  1
  Hf  Hf31  1  0.80867694  0.39757191  0.01286008  1
  Hf  Hf32  1  0.28741580  0.90166665  0.37913273  1
  Hf  Hf33  1  0.80075434  0.60063855  0.73570245  1
  Hf  Hf34  1  0.83277536  0.80612740  0.23586431  1
  Hf  Hf35  1  0.70603014  0.51013765  0.87374249  1
  Hf  Hf36  1  0.89106491  0.09119246  0.12389711  1
  Hf  Hf37  1  0.39681706  0.00262372  0.76437469  1
  Hf  Hf38  1  0.59347063  -0.00084299  0.47682817  1
  Hf  Hf39  1  0.80599887  0.39995203  0.48858535  1
  Zr  Zr40  1  0.59539582  0.81479292  0.49400251  1
  Zr  Zr41  1  0.60111660  0.00430290  -0.00908195  1
  Zr  Zr42  1  0.60020304  0.40742439  0.48164816  1
  Zr  Zr43  1  0.49233186  0.69882320  0.38805649  1
  Zr  Zr44  1  0.10709383  0.49637522  0.14240441  1
  Zr  Zr45  1  0.60149044  0.39653150  0.00539885  1
  Zr  Zr46  1  0.69451067  0.70330064  0.13433591  1
  Zr  Zr47  1  0.79586549  0.78935687  0.73292892  1
  Zr  Zr48  1  0.01034732  0.38465138  0.25309289  1
  Zr  Zr49  1  0.09763966  0.30421315  0.62613378  1
  Zr  Zr50  1  0.29305231  0.30331035  0.88488064  1
  Zr  Zr51  1  0.00217176  0.19635938  0.49964036  1
  Zr  Zr52  1  0.09161517  0.91360100  0.65300592  1
  Zr  Zr53  1  0.30298235  0.29760443  0.61911797  1
  Zr  Zr54  1  0.19905176  0.20295638  0.76038826  1
  Zr  Zr55  1  0.88621254  0.09559184  0.37694542  1
  Zr  Zr56  1  0.48829057  0.90298059  0.12184076  1
  Zr  Zr57  1  0.49722657  0.69553387  0.12934024  1
  Zr  Zr58  1  0.69566559  0.50136501  0.13649694  1
  Zr  Zr59  1  0.50416392  0.50989992  0.88202575  1
  Zr  Zr60  1  0.80413872  0.20747619  0.74574857  1
  Zr  Zr61  1  0.19452553  0.40926048  0.00427614  1
  Zr  Zr62  1  0.91218010  0.28680040  0.12033709  1
  Zr  Zr63  1  -0.00940910  -0.01523559  0.24580196  1
  Zr  Zr64  1  0.69831055  0.29708052  0.61336408  1
  Zr  Zr65  1  0.19855143  0.20907009  0.23018674  1
  Zr  Zr66  1  0.21119592  0.61063656  0.26573137  1
  Zr  Zr67  1  0.31156896  0.50376147  0.63230355  1
  Zr  Zr68  1  0.19909903  0.81504326  0.52446028  1
  Zr  Zr69  1  0.10757963  0.49729496  0.63475877  1
  Zr  Zr70  1  0.50652169  0.89291029  0.87466730  1
  Zr  Zr71  1  0.10813609  0.68835940  0.62762087  1
  Zr  Zr72  1  0.50016065  0.50761187  0.13843872  1
  Zr  Zr73  1  0.09510468  0.89863863  0.87037331  1
  Zr  Zr74  1  0.30553501  0.50690871  0.13883693  1
  Zr  Zr75  1  0.59476226  0.81117248  0.26804837  1
  Zr  Zr76  1  0.90706559  0.71786011  0.38865153  1
  Zr  Zr77  1  0.10162813  0.69489824  0.87649598  1
  Zr  Zr78  1  0.40937925  0.39422843  0.75770668  1
  Zr  Zr79  1  0.70569371  0.30630310  0.87401541  1
  Ta  Ta80  1  0.90811421  0.49229864  0.62268455  1
  Ta  Ta81  1  0.40281350  0.19365955  -0.00175542  1
  Ta  Ta82  1  0.48738359  0.49618313  0.36232878  1
  Ta  Ta83  1  0.38766684  -0.00417612  0.25565183  1
  Ta  Ta84  1  0.00757131  0.18617425  0.26007795  1
  Ta  Ta85  1  0.60609305  0.59827748  0.27751298  1
  Ta  Ta86  1  -0.00402915  0.20899750  0.75813540  1
  Ta  Ta87  1  0.49179203  0.29729597  0.60732179  1
  Ta  Ta88  1  0.22273786  0.60802640  0.76454168  1
  Ta  Ta89  1  0.00486561  0.59354318  0.49671280  1
  Ta  Ta90  1  0.70874908  0.70691009  0.38234616  1
  Ta  Ta91  1  0.10259445  0.50156348  0.36613375  1
  Ta  Ta92  1  0.59855670  0.60615407  0.74042063  1
  Ta  Ta93  1  0.10369778  0.70766574  0.39124106  1
  Ta  Ta94  1  0.07788980  0.31042468  0.88890315  1
  Ta  Ta95  1  0.69722490  0.50430300  0.61850509  1
  Ta  Ta96  1  0.09574302  0.10374588  0.88017461  1
  Ta  Ta97  1  0.80378858  0.60297751  0.25814464  1
  Ta  Ta98  1  0.30804597  0.69087476  0.61065862  1
  Ta  Ta99  1  0.59787968  0.39089862  0.25828320  1
  Ta  Ta100  1  0.30169689  0.70472317  0.39565249  1
  Ta  Ta101  1  0.20842927  0.79907138  0.00101217  1
  Ta  Ta102  1  0.39916407  0.19624252  0.77112523  1
  Ta  Ta103  1  -0.00712974  0.00146364  -0.00759959  1
  Ta  Ta104  1  0.30040831  0.10167778  0.62508054  1
  Ta  Ta105  1  0.28559044  0.10017622  0.37559231  1
  Ta  Ta106  1  0.11080397  0.69666559  0.11379547  1
  Ta  Ta107  1  0.69778851  0.09534477  0.85615642  1
  Ta  Ta108  1  0.69863979  0.28896517  0.13367755  1
  Ta  Ta109  1  0.68934870  0.70189536  0.87650594  1
  Ta  Ta110  1  0.20823059  0.00932551  0.75989252  1
  Ta  Ta111  1  0.79085298  0.19379874  -0.00479102  1
  Ta  Ta112  1  0.90158254  0.29193169  0.37338756  1
  Ta  Ta113  1  0.00179283  0.40317453  0.48418939  1
  Ta  Ta114  1  0.59737249  0.79080051  0.73712115  1
  Ta  Ta115  1  0.69425499  0.69596301  0.59766443  1
  Ta  Ta116  1  0.08852445  0.10681574  0.10726694  1
  Ta  Ta117  1  0.89233192  0.90927538  0.62641312  1
  Ta  Ta118  1  -0.00440792  0.80002900  0.52522900  1
  Ta  Ta119  1  0.80137223  0.39626105  0.25190419  1
  Ti  Ti120  1  0.39674136  0.81581011  0.51351687  1
  Ti  Ti121  1  0.50194843  0.50210307  0.61032474  1
  Ti  Ti122  1  0.59753137  0.19914003  -0.01075751  1
  Ti  Ti123  1  0.60343360  0.79782339  0.00054942  1
  Ti  Ti124  1  0.90672977  0.49820390  0.36294790  1
  Ti  Ti125  1  0.80019657  0.19310711  0.24469790  1
  Ti  Ti126  1  0.30154203  0.90562663  0.89425599  1
  Ti  Ti127  1  0.90013175  0.09952359  0.63385991  1
  Ti  Ti128  1  0.59330536  0.19690182  0.25854307  1
  Ti  Ti129  1  0.19588841  0.00722576  0.51850827  1
  Ti  Ti130  1  0.39888098  0.79985084  -0.00073450  1
  Ti  Ti131  1  0.79002098  0.01532278  0.50691872  1
  Ti  Ti132  1  0.69826410  0.89848862  0.85120657  1
  Ti  Ti133  1  0.30434739  0.50795578  0.87505762  1
  Ti  Ti134  1  0.19282022  0.18618723  0.50561208  1
  Ti  Ti135  1  0.49165314  0.29379416  0.37743556  1
  Ti  Ti136  1  0.50231270  0.69658950  0.87848348  1
  Ti  Ti137  1  0.39896784  0.40445009  0.49173932  1
  Ti  Ti138  1  0.72331525  0.90593444  0.37219673  1
  Ti  Ti139  1  0.30221537  0.69922156  0.11623940  1
  Ti  Ti140  1  0.90395665  0.49951088  0.13941741  1
  Ti  Ti141  1  0.49980929  0.09459377  0.11458008  1
  Ti  Ti142  1  0.39468356  0.60507533  -0.00693015  1
  Ti  Ti143  1  0.80872074  0.40028101  0.73863497  1
  Ti  Ti144  1  0.69702816  0.09808427  0.64000667  1
  Ti  Ti145  1  0.50778823  0.29149428  0.12472751  1
  Ti  Ti146  1  0.19825994  0.40225615  0.76108719  1
  Ti  Ti147  1  0.49856373  0.90615100  0.63720586  1
  Ti  Ti148  1  0.10649427  0.28950484  0.37699578  1
  Ti  Ti149  1  0.89803262  0.10500643  0.86949404  1
  Ti  Ti150  1  0.89632492  0.90181493  0.39952841  1
  Ti  Ti151  1  0.10309179  0.49920655  0.86552542  1
  Ti  Ti152  1  0.39266459  0.38492960  0.24204981  1
  Ti  Ti153  1  0.20624667  0.59202423  0.48963194  1
  Ti  Ti154  1  0.19482294  0.20276854  0.00190891  1
  Ti  Ti155  1  -0.00878043  0.78242719  0.73213046  1
  Ti  Ti156  1  0.90299199  0.30137686  0.61236247  1
  Ti  Ti157  1  -0.00171378  0.59448297  0.74253909  1
  Ti  Ti158  1  0.69251901  0.10491277  0.13198426  1
  Ti  Ti159  1  0.38875489  0.79767529  0.25012535  1
  Mo  Mo160  1  0.89893301  0.29570896  0.88809567  1
  Mo  Mo161  1  0.10885276  0.09456121  0.36950252  1
  Mo  Mo162  1  0.30375050  0.49435186  0.36064879  1
  Mo  Mo163  1  0.19575827  0.00825772  0.25443696  1
  Mo  Mo164  1  0.20857848  0.60352280  -0.01424206  1
  Mo  Mo165  1  0.30355687  0.89273789  0.11533624  1
  Mo  Mo166  1  0.47548546  0.89909664  0.36534411  1
  Mo  Mo167  1  0.48077835  0.10872132  0.37059696  1
  Mo  Mo168  1  0.39567228  0.19611098  0.49785885  1
  Mo  Mo169  1  0.80009861  0.19507817  0.51631476  1
  Mo  Mo170  1  0.30440212  0.29511096  0.11390594  1
  Mo  Mo171  1  0.70139597  0.09856315  0.36407652  1
  Mo  Mo172  1  0.70587043  0.49720436  0.36038146  1
  Mo  Mo173  1  0.00130958  0.39843183  0.01823491  1
  Mo  Mo174  1  0.60110652  0.61234030  -0.00641602  1
  Mo  Mo175  1  0.39972605  0.61300007  0.26668256  1
  Mo  Mo176  1  0.90478897  0.69369707  0.11713172  1
  Mo  Mo177  1  0.60381608  0.59397019  0.48637191  1
  Mo  Mo178  1  0.39309545  0.58490658  0.48340217  1
  Mo  Mo179  1  0.79976549  0.81104072  0.51075676  1
  Mo  Mo180  1  0.29597457  0.09928649  0.89092851  1
  Mo  Mo181  1  0.49885299  0.10186171  0.88242975  1
  Mo  Mo182  1  0.01424646  0.79568364  0.23347133  1
  Mo  Mo183  1  0.39925982  -0.00021632  -0.01141219  1
  Mo  Mo184  1  0.10407059  0.10615561  0.64893269  1
  Mo  Mo185  1  0.80043759  0.00548288  0.74959759  1
  Mo  Mo186  1  0.59725855  -0.00072503  0.75711418  1
  Mo  Mo187  1  0.19467855  0.00072266  -0.02051937  1
  Mo  Mo188  1  0.30597698  0.90908788  0.62903315  1
  Mo  Mo189  1  0.40601479  0.60420349  0.75776941  1
  Mo  Mo190  1  0.90145921  0.69242593  0.61157483  1
  Mo  Mo191  1  -0.00835997  0.19458591  -0.01597863  1
  Mo  Mo192  1  0.50028563  0.29656535  0.89090529  1
  Mo  Mo193  1  0.10159074  0.29103023  0.11070686  1
  Mo  Mo194  1  0.79305454  0.00056633  0.25306989  1
  Mo  Mo195  1  0.30987699  0.70341842  0.88982684  1
  Mo  Mo196  1  0.90201106  0.90512060  0.11391785  1
  Mo  Mo197  1  -0.00372923  0.39468873  0.74445108  1
  Mo  Mo198  1  -0.00167438  0.02190845  0.75047180  1
  Mo  Mo199  1  0.20754506  0.39469940  0.26158898  1
