# generated using pymatgen
data_HfZrTaTiMo
_symmetry_space_group_name_H-M   'P 1'
_cell_length_a   15.83499436
_cell_length_b   15.84005359
_cell_length_c   15.39441286
_cell_angle_alpha   89.98125321
_cell_angle_beta   89.95031244
_cell_angle_gamma   90.14285309
_symmetry_Int_Tables_number   1
_chemical_formula_structural   HfZrTaTiMo
_chemical_formula_sum   'Hf40 Zr40 Ta40 Ti40 Mo40'
_cell_volume   3861.32318498
_cell_formula_units_Z   40
loop_
 _symmetry_equiv_pos_site_id
 _symmetry_equiv_pos_as_xyz
  1  'x, y, z'
loop_
 _atom_site_type_symbol
 _atom_site_label
 _atom_site_symmetry_multiplicity
 _atom_site_fract_x
 _atom_site_fract_y
 _atom_site_fract_z
 _atom_site_occupancy
  Hf  Hf0  1  0.20489496  0.20088854  0.49414995  1
  Hf  Hf1  1  0.70573212  0.29680267  0.87463193  1
  Hf  Hf2  1  0.78939981  0.40822944  0.25119975  1
  Hf  Hf3  1  0.10829032  0.30559092  0.63052570  1
  Hf  Hf4  1  0.70298364  0.50821571  0.64018854  1
  Hf  Hf5  1  0.00595479  0.61137860  0.75031834  1
  Hf  Hf6  1  0.49321825  0.30168397  0.87298119  1
  Hf  Hf7  1  0.89118714  0.90256831  0.38832402  1
  Hf  Hf8  1  0.59949784  0.39319798  0.74525899  1
  Hf  Hf9  1  0.09871091  0.10206908  0.87390739  1
  Hf  Hf10  1  0.51252903  0.70017235  0.13791336  1
  Hf  Hf11  1  0.11994155  0.51724725  0.37651218  1
  Hf  Hf12  1  0.00842148  0.40229418  0.48925397  1
  Hf  Hf13  1  0.10802526  0.50525210  0.61806880  1
  Hf  Hf14  1  0.29947330  0.70987531  0.87070230  1
  Hf  Hf15  1  0.71247110  0.89314599  0.86773573  1
  Hf  Hf16  1  0.40088715  0.81184051  0.74101952  1
  Hf  Hf17  1  0.59823739  0.79634950  0.74238562  1
  Hf  Hf18  1  0.69816235  0.70556647  0.38975497  1
  Hf  Hf19  1  0.69156062  0.08672982  0.12517546  1
  Hf  Hf20  1  0.59963864  0.59809449  0.50885379  1
  Hf  Hf21  1  0.30027989  0.92380723  0.14432269  1
  Hf  Hf22  1  0.89947300  0.89868247  0.13464991  1
  Hf  Hf23  1  0.70213205  0.08556312  0.86645035  1
  Hf  Hf24  1  0.80004794  0.40236449  0.50965480  1
  Hf  Hf25  1  0.68887234  0.88809564  0.12342039  1
  Hf  Hf26  1  -0.00197856  0.00024326  0.72903705  1
  Hf  Hf27  1  0.10052901  0.49742188  0.88911399  1
  Hf  Hf28  1  0.39418003  0.00360654  0.48115412  1
  Hf  Hf29  1  0.89134961  0.50987902  0.87230018  1
  Hf  Hf30  1  -0.00179899  0.41078271  0.25805169  1
  Hf  Hf31  1  0.49712970  0.49916334  0.37882607  1
  Hf  Hf32  1  0.69457626  0.89454048  0.39663299  1
  Hf  Hf33  1  0.49315789  0.07928261  0.12285660  1
  Hf  Hf34  1  0.59717133  0.19311837  0.74311100  1
  Hf  Hf35  1  0.00210922  0.80553942  0.26163116  1
  Hf  Hf36  1  -0.00272148  0.63862526  -0.01698745  1
  Hf  Hf37  1  0.30884694  0.50140488  0.36576863  1
  Hf  Hf38  1  0.89501341  0.70871426  0.38456629  1
  Hf  Hf39  1  0.40864590  0.60968001  -0.00754023  1
  Zr  Zr40  1  0.01251321  0.61809410  0.50270419  1
  Zr  Zr41  1  0.00116025  0.19966120  0.49835914  1
  Zr  Zr42  1  0.89618075  0.30122582  0.37370284  1
  Zr  Zr43  1  0.60011124  0.39526558  0.51100591  1
  Zr  Zr44  1  0.80419040  0.19818499  0.01333329  1
  Zr  Zr45  1  0.61178021  0.58566283  0.25974457  1
  Zr  Zr46  1  0.90799978  0.29685864  0.86578887  1
  Zr  Zr47  1  0.49737962  0.70133243  0.37374909  1
  Zr  Zr48  1  0.90624827  0.89695605  0.86711510  1
  Zr  Zr49  1  0.88596521  0.10784717  0.37169415  1
  Zr  Zr50  1  0.59050440  -0.01106449  0.73420125  1
  Zr  Zr51  1  0.59689665  0.18655777  -0.00955982  1
  Zr  Zr52  1  0.89814633  0.09326364  0.86601493  1
  Zr  Zr53  1  0.52269001  0.30650032  0.11421397  1
  Zr  Zr54  1  0.20036707  0.60430420  0.75780237  1
  Zr  Zr55  1  0.38958139  0.19918505  0.00843757  1
  Zr  Zr56  1  0.30020607  0.48366478  0.63561878  1
  Zr  Zr57  1  0.41028502  0.39836938  0.23170215  1
  Zr  Zr58  1  0.89571557  0.51310372  0.10925588  1
  Zr  Zr59  1  0.70175021  0.50326120  0.87127033  1
  Zr  Zr60  1  0.90741390  0.09559345  0.14338192  1
  Zr  Zr61  1  0.18784826  0.80731021  0.00519721  1
  Zr  Zr62  1  0.39313396  0.80390113  0.00369213  1
  Zr  Zr63  1  0.19426945  0.78309140  0.49663981  1
  Zr  Zr64  1  0.50074572  0.29048672  0.38120658  1
  Zr  Zr65  1  0.49411356  0.09128963  0.60929702  1
  Zr  Zr66  1  0.78929521  0.01851794  0.51621697  1
  Zr  Zr67  1  0.50335464  0.89804340  0.12438664  1
  Zr  Zr68  1  0.20232741  0.00243160  0.74869982  1
  Zr  Zr69  1  0.00489934  0.19157924  0.01296745  1
  Zr  Zr70  1  0.29250869  0.29502184  0.86705025  1
  Zr  Zr71  1  0.09434372  0.51034465  0.11227117  1
  Zr  Zr72  1  0.29922405  0.51337326  0.12418091  1
  Zr  Zr73  1  0.68928473  0.49524971  0.10411130  1
  Zr  Zr74  1  0.29856629  0.68494134  0.36270886  1
  Zr  Zr75  1  0.80848341  0.78298877  0.00131482  1
  Zr  Zr76  1  0.09825015  0.30127167  0.12487739  1
  Zr  Zr77  1  0.29732061  0.29583839  0.35801087  1
  Zr  Zr78  1  0.70185249  0.27895346  0.39098871  1
  Zr  Zr79  1  0.49990886  0.90861574  0.88720888  1
  Ta  Ta80  1  0.59376358  -0.00098495  0.27351260  1
  Ta  Ta81  1  0.90120132  0.70061895  0.13969194  1
  Ta  Ta82  1  0.79871462  0.39404628  0.00422837  1
  Ta  Ta83  1  0.39969236  0.40298720  0.00224784  1
  Ta  Ta84  1  0.09869597  0.70310084  0.13803361  1
  Ta  Ta85  1  0.90555494  0.30181464  0.62478791  1
  Ta  Ta86  1  0.49303702  0.49657323  0.63733529  1
  Ta  Ta87  1  0.19885679  0.00626270  -0.00200297  1
  Ta  Ta88  1  0.19243874  0.80617486  0.74177476  1
  Ta  Ta89  1  0.19702588  0.39924220  0.24127921  1
  Ta  Ta90  1  -0.00122206  0.60529061  0.26174298  1
  Ta  Ta91  1  0.50251214  0.89110668  0.38523030  1
  Ta  Ta92  1  0.49687726  0.49872142  0.86799688  1
  Ta  Ta93  1  0.30147239  0.90522555  0.61413917  1
  Ta  Ta94  1  0.39416888  0.59739037  0.51778576  1
  Ta  Ta95  1  0.40384617  0.60431961  0.75145151  1
  Ta  Ta96  1  0.00893067  0.20655331  0.25650631  1
  Ta  Ta97  1  0.19775020  0.80138562  0.25453107  1
  Ta  Ta98  1  0.00128169  0.00449400  0.50249944  1
  Ta  Ta99  1  0.20668593  0.18890015  0.01728490  1
  Ta  Ta100  1  0.59898530  0.19193324  0.24711470  1
  Ta  Ta101  1  0.20866446  0.39055318  0.00524971  1
  Ta  Ta102  1  0.60217881  0.78333330  -0.01831947  1
  Ta  Ta103  1  0.40376569  0.19076082  0.23869048  1
  Ta  Ta104  1  0.80509608  0.39398426  0.73880310  1
  Ta  Ta105  1  0.30531463  0.49594784  0.87720400  1
  Ta  Ta106  1  0.30176084  0.89400931  0.37113498  1
  Ta  Ta107  1  0.39717689  0.18207335  0.75466934  1
  Ta  Ta108  1  0.10569479  0.10432990  0.36815308  1
  Ta  Ta109  1  0.80334351  0.60163283  0.51065669  1
  Ta  Ta110  1  0.90635957  0.50286970  0.62985106  1
  Ta  Ta111  1  0.39518502  0.19956950  0.49654334  1
  Ta  Ta112  1  0.80030473  0.19329864  0.72784085  1
  Ta  Ta113  1  0.48862792  0.29466184  0.62507183  1
  Ta  Ta114  1  0.00861490  -0.00909582  0.00810993  1
  Ta  Ta115  1  0.80186250  0.59964634  0.26085419  1
  Ta  Ta116  1  0.20005095  0.00236642  0.48966790  1
  Ta  Ta117  1  0.78629177  -0.00361603  0.25775427  1
  Ta  Ta118  1  0.10339533  0.90181219  0.61083260  1
  Ta  Ta119  1  0.80273951  -0.00495853  0.00817012  1
  Ti  Ti120  1  0.29480673  0.69796542  0.62811703  1
  Ti  Ti121  1  0.38469639  0.01472369  -0.01457767  1
  Ti  Ti122  1  -0.00702138  0.39380095  -0.00200116  1
  Ti  Ti123  1  0.20658045  0.39464151  0.49080669  1
  Ti  Ti124  1  0.19498109  0.39870019  0.76308623  1
  Ti  Ti125  1  0.78903359  0.79656051  0.25007419  1
  Ti  Ti126  1  0.40333590  0.80367247  0.25101521  1
  Ti  Ti127  1  0.39652113  0.39441193  0.50515708  1
  Ti  Ti128  1  0.88986851  0.89771854  0.62276661  1
  Ti  Ti129  1  0.70373412  0.69031054  0.12539943  1
  Ti  Ti130  1  0.19846122  0.19602297  0.74646307  1
  Ti  Ti131  1  0.50724816  0.50500196  0.11195776  1
  Ti  Ti132  1  0.11361189  0.08856078  0.14798391  1
  Ti  Ti133  1  0.00217491  0.19987810  0.73834886  1
  Ti  Ti134  1  0.00190750  0.00090446  0.26832371  1
  Ti  Ti135  1  0.29905858  0.09799640  0.62515148  1
  Ti  Ti136  1  0.89453074  0.50958832  0.38652772  1
  Ti  Ti137  1  0.89978021  0.70644873  0.63110202  1
  Ti  Ti138  1  0.30456356  0.29472839  0.63607084  1
  Ti  Ti139  1  0.78747613  0.20248090  0.23783975  1
  Ti  Ti140  1  0.10104633  0.90097617  0.38557923  1
  Ti  Ti141  1  0.71539339  0.69324949  0.85633934  1
  Ti  Ti142  1  0.59461101  0.60743767  0.75127919  1
  Ti  Ti143  1  0.29846138  0.09594873  0.34979436  1
  Ti  Ti144  1  0.60263651  0.60739916  -0.01815204  1
  Ti  Ti145  1  0.29559250  0.90889796  0.86918268  1
  Ti  Ti146  1  0.10067053  0.29607129  0.88183303  1
  Ti  Ti147  1  0.10507304  0.10128315  0.61664159  1
  Ti  Ti148  1  0.39664020  0.79535070  0.50526324  1
  Ti  Ti149  1  0.89545014  0.71611703  0.84717960  1
  Ti  Ti150  1  0.49624813  0.69950604  0.62253747  1
  Ti  Ti151  1  0.09224624  0.89258062  0.87299801  1
  Ti  Ti152  1  0.00347167  0.40266414  0.75280088  1
  Ti  Ti153  1  0.70868306  0.70812697  0.62572084  1
  Ti  Ti154  1  0.29996382  0.70329151  0.13595875  1
  Ti  Ti155  1  -0.00067966  0.80452414  0.50949227  1
  Ti  Ti156  1  0.20017309  0.61285008  -0.00647751  1
  Ti  Ti157  1  0.60980477  0.39096417  0.26139135  1
  Ti  Ti158  1  0.10057728  0.90699094  0.13648324  1
  Ti  Ti159  1  0.89713057  0.30551754  0.13476570  1
  Mo  Mo160  1  0.59717939  0.40405763  -0.01947042  1
  Mo  Mo161  1  0.50475851  0.69805510  0.86228874  1
  Mo  Mo162  1  0.00372318  0.80742232  0.72838315  1
  Mo  Mo163  1  0.39865172  0.39635535  0.75161141  1
  Mo  Mo164  1  0.59507493  0.00049259  0.49200988  1
  Mo  Mo165  1  0.80604690  0.60410670  0.73306841  1
  Mo  Mo166  1  0.79942185  0.60816518  -0.00195434  1
  Mo  Mo167  1  0.10101466  0.70944526  0.63585101  1
  Mo  Mo168  1  0.49064799  0.89412363  0.60130361  1
  Mo  Mo169  1  0.80110815  0.79907273  0.51975307  1
  Mo  Mo170  1  0.69310069  0.10051614  0.36714652  1
  Mo  Mo171  1  0.79555359  0.20355080  0.52409140  1
  Mo  Mo172  1  0.80004345  0.80233644  0.73256275  1
  Mo  Mo173  1  0.60676408  0.80162741  0.25399131  1
  Mo  Mo174  1  0.60264996  0.18895349  0.51754302  1
  Mo  Mo175  1  0.40515860  0.60311568  0.23090956  1
  Mo  Mo176  1  0.69963017  0.29445620  0.62273851  1
  Mo  Mo177  1  0.19751768  0.60302924  0.23480763  1
  Mo  Mo178  1  0.21264593  0.59877212  0.51370000  1
  Mo  Mo179  1  0.29575812  0.09659512  0.14218516  1
  Mo  Mo180  1  0.90568787  0.10249971  0.62807194  1
  Mo  Mo181  1  0.20207957  0.19679066  0.23943420  1
  Mo  Mo182  1  0.70409394  0.29750317  0.12517940  1
  Mo  Mo183  1  0.79645672  -0.00295758  0.72823347  1
  Mo  Mo184  1  0.59378644  0.79879733  0.52351909  1
  Mo  Mo185  1  0.49308305  0.09623852  0.87505528  1
  Mo  Mo186  1  0.00388090  0.80981028  0.01667380  1
  Mo  Mo187  1  0.60699018  -0.01025930  -0.01137948  1
  Mo  Mo188  1  0.69512876  0.89472472  0.61429194  1
  Mo  Mo189  1  0.40519247  -0.00268551  0.27176980  1
  Mo  Mo190  1  0.19255109  -0.00747099  0.27269637  1
  Mo  Mo191  1  0.50085076  0.10348888  0.37872149  1
  Mo  Mo192  1  0.30089211  0.30076917  0.12983477  1
  Mo  Mo193  1  0.09720597  0.71757993  0.86457236  1
  Mo  Mo194  1  0.29455170  0.09800196  0.86944404  1
  Mo  Mo195  1  0.69541834  0.09616217  0.63594266  1
  Mo  Mo196  1  0.10060649  0.70403425  0.35989138  1
  Mo  Mo197  1  0.39288269  -0.00038096  0.75028371  1
  Mo  Mo198  1  0.10664758  0.30468249  0.36223056  1
  Mo  Mo199  1  0.70727340  0.50143609  0.38823434  1
