# generated using pymatgen
data_HfZrTaTiMo
_symmetry_space_group_name_H-M   'P 1'
_cell_length_a   15.82510212
_cell_length_b   15.84485782
_cell_length_c   15.41083337
_cell_angle_alpha   90.01989725
_cell_angle_beta   89.99038161
_cell_angle_gamma   89.84149558
_symmetry_Int_Tables_number   1
_chemical_formula_structural   HfZrTaTiMo
_chemical_formula_sum   'Hf40 Zr40 Ta40 Ti40 Mo40'
_cell_volume   3864.19734796
_cell_formula_units_Z   40
loop_
 _symmetry_equiv_pos_site_id
 _symmetry_equiv_pos_as_xyz
  1  'x, y, z'
loop_
 _atom_site_type_symbol
 _atom_site_label
 _atom_site_symmetry_multiplicity
 _atom_site_fract_x
 _atom_site_fract_y
 _atom_site_fract_z
 _atom_site_occupancy
  Hf  Hf0  1  0.20011678  0.80659537  0.74751026  1
  Hf  Hf1  1  0.30060232  0.69890278  0.62337342  1
  Hf  Hf2  1  0.09895991  0.30847654  0.11313816  1
  Hf  Hf3  1  0.30758496  0.08980690  0.61946221  1
  Hf  Hf4  1  0.09952546  0.49888627  0.13141921  1
  Hf  Hf5  1  0.50400660  0.48774450  0.13084603  1
  Hf  Hf6  1  0.79205127  0.79989991  0.74317516  1
  Hf  Hf7  1  0.89040928  0.49589016  0.38039930  1
  Hf  Hf8  1  0.59516065  0.79508610  0.48814738  1
  Hf  Hf9  1  0.10128071  0.90359381  0.60466952  1
  Hf  Hf10  1  0.30098191  0.71381256  0.88654429  1
  Hf  Hf11  1  0.89787857  0.29659089  0.39705995  1
  Hf  Hf12  1  0.21793246  0.41170251  0.50837967  1
  Hf  Hf13  1  0.71087141  0.89142844  0.37023436  1
  Hf  Hf14  1  0.90076754  0.89296460  0.14159552  1
  Hf  Hf15  1  0.50166355  0.31656985  0.36878327  1
  Hf  Hf16  1  0.79372436  0.79559666  0.00974199  1
  Hf  Hf17  1  0.88569798  0.29427229  0.60982116  1
  Hf  Hf18  1  0.08985942  0.29870057  0.87744221  1
  Hf  Hf19  1  0.30771396  0.29825467  0.87302000  1
  Hf  Hf20  1  0.49382392  0.89384123  0.12538575  1
  Hf  Hf21  1  0.79050647  0.59194871  0.23767623  1
  Hf  Hf22  1  0.60126191  0.59572523  0.51390781  1
  Hf  Hf23  1  0.90095043  0.09898588  0.63051251  1
  Hf  Hf24  1  0.20143500  0.40057373  0.75271528  1
  Hf  Hf25  1  0.90224636  0.29168177  0.10166500  1
  Hf  Hf26  1  0.19915205  0.60581142  0.48411083  1
  Hf  Hf27  1  0.10141395  0.51047724  0.63314676  1
  Hf  Hf28  1  0.21194648  -0.00517751  0.75091052  1
  Hf  Hf29  1  0.09567560  0.69957894  0.87854323  1
  Hf  Hf30  1  0.89960980  0.30821336  0.88037011  1
  Hf  Hf31  1  0.60909895  0.39130676  0.74399322  1
  Hf  Hf32  1  0.20003864  0.59760411  0.00073335  1
  Hf  Hf33  1  0.50775760  0.30043915  0.87988252  1
  Hf  Hf34  1  0.80511404  0.19579418  0.25501128  1
  Hf  Hf35  1  0.39779886  0.20008866  0.25336514  1
  Hf  Hf36  1  0.70572997  0.11270363  0.60725475  1
  Hf  Hf37  1  0.39791040  0.81290894  0.75441581  1
  Hf  Hf38  1  0.20953324  0.19912697  0.00377559  1
  Hf  Hf39  1  0.58822253  0.41100136  0.52432117  1
  Zr  Zr40  1  0.21659933  -0.01055455  0.01268233  1
  Zr  Zr41  1  0.60960978  0.20440908  0.25271989  1
  Zr  Zr42  1  0.50552338  0.09260885  0.13446438  1
  Zr  Zr43  1  0.09858963  0.10540048  0.87839763  1
  Zr  Zr44  1  0.48964890  0.67942851  0.37896932  1
  Zr  Zr45  1  0.49969612  0.10116247  0.88360022  1
  Zr  Zr46  1  0.01553025  0.17404321  0.50014750  1
  Zr  Zr47  1  0.69510803  0.90992657  0.60533156  1
  Zr  Zr48  1  0.89909856  0.89793054  0.87793751  1
  Zr  Zr49  1  0.89330509  0.69175181  0.86618102  1
  Zr  Zr50  1  0.00870823  0.00056005  0.74671850  1
  Zr  Zr51  1  0.60203813  0.60022706  -0.00165905  1
  Zr  Zr52  1  0.40574420  0.20133669  0.48848403  1
  Zr  Zr53  1  0.38966287  0.79232135  0.25992987  1
  Zr  Zr54  1  0.20674292  0.20244149  0.50571103  1
  Zr  Zr55  1  -0.00521204  0.00443380  0.01114494  1
  Zr  Zr56  1  0.79445764  0.59605855  0.01011380  1
  Zr  Zr57  1  0.79234443  0.39437145  0.24446449  1
  Zr  Zr58  1  0.70671726  0.30932911  0.40093122  1
  Zr  Zr59  1  0.40226181  0.59874564  0.00116500  1
  Zr  Zr60  1  -0.01515652  0.79507179  0.48915325  1
  Zr  Zr61  1  0.51186339  0.09223665  0.61373547  1
  Zr  Zr62  1  0.09570215  0.70024379  0.62380798  1
  Zr  Zr63  1  0.49168809  0.89968412  0.60780241  1
  Zr  Zr64  1  0.00518777  0.40825845  0.50941113  1
  Zr  Zr65  1  0.80144973  0.60813483  0.51575498  1
  Zr  Zr66  1  0.40860633  0.19561059  0.74625371  1
  Zr  Zr67  1  0.09907163  0.10286297  0.12975252  1
  Zr  Zr68  1  0.79315884  0.00179632  0.75754476  1
  Zr  Zr69  1  0.69571189  0.30931814  0.10611457  1
  Zr  Zr70  1  0.11207859  0.30035681  0.37777194  1
  Zr  Zr71  1  0.10528569  0.89121434  0.89123390  1
  Zr  Zr72  1  0.39896180  0.56662597  0.51808922  1
  Zr  Zr73  1  0.00240018  0.19989457  0.25485689  1
  Zr  Zr74  1  -0.00860890  0.59103452  -0.00071607  1
  Zr  Zr75  1  0.08176537  0.91766713  0.37342615  1
  Zr  Zr76  1  0.88106027  0.70973751  0.36039559  1
  Zr  Zr77  1  0.20867557  0.61056361  0.25218500  1
  Zr  Zr78  1  0.79936007  0.00627549  0.00774600  1
  Zr  Zr79  1  0.59474864  -0.00197372  0.76014869  1
  Ta  Ta80  1  0.91485619  0.07509743  0.36702761  1
  Ta  Ta81  1  0.40697809  0.40750468  0.73694956  1
  Ta  Ta82  1  -0.00157098  0.39810656  0.25792519  1
  Ta  Ta83  1  0.90087473  0.11932555  0.87045162  1
  Ta  Ta84  1  0.10226384  0.50037200  0.36615166  1
  Ta  Ta85  1  0.59781947  0.59726166  0.24258372  1
  Ta  Ta86  1  0.70733283  0.09083943  0.38272001  1
  Ta  Ta87  1  0.30379224  0.09826980  0.87602687  1
  Ta  Ta88  1  0.79781036  0.00083469  0.24438991  1
  Ta  Ta89  1  0.30470845  0.30639980  0.12185242  1
  Ta  Ta90  1  0.59945782  -0.00373683  0.00050282  1
  Ta  Ta91  1  0.19622420  0.79932637  0.26377765  1
  Ta  Ta92  1  0.70914852  0.50537868  0.85760401  1
  Ta  Ta93  1  0.20476611  -0.00176767  0.24887015  1
  Ta  Ta94  1  0.68711756  0.70877320  0.13364991  1
  Ta  Ta95  1  0.79950196  0.40299614  0.73664387  1
  Ta  Ta96  1  0.20488286  0.39756617  0.25084776  1
  Ta  Ta97  1  0.90565983  0.48794324  0.13074112  1
  Ta  Ta98  1  0.68615717  0.90164108  0.13363530  1
  Ta  Ta99  1  0.29573607  0.89773822  0.59519486  1
  Ta  Ta100  1  0.28949877  0.90006645  0.38440147  1
  Ta  Ta101  1  0.30687780  0.30239772  0.62979281  1
  Ta  Ta102  1  0.69862567  0.10921596  0.88318009  1
  Ta  Ta103  1  0.20466058  0.60100638  0.76261125  1
  Ta  Ta104  1  0.50318065  0.71104340  0.87413821  1
  Ta  Ta105  1  -0.00391536  0.79753239  0.74226165  1
  Ta  Ta106  1  0.49651362  0.69921932  0.63603583  1
  Ta  Ta107  1  0.31500450  0.49529706  0.35861651  1
  Ta  Ta108  1  0.68877952  0.89294275  0.88817831  1
  Ta  Ta109  1  0.19937607  0.19590555  0.74382878  1
  Ta  Ta110  1  0.49857004  0.30276741  0.12175467  1
  Ta  Ta111  1  0.89810459  0.89544665  0.62157553  1
  Ta  Ta112  1  0.40186599  -0.00125363  0.47502295  1
  Ta  Ta113  1  -0.00935100  0.40397498  0.73971667  1
  Ta  Ta114  1  0.20549236  0.40770942  -0.01046560  1
  Ta  Ta115  1  0.30172071  0.49318317  0.12930923  1
  Ta  Ta116  1  0.09551145  0.70366730  0.13083163  1
  Ta  Ta117  1  0.10548560  0.88977881  0.13273345  1
  Ta  Ta118  1  0.78631316  0.21210999  0.75494828  1
  Ta  Ta119  1  0.59122005  0.79773568  0.26115668  1
  Ti  Ti120  1  0.60008422  0.19670270  0.00673459  1
  Ti  Ti121  1  0.49792163  0.70609941  0.11706185  1
  Ti  Ti122  1  0.50135455  0.50776038  0.86057680  1
  Ti  Ti123  1  0.39974589  -0.00734888  -0.00084578  1
  Ti  Ti124  1  0.59456941  0.80637256  0.75168639  1
  Ti  Ti125  1  0.69505829  0.70758937  0.62777219  1
  Ti  Ti126  1  0.40098029  -0.00709886  0.75918298  1
  Ti  Ti127  1  0.69685248  0.69394927  0.36717762  1
  Ti  Ti128  1  0.70311045  0.30021592  0.88635126  1
  Ti  Ti129  1  0.29258054  0.09989988  0.37066167  1
  Ti  Ti130  1  0.31010761  0.50341205  0.86689133  1
  Ti  Ti131  1  0.90175903  0.69609513  0.13627122  1
  Ti  Ti132  1  0.80240370  0.41626006  -0.00758910  1
  Ti  Ti133  1  0.20708610  0.20301180  0.24727246  1
  Ti  Ti134  1  -0.00061241  0.59805819  0.25715432  1
  Ti  Ti135  1  0.69035558  0.49845433  0.37706643  1
  Ti  Ti136  1  0.18711444  0.01668562  0.49192296  1
  Ti  Ti137  1  0.69379819  0.70200415  0.87045446  1
  Ti  Ti138  1  0.60056958  0.19901420  0.48792308  1
  Ti  Ti139  1  0.40133042  0.40263216  -0.00432706  1
  Ti  Ti140  1  0.00140006  0.79614183  0.25860387  1
  Ti  Ti141  1  0.39335959  0.79137901  0.48710381  1
  Ti  Ti142  1  0.81876164  -0.01032633  0.48962029  1
  Ti  Ti143  1  -0.00319505  0.79442028  0.00992012  1
  Ti  Ti144  1  0.39900872  0.60161317  0.23560608  1
  Ti  Ti145  1  0.08666682  0.49725487  0.86960192  1
  Ti  Ti146  1  0.51263005  0.09021098  0.36440954  1
  Ti  Ti147  1  0.70427547  0.10269607  0.12207346  1
  Ti  Ti148  1  0.80820384  0.59851235  0.73240412  1
  Ti  Ti149  1  0.29744630  0.71792369  0.11264823  1
  Ti  Ti150  1  0.60391150  0.41390010  -0.01365832  1
  Ti  Ti151  1  0.40141747  0.19629739  0.00920984  1
  Ti  Ti152  1  0.50022519  0.49306791  0.35940378  1
  Ti  Ti153  1  0.39987937  -0.00888558  0.26509549  1
  Ti  Ti154  1  0.09685016  0.29241056  0.63389343  1
  Ti  Ti155  1  0.60246833  0.60515227  0.74621301  1
  Ti  Ti156  1  0.30989959  0.09373159  0.13314409  1
  Ti  Ti157  1  0.50667504  0.28909967  0.62636051  1
  Ti  Ti158  1  -0.00248991  0.60314088  0.49107156  1
  Ti  Ti159  1  0.30985550  0.31265756  0.37503401  1
  Mo  Mo160  1  0.60371573  -0.00390754  0.25778717  1
  Mo  Mo161  1  0.89602656  0.49791356  0.85528219  1
  Mo  Mo162  1  0.00122745  0.40750391  -0.00628265  1
  Mo  Mo163  1  0.19623605  0.79839069  0.01761679  1
  Mo  Mo164  1  0.70037223  0.50701329  0.64329642  1
  Mo  Mo165  1  -0.00243351  0.19748023  0.00034580  1
  Mo  Mo166  1  0.59708994  0.79883232  -0.00148995  1
  Mo  Mo167  1  -0.00137594  -0.00138295  0.51006026  1
  Mo  Mo168  1  0.80902825  0.17983763  0.48205446  1
  Mo  Mo169  1  0.79490949  0.19906902  -0.01112747  1
  Mo  Mo170  1  0.39718803  0.80927488  -0.00095699  1
  Mo  Mo171  1  0.90199022  0.70194775  0.63396676  1
  Mo  Mo172  1  0.79427449  0.79984649  0.51619512  1
  Mo  Mo173  1  0.29656674  0.50409653  0.64826868  1
  Mo  Mo174  1  0.29861544  0.69648460  0.38508848  1
  Mo  Mo175  1  0.40191495  0.39499637  0.52007696  1
  Mo  Mo176  1  0.89335811  0.90119937  0.35971086  1
  Mo  Mo177  1  0.49658501  0.89829994  0.37337928  1
  Mo  Mo178  1  -0.00007518  0.59746121  0.75806131  1
  Mo  Mo179  1  0.78851640  0.41881338  0.52581953  1
  Mo  Mo180  1  0.61251344  0.20355545  0.75229620  1
  Mo  Mo181  1  0.49852980  0.89494700  0.89169623  1
  Mo  Mo182  1  0.11022133  0.09938126  0.35566398  1
  Mo  Mo183  1  0.50146333  0.50997500  0.65228590  1
  Mo  Mo184  1  0.60278769  0.40694513  0.25121013  1
  Mo  Mo185  1  0.10597173  0.10171558  0.64043396  1
  Mo  Mo186  1  0.59815105  0.00056945  0.47508334  1
  Mo  Mo187  1  0.30088947  0.90017754  0.14626140  1
  Mo  Mo188  1  0.09139363  0.69728184  0.36140333  1
  Mo  Mo189  1  0.00007038  -0.00168261  0.23195881  1
  Mo  Mo190  1  0.30583410  0.90466051  0.88233538  1
  Mo  Mo191  1  0.69862829  0.50113955  0.12038535  1
  Mo  Mo192  1  0.90424922  0.50565677  0.62940340  1
  Mo  Mo193  1  -0.00364694  0.20945848  0.73899693  1
  Mo  Mo194  1  0.19902270  0.79823852  0.48075764  1
  Mo  Mo195  1  0.39810911  0.39752049  0.23969499  1
  Mo  Mo196  1  0.40333099  0.60660048  0.76060889  1
  Mo  Mo197  1  0.70076380  0.29661563  0.61081797  1
  Mo  Mo198  1  0.78987625  0.79553921  0.23362345  1
  Mo  Mo199  1  0.89243793  0.10079425  0.13523353  1
