# generated using pymatgen
data_HfZrTaTiMo
_symmetry_space_group_name_H-M   'P 1'
_cell_length_a   15.83223887
_cell_length_b   15.83597013
_cell_length_c   15.38244875
_cell_angle_alpha   90.05640110
_cell_angle_beta   89.99566716
_cell_angle_gamma   90.12589414
_symmetry_Int_Tables_number   1
_chemical_formula_structural   HfZrTaTiMo
_chemical_formula_sum   'Hf40 Zr40 Ta40 Ti40 Mo40'
_cell_volume   3856.65885556
_cell_formula_units_Z   40
loop_
 _symmetry_equiv_pos_site_id
 _symmetry_equiv_pos_as_xyz
  1  'x, y, z'
loop_
 _atom_site_type_symbol
 _atom_site_label
 _atom_site_symmetry_multiplicity
 _atom_site_fract_x
 _atom_site_fract_y
 _atom_site_fract_z
 _atom_site_occupancy
  Hf  Hf0  1  0.00241247  0.40497676  0.00923011  1
  Hf  Hf1  1  0.80252425  0.41090605  -0.00886187  1
  Hf  Hf2  1  0.29014345  0.30196742  0.35717642  1
  Hf  Hf3  1  0.58815530  0.39185021  0.75177784  1
  Hf  Hf4  1  0.20407968  0.18948957  0.77261542  1
  Hf  Hf5  1  0.29858785  0.71023461  0.14358231  1
  Hf  Hf6  1  0.30375391  0.89214998  0.86096299  1
  Hf  Hf7  1  0.30366899  0.50905657  0.86342304  1
  Hf  Hf8  1  0.69081633  0.51386759  0.85862234  1
  Hf  Hf9  1  0.00019733  -0.00462494  0.49076340  1
  Hf  Hf10  1  0.28686668  0.50006291  0.37903109  1
  Hf  Hf11  1  0.50391942  0.50001362  0.38647216  1
  Hf  Hf12  1  0.71163319  0.89836721  0.87064458  1
  Hf  Hf13  1  0.19473344  0.79894417  -0.01017616  1
  Hf  Hf14  1  0.09959653  0.09441554  0.62250547  1
  Hf  Hf15  1  0.78854663  0.59288404  0.26634402  1
  Hf  Hf16  1  0.09681926  0.28555996  0.62024020  1
  Hf  Hf17  1  0.59741759  -0.00595410  0.00764006  1
  Hf  Hf18  1  0.40413971  0.19029535  0.25145250  1
  Hf  Hf19  1  0.61431271  0.00269840  0.52426354  1
  Hf  Hf20  1  0.39731068  0.39994483  0.00490312  1
  Hf  Hf21  1  0.61696662  0.40884486  0.25471201  1
  Hf  Hf22  1  0.40513960  0.60560813  0.25551446  1
  Hf  Hf23  1  -0.00188467  0.39717147  0.50074589  1
  Hf  Hf24  1  0.39256574  0.19540878  -0.00226429  1
  Hf  Hf25  1  0.59691850  0.20293627  -0.00053185  1
  Hf  Hf26  1  0.70023186  0.49447414  0.62983857  1
  Hf  Hf27  1  0.19770884  0.20231228  0.00233458  1
  Hf  Hf28  1  0.39802078  0.38915939  0.50691759  1
  Hf  Hf29  1  0.71589187  0.10100404  0.88813202  1
  Hf  Hf30  1  0.90454474  0.10433300  0.36913649  1
  Hf  Hf31  1  0.51211883  0.88499249  0.87263763  1
  Hf  Hf32  1  0.80328071  -0.00208751  0.51632544  1
  Hf  Hf33  1  0.61003067  0.00493129  0.74365903  1
  Hf  Hf34  1  0.80483250  0.60188440  0.50198962  1
  Hf  Hf35  1  0.01003443  0.81362686  0.25420954  1
  Hf  Hf36  1  0.69557236  0.70724621  0.86490432  1
  Hf  Hf37  1  0.79440360  -0.00196361  0.22831798  1
  Hf  Hf38  1  0.40604722  0.20009079  0.48864415  1
  Hf  Hf39  1  0.90571164  0.52010094  0.85982249  1
  Zr  Zr40  1  0.40832435  -0.01566671  0.25466308  1
  Zr  Zr41  1  0.40052417  0.01321398  0.75921802  1
  Zr  Zr42  1  0.10678812  0.70582844  0.38657602  1
  Zr  Zr43  1  0.00179965  0.19622128  0.77945659  1
  Zr  Zr44  1  0.39480356  0.79461007  -0.01117875  1
  Zr  Zr45  1  -0.00002519  0.40147799  0.74892563  1
  Zr  Zr46  1  0.59188395  0.19565780  0.75718673  1
  Zr  Zr47  1  0.19936321  0.19516305  0.49253919  1
  Zr  Zr48  1  0.79454889  0.20436930  0.49398109  1
  Zr  Zr49  1  0.29179545  0.89652338  0.62700047  1
  Zr  Zr50  1  0.50006245  0.30087154  0.13102777  1
  Zr  Zr51  1  0.59801915  0.60251338  0.25263533  1
  Zr  Zr52  1  -0.00431663  0.60872220  0.01666348  1
  Zr  Zr53  1  0.40685115  0.40541471  0.24861974  1
  Zr  Zr54  1  0.19992203  0.60258085  0.00793221  1
  Zr  Zr55  1  0.10360744  0.50763466  0.86850295  1
  Zr  Zr56  1  0.81419096  0.79897169  0.00062635  1
  Zr  Zr57  1  0.39749903  0.59755137  0.51146579  1
  Zr  Zr58  1  0.18883832  0.59519246  0.24602121  1
  Zr  Zr59  1  0.50781744  0.72226848  0.11837583  1
  Zr  Zr60  1  0.09836707  0.29724958  0.36334241  1
  Zr  Zr61  1  0.29905768  0.09393922  0.62231758  1
  Zr  Zr62  1  0.19732670  -0.00427913  -0.01137518  1
  Zr  Zr63  1  0.69878353  0.09092308  0.37018676  1
  Zr  Zr64  1  0.08105457  0.70174529  0.85807081  1
  Zr  Zr65  1  0.80002701  0.60417947  0.00227613  1
  Zr  Zr66  1  0.70229453  0.71908623  0.38769063  1
  Zr  Zr67  1  0.29054939  0.08872381  0.36262531  1
  Zr  Zr68  1  0.89708772  0.29639261  0.63056538  1
  Zr  Zr69  1  0.40072277  0.76340652  0.74387768  1
  Zr  Zr70  1  0.00072504  0.80836735  0.01220393  1
  Zr  Zr71  1  0.19987877  0.40034414  0.73825418  1
  Zr  Zr72  1  0.79550900  0.39807948  0.48373930  1
  Zr  Zr73  1  0.70998854  0.30750422  0.11843835  1
  Zr  Zr74  1  0.60017615  0.38535166  0.50219285  1
  Zr  Zr75  1  0.49504053  0.89788150  0.62188230  1
  Zr  Zr76  1  -0.00152902  0.00379468  0.77018339  1
  Zr  Zr77  1  0.59988656  0.81430613  0.25991694  1
  Zr  Zr78  1  0.59394096  0.41614372  -0.00168721  1
  Zr  Zr79  1  0.40495287  0.59285975  0.01436776  1
  Ta  Ta80  1  0.70250657  0.29964802  0.87568916  1
  Ta  Ta81  1  0.60867564  0.18856319  0.23715544  1
  Ta  Ta82  1  0.79958091  0.39895390  0.76105477  1
  Ta  Ta83  1  0.70422382  0.70331696  0.12818597  1
  Ta  Ta84  1  0.00602761  0.40463103  0.23991137  1
  Ta  Ta85  1  0.51622257  0.90477480  0.39644473  1
  Ta  Ta86  1  -0.00168711  0.60142040  0.50150258  1
  Ta  Ta87  1  0.49407347  0.50853097  0.85697151  1
  Ta  Ta88  1  0.10095952  0.09640166  0.12180419  1
  Ta  Ta89  1  0.29418439  0.09018265  0.13315045  1
  Ta  Ta90  1  -0.00361870  -0.00383642  -0.00094550  1
  Ta  Ta91  1  0.60342147  0.19839594  0.51401208  1
  Ta  Ta92  1  0.29719205  0.89699899  0.13319275  1
  Ta  Ta93  1  0.80197495  0.19844733  0.23532713  1
  Ta  Ta94  1  0.70168696  0.29303694  0.64429946  1
  Ta  Ta95  1  0.59833148  -0.00088272  0.23288918  1
  Ta  Ta96  1  0.39648593  0.80350883  0.49262736  1
  Ta  Ta97  1  0.20013683  0.40169715  0.01460425  1
  Ta  Ta98  1  0.89202256  0.50047621  0.14325311  1
  Ta  Ta99  1  0.51086097  0.09439458  0.37923761  1
  Ta  Ta100  1  0.89555187  0.70332678  0.15507339  1
  Ta  Ta101  1  0.19211178  0.00110414  0.77074830  1
  Ta  Ta102  1  0.58482194  0.61300285  0.72660830  1
  Ta  Ta103  1  0.80494999  0.81353794  0.51843979  1
  Ta  Ta104  1  0.60321362  0.60099369  0.50983313  1
  Ta  Ta105  1  0.09889229  0.89826366  0.63295911  1
  Ta  Ta106  1  0.69571872  0.88865194  0.11346749  1
  Ta  Ta107  1  0.90225830  0.70657351  0.37626921  1
  Ta  Ta108  1  0.30635323  0.28901140  0.63587816  1
  Ta  Ta109  1  -0.00442836  0.19770656  0.00661397  1
  Ta  Ta110  1  0.80064318  0.61280173  0.73113911  1
  Ta  Ta111  1  -0.00151695  0.20011036  0.22771759  1
  Ta  Ta112  1  0.88560959  0.89688872  0.36414985  1
  Ta  Ta113  1  0.90912073  0.10777225  0.62076371  1
  Ta  Ta114  1  0.91013789  0.50069644  0.36818027  1
  Ta  Ta115  1  0.30152384  0.30838881  0.87336479  1
  Ta  Ta116  1  -0.00545961  0.80799823  0.50377449  1
  Ta  Ta117  1  0.29558166  0.70241324  0.38221777  1
  Ta  Ta118  1  -0.00492051  0.00117497  0.23380735  1
  Ta  Ta119  1  0.09964757  0.49668834  0.38374590  1
  Ti  Ti120  1  0.50338798  0.68646844  0.87937270  1
  Ti  Ti121  1  0.40444705  0.80423427  0.26992971  1
  Ti  Ti122  1  0.89172998  0.29264473  0.88526509  1
  Ti  Ti123  1  0.80998167  0.00250446  0.74299462  1
  Ti  Ti124  1  0.19332614  0.79341156  0.75094785  1
  Ti  Ti125  1  0.90644759  0.88152392  0.85730796  1
  Ti  Ti126  1  0.40481606  0.20766031  0.76757319  1
  Ti  Ti127  1  0.00103983  0.59972526  0.25413948  1
  Ti  Ti128  1  0.21125607  0.60804010  0.73291458  1
  Ti  Ti129  1  0.89909657  0.49883973  0.62740404  1
  Ti  Ti130  1  0.10196897  0.70982080  0.13659533  1
  Ti  Ti131  1  0.90635751  0.29629310  0.36226170  1
  Ti  Ti132  1  0.28903391  0.69926288  0.60460603  1
  Ti  Ti133  1  0.89985477  0.30371431  0.12475889  1
  Ti  Ti134  1  0.80617207  0.19239370  0.75689240  1
  Ti  Ti135  1  -0.00316501  0.61386979  0.72033790  1
  Ti  Ti136  1  0.51734702  0.28836027  0.36462415  1
  Ti  Ti137  1  0.20481437  0.39867096  0.51496744  1
  Ti  Ti138  1  0.49385301  0.09222119  0.12161286  1
  Ti  Ti139  1  0.39977595  0.39553227  0.74325539  1
  Ti  Ti140  1  0.19197134  -0.01220419  0.48934461  1
  Ti  Ti141  1  0.69994898  0.71052328  0.61833541  1
  Ti  Ti142  1  0.49741361  0.09572240  0.88481624  1
  Ti  Ti143  1  0.29547229  0.49514104  0.13677536  1
  Ti  Ti144  1  0.39605913  -0.00687183  0.00187463  1
  Ti  Ti145  1  0.28839564  0.29470850  0.14029479  1
  Ti  Ti146  1  0.49267661  0.10788846  0.62150492  1
  Ti  Ti147  1  0.50242475  0.70739048  0.39434463  1
  Ti  Ti148  1  0.10639312  0.51024043  0.61324774  1
  Ti  Ti149  1  0.39640560  -0.00162502  0.49075135  1
  Ti  Ti150  1  0.10381902  0.70721702  0.61073463  1
  Ti  Ti151  1  0.28490677  0.88846897  0.37414512  1
  Ti  Ti152  1  0.09638183  0.10049092  0.35828723  1
  Ti  Ti153  1  0.80127469  0.39811620  0.26293527  1
  Ti  Ti154  1  0.60198193  0.60006080  0.01194396  1
  Ti  Ti155  1  0.81240858  -0.00182566  0.01246897  1
  Ti  Ti156  1  0.60323916  0.79873123  0.73062759  1
  Ti  Ti157  1  0.49480437  0.49668722  0.62899875  1
  Ti  Ti158  1  0.10281423  0.30733056  0.88520218  1
  Ti  Ti159  1  0.18449720  -0.01567008  0.24774426  1
  Mo  Mo160  1  0.89443344  0.70407141  0.84740933  1
  Mo  Mo161  1  0.39828150  0.59157371  0.72931201  1
  Mo  Mo162  1  0.10603036  0.90447469  0.12669844  1
  Mo  Mo163  1  0.80354628  0.20390110  0.00938114  1
  Mo  Mo164  1  0.49113191  0.30621097  0.87889135  1
  Mo  Mo165  1  0.29636460  0.49377499  0.62737864  1
  Mo  Mo166  1  0.50362197  0.70329739  0.60341795  1
  Mo  Mo167  1  0.90796636  0.90518126  0.63552181  1
  Mo  Mo168  1  0.60760954  0.79338030  -0.00508801  1
  Mo  Mo169  1  0.71504235  0.10961200  0.63962108  1
  Mo  Mo170  1  0.09757949  0.10150075  0.90026510  1
  Mo  Mo171  1  0.09558591  0.90844773  0.37724631  1
  Mo  Mo172  1  0.69907240  0.09841643  0.11298932  1
  Mo  Mo173  1  0.19519707  0.59763975  0.50705677  1
  Mo  Mo174  1  -0.00070933  0.79874575  0.72501462  1
  Mo  Mo175  1  0.89949643  0.89995031  0.13496575  1
  Mo  Mo176  1  0.49299544  0.90323938  0.11497203  1
  Mo  Mo177  1  0.30599168  0.10098764  0.88251676  1
  Mo  Mo178  1  0.20493554  0.80425557  0.25606717  1
  Mo  Mo179  1  0.89920380  0.10269660  0.11306015  1
  Mo  Mo180  1  0.19485767  0.18966927  0.23269946  1
  Mo  Mo181  1  0.70806922  0.90017103  0.64693223  1
  Mo  Mo182  1  0.79993124  0.80197746  0.24694723  1
  Mo  Mo183  1  0.09695544  0.89479978  0.85849952  1
  Mo  Mo184  1  0.29089649  0.68955257  0.86321782  1
  Mo  Mo185  1  0.09440002  0.50281070  0.12705360  1
  Mo  Mo186  1  0.70091735  0.29018573  0.35462435  1
  Mo  Mo187  1  0.19257431  0.39916368  0.23129639  1
  Mo  Mo188  1  0.90413812  0.70226454  0.61210448  1
  Mo  Mo189  1  0.09855557  0.30043940  0.12528184  1
  Mo  Mo190  1  0.50154463  0.50715887  0.13197622  1
  Mo  Mo191  1  0.70342432  0.90621282  0.37686274  1
  Mo  Mo192  1  0.80481158  0.80097144  0.73470800  1
  Mo  Mo193  1  0.89406748  0.09783388  0.89716928  1
  Mo  Mo194  1  -0.00343198  0.19371922  0.48662807  1
  Mo  Mo195  1  0.70550954  0.50795372  0.12035057  1
  Mo  Mo196  1  0.49349712  0.28985054  0.62858426  1
  Mo  Mo197  1  0.70268440  0.49992921  0.39252439  1
  Mo  Mo198  1  0.19547946  0.80487353  0.50187441  1
  Mo  Mo199  1  0.60592910  0.80532696  0.50974288  1
