# generated using pymatgen
data_HfZrTaTiMo
_symmetry_space_group_name_H-M   'P 1'
_cell_length_a   15.83235952
_cell_length_b   15.83841615
_cell_length_c   15.40901813
_cell_angle_alpha   89.99954893
_cell_angle_beta   89.99753811
_cell_angle_gamma   89.91455682
_symmetry_Int_Tables_number   1
_chemical_formula_structural   HfZrTaTiMo
_chemical_formula_sum   'Hf40 Zr40 Ta40 Ti40 Mo40'
_cell_volume   3863.95336018
_cell_formula_units_Z   40
loop_
 _symmetry_equiv_pos_site_id
 _symmetry_equiv_pos_as_xyz
  1  'x, y, z'
loop_
 _atom_site_type_symbol
 _atom_site_label
 _atom_site_symmetry_multiplicity
 _atom_site_fract_x
 _atom_site_fract_y
 _atom_site_fract_z
 _atom_site_occupancy
  Hf  Hf0  1  0.19054773  0.39801483  0.49603119  1
  Hf  Hf1  1  0.60491385  0.39722498  0.24852797  1
  Hf  Hf2  1  0.79625729  -0.01111544  0.75168786  1
  Hf  Hf3  1  0.70025825  0.29844538  0.63652313  1
  Hf  Hf4  1  0.18321682  0.59951855  0.50657367  1
  Hf  Hf5  1  0.49627733  0.89720811  0.88704451  1
  Hf  Hf6  1  0.30886098  0.28639552  0.88293852  1
  Hf  Hf7  1  0.10759630  0.29736277  0.87568593  1
  Hf  Hf8  1  0.38666031  0.00544820  0.01115506  1
  Hf  Hf9  1  0.91591845  0.28251905  0.39059000  1
  Hf  Hf10  1  0.60507200  0.20454987  -0.00172557  1
  Hf  Hf11  1  -0.01684398  0.40588713  -0.02507366  1
  Hf  Hf12  1  0.39819005  0.80580770  0.25740144  1
  Hf  Hf13  1  -0.00673968  0.01047531  0.51253054  1
  Hf  Hf14  1  0.79266622  0.78072627  0.00977846  1
  Hf  Hf15  1  0.19789306  0.00822363  0.49958866  1
  Hf  Hf16  1  0.60295761  0.60149609  0.49517429  1
  Hf  Hf17  1  0.50252117  0.31965196  0.61218591  1
  Hf  Hf18  1  0.09726933  0.30245652  0.11221030  1
  Hf  Hf19  1  0.20438984  0.20223690  0.24125085  1
  Hf  Hf20  1  0.79872755  0.19125499  0.24462607  1
  Hf  Hf21  1  0.60323416  0.80962725  0.26075361  1
  Hf  Hf22  1  0.40258261  0.39848772  0.75624575  1
  Hf  Hf23  1  0.40623760  0.59534995  0.73969095  1
  Hf  Hf24  1  0.08756156  0.90835278  0.13128712  1
  Hf  Hf25  1  0.59483100  0.00044385  0.75910167  1
  Hf  Hf26  1  -0.00131121  0.19652535  -0.00897400  1
  Hf  Hf27  1  0.18969303  0.20525238  0.50201285  1
  Hf  Hf28  1  -0.00343773  0.57981214  0.73194551  1
  Hf  Hf29  1  0.20758360  0.19667806  0.74913372  1
  Hf  Hf30  1  0.10327067  0.68768507  0.85786072  1
  Hf  Hf31  1  0.40166235  0.40063722  0.24928903  1
  Hf  Hf32  1  0.70627179  0.49974588  0.85926554  1
  Hf  Hf33  1  0.29920583  0.70341013  0.87596591  1
  Hf  Hf34  1  0.89440259  0.49465046  0.12136877  1
  Hf  Hf35  1  0.90006324  0.08936112  0.37312248  1
  Hf  Hf36  1  0.50312175  0.69602200  0.13298739  1
  Hf  Hf37  1  0.30602487  0.30017199  0.37993067  1
  Hf  Hf38  1  0.39641753  0.01548824  0.75457999  1
  Hf  Hf39  1  0.60112646  0.00497717  -0.00815471  1
  Zr  Zr40  1  0.50789450  0.50324484  0.11768632  1
  Zr  Zr41  1  0.68849751  0.48682235  0.62360884  1
  Zr  Zr42  1  0.40833669  0.19399960  0.49853814  1
  Zr  Zr43  1  0.30365841  0.90384837  0.60991814  1
  Zr  Zr44  1  0.40798430  0.60663068  0.49474520  1
  Zr  Zr45  1  0.19910311  0.40150980  0.25200709  1
  Zr  Zr46  1  0.80297324  0.39406752  0.49572939  1
  Zr  Zr47  1  0.53411682  0.09999247  0.35899383  1
  Zr  Zr48  1  0.29072757  0.70782809  0.62504583  1
  Zr  Zr49  1  0.50591291  0.71513309  0.62524882  1
  Zr  Zr50  1  0.50546927  0.30628941  0.88454260  1
  Zr  Zr51  1  0.70857662  0.30494021  0.85639913  1
  Zr  Zr52  1  0.59483670  0.80470166  0.47745928  1
  Zr  Zr53  1  -0.00316672  0.78408859  0.00895579  1
  Zr  Zr54  1  0.50544640  0.90225022  0.12128261  1
  Zr  Zr55  1  0.19661582  0.00736922  0.75540985  1
  Zr  Zr56  1  0.30359987  0.51319524  0.11857635  1
  Zr  Zr57  1  0.62281346  0.60494289  0.00844724  1
  Zr  Zr58  1  0.20040782  0.80749040  0.01281381  1
  Zr  Zr59  1  0.08956353  0.51154221  0.12562356  1
  Zr  Zr60  1  0.09031123  0.90423315  0.88492878  1
  Zr  Zr61  1  0.40223178  0.81166609  0.75309191  1
  Zr  Zr62  1  0.30736725  0.49004980  0.61304217  1
  Zr  Zr63  1  0.89812559  0.67986494  0.87468437  1
  Zr  Zr64  1  0.89430701  0.88766346  0.60928872  1
  Zr  Zr65  1  0.89120133  0.08657262  0.88984576  1
  Zr  Zr66  1  -0.00264747  0.39647270  0.26098027  1
  Zr  Zr67  1  0.19769146  0.40782543  -0.00664725  1
  Zr  Zr68  1  0.09605981  0.89185209  0.62547110  1
  Zr  Zr69  1  0.29973096  0.51520858  0.88137936  1
  Zr  Zr70  1  0.40108537  0.00290392  0.24944786  1
  Zr  Zr71  1  0.08560503  0.91209765  0.36265121  1
  Zr  Zr72  1  0.80410938  0.38932970  0.26203840  1
  Zr  Zr73  1  -0.00767860  -0.00043409  0.74949247  1
  Zr  Zr74  1  0.09248786  0.11214988  0.36357467  1
  Zr  Zr75  1  0.50005384  0.69408836  0.88573786  1
  Zr  Zr76  1  0.69559413  0.89222183  0.61813325  1
  Zr  Zr77  1  0.29196397  0.70213257  0.37512072  1
  Zr  Zr78  1  0.91316541  0.29284609  0.62902787  1
  Zr  Zr79  1  0.80593536  -0.01441602  0.24045673  1
  Ta  Ta80  1  0.80224105  0.18507646  0.51193166  1
  Ta  Ta81  1  0.70445768  0.09816715  0.11368111  1
  Ta  Ta82  1  0.19553514  0.41383425  0.75339932  1
  Ta  Ta83  1  0.60843325  0.80160400  0.75894531  1
  Ta  Ta84  1  0.50936548  0.29779133  0.37768414  1
  Ta  Ta85  1  0.39210283  0.79957218  0.01491555  1
  Ta  Ta86  1  0.08748789  0.70330207  0.36515795  1
  Ta  Ta87  1  0.09139887  0.70358197  0.62871357  1
  Ta  Ta88  1  0.69394775  0.27866002  0.37995670  1
  Ta  Ta89  1  0.69837569  0.49624431  0.37514808  1
  Ta  Ta90  1  0.29881287  0.50149343  0.37972942  1
  Ta  Ta91  1  0.09818074  0.09942511  0.11861549  1
  Ta  Ta92  1  0.80300912  0.59968765  0.72474935  1
  Ta  Ta93  1  0.80206562  0.59632261  0.49986434  1
  Ta  Ta94  1  0.00172598  0.19318947  0.76566399  1
  Ta  Ta95  1  0.29697027  0.69978957  0.13611273  1
  Ta  Ta96  1  0.29541649  0.90846489  0.37905504  1
  Ta  Ta97  1  0.09463978  0.69916595  0.14910872  1
  Ta  Ta98  1  -0.00624421  0.19674019  0.23040595  1
  Ta  Ta99  1  0.70618699  0.69478043  0.36342931  1
  Ta  Ta100  1  0.58492345  0.19755117  0.74239159  1
  Ta  Ta101  1  0.90181573  0.70121023  0.60883773  1
  Ta  Ta102  1  0.60848715  0.19026174  0.51513209  1
  Ta  Ta103  1  0.19751956  0.80878673  0.25134665  1
  Ta  Ta104  1  0.89328872  0.89306879  0.38438691  1
  Ta  Ta105  1  0.70316635  0.89566659  0.12159262  1
  Ta  Ta106  1  0.30639542  0.10513980  0.61818594  1
  Ta  Ta107  1  0.40646407  0.20440070  0.24335930  1
  Ta  Ta108  1  0.50262556  0.91388075  0.61378542  1
  Ta  Ta109  1  0.08859759  0.51091256  0.37326032  1
  Ta  Ta110  1  0.59892368  0.59895058  0.74140440  1
  Ta  Ta111  1  0.80144368  0.79264176  0.75465424  1
  Ta  Ta112  1  0.90448465  0.69513443  0.38211535  1
  Ta  Ta113  1  0.40611964  0.59926857  0.26259403  1
  Ta  Ta114  1  0.51059680  0.10636891  0.13220418  1
  Ta  Ta115  1  -0.02290612  0.80537620  0.24669778  1
  Ta  Ta116  1  0.81055664  0.58821101  0.26595843  1
  Ta  Ta117  1  0.50652276  0.50312376  0.88779024  1
  Ta  Ta118  1  0.18641167  0.80329524  0.48610820  1
  Ta  Ta119  1  0.50378824  0.29996073  0.11855584  1
  Ti  Ti120  1  0.30298417  0.10155582  0.37185635  1
  Ti  Ti121  1  0.60515004  0.79488679  0.00181115  1
  Ti  Ti122  1  0.70031570  0.10373986  0.87370146  1
  Ti  Ti123  1  0.62331953  0.40750373  0.00884753  1
  Ti  Ti124  1  0.69636314  0.09465303  0.63394923  1
  Ti  Ti125  1  0.70854214  0.68799445  0.15457038  1
  Ti  Ti126  1  0.20691798  0.00309496  0.24086784  1
  Ti  Ti127  1  0.89339945  0.89278545  0.89545749  1
  Ti  Ti128  1  0.10134274  0.30452103  0.63972082  1
  Ti  Ti129  1  0.80773715  0.18757656  0.74598534  1
  Ti  Ti130  1  0.19846211  0.80654559  0.75189733  1
  Ti  Ti131  1  0.30326344  0.29965262  0.11589885  1
  Ti  Ti132  1  0.48262350  0.11720951  0.87699535  1
  Ti  Ti133  1  0.40226338  0.40455461  0.00242263  1
  Ti  Ti134  1  -0.01255973  0.79745376  0.75569475  1
  Ti  Ti135  1  0.79259246  0.79285216  0.48388190  1
  Ti  Ti136  1  0.70370040  0.70432833  0.62336788  1
  Ti  Ti137  1  0.50214219  0.49299770  0.38123631  1
  Ti  Ti138  1  0.90076213  0.68666780  0.13731603  1
  Ti  Ti139  1  0.20196048  0.01397468  0.00344521  1
  Ti  Ti140  1  0.80255362  0.58272466  0.00422738  1
  Ti  Ti141  1  0.00766398  0.40450240  0.50287687  1
  Ti  Ti142  1  0.89912174  0.08569892  0.10891487  1
  Ti  Ti143  1  0.78848922  0.00535977  0.50237240  1
  Ti  Ti144  1  0.00281353  0.40022220  0.76203501  1
  Ti  Ti145  1  0.09060791  0.11286844  0.62765245  1
  Ti  Ti146  1  0.29666248  0.90541882  0.88126945  1
  Ti  Ti147  1  0.40398529  0.80804440  0.48101986  1
  Ti  Ti148  1  0.70721818  0.30223153  0.12182394  1
  Ti  Ti149  1  0.18629875  0.61148991  0.00652833  1
  Ti  Ti150  1  0.39344552  0.19078829  0.01950749  1
  Ti  Ti151  1  0.30336997  0.30000612  0.62356500  1
  Ti  Ti152  1  0.70316232  0.69414646  0.86367660  1
  Ti  Ti153  1  0.69431359  0.92203853  0.37364870  1
  Ti  Ti154  1  0.19914910  0.60126001  0.25703839  1
  Ti  Ti155  1  0.89569896  0.29813676  0.11580428  1
  Ti  Ti156  1  0.70636722  0.89358869  0.88595845  1
  Ti  Ti157  1  0.82524536  0.41100057  0.74274403  1
  Ti  Ti158  1  0.80091702  0.21136301  -0.00791157  1
  Ti  Ti159  1  0.41392929  0.00508698  0.48872735  1
  Mo  Mo160  1  0.00000754  0.79644887  0.48617859  1
  Mo  Mo161  1  0.40069560  0.40118383  0.48221441  1
  Mo  Mo162  1  0.49895846  0.90826719  0.38160122  1
  Mo  Mo163  1  0.79342241  -0.00975030  0.00468794  1
  Mo  Mo164  1  0.89291858  0.89004523  0.11266012  1
  Mo  Mo165  1  0.20749534  0.19305182  0.01006400  1
  Mo  Mo166  1  0.70907565  0.10034057  0.37925914  1
  Mo  Mo167  1  0.60301004  0.00770184  0.50921388  1
  Mo  Mo168  1  0.00211777  0.59795683  -0.00008321  1
  Mo  Mo169  1  0.79940049  0.79260324  0.25548289  1
  Mo  Mo170  1  0.89665845  0.29416310  0.85629816  1
  Mo  Mo171  1  0.79388213  0.39521840  -0.00046302  1
  Mo  Mo172  1  0.50231216  0.10061487  0.62659953  1
  Mo  Mo173  1  0.50321691  0.69662629  0.36071373  1
  Mo  Mo174  1  0.60224308  0.39366173  0.47942638  1
  Mo  Mo175  1  0.30002587  0.10388177  0.13596976  1
  Mo  Mo176  1  0.70997526  0.50079048  0.14446772  1
  Mo  Mo177  1  0.30072646  0.10419963  0.88145149  1
  Mo  Mo178  1  0.39616238  0.60889827  0.00945036  1
  Mo  Mo179  1  -0.00108679  0.59659141  0.51052970  1
  Mo  Mo180  1  0.09774899  0.30350839  0.36913301  1
  Mo  Mo181  1  -0.00932403  0.00545819  0.23172881  1
  Mo  Mo182  1  0.58570491  0.41079310  0.75532773  1
  Mo  Mo183  1  0.60271432  0.59613148  0.26384113  1
  Mo  Mo184  1  0.09809323  0.50784886  0.87062074  1
  Mo  Mo185  1  0.29113614  0.90129559  0.13211049  1
  Mo  Mo186  1  0.90219282  0.50025442  0.39579554  1
  Mo  Mo187  1  0.40134003  0.20192855  0.73533337  1
  Mo  Mo188  1  0.89239020  0.09815856  0.62904894  1
  Mo  Mo189  1  0.61252693  0.00460853  0.23447485  1
  Mo  Mo190  1  0.89114875  0.49900972  0.87270486  1
  Mo  Mo191  1  -0.00600558  0.60244237  0.25723293  1
  Mo  Mo192  1  0.10448496  0.10078250  0.89569676  1
  Mo  Mo193  1  0.90117176  0.49684673  0.60889019  1
  Mo  Mo194  1  0.09994297  0.49021692  0.62966075  1
  Mo  Mo195  1  0.00418013  0.20359238  0.51392361  1
  Mo  Mo196  1  0.50387015  0.50231501  0.61597089  1
  Mo  Mo197  1  0.60929740  0.20590108  0.23034092  1
  Mo  Mo198  1  0.19852476  0.59965608  0.73011380  1
  Mo  Mo199  1  -0.00320740  -0.00455442  0.01039964  1
