# generated using pymatgen
data_HfZrTaTiMo
_symmetry_space_group_name_H-M   'P 1'
_cell_length_a   15.84162835
_cell_length_b   15.83319001
_cell_length_c   15.41848344
_cell_angle_alpha   89.96562322
_cell_angle_beta   89.96257249
_cell_angle_gamma   90.11839013
_symmetry_Int_Tables_number   1
_chemical_formula_structural   HfZrTaTiMo
_chemical_formula_sum   'Hf40 Zr40 Ta40 Ti40 Mo40'
_cell_volume   3867.30838274
_cell_formula_units_Z   40
loop_
 _symmetry_equiv_pos_site_id
 _symmetry_equiv_pos_as_xyz
  1  'x, y, z'
loop_
 _atom_site_type_symbol
 _atom_site_label
 _atom_site_symmetry_multiplicity
 _atom_site_fract_x
 _atom_site_fract_y
 _atom_site_fract_z
 _atom_site_occupancy
  Hf  Hf0  1  0.89275455  0.69753165  0.13115645  1
  Hf  Hf1  1  -0.00230177  0.80574353  0.24412955  1
  Hf  Hf2  1  0.69675521  0.29770320  0.88935315  1
  Hf  Hf3  1  0.39170222  0.79601979  0.73117260  1
  Hf  Hf4  1  0.48394827  0.30902493  0.36964904  1
  Hf  Hf5  1  0.70342452  0.30353514  0.12391131  1
  Hf  Hf6  1  0.49643750  0.09440494  0.11371583  1
  Hf  Hf7  1  0.21186226  0.39645589  0.24837579  1
  Hf  Hf8  1  0.49396961  0.29068638  0.88532902  1
  Hf  Hf9  1  0.59961023  0.59525131  0.73751706  1
  Hf  Hf10  1  0.70120685  0.49997062  0.88202876  1
  Hf  Hf11  1  0.49477229  0.89428451  0.87792872  1
  Hf  Hf12  1  0.01906466  0.00011306  0.01639587  1
  Hf  Hf13  1  0.70040089  0.70020150  0.61137287  1
  Hf  Hf14  1  0.11464081  0.71613072  0.86211254  1
  Hf  Hf15  1  0.79879644  0.39957540  0.26664726  1
  Hf  Hf16  1  0.91215889  0.70683568  0.38007103  1
  Hf  Hf17  1  0.91067776  0.50252552  0.60343984  1
  Hf  Hf18  1  0.08944708  0.09908636  0.63979868  1
  Hf  Hf19  1  0.20562350  0.20725400  0.75033700  1
  Hf  Hf20  1  -0.00433358  0.19642575  0.00158325  1
  Hf  Hf21  1  0.30664277  0.09591667  0.87774153  1
  Hf  Hf22  1  0.80255165  0.20698950  0.48945780  1
  Hf  Hf23  1  0.49497012  0.30760834  0.12442014  1
  Hf  Hf24  1  0.19977552  -0.00745816  0.74392544  1
  Hf  Hf25  1  0.59051471  0.79702952  0.00439682  1
  Hf  Hf26  1  0.69258154  0.69822818  0.13418406  1
  Hf  Hf27  1  0.89183891  0.90642817  0.12781125  1
  Hf  Hf28  1  0.08785734  0.90632512  0.37230528  1
  Hf  Hf29  1  0.58655894  0.59694186  0.00452886  1
  Hf  Hf30  1  0.79828876  0.79818155  -0.00407478  1
  Hf  Hf31  1  0.10269645  0.30678795  0.88579557  1
  Hf  Hf32  1  0.29066481  0.88666957  0.87760874  1
  Hf  Hf33  1  0.60383831  0.41473541  0.26136086  1
  Hf  Hf34  1  0.69553495  0.10578606  0.61760230  1
  Hf  Hf35  1  0.10174685  0.10189465  0.36869145  1
  Hf  Hf36  1  0.39760597  0.40155969  0.75755046  1
  Hf  Hf37  1  0.17822367  0.78423909  0.50410579  1
  Hf  Hf38  1  0.68443268  0.88945187  0.61289793  1
  Hf  Hf39  1  0.01959162  0.38064774  0.50432473  1
  Zr  Zr40  1  0.19741200  0.01007274  0.51513974  1
  Zr  Zr41  1  0.79457199  0.20248971  0.75605732  1
  Zr  Zr42  1  0.90804162  0.09530159  0.36307539  1
  Zr  Zr43  1  0.80689283  0.19630792  0.00156174  1
  Zr  Zr44  1  0.79005683  0.59929385  0.27052824  1
  Zr  Zr45  1  0.29741829  0.68910943  0.37059247  1
  Zr  Zr46  1  0.50069619  0.29270610  0.62155577  1
  Zr  Zr47  1  0.80586562  0.80470758  0.74652093  1
  Zr  Zr48  1  0.10766431  0.50076895  0.12007352  1
  Zr  Zr49  1  0.00376165  0.60388732  0.74025698  1
  Zr  Zr50  1  0.00197738  0.60375993  0.00511345  1
  Zr  Zr51  1  0.48033693  0.69108085  0.86517704  1
  Zr  Zr52  1  0.10515381  0.51625397  0.87613717  1
  Zr  Zr53  1  0.49744172  0.09513532  0.88100058  1
  Zr  Zr54  1  0.80988458  0.60119604  0.74322078  1
  Zr  Zr55  1  0.38249128  0.19824703  0.24561462  1
  Zr  Zr56  1  0.49779628  0.09961123  0.63001723  1
  Zr  Zr57  1  0.28825429  0.90651449  0.37484848  1
  Zr  Zr58  1  0.11486889  0.50593461  0.38401749  1
  Zr  Zr59  1  0.30989692  0.70376389  0.14790615  1
  Zr  Zr60  1  0.50264477  0.49416105  0.60429239  1
  Zr  Zr61  1  0.59558905  -0.01312940  0.74609170  1
  Zr  Zr62  1  0.60662392  0.20031437  0.25255080  1
  Zr  Zr63  1  -0.00763520  0.20385871  0.75988870  1
  Zr  Zr64  1  0.29966789  0.29617352  0.10051204  1
  Zr  Zr65  1  0.60713292  -0.00918887  0.25033189  1
  Zr  Zr66  1  0.49315531  0.09454878  0.37457400  1
  Zr  Zr67  1  0.80230272  -0.00206470  0.74682878  1
  Zr  Zr68  1  0.61400449  0.39437055  0.47944862  1
  Zr  Zr69  1  0.60765381  0.39304814  0.74453327  1
  Zr  Zr70  1  0.69022412  0.70497944  0.86529155  1
  Zr  Zr71  1  0.91257056  0.49803019  0.39128220  1
  Zr  Zr72  1  0.10291900  0.30131585  0.11292334  1
  Zr  Zr73  1  0.20884883  0.41555778  0.76279178  1
  Zr  Zr74  1  0.38445892  0.00210032  0.25010145  1
  Zr  Zr75  1  0.39709590  0.79710928  0.49816022  1
  Zr  Zr76  1  0.29514498  0.31795666  0.61304760  1
  Zr  Zr77  1  0.49071051  0.88341895  0.13429919  1
  Zr  Zr78  1  0.38098842  0.18606205  0.49773465  1
  Zr  Zr79  1  0.80951228  0.40565626  0.75194083  1
  Ta  Ta80  1  0.80465667  0.60735124  0.49576133  1
  Ta  Ta81  1  0.10572786  0.70248079  0.13582390  1
  Ta  Ta82  1  0.79938694  0.00073213  0.50270480  1
  Ta  Ta83  1  0.78790132  0.80891411  0.26647925  1
  Ta  Ta84  1  0.70276514  0.09446667  0.37992089  1
  Ta  Ta85  1  0.90930326  0.90142193  0.88465766  1
  Ta  Ta86  1  0.70992630  0.49803651  0.60136909  1
  Ta  Ta87  1  0.50142762  0.49997983  0.86933211  1
  Ta  Ta88  1  0.31403147  0.48975511  0.38834948  1
  Ta  Ta89  1  0.00571251  0.40311441  0.74275579  1
  Ta  Ta90  1  0.21733163  0.61899801  0.00725490  1
  Ta  Ta91  1  0.21403779  0.41865713  -0.01155605  1
  Ta  Ta92  1  0.49703716  0.69001929  0.15669691  1
  Ta  Ta93  1  0.80387286  0.59722911  -0.00395180  1
  Ta  Ta94  1  0.90041215  0.30049127  0.62001049  1
  Ta  Ta95  1  0.69331004  0.09097799  0.88689418  1
  Ta  Ta96  1  0.18314471  0.20861627  0.51176291  1
  Ta  Ta97  1  0.00077798  0.19432103  0.50729708  1
  Ta  Ta98  1  0.00594591  0.80276038  0.00806062  1
  Ta  Ta99  1  0.00450526  0.40093110  0.25033758  1
  Ta  Ta100  1  0.70091551  0.50415178  0.12184100  1
  Ta  Ta101  1  0.90928055  0.70329642  0.87923419  1
  Ta  Ta102  1  0.19094403  0.80759691  0.01310702  1
  Ta  Ta103  1  0.80976540  0.40820616  0.00501971  1
  Ta  Ta104  1  0.00579816  0.59897284  0.24944519  1
  Ta  Ta105  1  0.49658462  0.89546928  0.38013296  1
  Ta  Ta106  1  0.39571523  0.59780318  0.72206857  1
  Ta  Ta107  1  0.39330984  -0.00406012  0.51169266  1
  Ta  Ta108  1  0.07534258  0.88544118  0.63729481  1
  Ta  Ta109  1  0.31549803  0.53217821  0.88052903  1
  Ta  Ta110  1  0.11990324  0.49925581  0.61552125  1
  Ta  Ta111  1  0.89657836  0.90699489  0.37739449  1
  Ta  Ta112  1  0.51303754  0.71027301  0.61477940  1
  Ta  Ta113  1  0.60286124  0.79242373  0.27346669  1
  Ta  Ta114  1  0.91212268  0.29399439  0.36691897  1
  Ta  Ta115  1  0.90169124  0.30495387  0.13582239  1
  Ta  Ta116  1  0.29313628  0.89800729  0.12348294  1
  Ta  Ta117  1  0.28815713  0.29782914  0.38302462  1
  Ta  Ta118  1  0.40580444  0.41600878  -0.00607881  1
  Ta  Ta119  1  0.60221783  0.19959418  0.48481172  1
  Ti  Ti120  1  0.79896622  0.19824722  0.25209460  1
  Ti  Ti121  1  0.10117480  0.29226578  0.36291346  1
  Ti  Ti122  1  0.59349559  -0.00384406  0.49554167  1
  Ti  Ti123  1  0.60117389  0.19339870  0.00814096  1
  Ti  Ti124  1  0.18985757  0.17999390  -0.00819091  1
  Ti  Ti125  1  0.39392371  -0.00501525  0.73321650  1
  Ti  Ti126  1  0.70368123  0.09033011  0.11876126  1
  Ti  Ti127  1  0.19571297  0.80403254  0.25165037  1
  Ti  Ti128  1  0.90258740  0.08741183  0.87524045  1
  Ti  Ti129  1  0.28969535  0.09262661  0.10300640  1
  Ti  Ti130  1  0.90261744  0.31454314  0.88001365  1
  Ti  Ti131  1  0.39472542  -0.01347507  0.00504231  1
  Ti  Ti132  1  0.20348325  0.59339560  0.24670140  1
  Ti  Ti133  1  0.69673367  0.89877196  0.12122500  1
  Ti  Ti134  1  0.18809258  0.00398346  0.23287932  1
  Ti  Ti135  1  0.30638574  0.29320486  0.88925650  1
  Ti  Ti136  1  0.79983389  0.80674005  0.48901163  1
  Ti  Ti137  1  0.02734190  0.62449942  0.50447328  1
  Ti  Ti138  1  0.59799773  0.40656449  0.00687773  1
  Ti  Ti139  1  0.70698297  0.30333204  0.61626302  1
  Ti  Ti140  1  0.89649704  0.49929575  0.13495584  1
  Ti  Ti141  1  0.49695188  0.50497547  0.14338866  1
  Ti  Ti142  1  0.20190093  0.19262460  0.24138422  1
  Ti  Ti143  1  -0.00767138  -0.00447661  0.51323158  1
  Ti  Ti144  1  0.28861316  0.89298944  0.61869877  1
  Ti  Ti145  1  0.38712399  0.77843683  0.00069352  1
  Ti  Ti146  1  0.60018877  0.19724576  0.75625281  1
  Ti  Ti147  1  0.21766114  0.61582024  0.72836445  1
  Ti  Ti148  1  0.31557423  0.50404849  0.12512190  1
  Ti  Ti149  1  0.69484187  0.90119753  0.87731263  1
  Ti  Ti150  1  0.91784618  0.72413761  0.61101358  1
  Ti  Ti151  1  0.09352122  0.90055831  0.86384550  1
  Ti  Ti152  1  -0.00661309  0.40877331  0.00256074  1
  Ti  Ti153  1  0.79390059  -0.00166495  0.25598600  1
  Ti  Ti154  1  0.40628072  0.60115104  0.50015557  1
  Ti  Ti155  1  0.79729692  -0.00157862  -0.00317072  1
  Ti  Ti156  1  0.89849533  0.09854147  0.13531951  1
  Ti  Ti157  1  0.89744822  0.09943292  0.62850157  1
  Ti  Ti158  1  0.00601305  0.19847362  0.23394299  1
  Ti  Ti159  1  0.09631648  0.08695308  0.86581183  1
  Mo  Mo160  1  0.69960874  0.90531434  0.38957924  1
  Mo  Mo161  1  0.70682735  0.29204574  0.36417300  1
  Mo  Mo162  1  0.28143825  0.10523464  0.37491349  1
  Mo  Mo163  1  -0.00339135  0.00479504  0.23491645  1
  Mo  Mo164  1  0.39618255  0.40256772  0.25071347  1
  Mo  Mo165  1  0.29920719  0.10267455  0.64540898  1
  Mo  Mo166  1  0.10390689  0.10320074  0.13237082  1
  Mo  Mo167  1  -0.00882313  -0.00457284  0.75073050  1
  Mo  Mo168  1  0.70171771  0.70386380  0.38939208  1
  Mo  Mo169  1  0.61117570  -0.00711087  0.00988822  1
  Mo  Mo170  1  0.10362708  0.69767918  0.35331849  1
  Mo  Mo171  1  0.40138308  0.79944109  0.26888785  1
  Mo  Mo172  1  0.59361868  0.79796906  0.75359337  1
  Mo  Mo173  1  0.20749183  0.59916107  0.50922277  1
  Mo  Mo174  1  0.19783705  0.80047780  0.73157239  1
  Mo  Mo175  1  0.10317432  0.89870529  0.13638859  1
  Mo  Mo176  1  -0.00798284  0.80356536  0.76062478  1
  Mo  Mo177  1  0.81139996  0.39668074  0.49091710  1
  Mo  Mo178  1  0.50078960  0.69569748  0.37230229  1
  Mo  Mo179  1  0.49481396  0.89748808  0.60900443  1
  Mo  Mo180  1  0.39901778  0.19636912  0.00734706  1
  Mo  Mo181  1  0.09579912  0.30300927  0.63830569  1
  Mo  Mo182  1  0.30212270  0.69681232  0.60729585  1
  Mo  Mo183  1  0.30292536  0.50426296  0.60569292  1
  Mo  Mo184  1  0.09995248  0.70153997  0.63777115  1
  Mo  Mo185  1  0.40282701  0.58676590  0.26256304  1
  Mo  Mo186  1  0.40324540  0.39697005  0.49188598  1
  Mo  Mo187  1  0.40369910  0.59912086  0.01641374  1
  Mo  Mo188  1  0.29600584  0.70281790  0.87326701  1
  Mo  Mo189  1  0.90408254  0.50056360  0.88201519  1
  Mo  Mo190  1  0.19949946  -0.00447888  -0.00163968  1
  Mo  Mo191  1  0.60260825  0.60311457  0.48657583  1
  Mo  Mo192  1  0.59944727  0.59914027  0.26833622  1
  Mo  Mo193  1  0.20050574  0.39570940  0.48761854  1
  Mo  Mo194  1  -0.00306542  0.80622987  0.48909371  1
  Mo  Mo195  1  0.39350979  0.20017667  0.74897276  1
  Mo  Mo196  1  0.59859490  0.79964786  0.47962721  1
  Mo  Mo197  1  0.89412833  0.90126260  0.60782060  1
  Mo  Mo198  1  0.70553158  0.50469620  0.39232196  1
  Mo  Mo199  1  0.49840073  0.50865939  0.37813747  1
