# generated using pymatgen
data_HfZrTaTiMo
_symmetry_space_group_name_H-M   'P 1'
_cell_length_a   15.84002478
_cell_length_b   15.82378892
_cell_length_c   15.42390289
_cell_angle_alpha   89.97470533
_cell_angle_beta   89.96852537
_cell_angle_gamma   89.99511089
_symmetry_Int_Tables_number   1
_chemical_formula_structural   HfZrTaTiMo
_chemical_formula_sum   'Hf40 Zr40 Ta40 Ti40 Mo40'
_cell_volume   3865.98807831
_cell_formula_units_Z   40
loop_
 _symmetry_equiv_pos_site_id
 _symmetry_equiv_pos_as_xyz
  1  'x, y, z'
loop_
 _atom_site_type_symbol
 _atom_site_label
 _atom_site_symmetry_multiplicity
 _atom_site_fract_x
 _atom_site_fract_y
 _atom_site_fract_z
 _atom_site_occupancy
  Hf  Hf0  1  0.29312464  0.30633567  0.37307028  1
  Hf  Hf1  1  -0.00617534  0.00312229  0.50770729  1
  Hf  Hf2  1  0.19354289  0.39163889  0.52842931  1
  Hf  Hf3  1  0.79208529  0.00195855  0.24102649  1
  Hf  Hf4  1  -0.01617078  0.80154837  -0.00613395  1
  Hf  Hf5  1  0.90272233  0.89735241  0.63840993  1
  Hf  Hf6  1  0.81941849  -0.01238229  0.01599109  1
  Hf  Hf7  1  0.79751780  0.80236951  0.26780730  1
  Hf  Hf8  1  0.68572158  0.90673108  0.61463005  1
  Hf  Hf9  1  0.69716961  0.69475476  0.12545860  1
  Hf  Hf10  1  0.20181040  0.79963428  0.76420737  1
  Hf  Hf11  1  0.00454236  0.21273132  0.51235859  1
  Hf  Hf12  1  0.90151844  0.10224182  0.37147605  1
  Hf  Hf13  1  0.80358821  0.60918220  -0.01830367  1
  Hf  Hf14  1  0.69284385  0.50286187  0.38782572  1
  Hf  Hf15  1  0.59949164  0.00491761  0.00908337  1
  Hf  Hf16  1  0.40087437  0.00269186  0.50077356  1
  Hf  Hf17  1  -0.00074098  0.21162274  0.24397574  1
  Hf  Hf18  1  0.10095411  0.89298463  0.62764279  1
  Hf  Hf19  1  0.80983518  0.39325581  0.26696101  1
  Hf  Hf20  1  0.91225908  0.90746126  0.85509182  1
  Hf  Hf21  1  0.20635422  0.19014649  0.50574435  1
  Hf  Hf22  1  0.80408704  0.80885973  0.49176288  1
  Hf  Hf23  1  0.59536612  -0.00796878  0.76707726  1
  Hf  Hf24  1  0.19393757  0.79635187  -0.01612673  1
  Hf  Hf25  1  0.79492273  0.01687110  0.73793828  1
  Hf  Hf26  1  0.49532812  0.30538061  0.38841096  1
  Hf  Hf27  1  0.39862909  0.40401689  0.74382750  1
  Hf  Hf28  1  0.69520097  0.29624026  0.12344687  1
  Hf  Hf29  1  0.70079933  0.50214585  0.62732029  1
  Hf  Hf30  1  0.39839026  0.19597985  0.50210540  1
  Hf  Hf31  1  0.19699845  0.58838797  0.24932570  1
  Hf  Hf32  1  0.39965265  0.39254746  -0.01619942  1
  Hf  Hf33  1  0.09784771  0.50477866  0.86465774  1
  Hf  Hf34  1  0.70192359  0.88569672  0.11810597  1
  Hf  Hf35  1  0.48975229  0.91342208  0.35980154  1
  Hf  Hf36  1  0.70862453  0.89277141  0.88581740  1
  Hf  Hf37  1  0.70036711  0.50203060  0.13639853  1
  Hf  Hf38  1  0.39810811  0.59094139  -0.00470540  1
  Hf  Hf39  1  0.90604917  0.10610519  0.88314965  1
  Zr  Zr40  1  0.59647812  0.39793376  -0.01308789  1
  Zr  Zr41  1  0.09355553  0.28950489  0.87017287  1
  Zr  Zr42  1  0.70261796  0.30822688  0.62859504  1
  Zr  Zr43  1  -0.00114389  0.38606906  0.73108497  1
  Zr  Zr44  1  0.31025955  0.90510505  0.64030135  1
  Zr  Zr45  1  0.49017463  0.08506632  0.64327512  1
  Zr  Zr46  1  0.90271499  0.50522886  0.85504520  1
  Zr  Zr47  1  0.11467411  0.31075772  0.12185973  1
  Zr  Zr48  1  0.19852714  0.78855942  0.24770923  1
  Zr  Zr49  1  0.58490885  0.80368575  0.75246596  1
  Zr  Zr50  1  0.21166990  0.19326358  -0.01305518  1
  Zr  Zr51  1  0.39626288  0.40671055  0.24611255  1
  Zr  Zr52  1  0.90562194  0.51113298  0.13110937  1
  Zr  Zr53  1  0.00007708  -0.00312203  0.23460485  1
  Zr  Zr54  1  0.59276538  0.79556129  0.25849486  1
  Zr  Zr55  1  0.11604312  0.08907767  0.62671013  1
  Zr  Zr56  1  0.70869421  0.10688203  0.89234202  1
  Zr  Zr57  1  0.90326057  0.70170211  0.64008613  1
  Zr  Zr58  1  0.80661586  0.59781976  0.49959446  1
  Zr  Zr59  1  0.60477779  0.59308477  -0.01543365  1
  Zr  Zr60  1  0.19922670  0.00273784  0.77464115  1
  Zr  Zr61  1  0.48644608  0.89747998  0.12569746  1
  Zr  Zr62  1  0.29993635  0.50111199  0.40108777  1
  Zr  Zr63  1  0.30614620  0.08847741  0.35672469  1
  Zr  Zr64  1  0.91047435  0.69826766  0.37235022  1
  Zr  Zr65  1  0.20978107  -0.01347191  0.22293778  1
  Zr  Zr66  1  0.29508367  0.69687522  0.11428105  1
  Zr  Zr67  1  0.59815087  0.60838354  0.73919125  1
  Zr  Zr68  1  0.59768672  0.18517565  0.50470716  1
  Zr  Zr69  1  0.60912688  0.19062838  0.74763804  1
  Zr  Zr70  1  0.80027118  0.40464332  -0.00731892  1
  Zr  Zr71  1  0.59617420  0.39913203  0.25725593  1
  Zr  Zr72  1  0.39790406  0.60513377  0.24804936  1
  Zr  Zr73  1  0.01154335  0.59788430  0.50892675  1
  Zr  Zr74  1  0.10707041  0.89982149  0.38440172  1
  Zr  Zr75  1  0.89551544  0.70280397  0.13263015  1
  Zr  Zr76  1  0.10816746  0.09963578  0.37264308  1
  Zr  Zr77  1  0.80465176  0.19692969  0.50381711  1
  Zr  Zr78  1  0.79185497  0.20076111  0.25507576  1
  Zr  Zr79  1  0.49337564  0.51068585  0.40614838  1
  Ta  Ta80  1  0.10819250  0.49737310  0.38590676  1
  Ta  Ta81  1  0.09587228  0.89429733  0.10623478  1
  Ta  Ta82  1  0.49816897  0.30182266  0.63075052  1
  Ta  Ta83  1  0.40521528  0.20174418  0.24990231  1
  Ta  Ta84  1  0.49858741  0.50130080  0.12226032  1
  Ta  Ta85  1  0.91540754  0.49586668  0.37190756  1
  Ta  Ta86  1  0.50018699  0.69656000  0.11586797  1
  Ta  Ta87  1  0.69391654  0.70710932  0.60782591  1
  Ta  Ta88  1  0.39975273  0.79633145  -0.00831866  1
  Ta  Ta89  1  0.60011750  0.01204131  0.23670939  1
  Ta  Ta90  1  0.68262465  0.69782812  0.39433595  1
  Ta  Ta91  1  0.49448942  0.69776602  0.87533118  1
  Ta  Ta92  1  0.28878849  0.48693458  0.11289575  1
  Ta  Ta93  1  0.81429104  0.39629913  0.49238148  1
  Ta  Ta94  1  0.49106870  0.09902568  0.88010480  1
  Ta  Ta95  1  0.39121294  0.80390161  0.49733917  1
  Ta  Ta96  1  0.20452652  0.39624424  0.74866671  1
  Ta  Ta97  1  0.30338966  0.69275484  0.86313871  1
  Ta  Ta98  1  0.49056248  0.70016752  0.39280564  1
  Ta  Ta99  1  0.81258877  0.20545948  0.73583308  1
  Ta  Ta100  1  0.89902873  0.70295060  0.85303574  1
  Ta  Ta101  1  0.00058390  0.40059632  0.51153934  1
  Ta  Ta102  1  0.30480731  0.29797842  0.12683787  1
  Ta  Ta103  1  0.49555165  0.11177789  0.12097585  1
  Ta  Ta104  1  0.10184446  0.50567495  0.10544502  1
  Ta  Ta105  1  0.30410951  0.28445001  0.64064384  1
  Ta  Ta106  1  0.89896421  0.10863677  0.12156767  1
  Ta  Ta107  1  0.49990549  0.50140342  0.85339186  1
  Ta  Ta108  1  0.00038471  0.40276682  -0.00316942  1
  Ta  Ta109  1  -0.00173049  0.20510792  0.01116158  1
  Ta  Ta110  1  0.10718097  0.69721651  0.64101280  1
  Ta  Ta111  1  0.10193176  0.31008141  0.37036131  1
  Ta  Ta112  1  -0.00266117  0.18602366  0.73374706  1
  Ta  Ta113  1  0.70674090  0.30331402  0.86285204  1
  Ta  Ta114  1  0.31171480  0.90173569  0.88040960  1
  Ta  Ta115  1  0.20829627  0.39819984  -0.02444897  1
  Ta  Ta116  1  0.00876434  0.79937796  0.24652630  1
  Ta  Ta117  1  0.01389021  0.41074085  0.24722960  1
  Ta  Ta118  1  0.20411984  0.78557378  0.50719756  1
  Ta  Ta119  1  0.59654694  0.19756305  0.25349822  1
  Ti  Ti120  1  0.01562315  0.60523006  0.25892643  1
  Ti  Ti121  1  0.29937219  0.50526736  0.86121327  1
  Ti  Ti122  1  0.39358652  0.00477595  0.00165345  1
  Ti  Ti123  1  0.19686855  0.59763165  -0.01330376  1
  Ti  Ti124  1  0.30037916  0.51253725  0.62276460  1
  Ti  Ti125  1  0.29638104  0.69143365  0.38875793  1
  Ti  Ti126  1  0.59427904  0.40274813  0.51458030  1
  Ti  Ti127  1  0.58331324  0.81216999  0.49670877  1
  Ti  Ti128  1  0.39987912  0.60954939  0.73584927  1
  Ti  Ti129  1  0.90608430  0.90581836  0.37161580  1
  Ti  Ti130  1  0.08799624  0.69097544  0.86058003  1
  Ti  Ti131  1  0.10492294  0.50681444  0.63991721  1
  Ti  Ti132  1  0.80153862  0.20650550  0.00801263  1
  Ti  Ti133  1  0.69539747  0.29980657  0.38704632  1
  Ti  Ti134  1  0.30725947  0.10365309  0.12496022  1
  Ti  Ti135  1  0.70230317  0.49686519  0.84648137  1
  Ti  Ti136  1  0.20250293  -0.00156868  -0.00354352  1
  Ti  Ti137  1  0.90139397  0.30993551  0.12151516  1
  Ti  Ti138  1  0.59682620  0.79243804  -0.01024301  1
  Ti  Ti139  1  0.59065289  0.60254691  0.25645466  1
  Ti  Ti140  1  0.48777401  0.71197319  0.61571492  1
  Ti  Ti141  1  0.89856038  0.29796307  0.87411998  1
  Ti  Ti142  1  0.09036881  0.69109146  0.10967913  1
  Ti  Ti143  1  0.20618267  0.19541097  0.75975180  1
  Ti  Ti144  1  0.78264668  0.79356450  0.75013056  1
  Ti  Ti145  1  0.39946849  0.20521150  -0.01296463  1
  Ti  Ti146  1  0.79496555  0.60128001  0.26842617  1
  Ti  Ti147  1  0.38751621  0.80015533  0.25115116  1
  Ti  Ti148  1  0.89104616  0.49700730  0.63693467  1
  Ti  Ti149  1  0.08537120  0.08836098  0.88293535  1
  Ti  Ti150  1  0.00648502  0.79481285  0.49457355  1
  Ti  Ti151  1  0.20253280  0.20247384  0.24376726  1
  Ti  Ti152  1  0.59472994  0.20542431  -0.00442866  1
  Ti  Ti153  1  0.10137912  0.10101344  0.11472588  1
  Ti  Ti154  1  0.79375455  0.00600533  0.50450189  1
  Ti  Ti155  1  0.68814603  0.09095186  0.38151291  1
  Ti  Ti156  1  0.49554343  0.30135675  0.12242822  1
  Ti  Ti157  1  0.68946384  0.90825545  0.38158715  1
  Ti  Ti158  1  0.29522188  0.89810786  0.37908158  1
  Ti  Ti159  1  0.50428903  0.29628963  0.85472630  1
  Mo  Mo160  1  0.20039152  0.60164098  0.51848127  1
  Mo  Mo161  1  0.39206547  0.61374749  0.52338203  1
  Mo  Mo162  1  0.00580329  0.60298721  -0.00618674  1
  Mo  Mo163  1  0.50189729  0.10077898  0.35466747  1
  Mo  Mo164  1  0.59699106  0.39946917  0.75148053  1
  Mo  Mo165  1  0.69886840  0.09419559  0.61484366  1
  Mo  Mo166  1  0.30722678  0.09842257  0.87448091  1
  Mo  Mo167  1  0.09845354  0.90500630  0.88952769  1
  Mo  Mo168  1  0.40490871  0.79899924  0.76671969  1
  Mo  Mo169  1  0.49607110  0.89451769  0.61604108  1
  Mo  Mo170  1  0.00919508  0.80168073  0.76288092  1
  Mo  Mo171  1  0.30173430  0.70431976  0.63887473  1
  Mo  Mo172  1  0.59517717  -0.00256449  0.48862038  1
  Mo  Mo173  1  0.80032097  0.39650472  0.75482790  1
  Mo  Mo174  1  0.59288143  0.60875712  0.51776875  1
  Mo  Mo175  1  0.90246056  0.89527981  0.13853721  1
  Mo  Mo176  1  0.49545116  0.50145717  0.62533704  1
  Mo  Mo177  1  0.30483240  0.10052082  0.64835917  1
  Mo  Mo178  1  0.39872880  0.00267552  0.22596785  1
  Mo  Mo179  1  0.21113522  -0.01300786  0.50201387  1
  Mo  Mo180  1  0.11027517  0.69382597  0.38312984  1
  Mo  Mo181  1  0.39809168  0.39738427  0.52979228  1
  Mo  Mo182  1  0.19822814  0.40289674  0.24807508  1
  Mo  Mo183  1  0.30307187  0.29873650  0.85748766  1
  Mo  Mo184  1  0.79455651  0.60717452  0.74561204  1
  Mo  Mo185  1  0.79893911  0.79322518  -0.01345516  1
  Mo  Mo186  1  0.29578554  0.90001581  0.09882825  1
  Mo  Mo187  1  0.39903413  0.19736939  0.76126002  1
  Mo  Mo188  1  0.90041636  0.30227756  0.62193280  1
  Mo  Mo189  1  0.20566909  0.59630022  0.74716133  1
  Mo  Mo190  1  0.91437922  0.30855183  0.37770064  1
  Mo  Mo191  1  0.90165131  0.09797879  0.61823040  1
  Mo  Mo192  1  0.70074350  0.70101717  0.87382931  1
  Mo  Mo193  1  0.00085690  0.00466056  0.74187996  1
  Mo  Mo194  1  0.00195357  0.59889329  0.73532010  1
  Mo  Mo195  1  0.49968502  0.89992869  0.90006957  1
  Mo  Mo196  1  0.00632709  0.00530845  0.01518773  1
  Mo  Mo197  1  0.10925425  0.29316843  0.64048643  1
  Mo  Mo198  1  0.40540047  -0.00780700  0.77220894  1
  Mo  Mo199  1  0.69473081  0.10679625  0.11442039  1
