# generated using pymatgen
data_HfZrTaTiMo
_symmetry_space_group_name_H-M   'P 1'
_cell_length_a   15.83148554
_cell_length_b   15.84768647
_cell_length_c   15.39499149
_cell_angle_alpha   89.95001226
_cell_angle_beta   89.96280222
_cell_angle_gamma   90.00321610
_symmetry_Int_Tables_number   1
_chemical_formula_structural   HfZrTaTiMo
_chemical_formula_sum   'Hf40 Zr40 Ta40 Ti40 Mo40'
_cell_volume   3862.48436833
_cell_formula_units_Z   40
loop_
 _symmetry_equiv_pos_site_id
 _symmetry_equiv_pos_as_xyz
  1  'x, y, z'
loop_
 _atom_site_type_symbol
 _atom_site_label
 _atom_site_symmetry_multiplicity
 _atom_site_fract_x
 _atom_site_fract_y
 _atom_site_fract_z
 _atom_site_occupancy
  Hf  Hf0  1  0.88865845  0.09241577  0.13834138  1
  Hf  Hf1  1  0.39534042  0.59414494  0.51459266  1
  Hf  Hf2  1  0.00618446  -0.01199237  0.25679582  1
  Hf  Hf3  1  0.90474712  0.09428501  0.62862717  1
  Hf  Hf4  1  0.69078552  0.29150817  0.86193975  1
  Hf  Hf5  1  0.09337181  0.48763228  0.62903554  1
  Hf  Hf6  1  0.79933758  -0.00115326  -0.01963045  1
  Hf  Hf7  1  0.50648147  0.70953231  0.62068802  1
  Hf  Hf8  1  0.00217253  0.59468126  0.24145106  1
  Hf  Hf9  1  0.91053780  0.89992585  0.11379755  1
  Hf  Hf10  1  0.89808459  0.68656825  0.37639155  1
  Hf  Hf11  1  0.61022052  0.01307323  -0.00668326  1
  Hf  Hf12  1  0.78322941  0.59060300  0.23564257  1
  Hf  Hf13  1  0.49590024  0.31309962  0.12274394  1
  Hf  Hf14  1  0.00281953  0.79945941  0.25962559  1
  Hf  Hf15  1  -0.00588784  0.59743649  0.51193916  1
  Hf  Hf16  1  0.90474873  0.09868207  0.37354858  1
  Hf  Hf17  1  0.09365355  0.29958050  0.36995860  1
  Hf  Hf18  1  0.19995004  0.59815595  0.51473935  1
  Hf  Hf19  1  0.09781380  0.89764026  0.61986286  1
  Hf  Hf20  1  0.80373304  0.21335859  0.49989255  1
  Hf  Hf21  1  0.80848573  -0.00580472  0.49899610  1
  Hf  Hf22  1  0.09880153  0.49967720  0.37103942  1
  Hf  Hf23  1  0.60048324  0.79434497  0.23199147  1
  Hf  Hf24  1  0.19556821  0.39914456  -0.00555229  1
  Hf  Hf25  1  0.60733875  0.80915214  0.00959545  1
  Hf  Hf26  1  0.69750318  0.10749162  0.63156877  1
  Hf  Hf27  1  0.79487679  -0.01966340  0.75472219  1
  Hf  Hf28  1  0.80429328  0.39163678  -0.00990786  1
  Hf  Hf29  1  0.41624335  0.58444769  0.75610221  1
  Hf  Hf30  1  0.49851185  0.70495230  0.88433262  1
  Hf  Hf31  1  0.69892242  0.89390321  0.61679711  1
  Hf  Hf32  1  0.29840505  0.70358230  0.86280991  1
  Hf  Hf33  1  0.20560198  0.59219934  0.00411577  1
  Hf  Hf34  1  0.88434379  0.47883909  0.36569451  1
  Hf  Hf35  1  0.60824455  0.80719841  0.75663320  1
  Hf  Hf36  1  0.10819961  0.10403421  0.87106163  1
  Hf  Hf37  1  0.59687804  0.61037538  0.22837069  1
  Hf  Hf38  1  0.40638231  0.00514144  0.74266332  1
  Hf  Hf39  1  0.69868534  0.89582177  0.37284482  1
  Zr  Zr40  1  0.89790318  0.10713419  0.86136646  1
  Zr  Zr41  1  0.91287405  0.48291453  0.12218181  1
  Zr  Zr42  1  0.30561151  0.89702114  0.87059628  1
  Zr  Zr43  1  0.20036138  0.79127485  0.00760645  1
  Zr  Zr44  1  0.31012575  0.48014829  0.64270110  1
  Zr  Zr45  1  0.19960001  0.20555883  0.01937134  1
  Zr  Zr46  1  0.71402142  0.92003180  0.14312694  1
  Zr  Zr47  1  0.30277785  0.68865149  0.36875095  1
  Zr  Zr48  1  0.70111779  0.10247688  0.36479381  1
  Zr  Zr49  1  0.18798833  -0.01246151  0.00429150  1
  Zr  Zr50  1  0.49284031  0.49850613  0.11108891  1
  Zr  Zr51  1  0.00935776  0.59744715  -0.01578037  1
  Zr  Zr52  1  0.89678108  0.29922965  0.64145531  1
  Zr  Zr53  1  0.10316678  0.10361633  0.61512855  1
  Zr  Zr54  1  0.09488916  0.32350513  0.14387299  1
  Zr  Zr55  1  0.80239749  0.59666666  -0.00909474  1
  Zr  Zr56  1  -0.00056662  0.20335580  0.00509876  1
  Zr  Zr57  1  0.40299104  0.19934243  0.74484483  1
  Zr  Zr58  1  0.39816804  0.79719704  0.23902853  1
  Zr  Zr59  1  0.49366253  0.51203700  0.37119085  1
  Zr  Zr60  1  0.80319722  0.79336588  0.25447733  1
  Zr  Zr61  1  0.49706549  0.90502336  0.38124712  1
  Zr  Zr62  1  0.80074750  0.60843167  0.75629084  1
  Zr  Zr63  1  0.50457937  0.70577018  0.38825369  1
  Zr  Zr64  1  0.90114489  0.70246214  0.11289150  1
  Zr  Zr65  1  0.60699634  0.40999059  0.25811741  1
  Zr  Zr66  1  0.19741016  0.80593202  0.24691580  1
  Zr  Zr67  1  0.20472006  0.79161018  0.50283415  1
  Zr  Zr68  1  0.49761517  0.30245264  0.88803417  1
  Zr  Zr69  1  0.19667382  0.59632364  0.75083266  1
  Zr  Zr70  1  0.30337210  0.09996013  0.88129727  1
  Zr  Zr71  1  0.79345761  0.58554650  0.51340790  1
  Zr  Zr72  1  0.20744772  0.40112896  0.49046765  1
  Zr  Zr73  1  0.78783123  0.19330418  0.00716203  1
  Zr  Zr74  1  0.10440144  0.09938788  0.38194291  1
  Zr  Zr75  1  0.60643343  0.22094349  0.49121783  1
  Zr  Zr76  1  0.00293716  -0.01119413  0.75667617  1
  Zr  Zr77  1  0.30291674  0.08780072  0.13278055  1
  Zr  Zr78  1  0.49288695  0.31702641  0.62026470  1
  Zr  Zr79  1  0.49947045  0.92467192  0.13079699  1
  Ta  Ta80  1  0.59139664  0.00389047  0.74954272  1
  Ta  Ta81  1  0.57596728  0.41465512  0.76163196  1
  Ta  Ta82  1  0.60067948  0.60332917  0.75104825  1
  Ta  Ta83  1  0.50620076  0.10909031  0.88139270  1
  Ta  Ta84  1  0.80517033  0.78989603  0.49425677  1
  Ta  Ta85  1  0.69269381  0.69122889  0.38667271  1
  Ta  Ta86  1  0.40379504  0.20053722  0.24066516  1
  Ta  Ta87  1  -0.00676893  0.60189850  0.75781598  1
  Ta  Ta88  1  0.69172373  0.49038541  0.64453194  1
  Ta  Ta89  1  0.20906134  0.00242043  0.73569335  1
  Ta  Ta90  1  0.49368997  0.11044498  0.38542113  1
  Ta  Ta91  1  0.21279731  -0.00268008  0.49825623  1
  Ta  Ta92  1  0.60222115  0.00585702  0.49545509  1
  Ta  Ta93  1  0.39727813  0.20360679  0.01572300  1
  Ta  Ta94  1  0.20083130  0.59707957  0.23281458  1
  Ta  Ta95  1  0.30759352  0.90108485  0.62305628  1
  Ta  Ta96  1  0.20382759  0.19798915  0.24626657  1
  Ta  Ta97  1  0.90683889  0.87241285  0.62297980  1
  Ta  Ta98  1  0.69810759  0.70263364  0.87984277  1
  Ta  Ta99  1  0.29485633  0.29560129  0.86773088  1
  Ta  Ta100  1  0.09666250  0.89769076  0.39751162  1
  Ta  Ta101  1  0.89688412  0.29415188  0.86264087  1
  Ta  Ta102  1  0.80258141  0.80590232  -0.01918189  1
  Ta  Ta103  1  0.59361475  0.20623011  0.25027358  1
  Ta  Ta104  1  0.68662107  0.49967417  0.87691777  1
  Ta  Ta105  1  0.89682521  0.49348981  0.64130114  1
  Ta  Ta106  1  0.10060655  0.69457827  0.37643297  1
  Ta  Ta107  1  0.50042327  0.90821181  0.88262838  1
  Ta  Ta108  1  0.29647383  0.29629510  0.62865855  1
  Ta  Ta109  1  0.00842516  0.80315338  -0.02141399  1
  Ta  Ta110  1  0.30364541  0.70734475  0.64273571  1
  Ta  Ta111  1  0.50091024  0.10664790  0.60428132  1
  Ta  Ta112  1  0.30762753  0.10483807  0.37819535  1
  Ta  Ta113  1  0.30414109  0.30034203  0.35787119  1
  Ta  Ta114  1  0.89665303  0.29844722  0.14067367  1
  Ta  Ta115  1  0.08489227  0.71083274  0.64029774  1
  Ta  Ta116  1  0.60858207  0.41332737  0.49192908  1
  Ta  Ta117  1  0.00228306  0.39967239  0.76443155  1
  Ta  Ta118  1  0.50240097  0.90655439  0.60934324  1
  Ta  Ta119  1  0.20963159  0.20555937  0.49559476  1
  Ti  Ti120  1  0.49491160  0.30340986  0.37068535  1
  Ti  Ti121  1  0.11196920  0.88408103  0.85269112  1
  Ti  Ti122  1  0.29623567  0.47848878  0.14046642  1
  Ti  Ti123  1  0.39565152  0.60200413  0.22924922  1
  Ti  Ti124  1  0.79772187  0.20896023  0.25300473  1
  Ti  Ti125  1  0.69374731  0.48932997  0.10297306  1
  Ti  Ti126  1  0.39404546  0.80532194  0.49948934  1
  Ti  Ti127  1  0.59740316  0.19893257  0.01916673  1
  Ti  Ti128  1  0.00342437  -0.00457051  -0.01134383  1
  Ti  Ti129  1  0.38328214  0.40578071  -0.01282190  1
  Ti  Ti130  1  0.79763008  0.40500065  0.76315505  1
  Ti  Ti131  1  0.20181587  0.19731909  0.73902581  1
  Ti  Ti132  1  0.69041868  0.09846825  0.15170115  1
  Ti  Ti133  1  0.60346617  0.59532566  0.51708711  1
  Ti  Ti134  1  0.39021975  0.59944020  -0.00058246  1
  Ti  Ti135  1  0.69860814  0.30400078  0.12798886  1
  Ti  Ti136  1  0.39776164  0.40186701  0.48332043  1
  Ti  Ti137  1  0.00045848  0.19837079  0.24722648  1
  Ti  Ti138  1  0.09737819  0.70301086  0.12453338  1
  Ti  Ti139  1  0.10156413  0.30087767  0.61967036  1
  Ti  Ti140  1  0.09621230  0.08809199  0.13147886  1
  Ti  Ti141  1  0.39930795  0.00424325  0.26251529  1
  Ti  Ti142  1  0.01229636  0.20789375  0.75056253  1
  Ti  Ti143  1  0.40086186  0.79767015  0.01470088  1
  Ti  Ti144  1  0.00255463  0.39551980  -0.02304179  1
  Ti  Ti145  1  0.19528317  0.38727494  0.76086630  1
  Ti  Ti146  1  0.41051036  0.80801504  0.74629432  1
  Ti  Ti147  1  0.20362344  -0.00794353  0.26267755  1
  Ti  Ti148  1  0.40589844  0.00688267  0.00095139  1
  Ti  Ti149  1  0.71801210  0.32046974  0.36489313  1
  Ti  Ti150  1  0.70884444  0.70561581  0.62636767  1
  Ti  Ti151  1  0.29806697  0.90109387  0.12486129  1
  Ti  Ti152  1  0.79134197  0.39830004  0.51363424  1
  Ti  Ti153  1  -0.00252565  0.20476859  0.50026050  1
  Ti  Ti154  1  0.69262598  0.10882634  0.85144583  1
  Ti  Ti155  1  -0.01697372  0.39108046  0.49781186  1
  Ti  Ti156  1  0.69091743  0.30327375  0.64822373  1
  Ti  Ti157  1  0.10361765  0.49771966  0.86618785  1
  Ti  Ti158  1  0.30919629  0.10376482  0.60512580  1
  Ti  Ti159  1  0.59762648  0.60564662  0.00400609  1
  Mo  Mo160  1  0.90184573  0.70229667  0.87898788  1
  Mo  Mo161  1  0.29766745  0.90691444  0.38215421  1
  Mo  Mo162  1  0.50795642  0.49970824  0.61640965  1
  Mo  Mo163  1  0.60780568  0.79921281  0.50584241  1
  Mo  Mo164  1  0.09573285  0.90244576  0.12149905  1
  Mo  Mo165  1  0.30055524  0.50029367  0.35618709  1
  Mo  Mo166  1  0.59250702  0.20118513  0.73878570  1
  Mo  Mo167  1  0.30228729  0.30244076  0.14028680  1
  Mo  Mo168  1  0.69480446  0.90313539  0.86751345  1
  Mo  Mo169  1  0.30009521  0.49286471  0.87020401  1
  Mo  Mo170  1  0.30127136  0.69295768  0.12444597  1
  Mo  Mo171  1  0.49999499  0.50542255  0.89801818  1
  Mo  Mo172  1  0.59140774  0.01321367  0.26935656  1
  Mo  Mo173  1  0.40055069  0.00516969  0.50283914  1
  Mo  Mo174  1  -0.00087180  0.79119954  0.48949135  1
  Mo  Mo175  1  0.79283965  0.39680987  0.23121931  1
  Mo  Mo176  1  0.49413365  0.69996846  0.10467494  1
  Mo  Mo177  1  0.90536517  0.89761521  0.87896668  1
  Mo  Mo178  1  0.90614837  0.89425404  0.39472314  1
  Mo  Mo179  1  0.60544769  0.39886888  -0.00712502  1
  Mo  Mo180  1  0.39533566  0.21240732  0.49454132  1
  Mo  Mo181  1  0.80702865  -0.00085327  0.26458572  1
  Mo  Mo182  1  0.39938093  0.40112444  0.25960101  1
  Mo  Mo183  1  0.89740352  0.29464376  0.36283502  1
  Mo  Mo184  1  0.10357988  0.50178249  0.12803522  1
  Mo  Mo185  1  0.00189035  -0.00564171  0.50482957  1
  Mo  Mo186  1  0.89976931  0.69939136  0.62555137  1
  Mo  Mo187  1  0.10216720  0.70143535  0.85902528  1
  Mo  Mo188  1  0.20210571  0.40388999  0.26004591  1
  Mo  Mo189  1  0.69740002  0.50604687  0.38041608  1
  Mo  Mo190  1  0.10241054  0.29438908  0.86722499  1
  Mo  Mo191  1  -0.00516267  0.39509052  0.26384763  1
  Mo  Mo192  1  -0.00424161  0.79260754  0.76633419  1
  Mo  Mo193  1  0.89943540  0.49345486  0.86361157  1
  Mo  Mo194  1  0.39404181  0.39897810  0.76932490  1
  Mo  Mo195  1  0.50330465  0.10874651  0.12354829  1
  Mo  Mo196  1  0.70152093  0.69944888  0.09995082  1
  Mo  Mo197  1  0.79749379  0.20013744  0.74183264  1
  Mo  Mo198  1  0.80505499  0.79563571  0.76153349  1
  Mo  Mo199  1  0.20265235  0.80467091  0.73570636  1
