# generated using pymatgen
data_HfZrTaTiMo
_symmetry_space_group_name_H-M   'P 1'
_cell_length_a   15.84383538
_cell_length_b   15.83438012
_cell_length_c   15.39630399
_cell_angle_alpha   90.07060625
_cell_angle_beta   90.00861104
_cell_angle_gamma   89.87247730
_symmetry_Int_Tables_number   1
_chemical_formula_structural   HfZrTaTiMo
_chemical_formula_sum   'Hf40 Zr40 Ta40 Ti40 Mo40'
_cell_volume   3862.57081552
_cell_formula_units_Z   40
loop_
 _symmetry_equiv_pos_site_id
 _symmetry_equiv_pos_as_xyz
  1  'x, y, z'
loop_
 _atom_site_type_symbol
 _atom_site_label
 _atom_site_symmetry_multiplicity
 _atom_site_fract_x
 _atom_site_fract_y
 _atom_site_fract_z
 _atom_site_occupancy
  Hf  Hf0  1  0.20389009  0.00171745  -0.01015394  1
  Hf  Hf1  1  0.29679913  0.29081069  0.13212802  1
  Hf  Hf2  1  0.59812826  0.20409622  0.49265231  1
  Hf  Hf3  1  0.00690436  0.39274239  0.01429177  1
  Hf  Hf4  1  0.70348010  0.29176085  0.12655216  1
  Hf  Hf5  1  0.91445032  0.08914650  0.61803566  1
  Hf  Hf6  1  0.30175992  0.08910373  0.38813873  1
  Hf  Hf7  1  0.39928758  0.40776290  0.01831705  1
  Hf  Hf8  1  0.59767854  0.40501805  0.24524749  1
  Hf  Hf9  1  0.09495357  0.68391300  0.14794610  1
  Hf  Hf10  1  0.49205450  0.30861181  0.62825428  1
  Hf  Hf11  1  0.90426806  0.51722709  0.13330817  1
  Hf  Hf12  1  0.49085219  0.69587021  0.36650017  1
  Hf  Hf13  1  0.00439210  0.39792346  0.23990329  1
  Hf  Hf14  1  0.10088484  0.30702712  0.37556484  1
  Hf  Hf15  1  0.39801435  0.41569726  0.49444271  1
  Hf  Hf16  1  0.09820485  0.91595478  0.11921226  1
  Hf  Hf17  1  0.29237319  0.30559377  0.37108051  1
  Hf  Hf18  1  0.09792429  0.89933898  0.86651824  1
  Hf  Hf19  1  0.30075058  0.88980015  0.85466009  1
  Hf  Hf20  1  0.79664798  -0.00652545  0.75069523  1
  Hf  Hf21  1  0.00014120  0.20178202  0.48882311  1
  Hf  Hf22  1  0.80720883  0.19805053  0.75143781  1
  Hf  Hf23  1  0.91527824  0.30058096  0.86625669  1
  Hf  Hf24  1  0.60071897  0.59076106  0.50000664  1
  Hf  Hf25  1  0.09237541  0.69174525  0.63005495  1
  Hf  Hf26  1  0.19556899  0.81049793  0.24754063  1
  Hf  Hf27  1  0.19660119  0.80569532  0.51870088  1
  Hf  Hf28  1  0.80877103  0.39803800  0.01490976  1
  Hf  Hf29  1  0.79443475  0.79431678  0.73784497  1
  Hf  Hf30  1  0.81798636  0.18584507  -0.01614350  1
  Hf  Hf31  1  0.29571824  0.70384085  0.37059426  1
  Hf  Hf32  1  0.68988394  0.89809584  0.11182371  1
  Hf  Hf33  1  0.19649199  0.20292415  0.73752952  1
  Hf  Hf34  1  0.70940021  0.30222309  0.36693364  1
  Hf  Hf35  1  0.60237313  0.18955088  0.25197222  1
  Hf  Hf36  1  0.60439841  0.61202677  0.74919299  1
  Hf  Hf37  1  0.58707471  0.78931908  0.51324841  1
  Hf  Hf38  1  0.21036042  0.59754034  0.50585900  1
  Hf  Hf39  1  0.49230969  0.30227146  0.37155123  1
  Zr  Zr40  1  0.80207274  0.79103425  0.00542152  1
  Zr  Zr41  1  0.39848661  0.18827865  0.25435675  1
  Zr  Zr42  1  0.80326828  0.00315785  -0.00834703  1
  Zr  Zr43  1  0.71337573  0.51194598  0.89006584  1
  Zr  Zr44  1  0.30082802  0.69479909  0.65170698  1
  Zr  Zr45  1  0.90121352  0.89802904  0.87269697  1
  Zr  Zr46  1  0.38758952  0.60606512  0.00691252  1
  Zr  Zr47  1  0.01390056  0.40452146  0.73947276  1
  Zr  Zr48  1  0.70523085  0.30318232  0.62070255  1
  Zr  Zr49  1  0.70283356  0.30441217  0.88302238  1
  Zr  Zr50  1  0.79689084  0.80937523  0.24505880  1
  Zr  Zr51  1  0.59319921  0.01299480  -0.00294082  1
  Zr  Zr52  1  0.69575267  0.89968289  0.39228721  1
  Zr  Zr53  1  0.80500899  0.01041087  0.24852536  1
  Zr  Zr54  1  0.89471322  0.69025020  0.86247935  1
  Zr  Zr55  1  0.49986082  0.09152807  0.61238131  1
  Zr  Zr56  1  0.00512926  0.60347972  -0.00534762  1
  Zr  Zr57  1  0.59918462  0.19424377  0.74909676  1
  Zr  Zr58  1  0.58849687  0.60725753  -0.00149950  1
  Zr  Zr59  1  0.70439230  0.09309004  0.61186733  1
  Zr  Zr60  1  0.48531751  0.90564809  0.38677573  1
  Zr  Zr61  1  0.90016839  0.50365192  0.37101380  1
  Zr  Zr62  1  0.00691205  0.01180185  0.26697362  1
  Zr  Zr63  1  0.10794724  0.50588174  0.37231068  1
  Zr  Zr64  1  0.59092440  0.00090457  0.24919212  1
  Zr  Zr65  1  0.90780056  0.26107091  0.14097188  1
  Zr  Zr66  1  0.29928069  0.30357485  0.87332420  1
  Zr  Zr67  1  0.39170335  0.81159929  0.23705895  1
  Zr  Zr68  1  0.61164289  0.40966035  0.74978084  1
  Zr  Zr69  1  0.00495447  0.79673633  0.00298163  1
  Zr  Zr70  1  0.19076727  0.00800441  0.73907061  1
  Zr  Zr71  1  0.39509636  0.79899193  0.00390246  1
  Zr  Zr72  1  0.39802886  0.18917072  -0.00040492  1
  Zr  Zr73  1  0.70813898  0.69644362  0.37677772  1
  Zr  Zr74  1  0.20297576  0.78677908  0.01003367  1
  Zr  Zr75  1  0.29637057  0.49863401  0.86468082  1
  Zr  Zr76  1  0.59944959  0.41337084  0.49189881  1
  Zr  Zr77  1  0.89834438  0.89920710  0.39655927  1
  Zr  Zr78  1  0.49734393  0.30043427  0.87429993  1
  Zr  Zr79  1  0.80474672  0.40994916  0.50070420  1
  Ta  Ta80  1  0.18782521  0.18589168  0.25561665  1
  Ta  Ta81  1  0.39236746  0.20296944  0.50502717  1
  Ta  Ta82  1  0.80280645  0.40035468  0.24461598  1
  Ta  Ta83  1  0.59428715  0.40495903  0.01314112  1
  Ta  Ta84  1  0.09503905  0.70399292  0.37523305  1
  Ta  Ta85  1  0.59482163  -0.01340867  0.75054771  1
  Ta  Ta86  1  0.70259284  0.50869984  0.12821507  1
  Ta  Ta87  1  -0.00051760  0.80919647  0.25446352  1
  Ta  Ta88  1  0.70481818  0.09497597  0.38711212  1
  Ta  Ta89  1  0.30752317  0.49658604  0.64291124  1
  Ta  Ta90  1  0.49307255  0.50874266  0.64397261  1
  Ta  Ta91  1  0.69749002  0.69382235  0.12539987  1
  Ta  Ta92  1  0.29232883  0.08667285  0.12759030  1
  Ta  Ta93  1  0.29264191  0.69906961  0.85475981  1
  Ta  Ta94  1  0.81054387  0.20307720  0.48917084  1
  Ta  Ta95  1  0.39290689  0.79721390  0.52053635  1
  Ta  Ta96  1  0.49421800  0.49964274  0.86735763  1
  Ta  Ta97  1  0.69881672  0.90071887  0.60846141  1
  Ta  Ta98  1  0.10755743  0.30076532  0.88102466  1
  Ta  Ta99  1  0.39121885  0.19304056  0.73755978  1
  Ta  Ta100  1  0.81083822  0.41047726  0.74079909  1
  Ta  Ta101  1  0.10495621  0.28818919  0.13058770  1
  Ta  Ta102  1  0.10303783  0.49408503  0.88538559  1
  Ta  Ta103  1  0.40043422  -0.00439744  0.73851306  1
  Ta  Ta104  1  -0.00251984  0.80255867  0.73615053  1
  Ta  Ta105  1  0.40078882  0.40756148  0.24067455  1
  Ta  Ta106  1  0.40635140  0.60287995  0.50696793  1
  Ta  Ta107  1  0.59807534  0.80427914  0.73770876  1
  Ta  Ta108  1  0.48953631  0.90799414  0.11285026  1
  Ta  Ta109  1  0.90939562  0.90949865  0.11970467  1
  Ta  Ta110  1  0.68507905  0.88983905  0.88061933  1
  Ta  Ta111  1  0.31057027  0.51106607  0.35706314  1
  Ta  Ta112  1  0.59537519  0.80180159  0.24356833  1
  Ta  Ta113  1  0.90452780  0.69982338  0.37108142  1
  Ta  Ta114  1  0.69460287  0.70803187  0.88160054  1
  Ta  Ta115  1  0.90764029  0.29870122  0.62616721  1
  Ta  Ta116  1  0.89821039  0.70087324  0.14647212  1
  Ta  Ta117  1  0.90357770  0.49753082  0.87808595  1
  Ta  Ta118  1  0.49049714  0.09387457  0.86375024  1
  Ta  Ta119  1  0.19322953  0.19499638  -0.00041232  1
  Ti  Ti120  1  0.80212052  0.59364320  0.73349997  1
  Ti  Ti121  1  0.29598135  0.90585971  0.39207474  1
  Ti  Ti122  1  0.20195260  0.59649271  0.01064556  1
  Ti  Ti123  1  -0.00124424  0.59154916  0.75108386  1
  Ti  Ti124  1  0.19560529  0.39802889  0.73833448  1
  Ti  Ti125  1  0.71467020  0.10713343  0.12498348  1
  Ti  Ti126  1  0.20142970  0.40818085  0.50892800  1
  Ti  Ti127  1  0.01499693  0.18751686  0.74571138  1
  Ti  Ti128  1  0.10252170  0.89908790  0.39070696  1
  Ti  Ti129  1  0.80619413  0.60473974  0.50936003  1
  Ti  Ti130  1  0.50144171  0.29167198  0.12574874  1
  Ti  Ti131  1  0.30110368  0.09848814  0.86659368  1
  Ti  Ti132  1  0.59913598  0.19897329  -0.00016258  1
  Ti  Ti133  1  0.41608466  0.80382578  0.73495293  1
  Ti  Ti134  1  0.30112622  0.30520977  0.62174759  1
  Ti  Ti135  1  0.20552822  -0.00213290  0.25358557  1
  Ti  Ti136  1  0.10930369  0.08976243  0.39656545  1
  Ti  Ti137  1  0.08530364  0.91596654  0.62208931  1
  Ti  Ti138  1  -0.00619616  0.79146195  0.51073768  1
  Ti  Ti139  1  0.10674318  0.69952790  0.85743172  1
  Ti  Ti140  1  0.49740481  0.89970017  0.88298306  1
  Ti  Ti141  1  0.60184298  0.60034133  0.25630299  1
  Ti  Ti142  1  0.70461766  0.69678969  0.61726258  1
  Ti  Ti143  1  0.20199137  0.40877063  0.23628869  1
  Ti  Ti144  1  -0.00241351  0.02492037  -0.01543529  1
  Ti  Ti145  1  0.49691887  0.71071852  0.87003185  1
  Ti  Ti146  1  0.91207744  0.50239140  0.61741697  1
  Ti  Ti147  1  0.18522599  0.58418753  0.74595487  1
  Ti  Ti148  1  0.08653086  0.10842541  0.12414201  1
  Ti  Ti149  1  0.00078824  0.59827580  0.49899439  1
  Ti  Ti150  1  0.20151036  0.20145674  0.50668945  1
  Ti  Ti151  1  0.89743938  0.89827744  0.61507663  1
  Ti  Ti152  1  0.50260294  0.70518806  0.13233520  1
  Ti  Ti153  1  0.29593618  0.09242824  0.61149825  1
  Ti  Ti154  1  0.20041454  0.40478540  0.01723134  1
  Ti  Ti155  1  0.49925474  0.51282584  0.13548063  1
  Ti  Ti156  1  0.49299812  0.09033661  0.39048291  1
  Ti  Ti157  1  0.48560503  0.09234264  0.12276674  1
  Ti  Ti158  1  0.69342826  0.09619887  0.86920223  1
  Ti  Ti159  1  0.09724417  0.30379385  0.60981906  1
  Mo  Mo160  1  0.38767991  -0.00191169  0.24593735  1
  Mo  Mo161  1  0.90996550  0.09854885  0.84850344  1
  Mo  Mo162  1  0.00276210  0.40146683  0.50923971  1
  Mo  Mo163  1  0.80552434  0.19401875  0.27092572  1
  Mo  Mo164  1  0.20324249  0.60144631  0.25044082  1
  Mo  Mo165  1  0.00080003  0.60400779  0.26500823  1
  Mo  Mo166  1  0.39403188  0.00123090  -0.01548916  1
  Mo  Mo167  1  0.00819844  0.19222958  0.27429529  1
  Mo  Mo168  1  0.29497962  0.69913828  0.13971976  1
  Mo  Mo169  1  -0.00199796  0.00080786  0.74896848  1
  Mo  Mo170  1  0.49906177  0.69642619  0.63053434  1
  Mo  Mo171  1  0.70273048  0.50381607  0.35085247  1
  Mo  Mo172  1  0.10316536  0.10506667  0.60611799  1
  Mo  Mo173  1  0.80338840  0.00020090  0.50626660  1
  Mo  Mo174  1  0.00654260  -0.00702430  0.49266901  1
  Mo  Mo175  1  0.79493191  0.60290541  0.25003529  1
  Mo  Mo176  1  0.49962843  0.89927778  0.61894367  1
  Mo  Mo177  1  0.90295381  0.29819171  0.36160298  1
  Mo  Mo178  1  0.90325673  0.69282170  0.62642711  1
  Mo  Mo179  1  0.01042301  0.19562954  -0.01212113  1
  Mo  Mo180  1  0.29913813  0.89786565  0.63706530  1
  Mo  Mo181  1  0.39238843  -0.00778819  0.52000149  1
  Mo  Mo182  1  0.40514774  0.60270429  0.76519058  1
  Mo  Mo183  1  0.89879612  0.09856412  0.39174220  1
  Mo  Mo184  1  0.19781443  -0.00344242  0.51392281  1
  Mo  Mo185  1  0.40052187  0.60535596  0.23396037  1
  Mo  Mo186  1  0.10567363  0.49562853  0.12146701  1
  Mo  Mo187  1  0.90889824  0.09071080  0.12576869  1
  Mo  Mo188  1  0.10166893  0.10860825  0.87536420  1
  Mo  Mo189  1  0.39916071  0.39712018  0.74525381  1
  Mo  Mo190  1  0.59773847  -0.00260784  0.49223789  1
  Mo  Mo191  1  0.49429972  0.50852580  0.35734172  1
  Mo  Mo192  1  0.59208410  0.79875405  0.00580595  1
  Mo  Mo193  1  0.79983349  0.60237163  0.00983332  1
  Mo  Mo194  1  0.70562531  0.50846583  0.63003062  1
  Mo  Mo195  1  0.80416545  0.78995774  0.51858841  1
  Mo  Mo196  1  0.29701785  0.90906461  0.12280817  1
  Mo  Mo197  1  0.10459121  0.49755914  0.61042849  1
  Mo  Mo198  1  0.29584377  0.50500583  0.13826822  1
  Mo  Mo199  1  0.18640249  0.79854085  0.73958718  1
